MODEL 1
REMARK VINA RESULT:    -5.731      0.000      0.000
REMARK INTER + INTRA:          -7.033
REMARK INTER:                  -6.736
REMARK INTRA:                  -0.297
REMARK UNBOUND:                -0.297
REMARK SMILES O=c1c(O)c(-c2ccc(O)cc2)oc2cc(O)cc(O)c12
REMARK SMILES IDX 5 1 3 2 2 3 1 4 21 5 19 6 18 7 16 8 15 9 14 10 13 11 6 12
REMARK SMILES IDX 7 13 8 14 9 15 12 16 11 17 10 18 4 20 20 22 17 24
REMARK H PARENT 10 19 4 21 20 23 17 25
REMARK Flexibility Score: inf
ROOT
ATOM      1  C   UNL     1       1.026  -3.057  22.602  1.00  0.00     0.180 A 
ATOM      2  C   UNL     1       1.887  -2.272  23.392  1.00  0.00     0.208 A 
ATOM      3  C   UNL     1       1.467  -1.888  24.676  1.00  0.00     0.238 A 
ATOM      4  O   UNL     1       2.234  -1.195  25.398  1.00  0.00    -0.285 OA
ATOM      5  C   UNL     1       0.192  -2.276  25.137  1.00  0.00     0.111 A 
ATOM      6  C   UNL     1      -0.307  -1.927  26.416  1.00  0.00     0.134 A 
ATOM      7  C   UNL     1      -1.591  -2.345  26.797  1.00  0.00     0.093 A 
ATOM      8  C   UNL     1      -2.383  -3.099  25.929  1.00  0.00     0.123 A 
ATOM      9  C   UNL     1      -1.895  -3.447  24.666  1.00  0.00     0.094 A 
ATOM     10  C   UNL     1      -0.617  -3.042  24.267  1.00  0.00     0.146 A 
ATOM     11  O   UNL     1      -0.175  -3.391  23.064  1.00  0.00    -0.452 OA
ENDROOT
BRANCH   1  12
ATOM     12  C   UNL     1       1.404  -3.517  21.246  1.00  0.00     0.021 A 
ATOM     13  C   UNL     1       1.014  -2.762  20.126  1.00  0.00     0.016 A 
ATOM     14  C   UNL     1       1.341  -3.188  18.836  1.00  0.00     0.047 A 
ATOM     15  C   UNL     1       2.048  -4.383  18.647  1.00  0.00     0.115 A 
ATOM     16  C   UNL     1       2.096  -4.725  21.048  1.00  0.00     0.016 A 
ATOM     17  C   UNL     1       2.421  -5.150  19.755  1.00  0.00     0.047 A 
BRANCH  15  18
ATOM     18  O   UNL     1       2.379  -4.819  17.366  1.00  0.00    -0.508 OA
ATOM     19  H   UNL     1       1.783  -5.459  16.854  1.00  0.00     0.293 HD
ENDBRANCH  15  18
ENDBRANCH   1  12
BRANCH   2  20
ATOM     20  O   UNL     1       3.125  -1.859  22.893  1.00  0.00    -0.502 OA
ATOM     21  H   UNL     1       3.232  -1.463  21.967  1.00  0.00     0.293 HD
ENDBRANCH   2  20
BRANCH   6  22
ATOM     22  O   UNL     1       0.458  -1.173  27.305  1.00  0.00    -0.507 OA
ATOM     23  H   UNL     1       1.344  -1.508  27.664  1.00  0.00     0.293 HD
ENDBRANCH   6  22
BRANCH   8  24
ATOM     24  O   UNL     1      -3.655  -3.500  26.334  1.00  0.00    -0.508 OA
ATOM     25  H   UNL     1      -3.788  -4.290  26.955  1.00  0.00     0.293 HD
ENDBRANCH   8  24
TORSDOF 5
ENDMDL
MODEL 2
REMARK VINA RESULT:    -5.678      3.762      6.438
REMARK INTER + INTRA:          -6.971
REMARK INTER:                  -6.683
REMARK INTRA:                  -0.288
REMARK UNBOUND:                -0.297
REMARK SMILES O=c1c(O)c(-c2ccc(O)cc2)oc2cc(O)cc(O)c12
REMARK SMILES IDX 5 1 3 2 2 3 1 4 21 5 19 6 18 7 16 8 15 9 14 10 13 11 6 12
REMARK SMILES IDX 7 13 8 14 9 15 12 16 11 17 10 18 4 20 20 22 17 24
REMARK H PARENT 10 19 4 21 20 23 17 25
REMARK Flexibility Score: inf
ROOT
ATOM      1  C   UNL     1      -2.980  -1.383  23.299  1.00  0.00     0.180 A 
ATOM      2  C   UNL     1      -3.077  -2.052  24.534  1.00  0.00     0.208 A 
ATOM      3  C   UNL     1      -1.940  -2.695  25.049  1.00  0.00     0.238 A 
ATOM      4  O   UNL     1      -2.012  -3.288  26.159  1.00  0.00    -0.285 OA
ATOM      5  C   UNL     1      -0.738  -2.677  24.313  1.00  0.00     0.111 A 
ATOM      6  C   UNL     1       0.452  -3.304  24.760  1.00  0.00     0.134 A 
ATOM      7  C   UNL     1       1.607  -3.249  23.965  1.00  0.00     0.093 A 
ATOM      8  C   UNL     1       1.596  -2.583  22.738  1.00  0.00     0.123 A 
ATOM      9  C   UNL     1       0.426  -1.961  22.293  1.00  0.00     0.094 A 
ATOM     10  C   UNL     1      -0.736  -2.003  23.070  1.00  0.00     0.146 A 
ATOM     11  O   UNL     1      -1.833  -1.399  22.627  1.00  0.00    -0.452 OA
ENDROOT
BRANCH   1  12
ATOM     12  C   UNL     1      -4.129  -0.665  22.701  1.00  0.00     0.021 A 
ATOM     13  C   UNL     1      -4.383   0.666  23.074  1.00  0.00     0.016 A 
ATOM     14  C   UNL     1      -5.475   1.355  22.539  1.00  0.00     0.047 A 
ATOM     15  C   UNL     1      -6.337   0.717  21.637  1.00  0.00     0.115 A 
ATOM     16  C   UNL     1      -5.010  -1.306  21.811  1.00  0.00     0.016 A 
ATOM     17  C   UNL     1      -6.103  -0.614  21.278  1.00  0.00     0.047 A 
BRANCH  15  18
ATOM     18  O   UNL     1      -7.429   1.394  21.098  1.00  0.00    -0.508 OA
ATOM     19  H   UNL     1      -8.378   1.170  21.373  1.00  0.00     0.293 HD
ENDBRANCH  15  18
ENDBRANCH   1  12
BRANCH   2  20
ATOM     20  O   UNL     1      -4.295  -2.097  25.219  1.00  0.00    -0.502 OA
ATOM     21  H   UNL     1      -4.647  -2.947  25.644  1.00  0.00     0.293 HD
ENDBRANCH   2  20
BRANCH   6  22
ATOM     22  O   UNL     1       0.494  -3.979  25.980  1.00  0.00    -0.507 OA
ATOM     23  H   UNL     1       0.956  -3.586  26.791  1.00  0.00     0.293 HD
ENDBRANCH   6  22
BRANCH   8  24
ATOM     24  O   UNL     1       2.757  -2.543  21.968  1.00  0.00    -0.508 OA
ATOM     25  H   UNL     1       3.233  -3.391  21.684  1.00  0.00     0.293 HD
ENDBRANCH   8  24
TORSDOF 5
ENDMDL
MODEL 3
REMARK VINA RESULT:    -5.601      2.691      4.137
REMARK INTER + INTRA:          -6.881
REMARK INTER:                  -6.721
REMARK INTRA:                  -0.160
REMARK UNBOUND:                -0.297
REMARK SMILES O=c1c(O)c(-c2ccc(O)cc2)oc2cc(O)cc(O)c12
REMARK SMILES IDX 5 1 3 2 2 3 1 4 21 5 19 6 18 7 16 8 15 9 14 10 13 11 6 12
REMARK SMILES IDX 7 13 8 14 9 15 12 16 11 17 10 18 4 20 20 22 17 24
REMARK H PARENT 10 19 4 21 20 23 17 25
REMARK Flexibility Score: inf
ROOT
ATOM      1  C   UNL     1       0.870  -3.610  25.323  1.00  0.00     0.180 A 
ATOM      2  C   UNL     1      -0.399  -3.055  25.578  1.00  0.00     0.208 A 
ATOM      3  C   UNL     1      -0.748  -2.740  26.901  1.00  0.00     0.238 A 
ATOM      4  O   UNL     1      -1.877  -2.233  27.141  1.00  0.00    -0.285 OA
ATOM      5  C   UNL     1       0.164  -3.004  27.943  1.00  0.00     0.111 A 
ATOM      6  C   UNL     1      -0.112  -2.720  29.303  1.00  0.00     0.134 A 
ATOM      7  C   UNL     1       0.846  -3.020  30.284  1.00  0.00     0.093 A 
ATOM      8  C   UNL     1       2.068  -3.597  29.934  1.00  0.00     0.123 A 
ATOM      9  C   UNL     1       2.347  -3.879  28.593  1.00  0.00     0.094 A 
ATOM     10  C   UNL     1       1.407  -3.586  27.600  1.00  0.00     0.146 A 
ATOM     11  O   UNL     1       1.698  -3.858  26.333  1.00  0.00    -0.452 OA
ENDROOT
BRANCH   1  12
ATOM     12  C   UNL     1       1.318  -3.951  23.953  1.00  0.00     0.021 A 
ATOM     13  C   UNL     1       1.623  -5.286  23.638  1.00  0.00     0.016 A 
ATOM     14  C   UNL     1       2.070  -5.628  22.358  1.00  0.00     0.047 A 
ATOM     15  C   UNL     1       2.232  -4.636  21.382  1.00  0.00     0.115 A 
ATOM     16  C   UNL     1       1.503  -2.959  22.974  1.00  0.00     0.016 A 
ATOM     17  C   UNL     1       1.950  -3.303  21.695  1.00  0.00     0.047 A 
BRANCH  15  18
ATOM     18  O   UNL     1       2.677  -4.965  20.102  1.00  0.00    -0.508 OA
ATOM     19  H   UNL     1       3.614  -5.315  19.942  1.00  0.00     0.293 HD
ENDBRANCH  15  18
ENDBRANCH   1  12
BRANCH   2  20
ATOM     20  O   UNL     1      -1.304  -2.850  24.533  1.00  0.00    -0.502 OA
ATOM     21  H   UNL     1      -2.282  -2.647  24.695  1.00  0.00     0.293 HD
ENDBRANCH   2  20
BRANCH   6  22
ATOM     22  O   UNL     1      -1.324  -2.146  29.686  1.00  0.00    -0.507 OA
ATOM     23  H   UNL     1      -1.484  -1.148  29.625  1.00  0.00     0.293 HD
ENDBRANCH   6  22
BRANCH   8  24
ATOM     24  O   UNL     1       3.001  -3.886  30.928  1.00  0.00    -0.508 OA
ATOM     25  H   UNL     1       2.719  -4.052  31.887  1.00  0.00     0.293 HD
ENDBRANCH   8  24
TORSDOF 5
ENDMDL
MODEL 4
REMARK VINA RESULT:    -5.598      4.625      6.211
REMARK INTER + INTRA:          -6.878
REMARK INTER:                  -6.593
REMARK INTRA:                  -0.284
REMARK UNBOUND:                -0.297
REMARK SMILES O=c1c(O)c(-c2ccc(O)cc2)oc2cc(O)cc(O)c12
REMARK SMILES IDX 5 1 3 2 2 3 1 4 21 5 19 6 18 7 16 8 15 9 14 10 13 11 6 12
REMARK SMILES IDX 7 13 8 14 9 15 12 16 11 17 10 18 4 20 20 22 17 24
REMARK H PARENT 10 19 4 21 20 23 17 25
REMARK Flexibility Score: inf
ROOT
ATOM      1  C   UNL     1      -2.813  -0.589  21.452  1.00  0.00     0.180 A 
ATOM      2  C   UNL     1      -3.350  -0.922  22.710  1.00  0.00     0.208 A 
ATOM      3  C   UNL     1      -2.527  -1.561  23.652  1.00  0.00     0.238 A 
ATOM      4  O   UNL     1      -2.993  -1.854  24.786  1.00  0.00    -0.285 OA
ATOM      5  C   UNL     1      -1.195  -1.874  23.313  1.00  0.00     0.111 A 
ATOM      6  C   UNL     1      -0.301  -2.520  24.202  1.00  0.00     0.134 A 
ATOM      7  C   UNL     1       1.008  -2.805  23.786  1.00  0.00     0.093 A 
ATOM      8  C   UNL     1       1.440  -2.459  22.504  1.00  0.00     0.123 A 
ATOM      9  C   UNL     1       0.564  -1.820  21.623  1.00  0.00     0.094 A 
ATOM     10  C   UNL     1      -0.745  -1.526  22.018  1.00  0.00     0.146 A 
ATOM     11  O   UNL     1      -1.557  -0.913  21.163  1.00  0.00    -0.452 OA
ENDROOT
BRANCH   1  12
ATOM     12  C   UNL     1      -3.612   0.102  20.414  1.00  0.00     0.021 A 
ATOM     13  C   UNL     1      -4.404  -0.655  19.533  1.00  0.00     0.016 A 
ATOM     14  C   UNL     1      -5.149  -0.025  18.532  1.00  0.00     0.047 A 
ATOM     15  C   UNL     1      -5.099   1.367  18.388  1.00  0.00     0.115 A 
ATOM     16  C   UNL     1      -3.551   1.498  20.250  1.00  0.00     0.016 A 
ATOM     17  C   UNL     1      -4.297   2.125  19.247  1.00  0.00     0.047 A 
BRANCH  15  18
ATOM     18  O   UNL     1      -5.837   2.006  17.393  1.00  0.00    -0.508 OA
ATOM     19  H   UNL     1      -6.330   2.872  17.574  1.00  0.00     0.293 HD
ENDBRANCH  15  18
ENDBRANCH   1  12
BRANCH   2  20
ATOM     20  O   UNL     1      -4.688  -0.647  23.003  1.00  0.00    -0.502 OA
ATOM     21  H   UNL     1      -5.345  -1.369  23.273  1.00  0.00     0.293 HD
ENDBRANCH   2  20
BRANCH   6  22
ATOM     22  O   UNL     1      -0.703  -2.881  25.488  1.00  0.00    -0.507 OA
ATOM     23  H   UNL     1      -1.592  -3.335  25.662  1.00  0.00     0.293 HD
ENDBRANCH   6  22
BRANCH   8  24
ATOM     24  O   UNL     1       2.746  -2.754  22.117  1.00  0.00    -0.508 OA
ATOM     25  H   UNL     1       3.493  -2.077  22.217  1.00  0.00     0.293 HD
ENDBRANCH   8  24
TORSDOF 5
ENDMDL
MODEL 5
REMARK VINA RESULT:    -5.432      1.826      2.481
REMARK INTER + INTRA:          -6.682
REMARK INTER:                  -6.436
REMARK INTRA:                  -0.246
REMARK UNBOUND:                -0.297
REMARK SMILES O=c1c(O)c(-c2ccc(O)cc2)oc2cc(O)cc(O)c12
REMARK SMILES IDX 5 1 3 2 2 3 1 4 21 5 19 6 18 7 16 8 15 9 14 10 13 11 6 12
REMARK SMILES IDX 7 13 8 14 9 15 12 16 11 17 10 18 4 20 20 22 17 24
REMARK H PARENT 10 19 4 21 20 23 17 25
REMARK Flexibility Score: inf
ROOT
ATOM      1  C   UNL     1       0.797  -3.191  24.957  1.00  0.00     0.180 A 
ATOM      2  C   UNL     1       1.613  -2.876  26.061  1.00  0.00     0.208 A 
ATOM      3  C   UNL     1       1.016  -2.343  27.215  1.00  0.00     0.238 A 
ATOM      4  O   UNL     1       1.734  -2.067  28.214  1.00  0.00    -0.285 OA
ATOM      5  C   UNL     1      -0.375  -2.117  27.238  1.00  0.00     0.111 A 
ATOM      6  C   UNL     1      -1.053  -1.580  28.360  1.00  0.00     0.134 A 
ATOM      7  C   UNL     1      -2.440  -1.376  28.301  1.00  0.00     0.093 A 
ATOM      8  C   UNL     1      -3.159  -1.696  27.148  1.00  0.00     0.123 A 
ATOM      9  C   UNL     1      -2.496  -2.227  26.038  1.00  0.00     0.094 A 
ATOM     10  C   UNL     1      -1.114  -2.439  26.076  1.00  0.00     0.146 A 
ATOM     11  O   UNL     1      -0.509  -2.950  25.010  1.00  0.00    -0.452 OA
ENDROOT
BRANCH   1  12
ATOM     12  C   UNL     1       1.350  -3.773  23.712  1.00  0.00     0.021 A 
ATOM     13  C   UNL     1       1.431  -2.980  22.555  1.00  0.00     0.016 A 
ATOM     14  C   UNL     1       1.928  -3.515  21.363  1.00  0.00     0.047 A 
ATOM     15  C   UNL     1       2.336  -4.854  21.309  1.00  0.00     0.115 A 
ATOM     16  C   UNL     1       1.742  -5.122  23.645  1.00  0.00     0.016 A 
ATOM     17  C   UNL     1       2.238  -5.655  22.451  1.00  0.00     0.047 A 
BRANCH  15  18
ATOM     18  O   UNL     1       2.832  -5.398  20.126  1.00  0.00    -0.508 OA
ATOM     19  H   UNL     1       2.312  -6.093  19.604  1.00  0.00     0.293 HD
ENDBRANCH  15  18
ENDBRANCH   1  12
BRANCH   2  20
ATOM     20  O   UNL     1       2.996  -3.063  25.994  1.00  0.00    -0.502 OA
ATOM     21  H   UNL     1       3.548  -3.331  26.801  1.00  0.00     0.293 HD
ENDBRANCH   2  20
BRANCH   6  22
ATOM     22  O   UNL     1      -0.363  -1.248  29.526  1.00  0.00    -0.507 OA
ATOM     23  H   UNL     1       0.055  -0.335  29.657  1.00  0.00     0.293 HD
ENDBRANCH   6  22
BRANCH   8  24
ATOM     24  O   UNL     1      -4.536  -1.483  27.116  1.00  0.00    -0.508 OA
ATOM     25  H   UNL     1      -5.002  -0.929  27.825  1.00  0.00     0.293 HD
ENDBRANCH   8  24
TORSDOF 5
ENDMDL
MODEL 6
REMARK VINA RESULT:    -5.350      4.285      5.357
REMARK INTER + INTRA:          -6.586
REMARK INTER:                  -6.335
REMARK INTRA:                  -0.251
REMARK UNBOUND:                -0.297
REMARK SMILES O=c1c(O)c(-c2ccc(O)cc2)oc2cc(O)cc(O)c12
REMARK SMILES IDX 5 1 3 2 2 3 1 4 21 5 19 6 18 7 16 8 15 9 14 10 13 11 6 12
REMARK SMILES IDX 7 13 8 14 9 15 12 16 11 17 10 18 4 20 20 22 17 24
REMARK H PARENT 10 19 4 21 20 23 17 25
REMARK Flexibility Score: inf
ROOT
ATOM      1  C   UNL     1      -1.960  -0.865  21.213  1.00  0.00     0.180 A 
ATOM      2  C   UNL     1      -0.690  -1.228  20.723  1.00  0.00     0.208 A 
ATOM      3  C   UNL     1       0.156  -1.998  21.537  1.00  0.00     0.238 A 
ATOM      4  O   UNL     1       1.290  -2.339  21.106  1.00  0.00    -0.285 OA
ATOM      5  C   UNL     1      -0.271  -2.372  22.828  1.00  0.00     0.111 A 
ATOM      6  C   UNL     1       0.522  -3.143  23.712  1.00  0.00     0.134 A 
ATOM      7  C   UNL     1       0.029  -3.467  24.985  1.00  0.00     0.093 A 
ATOM      8  C   UNL     1      -1.236  -3.036  25.390  1.00  0.00     0.123 A 
ATOM      9  C   UNL     1      -2.024  -2.275  24.522  1.00  0.00     0.094 A 
ATOM     10  C   UNL     1      -1.551  -1.942  23.248  1.00  0.00     0.146 A 
ATOM     11  O   UNL     1      -2.322  -1.223  22.440  1.00  0.00    -0.452 OA
ENDROOT
BRANCH   1  12
ATOM     12  C   UNL     1      -2.915  -0.071  20.406  1.00  0.00     0.021 A 
ATOM     13  C   UNL     1      -3.954  -0.726  19.723  1.00  0.00     0.016 A 
ATOM     14  C   UNL     1      -4.854   0.001  18.938  1.00  0.00     0.047 A 
ATOM     15  C   UNL     1      -4.717   1.390  18.813  1.00  0.00     0.115 A 
ATOM     16  C   UNL     1      -2.772   1.321  20.260  1.00  0.00     0.016 A 
ATOM     17  C   UNL     1      -3.673   2.045  19.474  1.00  0.00     0.047 A 
BRANCH  15  18
ATOM     18  O   UNL     1      -5.607   2.125  18.033  1.00  0.00    -0.508 OA
ATOM     19  H   UNL     1      -6.576   2.243  18.304  1.00  0.00     0.293 HD
ENDBRANCH  15  18
ENDBRANCH   1  12
BRANCH   2  20
ATOM     20  O   UNL     1      -0.271  -0.802  19.460  1.00  0.00    -0.502 OA
ATOM     21  H   UNL     1      -0.773  -0.100  18.929  1.00  0.00     0.293 HD
ENDBRANCH   2  20
BRANCH   6  22
ATOM     22  O   UNL     1       1.790  -3.588  23.338  1.00  0.00    -0.507 OA
ATOM     23  H   UNL     1       1.928  -4.476  22.872  1.00  0.00     0.293 HD
ENDBRANCH   6  22
BRANCH   8  24
ATOM     24  O   UNL     1      -1.701  -3.371  26.660  1.00  0.00    -0.508 OA
ATOM     25  H   UNL     1      -2.485  -2.887  27.082  1.00  0.00     0.293 HD
ENDBRANCH   8  24
TORSDOF 5
ENDMDL
MODEL 7
REMARK VINA RESULT:    -5.277      4.579      6.066
REMARK INTER + INTRA:          -6.499
REMARK INTER:                  -6.205
REMARK INTRA:                  -0.295
REMARK UNBOUND:                -0.297
REMARK SMILES O=c1c(O)c(-c2ccc(O)cc2)oc2cc(O)cc(O)c12
REMARK SMILES IDX 5 1 3 2 2 3 1 4 21 5 19 6 18 7 16 8 15 9 14 10 13 11 6 12
REMARK SMILES IDX 7 13 8 14 9 15 12 16 11 17 10 18 4 20 20 22 17 24
REMARK H PARENT 10 19 4 21 20 23 17 25
REMARK Flexibility Score: inf
ROOT
ATOM      1  C   UNL     1      -3.943  -0.517  22.634  1.00  0.00     0.180 A 
ATOM      2  C   UNL     1      -4.721  -0.071  23.720  1.00  0.00     0.208 A 
ATOM      3  C   UNL     1      -4.369  -0.477  25.018  1.00  0.00     0.238 A 
ATOM      4  O   UNL     1      -5.051  -0.076  26.000  1.00  0.00    -0.285 OA
ATOM      5  C   UNL     1      -3.265  -1.333  25.204  1.00  0.00     0.111 A 
ATOM      6  C   UNL     1      -2.847  -1.791  26.478  1.00  0.00     0.134 A 
ATOM      7  C   UNL     1      -1.742  -2.650  26.579  1.00  0.00     0.093 A 
ATOM      8  C   UNL     1      -1.050  -3.059  25.437  1.00  0.00     0.123 A 
ATOM      9  C   UNL     1      -1.457  -2.609  24.178  1.00  0.00     0.094 A 
ATOM     10  C   UNL     1      -2.555  -1.752  24.055  1.00  0.00     0.146 A 
ATOM     11  O   UNL     1      -2.918  -1.335  22.847  1.00  0.00    -0.452 OA
ENDROOT
BRANCH   1  12
ATOM     12  C   UNL     1      -4.240  -0.117  21.239  1.00  0.00     0.021 A 
ATOM     13  C   UNL     1      -5.099  -0.911  20.460  1.00  0.00     0.016 A 
ATOM     14  C   UNL     1      -5.375  -0.565  19.134  1.00  0.00     0.047 A 
ATOM     15  C   UNL     1      -4.783   0.570  18.565  1.00  0.00     0.115 A 
ATOM     16  C   UNL     1      -3.633   1.009  20.654  1.00  0.00     0.016 A 
ATOM     17  C   UNL     1      -3.910   1.352  19.327  1.00  0.00     0.047 A 
BRANCH  15  18
ATOM     18  O   UNL     1      -5.050   0.924  17.244  1.00  0.00    -0.508 OA
ATOM     19  H   UNL     1      -5.493   0.277  16.602  1.00  0.00     0.293 HD
ENDBRANCH  15  18
ENDBRANCH   1  12
BRANCH   2  20
ATOM     20  O   UNL     1      -5.841   0.736  23.504  1.00  0.00    -0.502 OA
ATOM     21  H   UNL     1      -6.576   0.482  22.856  1.00  0.00     0.293 HD
ENDBRANCH   2  20
BRANCH   6  22
ATOM     22  O   UNL     1      -3.518  -1.402  27.637  1.00  0.00    -0.507 OA
ATOM     23  H   UNL     1      -3.904  -2.081  28.283  1.00  0.00     0.293 HD
ENDBRANCH   6  22
BRANCH   8  24
ATOM     24  O   UNL     1       0.044  -3.912  25.567  1.00  0.00    -0.508 OA
ATOM     25  H   UNL     1       0.863  -3.646  26.100  1.00  0.00     0.293 HD
ENDBRANCH   8  24
TORSDOF 5
ENDMDL
MODEL 8
REMARK VINA RESULT:    -5.259      2.426      6.492
REMARK INTER + INTRA:          -6.479
REMARK INTER:                  -6.496
REMARK INTRA:                   0.017
REMARK UNBOUND:                -0.297
REMARK SMILES O=c1c(O)c(-c2ccc(O)cc2)oc2cc(O)cc(O)c12
REMARK SMILES IDX 5 1 3 2 2 3 1 4 21 5 19 6 18 7 16 8 15 9 14 10 13 11 6 12
REMARK SMILES IDX 7 13 8 14 9 15 12 16 11 17 10 18 4 20 20 22 17 24
REMARK H PARENT 10 19 4 21 20 23 17 25
REMARK Flexibility Score: inf
ROOT
ATOM      1  C   UNL     1       1.680  -3.415  23.786  1.00  0.00     0.180 A 
ATOM      2  C   UNL     1       2.210  -4.453  22.997  1.00  0.00     0.208 A 
ATOM      3  C   UNL     1       2.075  -4.381  21.601  1.00  0.00     0.238 A 
ATOM      4  O   UNL     1       2.556  -5.299  20.883  1.00  0.00    -0.285 OA
ATOM      5  C   UNL     1       1.397  -3.288  21.023  1.00  0.00     0.111 A 
ATOM      6  C   UNL     1       1.215  -3.142  19.626  1.00  0.00     0.134 A 
ATOM      7  C   UNL     1       0.521  -2.029  19.128  1.00  0.00     0.093 A 
ATOM      8  C   UNL     1       0.006  -1.064  19.996  1.00  0.00     0.123 A 
ATOM      9  C   UNL     1       0.184  -1.202  21.376  1.00  0.00     0.094 A 
ATOM     10  C   UNL     1       0.874  -2.303  21.892  1.00  0.00     0.146 A 
ATOM     11  O   UNL     1       1.034  -2.407  23.207  1.00  0.00    -0.452 OA
ENDROOT
BRANCH   1  12
ATOM     12  C   UNL     1       1.799  -3.410  25.262  1.00  0.00     0.021 A 
ATOM     13  C   UNL     1       0.668  -3.122  26.046  1.00  0.00     0.016 A 
ATOM     14  C   UNL     1       0.762  -3.090  27.440  1.00  0.00     0.047 A 
ATOM     15  C   UNL     1       1.991  -3.330  28.068  1.00  0.00     0.115 A 
ATOM     16  C   UNL     1       3.033  -3.629  25.899  1.00  0.00     0.016 A 
ATOM     17  C   UNL     1       3.125  -3.596  27.294  1.00  0.00     0.047 A 
BRANCH  15  18
ATOM     18  O   UNL     1       2.098  -3.300  29.457  1.00  0.00    -0.508 OA
ATOM     19  H   UNL     1       2.358  -4.124  29.986  1.00  0.00     0.293 HD
ENDBRANCH  15  18
ENDBRANCH   1  12
BRANCH   2  20
ATOM     20  O   UNL     1       2.834  -5.550  23.598  1.00  0.00    -0.502 OA
ATOM     21  H   UNL     1       3.296  -6.273  23.060  1.00  0.00     0.293 HD
ENDBRANCH   2  20
BRANCH   6  22
ATOM     22  O   UNL     1       1.715  -4.090  18.733  1.00  0.00    -0.507 OA
ATOM     23  H   UNL     1       2.403  -3.849  18.029  1.00  0.00     0.293 HD
ENDBRANCH   6  22
BRANCH   8  24
ATOM     24  O   UNL     1      -0.680   0.032  19.475  1.00  0.00    -0.508 OA
ATOM     25  H   UNL     1      -1.692   0.051  19.432  1.00  0.00     0.293 HD
ENDBRANCH   8  24
TORSDOF 5
ENDMDL
MODEL 9
REMARK VINA RESULT:    -5.152      3.067      5.370
REMARK INTER + INTRA:          -6.353
REMARK INTER:                  -6.081
REMARK INTRA:                  -0.273
REMARK UNBOUND:                -0.297
REMARK SMILES O=c1c(O)c(-c2ccc(O)cc2)oc2cc(O)cc(O)c12
REMARK SMILES IDX 5 1 3 2 2 3 1 4 21 5 19 6 18 7 16 8 15 9 14 10 13 11 6 12
REMARK SMILES IDX 7 13 8 14 9 15 12 16 11 17 10 18 4 20 20 22 17 24
REMARK H PARENT 10 19 4 21 20 23 17 25
REMARK Flexibility Score: inf
ROOT
ATOM      1  C   UNL     1      -1.402  -1.940  23.970  1.00  0.00     0.180 A 
ATOM      2  C   UNL     1      -0.876  -1.169  25.024  1.00  0.00     0.208 A 
ATOM      3  C   UNL     1       0.351  -1.548  25.594  1.00  0.00     0.238 A 
ATOM      4  O   UNL     1       0.838  -0.860  26.531  1.00  0.00    -0.285 OA
ATOM      5  C   UNL     1       1.015  -2.697  25.116  1.00  0.00     0.111 A 
ATOM      6  C   UNL     1       2.251  -3.148  25.639  1.00  0.00     0.134 A 
ATOM      7  C   UNL     1       2.845  -4.307  25.115  1.00  0.00     0.093 A 
ATOM      8  C   UNL     1       2.229  -5.020  24.085  1.00  0.00     0.123 A 
ATOM      9  C   UNL     1       1.009  -4.579  23.565  1.00  0.00     0.094 A 
ATOM     10  C   UNL     1       0.401  -3.426  24.072  1.00  0.00     0.146 A 
ATOM     11  O   UNL     1      -0.756  -3.025  23.556  1.00  0.00    -0.452 OA
ENDROOT
BRANCH   1  12
ATOM     12  C   UNL     1      -2.680  -1.594  23.305  1.00  0.00     0.021 A 
ATOM     13  C   UNL     1      -2.661  -0.830  22.125  1.00  0.00     0.016 A 
ATOM     14  C   UNL     1      -3.855  -0.472  21.494  1.00  0.00     0.047 A 
ATOM     15  C   UNL     1      -5.085  -0.859  22.042  1.00  0.00     0.115 A 
ATOM     16  C   UNL     1      -3.919  -1.961  23.861  1.00  0.00     0.016 A 
ATOM     17  C   UNL     1      -5.112  -1.600  23.228  1.00  0.00     0.047 A 
BRANCH  15  18
ATOM     18  O   UNL     1      -6.282  -0.507  21.422  1.00  0.00    -0.508 OA
ATOM     19  H   UNL     1      -7.169  -0.886  21.731  1.00  0.00     0.293 HD
ENDBRANCH  15  18
ENDBRANCH   1  12
BRANCH   2  20
ATOM     20  O   UNL     1      -1.578  -0.065  25.512  1.00  0.00    -0.502 OA
ATOM     21  H   UNL     1      -1.184   0.572  26.194  1.00  0.00     0.293 HD
ENDBRANCH   2  20
BRANCH   6  22
ATOM     22  O   UNL     1       2.891  -2.459  26.669  1.00  0.00    -0.507 OA
ATOM     23  H   UNL     1       3.665  -2.864  27.182  1.00  0.00     0.293 HD
ENDBRANCH   6  22
BRANCH   8  24
ATOM     24  O   UNL     1       2.841  -6.168  23.584  1.00  0.00    -0.508 OA
ATOM     25  H   UNL     1       3.462  -6.130  22.784  1.00  0.00     0.293 HD
ENDBRANCH   8  24
TORSDOF 5
ENDMDL
