MODEL 1
REMARK VINA RESULT:    -3.786      0.000      0.000
REMARK INTER + INTRA:          -4.817
REMARK INTER:                  -4.561
REMARK INTRA:                  -0.256
REMARK UNBOUND:                -0.256
REMARK SMILES NC(=O)C[C@H]([NH3+])C(=O)[O-]
REMARK SMILES IDX 4 1 5 2 6 3 7 7 8 8 9 9 2 10 3 11 1 12
REMARK H PARENT 6 4 6 5 6 6 1 13 1 14
REMARK Flexibility Score: inf
ROOT
ATOM      1  C   UNL     1     174.633 162.327 169.144  1.00  0.00     0.171 C 
ENDROOT
BRANCH   1   2
ATOM      2  C   UNL     1     174.265 162.211 167.649  1.00  0.00     0.237 C 
BRANCH   2   3
ATOM      3  N   UNL     1     175.127 163.053 166.807  1.00  0.00    -0.350 N 
ATOM      4  H   UNL     1     174.591 163.891 166.486  1.00  0.00     0.345 HD
ATOM      5  H   UNL     1     175.973 163.373 167.333  1.00  0.00     0.345 HD
ATOM      6  H   UNL     1     175.431 162.515 165.964  1.00  0.00     0.345 HD
ENDBRANCH   2   3
BRANCH   2   7
ATOM      7  C   UNL     1     172.808 162.520 167.415  1.00  0.00     0.100 C 
ATOM      8  O   UNL     1     171.928 161.682 167.745  1.00  0.00    -0.544 OA
ATOM      9  O   UNL     1     172.419 163.746 166.888  1.00  0.00    -0.544 OA
ENDBRANCH   2   7
ENDBRANCH   1   2
BRANCH   1  10
ATOM     10  C   UNL     1     175.800 161.465 169.537  1.00  0.00     0.223 C 
ATOM     11  O   UNL     1     176.557 160.991 168.649  1.00  0.00    -0.275 OA
ATOM     12  N   UNL     1     176.046 161.160 170.911  1.00  0.00    -0.369 N 
ATOM     13  H   UNL     1     176.852 160.552 171.179  1.00  0.00     0.159 HD
ATOM     14  H   UNL     1     175.424 161.537 171.660  1.00  0.00     0.159 HD
ENDBRANCH   1  10
TORSDOF 4
ENDMDL
MODEL 2
REMARK VINA RESULT:    -3.731     12.436     13.306
REMARK INTER + INTRA:          -4.750
REMARK INTER:                  -4.412
REMARK INTRA:                  -0.338
REMARK UNBOUND:                -0.256
REMARK SMILES NC(=O)C[C@H]([NH3+])C(=O)[O-]
REMARK SMILES IDX 4 1 5 2 6 3 7 7 8 8 9 9 2 10 3 11 1 12
REMARK H PARENT 6 4 6 5 6 6 1 13 1 14
REMARK Flexibility Score: inf
ROOT
ATOM      1  C   UNL     1     176.521 173.584 168.655  1.00  0.00     0.171 C 
ENDROOT
BRANCH   1   2
ATOM      2  C   UNL     1     176.642 174.178 170.075  1.00  0.00     0.237 C 
BRANCH   2   3
ATOM      3  N   UNL     1     175.752 175.331 170.263  1.00  0.00    -0.350 N 
ATOM      4  H   UNL     1     175.201 175.209 171.143  1.00  0.00     0.345 HD
ATOM      5  H   UNL     1     176.295 176.222 170.324  1.00  0.00     0.345 HD
ATOM      6  H   UNL     1     175.081 175.394 169.463  1.00  0.00     0.345 HD
ENDBRANCH   2   3
BRANCH   2   7
ATOM      7  C   UNL     1     178.071 174.534 170.402  1.00  0.00     0.100 C 
ATOM      8  O   UNL     1     178.713 173.849 171.241  1.00  0.00    -0.544 OA
ATOM      9  O   UNL     1     178.707 175.582 169.748  1.00  0.00    -0.544 OA
ENDBRANCH   2   7
ENDBRANCH   1   2
BRANCH   1  10
ATOM     10  C   UNL     1     175.757 174.465 167.706  1.00  0.00     0.223 C 
ATOM     11  O   UNL     1     176.141 175.647 167.502  1.00  0.00    -0.275 OA
ATOM     12  N   UNL     1     174.587 173.978 167.046  1.00  0.00    -0.369 N 
ATOM     13  H   UNL     1     174.054 174.597 166.396  1.00  0.00     0.159 HD
ATOM     14  H   UNL     1     174.251 173.004 167.210  1.00  0.00     0.159 HD
ENDBRANCH   1  10
TORSDOF 4
ENDMDL
MODEL 3
REMARK VINA RESULT:    -3.729      2.655      3.081
REMARK INTER + INTRA:          -4.748
REMARK INTER:                  -4.631
REMARK INTRA:                  -0.117
REMARK UNBOUND:                -0.256
REMARK SMILES NC(=O)C[C@H]([NH3+])C(=O)[O-]
REMARK SMILES IDX 4 1 5 2 6 3 7 7 8 8 9 9 2 10 3 11 1 12
REMARK H PARENT 6 4 6 5 6 6 1 13 1 14
REMARK Flexibility Score: inf
ROOT
ATOM      1  C   UNL     1     172.121 161.783 167.568  1.00  0.00     0.171 C 
ENDROOT
BRANCH   1   2
ATOM      2  C   UNL     1     172.945 162.638 166.582  1.00  0.00     0.237 C 
BRANCH   2   3
ATOM      3  N   UNL     1     172.625 164.067 166.697  1.00  0.00    -0.350 N 
ATOM      4  H   UNL     1     172.050 164.365 165.876  1.00  0.00     0.345 HD
ATOM      5  H   UNL     1     172.091 164.265 167.574  1.00  0.00     0.345 HD
ATOM      6  H   UNL     1     173.507 164.628 166.700  1.00  0.00     0.345 HD
ENDBRANCH   2   3
BRANCH   2   7
ATOM      7  C   UNL     1     172.778 162.155 165.162  1.00  0.00     0.100 C 
ATOM      8  O   UNL     1     173.322 162.785 164.217  1.00  0.00    -0.544 OA
ATOM      9  O   UNL     1     172.071 160.991 164.889  1.00  0.00    -0.544 OA
ENDBRANCH   2   7
ENDBRANCH   1   2
BRANCH   1  10
ATOM     10  C   UNL     1     172.799 161.587 168.895  1.00  0.00     0.223 C 
ATOM     11  O   UNL     1     174.004 161.924 169.039  1.00  0.00    -0.275 OA
ATOM     12  N   UNL     1     172.094 161.002 169.991  1.00  0.00    -0.369 N 
ATOM     13  H   UNL     1     172.571 160.859 170.908  1.00  0.00     0.159 HD
ATOM     14  H   UNL     1     171.097 160.709 169.887  1.00  0.00     0.159 HD
ENDBRANCH   1  10
TORSDOF 4
ENDMDL
MODEL 4
REMARK VINA RESULT:    -3.702      1.993      4.012
REMARK INTER + INTRA:          -4.716
REMARK INTER:                  -4.608
REMARK INTRA:                  -0.108
REMARK UNBOUND:                -0.256
REMARK SMILES NC(=O)C[C@H]([NH3+])C(=O)[O-]
REMARK SMILES IDX 4 1 5 2 6 3 7 7 8 8 9 9 2 10 3 11 1 12
REMARK H PARENT 6 4 6 5 6 6 1 13 1 14
REMARK Flexibility Score: inf
ROOT
ATOM      1  C   UNL     1     174.432 162.474 169.404  1.00  0.00     0.171 C 
ENDROOT
BRANCH   1   2
ATOM      2  C   UNL     1     175.666 161.547 169.400  1.00  0.00     0.237 C 
BRANCH   2   3
ATOM      3  N   UNL     1     176.047 161.138 170.759  1.00  0.00    -0.350 N 
ATOM      4  H   UNL     1     175.192 161.073 171.357  1.00  0.00     0.345 HD
ATOM      5  H   UNL     1     176.528 160.209 170.753  1.00  0.00     0.345 HD
ATOM      6  H   UNL     1     176.686 161.852 171.177  1.00  0.00     0.345 HD
ENDBRANCH   2   3
BRANCH   2   7
ATOM      7  C   UNL     1     176.828 162.181 168.676  1.00  0.00     0.100 C 
ATOM      8  O   UNL     1     176.641 162.758 167.573  1.00  0.00    -0.544 OA
ATOM      9  O   UNL     1     178.098 162.183 169.241  1.00  0.00    -0.544 OA
ENDBRANCH   2   7
ENDBRANCH   1   2
BRANCH   1  10
ATOM     10  C   UNL     1     173.180 161.798 168.918  1.00  0.00     0.223 C 
ATOM     11  O   UNL     1     172.875 161.848 167.696  1.00  0.00    -0.275 OA
ATOM     12  N   UNL     1     172.320 161.117 169.833  1.00  0.00    -0.369 N 
ATOM     13  H   UNL     1     171.446 160.659 169.493  1.00  0.00     0.159 HD
ATOM     14  H   UNL     1     172.553 161.074 170.850  1.00  0.00     0.159 HD
ENDBRANCH   1  10
TORSDOF 4
ENDMDL
MODEL 5
REMARK VINA RESULT:    -3.574     16.681     18.166
REMARK INTER + INTRA:          -4.561
REMARK INTER:                  -4.289
REMARK INTRA:                  -0.272
REMARK UNBOUND:                -0.256
REMARK SMILES NC(=O)C[C@H]([NH3+])C(=O)[O-]
REMARK SMILES IDX 4 1 5 2 6 3 7 7 8 8 9 9 2 10 3 11 1 12
REMARK H PARENT 6 4 6 5 6 6 1 13 1 14
REMARK Flexibility Score: inf
ROOT
ATOM      1  C   UNL     1     164.723 176.678 166.594  1.00  0.00     0.171 C 
ENDROOT
BRANCH   1   2
ATOM      2  C   UNL     1     164.814 178.137 167.093  1.00  0.00     0.237 C 
BRANCH   2   3
ATOM      3  N   UNL     1     166.181 178.490 167.502  1.00  0.00    -0.350 N 
ATOM      4  H   UNL     1     166.157 178.957 168.437  1.00  0.00     0.345 HD
ATOM      5  H   UNL     1     166.789 177.641 167.563  1.00  0.00     0.345 HD
ATOM      6  H   UNL     1     166.594 179.159 166.812  1.00  0.00     0.345 HD
ENDBRANCH   2   3
BRANCH   2   7
ATOM      7  C   UNL     1     163.829 178.401 168.204  1.00  0.00     0.100 C 
ATOM      8  O   UNL     1     163.992 177.861 169.329  1.00  0.00    -0.544 OA
ATOM      9  O   UNL     1     162.767 179.278 168.015  1.00  0.00    -0.544 OA
ENDBRANCH   2   7
ENDBRANCH   1   2
BRANCH   1  10
ATOM     10  C   UNL     1     165.955 176.222 165.863  1.00  0.00     0.223 C 
ATOM     11  O   UNL     1     166.309 176.808 164.805  1.00  0.00    -0.275 OA
ATOM     12  N   UNL     1     166.718 175.115 166.346  1.00  0.00    -0.369 N 
ATOM     13  H   UNL     1     167.566 174.795 165.829  1.00  0.00     0.159 HD
ATOM     14  H   UNL     1     166.434 174.613 167.216  1.00  0.00     0.159 HD
ENDBRANCH   1  10
TORSDOF 4
ENDMDL
MODEL 6
REMARK VINA RESULT:    -3.506      2.841      3.806
REMARK INTER + INTRA:          -4.480
REMARK INTER:                  -3.986
REMARK INTRA:                  -0.494
REMARK UNBOUND:                -0.256
REMARK SMILES NC(=O)C[C@H]([NH3+])C(=O)[O-]
REMARK SMILES IDX 4 1 5 2 6 3 7 7 8 8 9 9 2 10 3 11 1 12
REMARK H PARENT 6 4 6 5 6 6 1 13 1 14
REMARK Flexibility Score: inf
ROOT
ATOM      1  C   UNL     1     172.660 161.912 165.341  1.00  0.00     0.171 C 
ENDROOT
BRANCH   1   2
ATOM      2  C   UNL     1     172.294 162.712 166.610  1.00  0.00     0.237 C 
BRANCH   2   3
ATOM      3  N   UNL     1     172.784 164.096 166.544  1.00  0.00    -0.350 N 
ATOM      4  H   UNL     1     172.067 164.741 166.947  1.00  0.00     0.345 HD
ATOM      5  H   UNL     1     173.676 164.207 167.077  1.00  0.00     0.345 HD
ATOM      6  H   UNL     1     172.945 164.367 165.547  1.00  0.00     0.345 HD
ENDBRANCH   2   3
BRANCH   2   7
ATOM      7  C   UNL     1     172.783 162.020 167.857  1.00  0.00     0.100 C 
ATOM      8  O   UNL     1     172.010 161.262 168.499  1.00  0.00    -0.544 OA
ATOM      9  O   UNL     1     174.099 162.169 168.280  1.00  0.00    -0.544 OA
ENDBRANCH   2   7
ENDBRANCH   1   2
BRANCH   1  10
ATOM     10  C   UNL     1     174.024 162.245 164.802  1.00  0.00     0.223 C 
ATOM     11  O   UNL     1     174.146 163.111 163.896  1.00  0.00    -0.275 OA
ATOM     12  N   UNL     1     175.183 161.571 165.296  1.00  0.00    -0.369 N 
ATOM     13  H   UNL     1     176.127 161.798 164.911  1.00  0.00     0.159 HD
ATOM     14  H   UNL     1     175.100 160.845 166.041  1.00  0.00     0.159 HD
ENDBRANCH   1  10
TORSDOF 4
ENDMDL
MODEL 7
REMARK VINA RESULT:    -3.493     17.454     18.933
REMARK INTER + INTRA:          -4.464
REMARK INTER:                  -4.344
REMARK INTRA:                  -0.120
REMARK UNBOUND:                -0.256
REMARK SMILES NC(=O)C[C@H]([NH3+])C(=O)[O-]
REMARK SMILES IDX 4 1 5 2 6 3 7 7 8 8 9 9 2 10 3 11 1 12
REMARK H PARENT 6 4 6 5 6 6 1 13 1 14
REMARK Flexibility Score: inf
ROOT
ATOM      1  C   UNL     1     163.603 178.652 167.882  1.00  0.00     0.171 C 
ENDROOT
BRANCH   1   2
ATOM      2  C   UNL     1     164.853 177.746 167.852  1.00  0.00     0.237 C 
BRANCH   2   3
ATOM      3  N   UNL     1     166.083 178.520 167.634  1.00  0.00    -0.350 N 
ATOM      4  H   UNL     1     166.037 178.997 166.705  1.00  0.00     0.345 HD
ATOM      5  H   UNL     1     166.213 179.242 168.379  1.00  0.00     0.345 HD
ATOM      6  H   UNL     1     166.909 177.878 167.632  1.00  0.00     0.345 HD
ENDBRANCH   2   3
BRANCH   2   7
ATOM      7  C   UNL     1     164.712 176.648 166.829  1.00  0.00     0.100 C 
ATOM      8  O   UNL     1     165.620 175.784 166.706  1.00  0.00    -0.544 OA
ATOM      9  O   UNL     1     163.564 176.546 166.052  1.00  0.00    -0.544 OA
ENDBRANCH   2   7
ENDBRANCH   1   2
BRANCH   1  10
ATOM     10  C   UNL     1     162.616 178.268 168.950  1.00  0.00     0.223 C 
ATOM     11  O   UNL     1     161.436 177.964 168.632  1.00  0.00    -0.275 OA
ATOM     12  N   UNL     1     163.000 178.266 170.325  1.00  0.00    -0.369 N 
ATOM     13  H   UNL     1     162.309 178.009 171.064  1.00  0.00     0.159 HD
ATOM     14  H   UNL     1     163.972 178.523 170.607  1.00  0.00     0.159 HD
ENDBRANCH   1  10
TORSDOF 4
ENDMDL
MODEL 8
REMARK VINA RESULT:    -3.471      2.141      4.112
REMARK INTER + INTRA:          -4.438
REMARK INTER:                  -4.280
REMARK INTRA:                  -0.158
REMARK UNBOUND:                -0.256
REMARK SMILES NC(=O)C[C@H]([NH3+])C(=O)[O-]
REMARK SMILES IDX 4 1 5 2 6 3 7 7 8 8 9 9 2 10 3 11 1 12
REMARK H PARENT 6 4 6 5 6 6 1 13 1 14
REMARK Flexibility Score: inf
ROOT
ATOM      1  C   UNL     1     172.326 162.808 167.413  1.00  0.00     0.171 C 
ENDROOT
BRANCH   1   2
ATOM      2  C   UNL     1     173.088 161.743 168.230  1.00  0.00     0.237 C 
BRANCH   2   3
ATOM      3  N   UNL     1     172.325 161.307 169.407  1.00  0.00    -0.350 N 
ATOM      4  H   UNL     1     172.640 160.353 169.696  1.00  0.00     0.345 HD
ATOM      5  H   UNL     1     172.459 161.965 170.209  1.00  0.00     0.345 HD
ATOM      6  H   UNL     1     171.307 161.258 169.171  1.00  0.00     0.345 HD
ENDBRANCH   2   3
BRANCH   2   7
ATOM      7  C   UNL     1     174.462 162.229 168.621  1.00  0.00     0.100 C 
ATOM      8  O   UNL     1     174.657 162.699 169.772  1.00  0.00    -0.544 OA
ATOM      9  O   UNL     1     175.531 162.114 167.741  1.00  0.00    -0.544 OA
ENDBRANCH   2   7
ENDBRANCH   1   2
BRANCH   1  10
ATOM     10  C   UNL     1     172.858 162.980 166.017  1.00  0.00     0.223 C 
ATOM     11  O   UNL     1     172.516 162.174 165.112  1.00  0.00    -0.275 OA
ATOM     12  N   UNL     1     173.766 164.039 165.713  1.00  0.00    -0.369 N 
ATOM     13  H   UNL     1     174.142 164.149 164.744  1.00  0.00     0.159 HD
ATOM     14  H   UNL     1     174.068 164.712 166.452  1.00  0.00     0.159 HD
ENDBRANCH   1  10
TORSDOF 4
ENDMDL
MODEL 9
REMARK VINA RESULT:    -3.452     14.409     15.031
REMARK INTER + INTRA:          -4.414
REMARK INTER:                  -4.326
REMARK INTRA:                  -0.088
REMARK UNBOUND:                -0.256
REMARK SMILES NC(=O)C[C@H]([NH3+])C(=O)[O-]
REMARK SMILES IDX 4 1 5 2 6 3 7 7 8 8 9 9 2 10 3 11 1 12
REMARK H PARENT 6 4 6 5 6 6 1 13 1 14
REMARK Flexibility Score: inf
ROOT
ATOM      1  C   UNL     1     160.431 164.949 167.714  1.00  0.00     0.171 C 
ENDROOT
BRANCH   1   2
ATOM      2  C   UNL     1     160.065 163.587 168.342  1.00  0.00     0.237 C 
BRANCH   2   3
ATOM      3  N   UNL     1     161.147 163.068 169.190  1.00  0.00    -0.350 N 
ATOM      4  H   UNL     1     161.868 162.603 168.593  1.00  0.00     0.345 HD
ATOM      5  H   UNL     1     161.603 163.836 169.734  1.00  0.00     0.345 HD
ATOM      6  H   UNL     1     160.765 162.358 169.856  1.00  0.00     0.345 HD
ENDBRANCH   2   3
BRANCH   2   7
ATOM      7  C   UNL     1     159.671 162.583 167.288  1.00  0.00     0.100 C 
ATOM      8  O   UNL     1     159.437 161.390 167.614  1.00  0.00    -0.544 OA
ATOM      9  O   UNL     1     159.511 162.972 165.964  1.00  0.00    -0.544 OA
ENDBRANCH   2   7
ENDBRANCH   1   2
BRANCH   1  10
ATOM     10  C   UNL     1     159.684 166.104 168.322  1.00  0.00     0.223 C 
ATOM     11  O   UNL     1     159.209 167.003 167.580  1.00  0.00    -0.275 OA
ATOM     12  N   UNL     1     159.526 166.201 169.738  1.00  0.00    -0.369 N 
ATOM     13  H   UNL     1     159.016 167.010 170.157  1.00  0.00     0.159 HD
ATOM     14  H   UNL     1     159.921 165.468 170.369  1.00  0.00     0.159 HD
ENDBRANCH   1  10
TORSDOF 4
ENDMDL
