MODEL 1
REMARK VINA RESULT:    -5.755      0.000      0.000
REMARK INTER + INTRA:          -7.038
REMARK INTER:                  -6.765
REMARK INTRA:                  -0.273
REMARK UNBOUND:                -0.273
REMARK SMILES O=C([O-])C=Cc1ccc(O)c(O)c1
REMARK SMILES IDX 6 1 13 2 7 3 11 4 8 5 9 6 5 7 4 8 2 9 1 10 3 11 12 12 10 14
REMARK H PARENT 12 13 10 15
REMARK Flexibility Score: inf
ROOT
ATOM      1  C   UNL     1     -24.118  17.600  18.939  1.00  0.00    -0.022 A 
ATOM      2  C   UNL     1     -24.538  17.622  20.276  1.00  0.00     0.058 A 
ATOM      3  C   UNL     1     -22.941  18.279  18.577  1.00  0.00     0.012 A 
ATOM      4  C   UNL     1     -23.822  18.355  21.235  1.00  0.00     0.157 A 
ATOM      5  C   UNL     1     -22.227  19.010  19.530  1.00  0.00     0.051 A 
ATOM      6  C   UNL     1     -22.667  19.053  20.860  1.00  0.00     0.157 A 
ENDROOT
BRANCH   1   7
ATOM      7  C   UNL     1     -24.859  16.779  17.961  1.00  0.00     0.010 C 
ATOM      8  C   UNL     1     -24.711  15.456  17.785  1.00  0.00     0.025 C 
BRANCH   8   9
ATOM      9  C   UNL     1     -23.657  14.625  18.398  1.00  0.00     0.064 C 
ATOM     10  O   UNL     1     -22.496  14.647  17.912  1.00  0.00    -0.545 OA
ATOM     11  O   UNL     1     -23.897  13.875  19.542  1.00  0.00    -0.545 OA
ENDBRANCH   8   9
ENDBRANCH   1   7
BRANCH   4  12
ATOM     12  O   UNL     1     -24.252  18.391  22.560  1.00  0.00    -0.504 OA
ATOM     13  H   UNL     1     -25.237  18.407  22.799  1.00  0.00     0.293 HD
ENDBRANCH   4  12
BRANCH   6  14
ATOM     14  O   UNL     1     -21.960  19.783  21.813  1.00  0.00    -0.504 OA
ATOM     15  H   UNL     1     -21.306  20.510  21.547  1.00  0.00     0.293 HD
ENDBRANCH   6  14
TORSDOF 4
ENDMDL
MODEL 2
REMARK VINA RESULT:    -5.597      1.631      4.806
REMARK INTER + INTRA:          -6.851
REMARK INTER:                  -6.650
REMARK INTRA:                  -0.202
REMARK UNBOUND:                -0.273
REMARK SMILES O=C([O-])C=Cc1ccc(O)c(O)c1
REMARK SMILES IDX 6 1 13 2 7 3 11 4 8 5 9 6 5 7 4 8 2 9 1 10 3 11 12 12 10 14
REMARK H PARENT 12 13 10 15
REMARK Flexibility Score: inf
ROOT
ATOM      1  C   UNL     1     -22.746  17.682  18.889  1.00  0.00    -0.022 A 
ATOM      2  C   UNL     1     -24.069  17.665  18.425  1.00  0.00     0.058 A 
ATOM      3  C   UNL     1     -22.110  16.467  19.198  1.00  0.00     0.012 A 
ATOM      4  C   UNL     1     -24.770  16.455  18.319  1.00  0.00     0.157 A 
ATOM      5  C   UNL     1     -22.808  15.260  19.094  1.00  0.00     0.051 A 
ATOM      6  C   UNL     1     -24.140  15.251  18.657  1.00  0.00     0.157 A 
ENDROOT
BRANCH   1   7
ATOM      7  C   UNL     1     -22.013  18.963  18.942  1.00  0.00     0.010 C 
ATOM      8  C   UNL     1     -22.148  19.898  19.896  1.00  0.00     0.025 C 
BRANCH   8   9
ATOM      9  C   UNL     1     -23.180  19.900  20.950  1.00  0.00     0.064 C 
ATOM     10  O   UNL     1     -24.280  20.471  20.732  1.00  0.00    -0.545 OA
ATOM     11  O   UNL     1     -22.994  19.226  22.150  1.00  0.00    -0.545 OA
ENDBRANCH   8   9
ENDBRANCH   1   7
BRANCH   4  12
ATOM     12  O   UNL     1     -26.091  16.442  17.875  1.00  0.00    -0.504 OA
ATOM     13  H   UNL     1     -26.354  15.998  17.003  1.00  0.00     0.293 HD
ENDBRANCH   4  12
BRANCH   6  14
ATOM     14  O   UNL     1     -24.839  14.051  18.554  1.00  0.00    -0.504 OA
ATOM     15  H   UNL     1     -24.524  13.211  19.024  1.00  0.00     0.293 HD
ENDBRANCH   6  14
TORSDOF 4
ENDMDL
MODEL 3
REMARK VINA RESULT:    -5.469      1.429      4.781
REMARK INTER + INTRA:          -6.702
REMARK INTER:                  -6.505
REMARK INTRA:                  -0.197
REMARK UNBOUND:                -0.273
REMARK SMILES O=C([O-])C=Cc1ccc(O)c(O)c1
REMARK SMILES IDX 6 1 13 2 7 3 11 4 8 5 9 6 5 7 4 8 2 9 1 10 3 11 12 12 10 14
REMARK H PARENT 12 13 10 15
REMARK Flexibility Score: inf
ROOT
ATOM      1  C   UNL     1     -23.092  17.571  19.026  1.00  0.00    -0.022 A 
ATOM      2  C   UNL     1     -22.283  16.426  19.066  1.00  0.00     0.058 A 
ATOM      3  C   UNL     1     -24.433  17.480  19.438  1.00  0.00     0.012 A 
ATOM      4  C   UNL     1     -22.817  15.192  19.464  1.00  0.00     0.157 A 
ATOM      5  C   UNL     1     -24.967  16.250  19.833  1.00  0.00     0.051 A 
ATOM      6  C   UNL     1     -24.162  15.103  19.845  1.00  0.00     0.157 A 
ENDROOT
BRANCH   1   7
ATOM      7  C   UNL     1     -22.492  18.868  18.654  1.00  0.00     0.010 C 
ATOM      8  C   UNL     1     -22.092  19.815  19.516  1.00  0.00     0.025 C 
BRANCH   8   9
ATOM      9  C   UNL     1     -22.351  19.813  20.968  1.00  0.00     0.064 C 
ATOM     10  O   UNL     1     -21.421  19.503  21.759  1.00  0.00    -0.545 OA
ATOM     11  O   UNL     1     -23.574  20.216  21.488  1.00  0.00    -0.545 OA
ENDBRANCH   8   9
ENDBRANCH   1   7
BRANCH   4  12
ATOM     12  O   UNL     1     -22.017  14.051  19.486  1.00  0.00    -0.504 OA
ATOM     13  H   UNL     1     -22.379  13.143  19.215  1.00  0.00     0.293 HD
ENDBRANCH   4  12
BRANCH   6  14
ATOM     14  O   UNL     1     -24.692  13.875  20.236  1.00  0.00    -0.504 OA
ATOM     15  H   UNL     1     -24.279  13.000  19.937  1.00  0.00     0.293 HD
ENDBRANCH   6  14
TORSDOF 4
ENDMDL
MODEL 4
REMARK VINA RESULT:    -5.371      1.737      2.621
REMARK INTER + INTRA:          -6.586
REMARK INTER:                  -6.625
REMARK INTRA:                   0.038
REMARK UNBOUND:                -0.273
REMARK SMILES O=C([O-])C=Cc1ccc(O)c(O)c1
REMARK SMILES IDX 6 1 13 2 7 3 11 4 8 5 9 6 5 7 4 8 2 9 1 10 3 11 12 12 10 14
REMARK H PARENT 12 13 10 15
REMARK Flexibility Score: inf
ROOT
ATOM      1  C   UNL     1     -22.858  16.931  19.430  1.00  0.00    -0.022 A 
ATOM      2  C   UNL     1     -22.288  18.156  19.053  1.00  0.00     0.058 A 
ATOM      3  C   UNL     1     -23.865  16.914  20.410  1.00  0.00     0.012 A 
ATOM      4  C   UNL     1     -22.679  19.346  19.684  1.00  0.00     0.157 A 
ATOM      5  C   UNL     1     -24.255  18.100  21.040  1.00  0.00     0.051 A 
ATOM      6  C   UNL     1     -23.662  19.317  20.681  1.00  0.00     0.157 A 
ENDROOT
BRANCH   1   7
ATOM      7  C   UNL     1     -22.467  15.700  18.714  1.00  0.00     0.010 C 
ATOM      8  C   UNL     1     -23.203  15.074  17.784  1.00  0.00     0.025 C 
BRANCH   8   9
ATOM      9  C   UNL     1     -24.605  15.390  17.448  1.00  0.00     0.064 C 
ATOM     10  O   UNL     1     -25.469  14.477  17.493  1.00  0.00    -0.545 OA
ATOM     11  O   UNL     1     -25.006  16.687  17.153  1.00  0.00    -0.545 OA
ENDBRANCH   8   9
ENDBRANCH   1   7
BRANCH   4  12
ATOM     12  O   UNL     1     -22.098  20.560  19.322  1.00  0.00    -0.504 OA
ATOM     13  H   UNL     1     -22.639  21.301  18.892  1.00  0.00     0.293 HD
ENDBRANCH   4  12
BRANCH   6  14
ATOM     14  O   UNL     1     -24.047  20.501  21.308  1.00  0.00    -0.504 OA
ATOM     15  H   UNL     1     -24.313  21.321  20.777  1.00  0.00     0.293 HD
ENDBRANCH   6  14
TORSDOF 4
ENDMDL
MODEL 5
REMARK VINA RESULT:    -5.344      1.546      4.710
REMARK INTER + INTRA:          -6.554
REMARK INTER:                  -6.270
REMARK INTRA:                  -0.284
REMARK UNBOUND:                -0.273
REMARK SMILES O=C([O-])C=Cc1ccc(O)c(O)c1
REMARK SMILES IDX 6 1 13 2 7 3 11 4 8 5 9 6 5 7 4 8 2 9 1 10 3 11 12 12 10 14
REMARK H PARENT 12 13 10 15
REMARK Flexibility Score: inf
ROOT
ATOM      1  C   UNL     1     -23.358  16.956  18.983  1.00  0.00    -0.022 A 
ATOM      2  C   UNL     1     -23.452  15.847  19.836  1.00  0.00     0.058 A 
ATOM      3  C   UNL     1     -24.410  17.228  18.091  1.00  0.00     0.012 A 
ATOM      4  C   UNL     1     -24.558  14.988  19.766  1.00  0.00     0.157 A 
ATOM      5  C   UNL     1     -25.512  16.371  18.019  1.00  0.00     0.051 A 
ATOM      6  C   UNL     1     -25.588  15.248  18.853  1.00  0.00     0.157 A 
ENDROOT
BRANCH   1   7
ATOM      7  C   UNL     1     -22.209  17.875  19.113  1.00  0.00     0.010 C 
ATOM      8  C   UNL     1     -22.128  18.902  19.973  1.00  0.00     0.025 C 
BRANCH   8   9
ATOM      9  C   UNL     1     -23.236  19.411  20.802  1.00  0.00     0.064 C 
ATOM     10  O   UNL     1     -23.961  20.340  20.358  1.00  0.00    -0.545 OA
ATOM     11  O   UNL     1     -23.545  18.842  22.031  1.00  0.00    -0.545 OA
ENDBRANCH   8   9
ENDBRANCH   1   7
BRANCH   4  12
ATOM     12  O   UNL     1     -24.640  13.875  20.601  1.00  0.00    -0.504 OA
ATOM     13  H   UNL     1     -23.903  13.649  21.258  1.00  0.00     0.293 HD
ENDBRANCH   4  12
BRANCH   6  14
ATOM     14  O   UNL     1     -26.684  14.391  18.783  1.00  0.00    -0.504 OA
ATOM     15  H   UNL     1     -27.629  14.724  18.932  1.00  0.00     0.293 HD
ENDBRANCH   6  14
TORSDOF 4
ENDMDL
MODEL 6
REMARK VINA RESULT:    -5.326      1.870      2.166
REMARK INTER + INTRA:          -6.533
REMARK INTER:                  -6.356
REMARK INTRA:                  -0.177
REMARK UNBOUND:                -0.273
REMARK SMILES O=C([O-])C=Cc1ccc(O)c(O)c1
REMARK SMILES IDX 6 1 13 2 7 3 11 4 8 5 9 6 5 7 4 8 2 9 1 10 3 11 12 12 10 14
REMARK H PARENT 12 13 10 15
REMARK Flexibility Score: inf
ROOT
ATOM      1  C   UNL     1     -23.861  16.877  20.020  1.00  0.00    -0.022 A 
ATOM      2  C   UNL     1     -24.350  18.047  20.618  1.00  0.00     0.058 A 
ATOM      3  C   UNL     1     -22.719  16.947  19.204  1.00  0.00     0.012 A 
ATOM      4  C   UNL     1     -23.739  19.284  20.365  1.00  0.00     0.157 A 
ATOM      5  C   UNL     1     -22.110  18.179  18.949  1.00  0.00     0.051 A 
ATOM      6  C   UNL     1     -22.619  19.351  19.526  1.00  0.00     0.157 A 
ENDROOT
BRANCH   1   7
ATOM      7  C   UNL     1     -24.490  15.581  20.346  1.00  0.00     0.010 C 
ATOM      8  C   UNL     1     -25.085  14.762  19.464  1.00  0.00     0.025 C 
BRANCH   8   9
ATOM      9  C   UNL     1     -25.385  15.093  18.058  1.00  0.00     0.064 C 
ATOM     10  O   UNL     1     -26.435  15.731  17.787  1.00  0.00    -0.545 OA
ATOM     11  O   UNL     1     -24.500  14.780  17.034  1.00  0.00    -0.545 OA
ENDBRANCH   8   9
ENDBRANCH   1   7
BRANCH   4  12
ATOM     12  O   UNL     1     -24.238  20.449  20.944  1.00  0.00    -0.504 OA
ATOM     13  H   UNL     1     -24.224  21.335  20.452  1.00  0.00     0.293 HD
ENDBRANCH   4  12
BRANCH   6  14
ATOM     14  O   UNL     1     -22.016  20.581  19.272  1.00  0.00    -0.504 OA
ATOM     15  H   UNL     1     -21.027  20.655  19.069  1.00  0.00     0.293 HD
ENDBRANCH   6  14
TORSDOF 4
ENDMDL
MODEL 7
REMARK VINA RESULT:    -5.193      0.868      1.905
REMARK INTER + INTRA:          -6.377
REMARK INTER:                  -6.150
REMARK INTRA:                  -0.228
REMARK UNBOUND:                -0.273
REMARK SMILES O=C([O-])C=Cc1ccc(O)c(O)c1
REMARK SMILES IDX 6 1 13 2 7 3 11 4 8 5 9 6 5 7 4 8 2 9 1 10 3 11 12 12 10 14
REMARK H PARENT 12 13 10 15
REMARK Flexibility Score: inf
ROOT
ATOM      1  C   UNL     1     -24.256  17.435  18.875  1.00  0.00    -0.022 A 
ATOM      2  C   UNL     1     -23.288  18.350  18.437  1.00  0.00     0.058 A 
ATOM      3  C   UNL     1     -24.575  17.374  20.243  1.00  0.00     0.012 A 
ATOM      4  C   UNL     1     -22.608  19.161  19.357  1.00  0.00     0.157 A 
ATOM      5  C   UNL     1     -23.897  18.180  21.161  1.00  0.00     0.051 A 
ATOM      6  C   UNL     1     -22.910  19.073  20.722  1.00  0.00     0.157 A 
ENDROOT
BRANCH   1   7
ATOM      7  C   UNL     1     -24.995  16.631  17.881  1.00  0.00     0.010 C 
ATOM      8  C   UNL     1     -24.905  15.300  17.735  1.00  0.00     0.025 C 
BRANCH   8   9
ATOM      9  C   UNL     1     -23.920  14.431  18.406  1.00  0.00     0.064 C 
ATOM     10  O   UNL     1     -22.799  14.242  17.867  1.00  0.00    -0.545 OA
ATOM     11  O   UNL     1     -24.173  13.875  19.654  1.00  0.00    -0.545 OA
ENDBRANCH   8   9
ENDBRANCH   1   7
BRANCH   4  12
ATOM     12  O   UNL     1     -21.633  20.057  18.922  1.00  0.00    -0.504 OA
ATOM     13  H   UNL     1     -21.118  19.905  18.062  1.00  0.00     0.293 HD
ENDBRANCH   4  12
BRANCH   6  14
ATOM     14  O   UNL     1     -22.230  19.877  21.635  1.00  0.00    -0.504 OA
ATOM     15  H   UNL     1     -22.660  20.700  22.039  1.00  0.00     0.293 HD
ENDBRANCH   6  14
TORSDOF 4
ENDMDL
MODEL 8
REMARK VINA RESULT:    -4.964      1.594      4.977
REMARK INTER + INTRA:          -6.108
REMARK INTER:                  -6.170
REMARK INTRA:                   0.062
REMARK UNBOUND:                -0.273
REMARK SMILES O=C([O-])C=Cc1ccc(O)c(O)c1
REMARK SMILES IDX 6 1 13 2 7 3 11 4 8 5 9 6 5 7 4 8 2 9 1 10 3 11 12 12 10 14
REMARK H PARENT 12 13 10 15
REMARK Flexibility Score: inf
ROOT
ATOM      1  C   UNL     1     -24.612  16.810  20.007  1.00  0.00    -0.022 A 
ATOM      2  C   UNL     1     -23.442  16.298  19.427  1.00  0.00     0.058 A 
ATOM      3  C   UNL     1     -25.860  16.448  19.472  1.00  0.00     0.012 A 
ATOM      4  C   UNL     1     -23.513  15.474  18.294  1.00  0.00     0.157 A 
ATOM      5  C   UNL     1     -25.932  15.628  18.342  1.00  0.00     0.051 A 
ATOM      6  C   UNL     1     -24.759  15.142  17.748  1.00  0.00     0.157 A 
ENDROOT
BRANCH   1   7
ATOM      7  C   UNL     1     -24.513  17.632  21.230  1.00  0.00     0.010 C 
ATOM      8  C   UNL     1     -23.815  18.772  21.347  1.00  0.00     0.025 C 
BRANCH   8   9
ATOM      9  C   UNL     1     -22.876  19.306  20.343  1.00  0.00     0.064 C 
ATOM     10  O   UNL     1     -21.638  19.166  20.523  1.00  0.00    -0.545 OA
ATOM     11  O   UNL     1     -23.325  19.895  19.168  1.00  0.00    -0.545 OA
ENDBRANCH   8   9
ENDBRANCH   1   7
BRANCH   4  12
ATOM     12  O   UNL     1     -22.348  14.981  17.707  1.00  0.00    -0.504 OA
ATOM     13  H   UNL     1     -21.524  14.770  18.258  1.00  0.00     0.293 HD
ENDBRANCH   4  12
BRANCH   6  14
ATOM     14  O   UNL     1     -24.826  14.326  16.621  1.00  0.00    -0.504 OA
ATOM     15  H   UNL     1     -24.167  14.421  15.857  1.00  0.00     0.293 HD
ENDBRANCH   6  14
TORSDOF 4
ENDMDL
MODEL 9
REMARK VINA RESULT:    -4.785      2.090      4.836
REMARK INTER + INTRA:          -5.898
REMARK INTER:                  -5.874
REMARK INTRA:                  -0.024
REMARK UNBOUND:                -0.273
REMARK SMILES O=C([O-])C=Cc1ccc(O)c(O)c1
REMARK SMILES IDX 6 1 13 2 7 3 11 4 8 5 9 6 5 7 4 8 2 9 1 10 3 11 12 12 10 14
REMARK H PARENT 12 13 10 15
REMARK Flexibility Score: inf
ROOT
ATOM      1  C   UNL     1     -24.279  16.913  19.829  1.00  0.00    -0.022 A 
ATOM      2  C   UNL     1     -25.578  16.685  19.352  1.00  0.00     0.058 A 
ATOM      3  C   UNL     1     -23.209  16.181  19.286  1.00  0.00     0.012 A 
ATOM      4  C   UNL     1     -25.816  15.701  18.382  1.00  0.00     0.157 A 
ATOM      5  C   UNL     1     -23.445  15.199  18.320  1.00  0.00     0.051 A 
ATOM      6  C   UNL     1     -24.749  14.954  17.867  1.00  0.00     0.157 A 
ENDROOT
BRANCH   1   7
ATOM      7  C   UNL     1     -24.048  17.991  20.812  1.00  0.00     0.010 C 
ATOM      8  C   UNL     1     -23.497  19.184  20.543  1.00  0.00     0.025 C 
BRANCH   8   9
ATOM      9  C   UNL     1     -22.855  19.561  19.269  1.00  0.00     0.064 C 
ATOM     10  O   UNL     1     -21.642  19.895  19.267  1.00  0.00    -0.545 OA
ATOM     11  O   UNL     1     -23.538  19.487  18.062  1.00  0.00    -0.545 OA
ENDBRANCH   8   9
ENDBRANCH   1   7
BRANCH   4  12
ATOM     12  O   UNL     1     -27.111  15.462  17.923  1.00  0.00    -0.504 OA
ATOM     13  H   UNL     1     -27.283  15.008  17.033  1.00  0.00     0.293 HD
ENDBRANCH   4  12
BRANCH   6  14
ATOM     14  O   UNL     1     -24.989  13.975  16.905  1.00  0.00    -0.504 OA
ATOM     15  H   UNL     1     -25.794  14.020  16.292  1.00  0.00     0.293 HD
ENDBRANCH   6  14
TORSDOF 4
ENDMDL
