MODEL 1
REMARK VINA RESULT:    -3.882      0.000      0.000
REMARK INTER + INTRA:          -6.094
REMARK INTER:                  -5.471
REMARK INTRA:                  -0.623
REMARK UNBOUND:                -0.623
REMARK SMILES CCCCCCCCC(=O)[O-]
REMARK SMILES IDX 6 1 7 2 8 3 9 4 10 5 11 6 5 7 4 8 3 9 2 10 1 11
REMARK H PARENT
REMARK Flexibility Score: inf
ROOT
ATOM      1  C   UNL     1     -14.250 -12.976  22.016  1.00  0.00     0.000 C 
ENDROOT
BRANCH   1   2
ATOM      2  C   UNL     1     -12.915 -13.728  22.067  1.00  0.00     0.006 C 
BRANCH   2   3
ATOM      3  C   UNL     1     -13.055 -15.042  22.841  1.00  0.00     0.053 C 
BRANCH   3   4
ATOM      4  C   UNL     1     -13.950 -15.991  22.107  1.00  0.00     0.041 C 
ATOM      5  O   UNL     1     -13.621 -16.421  20.970  1.00  0.00    -0.550 OA
ATOM      6  O   UNL     1     -15.123 -16.439  22.700  1.00  0.00    -0.550 OA
ENDBRANCH   3   4
ENDBRANCH   2   3
ENDBRANCH   1   2
BRANCH   1   7
ATOM      7  C   UNL     1     -14.559 -12.501  20.588  1.00  0.00     0.000 C 
BRANCH   7   8
ATOM      8  C   UNL     1     -13.584 -13.075  19.546  1.00  0.00    -0.000 C 
BRANCH   8   9
ATOM      9  C   UNL     1     -13.264 -12.075  18.423  1.00  0.00    -0.000 C 
BRANCH   9  10
ATOM     10  C   UNL     1     -11.756 -11.960  18.149  1.00  0.00    -0.003 C 
ATOM     11  C   UNL     1     -10.911 -12.763  19.138  1.00  0.00     0.004 C 
ENDBRANCH   9  10
ENDBRANCH   8   9
ENDBRANCH   7   8
ENDBRANCH   1   7
TORSDOF 7
ENDMDL
MODEL 2
REMARK VINA RESULT:    -3.827      3.014      5.179
REMARK INTER + INTRA:          -6.016
REMARK INTER:                  -5.538
REMARK INTRA:                  -0.478
REMARK UNBOUND:                -0.623
REMARK SMILES CCCCCCCCC(=O)[O-]
REMARK SMILES IDX 6 1 7 2 8 3 9 4 10 5 11 6 5 7 4 8 3 9 2 10 1 11
REMARK H PARENT
REMARK Flexibility Score: inf
ROOT
ATOM      1  C   UNL     1     -12.504 -14.623  19.493  1.00  0.00     0.000 C 
ENDROOT
BRANCH   1   2
ATOM      2  C   UNL     1     -11.673 -13.337  19.575  1.00  0.00     0.006 C 
BRANCH   2   3
ATOM      3  C   UNL     1     -11.308 -12.828  18.177  1.00  0.00     0.053 C 
BRANCH   3   4
ATOM      4  C   UNL     1     -12.156 -11.651  17.810  1.00  0.00     0.041 C 
ATOM      5  O   UNL     1     -13.384 -11.642  18.089  1.00  0.00    -0.550 OA
ATOM      6  O   UNL     1     -11.579 -10.542  17.203  1.00  0.00    -0.550 OA
ENDBRANCH   3   4
ENDBRANCH   2   3
ENDBRANCH   1   2
BRANCH   1   7
ATOM      7  C   UNL     1     -13.463 -14.734  20.687  1.00  0.00     0.000 C 
BRANCH   7   8
ATOM      8  C   UNL     1     -14.364 -13.497  20.844  1.00  0.00    -0.000 C 
BRANCH   8   9
ATOM      9  C   UNL     1     -14.300 -12.896  22.258  1.00  0.00    -0.000 C 
BRANCH   9  10
ATOM     10  C   UNL     1     -13.360 -13.681  23.188  1.00  0.00    -0.003 C 
ATOM     11  C   UNL     1     -14.087 -14.303  24.380  1.00  0.00     0.004 C 
ENDBRANCH   9  10
ENDBRANCH   8   9
ENDBRANCH   7   8
ENDBRANCH   1   7
TORSDOF 7
ENDMDL
MODEL 3
REMARK VINA RESULT:    -3.788      2.601      4.566
REMARK INTER + INTRA:          -5.961
REMARK INTER:                  -5.283
REMARK INTRA:                  -0.678
REMARK UNBOUND:                -0.623
REMARK SMILES CCCCCCCCC(=O)[O-]
REMARK SMILES IDX 6 1 7 2 8 3 9 4 10 5 11 6 5 7 4 8 3 9 2 10 1 11
REMARK H PARENT
REMARK Flexibility Score: inf
ROOT
ATOM      1  C   UNL     1     -15.071 -13.419  19.813  1.00  0.00     0.000 C 
ENDROOT
BRANCH   1   2
ATOM      2  C   UNL     1     -13.851 -13.683  18.923  1.00  0.00     0.006 C 
BRANCH   2   3
ATOM      3  C   UNL     1     -13.088 -12.385  18.638  1.00  0.00     0.053 C 
BRANCH   3   4
ATOM      4  C   UNL     1     -11.634 -12.668  18.422  1.00  0.00     0.041 C 
ATOM      5  O   UNL     1     -11.144 -12.620  17.264  1.00  0.00    -0.550 OA
ATOM      6  O   UNL     1     -10.811 -12.937  19.508  1.00  0.00    -0.550 OA
ENDBRANCH   3   4
ENDBRANCH   2   3
ENDBRANCH   1   2
BRANCH   1   7
ATOM      7  C   UNL     1     -14.961 -12.051  20.504  1.00  0.00     0.000 C 
BRANCH   7   8
ATOM      8  C   UNL     1     -14.924 -12.161  22.037  1.00  0.00    -0.000 C 
BRANCH   8   9
ATOM      9  C   UNL     1     -15.070 -13.611  22.529  1.00  0.00    -0.000 C 
BRANCH   9  10
ATOM     10  C   UNL     1     -13.840 -14.092  23.315  1.00  0.00    -0.003 C 
ATOM     11  C   UNL     1     -12.536 -13.934  22.531  1.00  0.00     0.004 C 
ENDBRANCH   9  10
ENDBRANCH   8   9
ENDBRANCH   7   8
ENDBRANCH   1   7
TORSDOF 7
ENDMDL
MODEL 4
REMARK VINA RESULT:    -3.752      1.055      1.846
REMARK INTER + INTRA:          -5.910
REMARK INTER:                  -5.371
REMARK INTRA:                  -0.539
REMARK UNBOUND:                -0.623
REMARK SMILES CCCCCCCCC(=O)[O-]
REMARK SMILES IDX 6 1 7 2 8 3 9 4 10 5 11 6 5 7 4 8 3 9 2 10 1 11
REMARK H PARENT
REMARK Flexibility Score: inf
ROOT
ATOM      1  C   UNL     1     -12.539 -14.021  22.006  1.00  0.00     0.000 C 
ENDROOT
BRANCH   1   2
ATOM      2  C   UNL     1     -13.098 -15.206  22.802  1.00  0.00     0.006 C 
BRANCH   2   3
ATOM      3  C   UNL     1     -14.373 -15.751  22.152  1.00  0.00     0.053 C 
BRANCH   3   4
ATOM      4  C   UNL     1     -14.060 -16.942  21.301  1.00  0.00     0.041 C 
ATOM      5  O   UNL     1     -14.314 -18.103  21.717  1.00  0.00    -0.550 OA
ATOM      6  O   UNL     1     -13.533 -16.766  20.028  1.00  0.00    -0.550 OA
ENDBRANCH   3   4
ENDBRANCH   2   3
ENDBRANCH   1   2
BRANCH   1   7
ATOM      7  C   UNL     1     -13.639 -13.359  21.162  1.00  0.00     0.000 C 
BRANCH   7   8
ATOM      8  C   UNL     1     -13.242 -13.203  19.684  1.00  0.00    -0.000 C 
BRANCH   8   9
ATOM      9  C   UNL     1     -11.762 -13.540  19.432  1.00  0.00    -0.000 C 
BRANCH   9  10
ATOM     10  C   UNL     1     -11.019 -12.409  18.703  1.00  0.00    -0.003 C 
ATOM     11  C   UNL     1     -11.936 -11.575  17.809  1.00  0.00     0.004 C 
ENDBRANCH   9  10
ENDBRANCH   8   9
ENDBRANCH   7   8
ENDBRANCH   1   7
TORSDOF 7
ENDMDL
MODEL 5
REMARK VINA RESULT:    -3.750      1.379      2.263
REMARK INTER + INTRA:          -5.908
REMARK INTER:                  -5.373
REMARK INTRA:                  -0.535
REMARK UNBOUND:                -0.623
REMARK SMILES CCCCCCCCC(=O)[O-]
REMARK SMILES IDX 6 1 7 2 8 3 9 4 10 5 11 6 5 7 4 8 3 9 2 10 1 11
REMARK H PARENT
REMARK Flexibility Score: inf
ROOT
ATOM      1  C   UNL     1     -14.397 -12.860  19.745  1.00  0.00     0.000 C 
ENDROOT
BRANCH   1   2
ATOM      2  C   UNL     1     -14.290 -12.761  21.271  1.00  0.00     0.006 C 
BRANCH   2   3
ATOM      3  C   UNL     1     -14.963 -13.959  21.948  1.00  0.00     0.053 C 
BRANCH   3   4
ATOM      4  C   UNL     1     -14.011 -14.632  22.887  1.00  0.00     0.041 C 
ATOM      5  O   UNL     1     -13.778 -14.132  24.019  1.00  0.00    -0.550 OA
ATOM      6  O   UNL     1     -13.420 -15.837  22.531  1.00  0.00    -0.550 OA
ENDBRANCH   3   4
ENDBRANCH   2   3
ENDBRANCH   1   2
BRANCH   1   7
ATOM      7  C   UNL     1     -13.314 -13.790  19.178  1.00  0.00     0.000 C 
BRANCH   7   8
ATOM      8  C   UNL     1     -11.964 -13.641  19.901  1.00  0.00    -0.000 C 
BRANCH   8   9
ATOM      9  C   UNL     1     -10.999 -12.701  19.159  1.00  0.00    -0.000 C 
BRANCH   9  10
ATOM     10  C   UNL     1     -11.387 -12.503  17.686  1.00  0.00    -0.003 C 
ATOM     11  C   UNL     1     -11.717 -11.048  17.349  1.00  0.00     0.004 C 
ENDBRANCH   9  10
ENDBRANCH   8   9
ENDBRANCH   7   8
ENDBRANCH   1   7
TORSDOF 7
ENDMDL
MODEL 6
REMARK VINA RESULT:    -3.702      2.423      4.843
REMARK INTER + INTRA:          -5.840
REMARK INTER:                  -5.236
REMARK INTRA:                  -0.604
REMARK UNBOUND:                -0.623
REMARK SMILES CCCCCCCCC(=O)[O-]
REMARK SMILES IDX 6 1 7 2 8 3 9 4 10 5 11 6 5 7 4 8 3 9 2 10 1 11
REMARK H PARENT
REMARK Flexibility Score: inf
ROOT
ATOM      1  C   UNL     1     -14.644 -12.488  20.714  1.00  0.00     0.000 C 
ENDROOT
BRANCH   1   2
ATOM      2  C   UNL     1     -13.853 -13.197  19.608  1.00  0.00     0.006 C 
BRANCH   2   3
ATOM      3  C   UNL     1     -13.445 -12.212  18.508  1.00  0.00     0.053 C 
BRANCH   3   4
ATOM      4  C   UNL     1     -11.960 -12.213  18.328  1.00  0.00     0.041 C 
ATOM      5  O   UNL     1     -11.416 -11.398  17.537  1.00  0.00    -0.550 OA
ATOM      6  O   UNL     1     -11.171 -13.081  19.072  1.00  0.00    -0.550 OA
ENDBRANCH   3   4
ENDBRANCH   2   3
ENDBRANCH   1   2
BRANCH   1   7
ATOM      7  C   UNL     1     -14.254 -13.028  22.099  1.00  0.00     0.000 C 
BRANCH   7   8
ATOM      8  C   UNL     1     -12.922 -13.797  22.084  1.00  0.00    -0.000 C 
BRANCH   8   9
ATOM      9  C   UNL     1     -12.973 -15.081  22.929  1.00  0.00    -0.000 C 
BRANCH   9  10
ATOM     10  C   UNL     1     -14.084 -16.041  22.473  1.00  0.00    -0.003 C 
ATOM     11  C   UNL     1     -13.852 -16.590  21.065  1.00  0.00     0.004 C 
ENDBRANCH   9  10
ENDBRANCH   8   9
ENDBRANCH   7   8
ENDBRANCH   1   7
TORSDOF 7
ENDMDL
MODEL 7
REMARK VINA RESULT:    -3.694      1.785      2.342
REMARK INTER + INTRA:          -5.829
REMARK INTER:                  -5.207
REMARK INTRA:                  -0.622
REMARK UNBOUND:                -0.623
REMARK SMILES CCCCCCCCC(=O)[O-]
REMARK SMILES IDX 6 1 7 2 8 3 9 4 10 5 11 6 5 7 4 8 3 9 2 10 1 11
REMARK H PARENT
REMARK Flexibility Score: inf
ROOT
ATOM      1  C   UNL     1     -14.437 -14.730  18.981  1.00  0.00     0.000 C 
ENDROOT
BRANCH   1   2
ATOM      2  C   UNL     1     -14.925 -15.247  20.339  1.00  0.00     0.006 C 
BRANCH   2   3
ATOM      3  C   UNL     1     -13.747 -15.667  21.223  1.00  0.00     0.053 C 
BRANCH   3   4
ATOM      4  C   UNL     1     -13.382 -14.567  22.169  1.00  0.00     0.041 C 
ATOM      5  O   UNL     1     -12.315 -14.630  22.834  1.00  0.00    -0.550 OA
ATOM      6  O   UNL     1     -14.196 -13.447  22.279  1.00  0.00    -0.550 OA
ENDBRANCH   3   4
ENDBRANCH   2   3
ENDBRANCH   1   2
BRANCH   1   7
ATOM      7  C   UNL     1     -14.923 -13.293  18.734  1.00  0.00     0.000 C 
BRANCH   7   8
ATOM      8  C   UNL     1     -13.782 -12.263  18.778  1.00  0.00    -0.000 C 
BRANCH   8   9
ATOM      9  C   UNL     1     -12.403 -12.918  18.969  1.00  0.00    -0.000 C 
BRANCH   9  10
ATOM     10  C   UNL     1     -11.369 -12.418  17.947  1.00  0.00    -0.003 C 
ATOM     11  C   UNL     1     -11.750 -11.074  17.325  1.00  0.00     0.004 C 
ENDBRANCH   9  10
ENDBRANCH   8   9
ENDBRANCH   7   8
ENDBRANCH   1   7
TORSDOF 7
ENDMDL
MODEL 8
REMARK VINA RESULT:    -3.618      2.658      4.879
REMARK INTER + INTRA:          -5.721
REMARK INTER:                  -5.038
REMARK INTRA:                  -0.683
REMARK UNBOUND:                -0.623
REMARK SMILES CCCCCCCCC(=O)[O-]
REMARK SMILES IDX 6 1 7 2 8 3 9 4 10 5 11 6 5 7 4 8 3 9 2 10 1 11
REMARK H PARENT
REMARK Flexibility Score: inf
ROOT
ATOM      1  C   UNL     1     -13.833 -15.855  19.341  1.00  0.00     0.000 C 
ENDROOT
BRANCH   1   2
ATOM      2  C   UNL     1     -12.688 -14.841  19.230  1.00  0.00     0.006 C 
BRANCH   2   3
ATOM      3  C   UNL     1     -13.224 -13.439  18.925  1.00  0.00     0.053 C 
BRANCH   3   4
ATOM      4  C   UNL     1     -12.096 -12.497  18.641  1.00  0.00     0.041 C 
ATOM      5  O   UNL     1     -10.984 -12.649  19.212  1.00  0.00    -0.550 OA
ATOM      6  O   UNL     1     -12.259 -11.481  17.708  1.00  0.00    -0.550 OA
ENDBRANCH   3   4
ENDBRANCH   2   3
ENDBRANCH   1   2
BRANCH   1   7
ATOM      7  C   UNL     1     -13.777 -16.602  20.682  1.00  0.00     0.000 C 
BRANCH   7   8
ATOM      8  C   UNL     1     -14.309 -15.760  21.854  1.00  0.00    -0.000 C 
BRANCH   8   9
ATOM      9  C   UNL     1     -13.197 -15.337  22.829  1.00  0.00    -0.000 C 
BRANCH   9  10
ATOM     10  C   UNL     1     -12.971 -13.816  22.838  1.00  0.00    -0.003 C 
ATOM     11  C   UNL     1     -14.217 -13.029  22.431  1.00  0.00     0.004 C 
ENDBRANCH   9  10
ENDBRANCH   8   9
ENDBRANCH   7   8
ENDBRANCH   1   7
TORSDOF 7
ENDMDL
MODEL 9
REMARK VINA RESULT:    -3.561     22.779     24.621
REMARK INTER + INTRA:          -5.642
REMARK INTER:                  -5.131
REMARK INTRA:                  -0.511
REMARK UNBOUND:                -0.623
REMARK SMILES CCCCCCCCC(=O)[O-]
REMARK SMILES IDX 6 1 7 2 8 3 9 4 10 5 11 6 5 7 4 8 3 9 2 10 1 11
REMARK H PARENT
REMARK Flexibility Score: inf
ROOT
ATOM      1  C   UNL     1       5.023  -1.807   8.218  1.00  0.00     0.000 C 
ENDROOT
BRANCH   1   2
ATOM      2  C   UNL     1       4.483  -0.390   8.441  1.00  0.00     0.006 C 
BRANCH   2   3
ATOM      3  C   UNL     1       4.948   0.170   9.788  1.00  0.00     0.053 C 
BRANCH   3   4
ATOM      4  C   UNL     1       4.010   1.234  10.266  1.00  0.00     0.041 C 
ATOM      5  O   UNL     1       4.097   1.673  11.443  1.00  0.00    -0.550 OA
ATOM      6  O   UNL     1       3.072   1.774   9.396  1.00  0.00    -0.550 OA
ENDBRANCH   3   4
ENDBRANCH   2   3
ENDBRANCH   1   2
BRANCH   1   7
ATOM      7  C   UNL     1       4.134  -2.849   8.914  1.00  0.00     0.000 C 
BRANCH   7   8
ATOM      8  C   UNL     1       4.933  -3.815   9.803  1.00  0.00    -0.000 C 
BRANCH   8   9
ATOM      9  C   UNL     1       4.180  -4.193  11.090  1.00  0.00    -0.000 C 
BRANCH   9  10
ATOM     10  C   UNL     1       3.285  -3.053  11.603  1.00  0.00    -0.003 C 
ATOM     11  C   UNL     1       4.068  -1.976  12.353  1.00  0.00     0.004 C 
ENDBRANCH   9  10
ENDBRANCH   8   9
ENDBRANCH   7   8
ENDBRANCH   1   7
TORSDOF 7
ENDMDL
