MODEL 1
REMARK VINA RESULT:    -5.592      0.000      0.000
REMARK INTER + INTRA:          -8.583
REMARK INTER:                  -7.881
REMARK INTRA:                  -0.703
REMARK UNBOUND:                -0.703
REMARK SMILES COc1ccc(-c2cc(=O)c3c(OC)c(OC)c(OC)c(OC)c3o2)cc1OC
REMARK SMILES IDX 7 1 8 2 9 3 10 4 11 5 24 6 25 7 21 8 18 9 15 10 12 11 6 12
REMARK SMILES IDX 3 13 27 14 4 15 26 16 5 17 2 18 1 19 28 20 29 21 22 22 23 23
REMARK SMILES IDX 13 24 14 25 19 26 20 27 16 28 17 29
REMARK H PARENT
REMARK Flexibility Score: inf
ROOT
ATOM      1  C   UNL     1      48.599 -36.252  -2.134  1.00  0.00     0.138 A 
ATOM      2  C   UNL     1      48.596 -35.082  -2.901  1.00  0.00     0.100 A 
ATOM      3  C   UNL     1      48.012 -33.930  -2.381  1.00  0.00     0.197 A 
ATOM      4  O   UNL     1      47.988 -32.892  -3.095  1.00  0.00    -0.289 OA
ATOM      5  C   UNL     1      47.449 -33.952  -1.085  1.00  0.00     0.115 A 
ATOM      6  C   UNL     1      47.493 -35.171  -0.368  1.00  0.00     0.188 A 
ATOM      7  O   UNL     1      48.049 -36.245  -0.923  1.00  0.00    -0.452 OA
ATOM      8  C   UNL     1      46.953 -35.244   0.938  1.00  0.00     0.209 A 
ATOM      9  C   UNL     1      46.328 -34.122   1.502  1.00  0.00     0.211 A 
ATOM     10  C   UNL     1      46.231 -32.913   0.771  1.00  0.00     0.208 A 
ATOM     11  C   UNL     1      46.856 -32.814  -0.493  1.00  0.00     0.179 A 
ENDROOT
BRANCH   1  12
ATOM     12  C   UNL     1      49.189 -37.510  -2.648  1.00  0.00     0.021 A 
ATOM     13  C   UNL     1      50.278 -39.927  -3.616  1.00  0.00     0.160 A 
ATOM     14  C   UNL     1      51.119 -38.832  -3.366  1.00  0.00     0.161 A 
ATOM     15  C   UNL     1      48.897 -39.810  -3.374  1.00  0.00     0.051 A 
ATOM     16  C   UNL     1      50.571 -37.627  -2.882  1.00  0.00     0.062 A 
ATOM     17  C   UNL     1      48.363 -38.615  -2.891  1.00  0.00     0.016 A 
BRANCH  13  18
ATOM     18  O   UNL     1      50.852 -41.112  -4.102  1.00  0.00    -0.493 OA
ATOM     19  C   UNL     1      51.144 -42.253  -3.303  1.00  0.00     0.278 C 
ENDBRANCH  13  18
BRANCH  14  20
ATOM     20  O   UNL     1      52.494 -38.979  -3.612  1.00  0.00    -0.493 OA
ATOM     21  C   UNL     1      53.486 -39.111  -2.600  1.00  0.00     0.278 C 
ENDBRANCH  14  20
ENDBRANCH   1  12
BRANCH   8  22
ATOM     22  O   UNL     1      46.998 -36.405   1.735  1.00  0.00    -0.490 OA
ATOM     23  C   UNL     1      46.128 -37.528   1.655  1.00  0.00     0.278 C 
ENDBRANCH   8  22
BRANCH  11  24
ATOM     24  O   UNL     1      46.917 -31.578  -1.140  1.00  0.00    -0.492 OA
ATOM     25  C   UNL     1      47.907 -30.617  -0.791  1.00  0.00     0.278 C 
ENDBRANCH  11  24
BRANCH   9  26
ATOM     26  O   UNL     1      45.813 -34.285   2.805  1.00  0.00    -0.490 OA
ATOM     27  C   UNL     1      46.427 -33.881   4.024  1.00  0.00     0.279 C 
ENDBRANCH   9  26
BRANCH  10  28
ATOM     28  O   UNL     1      45.510 -31.840   1.319  1.00  0.00    -0.490 OA
ATOM     29  C   UNL     1      44.090 -31.762   1.415  1.00  0.00     0.278 C 
ENDBRANCH  10  28
TORSDOF 7
ENDMDL
MODEL 2
REMARK VINA RESULT:    -5.497      3.062      7.898
REMARK INTER + INTRA:          -8.449
REMARK INTER:                  -7.664
REMARK INTRA:                  -0.785
REMARK UNBOUND:                -0.703
REMARK SMILES COc1ccc(-c2cc(=O)c3c(OC)c(OC)c(OC)c(OC)c3o2)cc1OC
REMARK SMILES IDX 7 1 8 2 9 3 10 4 11 5 24 6 25 7 21 8 18 9 15 10 12 11 6 12
REMARK SMILES IDX 3 13 27 14 4 15 26 16 5 17 2 18 1 19 28 20 29 21 22 22 23 23
REMARK SMILES IDX 13 24 14 25 19 26 20 27 16 28 17 29
REMARK H PARENT
REMARK Flexibility Score: inf
ROOT
ATOM      1  C   UNL     1      47.499 -36.970   1.986  1.00  0.00     0.138 A 
ATOM      2  C   UNL     1      48.250 -35.909   1.471  1.00  0.00     0.100 A 
ATOM      3  C   UNL     1      48.673 -35.954   0.145  1.00  0.00     0.197 A 
ATOM      4  O   UNL     1      49.375 -35.005  -0.297  1.00  0.00    -0.289 OA
ATOM      5  C   UNL     1      48.325 -37.058  -0.665  1.00  0.00     0.115 A 
ATOM      6  C   UNL     1      47.561 -38.094  -0.075  1.00  0.00     0.188 A 
ATOM      7  O   UNL     1      47.200 -38.003   1.202  1.00  0.00    -0.452 OA
ATOM      8  C   UNL     1      47.178 -39.217  -0.845  1.00  0.00     0.209 A 
ATOM      9  C   UNL     1      47.598 -39.330  -2.179  1.00  0.00     0.211 A 
ATOM     10  C   UNL     1      48.409 -38.326  -2.761  1.00  0.00     0.208 A 
ATOM     11  C   UNL     1      48.708 -37.159  -2.021  1.00  0.00     0.179 A 
ENDROOT
BRANCH   1  12
ATOM     12  C   UNL     1      47.042 -36.980   3.395  1.00  0.00     0.021 A 
ATOM     13  C   UNL     1      46.132 -36.998   6.066  1.00  0.00     0.160 A 
ATOM     14  C   UNL     1      47.462 -36.653   5.783  1.00  0.00     0.161 A 
ATOM     15  C   UNL     1      45.261 -37.325   5.010  1.00  0.00     0.051 A 
ATOM     16  C   UNL     1      47.912 -36.645   4.447  1.00  0.00     0.062 A 
ATOM     17  C   UNL     1      45.713 -37.311   3.691  1.00  0.00     0.016 A 
BRANCH  13  18
ATOM     18  O   UNL     1      45.714 -37.000   7.405  1.00  0.00    -0.493 OA
ATOM     19  C   UNL     1      44.833 -36.040   7.978  1.00  0.00     0.278 C 
ENDBRANCH  13  18
BRANCH  14  20
ATOM     20  O   UNL     1      48.307 -36.325   6.856  1.00  0.00    -0.493 OA
ATOM     21  C   UNL     1      49.153 -37.250   7.530  1.00  0.00     0.278 C 
ENDBRANCH  14  20
ENDBRANCH   1  12
BRANCH   8  22
ATOM     22  O   UNL     1      46.380 -40.266  -0.347  1.00  0.00    -0.490 OA
ATOM     23  C   UNL     1      44.963 -40.269  -0.215  1.00  0.00     0.278 C 
ENDBRANCH   8  22
BRANCH  11  24
ATOM     24  O   UNL     1      49.355 -36.090  -2.645  1.00  0.00    -0.492 OA
ATOM     25  C   UNL     1      48.661 -35.248  -3.559  1.00  0.00     0.278 C 
ENDBRANCH  11  24
BRANCH   9  26
ATOM     26  O   UNL     1      47.174 -40.484  -2.869  1.00  0.00    -0.490 OA
ATOM     27  C   UNL     1      46.099 -40.579  -3.797  1.00  0.00     0.279 C 
ENDBRANCH   9  26
BRANCH  10  28
ATOM     28  O   UNL     1      48.900 -38.515  -4.063  1.00  0.00    -0.490 OA
ATOM     29  C   UNL     1      50.132 -39.148  -4.397  1.00  0.00     0.278 C 
ENDBRANCH  10  28
TORSDOF 7
ENDMDL
MODEL 3
REMARK VINA RESULT:    -5.454      6.104     10.701
REMARK INTER + INTRA:          -8.389
REMARK INTER:                  -7.647
REMARK INTRA:                  -0.741
REMARK UNBOUND:                -0.703
REMARK SMILES COc1ccc(-c2cc(=O)c3c(OC)c(OC)c(OC)c(OC)c3o2)cc1OC
REMARK SMILES IDX 7 1 8 2 9 3 10 4 11 5 24 6 25 7 21 8 18 9 15 10 12 11 6 12
REMARK SMILES IDX 3 13 27 14 4 15 26 16 5 17 2 18 1 19 28 20 29 21 22 22 23 23
REMARK SMILES IDX 13 24 14 25 19 26 20 27 16 28 17 29
REMARK H PARENT
REMARK Flexibility Score: inf
ROOT
ATOM      1  C   UNL     1      46.595 -36.096   6.000  1.00  0.00     0.138 A 
ATOM      2  C   UNL     1      45.744 -37.205   5.940  1.00  0.00     0.100 A 
ATOM      3  C   UNL     1      45.847 -38.195   6.912  1.00  0.00     0.197 A 
ATOM      4  O   UNL     1      45.095 -39.203   6.828  1.00  0.00    -0.289 OA
ATOM      5  C   UNL     1      46.792 -38.061   7.954  1.00  0.00     0.115 A 
ATOM      6  C   UNL     1      47.617 -36.910   7.951  1.00  0.00     0.188 A 
ATOM      7  O   UNL     1      47.484 -36.005   6.985  1.00  0.00    -0.452 OA
ATOM      8  C   UNL     1      48.573 -36.723   8.976  1.00  0.00     0.209 A 
ATOM      9  C   UNL     1      48.740 -37.700   9.968  1.00  0.00     0.211 A 
ATOM     10  C   UNL     1      47.958 -38.881   9.948  1.00  0.00     0.208 A 
ATOM     11  C   UNL     1      46.937 -39.021   8.980  1.00  0.00     0.179 A 
ENDROOT
BRANCH   1  12
ATOM     12  C   UNL     1      46.540 -35.024   4.979  1.00  0.00     0.021 A 
ATOM     13  C   UNL     1      46.472 -32.997   3.017  1.00  0.00     0.160 A 
ATOM     14  C   UNL     1      45.674 -32.885   4.166  1.00  0.00     0.161 A 
ATOM     15  C   UNL     1      47.305 -34.119   2.859  1.00  0.00     0.051 A 
ATOM     16  C   UNL     1      45.712 -33.900   5.143  1.00  0.00     0.062 A 
ATOM     17  C   UNL     1      47.340 -35.117   3.832  1.00  0.00     0.016 A 
BRANCH  13  18
ATOM     18  O   UNL     1      46.410 -31.973   2.060  1.00  0.00    -0.493 OA
ATOM     19  C   UNL     1      46.873 -32.093   0.719  1.00  0.00     0.278 C 
ENDBRANCH  13  18
BRANCH  14  20
ATOM     20  O   UNL     1      44.856 -31.751   4.300  1.00  0.00    -0.493 OA
ATOM     21  C   UNL     1      44.601 -31.079   5.529  1.00  0.00     0.278 C 
ENDBRANCH  14  20
ENDBRANCH   1  12
BRANCH   8  22
ATOM     22  O   UNL     1      49.398 -35.584   9.071  1.00  0.00    -0.490 OA
ATOM     23  C   UNL     1      50.620 -35.357   8.378  1.00  0.00     0.278 C 
ENDBRANCH   8  22
BRANCH  11  24
ATOM     24  O   UNL     1      46.049 -40.095   9.062  1.00  0.00    -0.492 OA
ATOM     25  C   UNL     1      44.995 -40.103  10.018  1.00  0.00     0.278 C 
ENDBRANCH  11  24
BRANCH   9  26
ATOM     26  O   UNL     1      49.719 -37.433  10.947  1.00  0.00    -0.490 OA
ATOM     27  C   UNL     1      49.493 -37.093  12.311  1.00  0.00     0.279 C 
ENDBRANCH   9  26
BRANCH  10  28
ATOM     28  O   UNL     1      48.217 -39.888  10.891  1.00  0.00    -0.490 OA
ATOM     29  C   UNL     1      49.170 -40.937  10.738  1.00  0.00     0.278 C 
ENDBRANCH  10  28
TORSDOF 7
ENDMDL
MODEL 4
REMARK VINA RESULT:    -5.412      2.637      8.119
REMARK INTER + INTRA:          -8.329
REMARK INTER:                  -7.577
REMARK INTRA:                  -0.753
REMARK UNBOUND:                -0.703
REMARK SMILES COc1ccc(-c2cc(=O)c3c(OC)c(OC)c(OC)c(OC)c3o2)cc1OC
REMARK SMILES IDX 7 1 8 2 9 3 10 4 11 5 24 6 25 7 21 8 18 9 15 10 12 11 6 12
REMARK SMILES IDX 3 13 27 14 4 15 26 16 5 17 2 18 1 19 28 20 29 21 22 22 23 23
REMARK SMILES IDX 13 24 14 25 19 26 20 27 16 28 17 29
REMARK H PARENT
REMARK Flexibility Score: inf
ROOT
ATOM      1  C   UNL     1      47.325 -35.169   0.747  1.00  0.00     0.138 A 
ATOM      2  C   UNL     1      48.509 -35.030   0.014  1.00  0.00     0.100 A 
ATOM      3  C   UNL     1      48.781 -35.928  -1.015  1.00  0.00     0.197 A 
ATOM      4  O   UNL     1      49.866 -35.810  -1.646  1.00  0.00    -0.289 OA
ATOM      5  C   UNL     1      47.855 -36.952  -1.316  1.00  0.00     0.115 A 
ATOM      6  C   UNL     1      46.678 -37.028  -0.533  1.00  0.00     0.188 A 
ATOM      7  O   UNL     1      46.480 -36.152   0.449  1.00  0.00    -0.452 OA
ATOM      8  C   UNL     1      45.714 -38.028  -0.800  1.00  0.00     0.209 A 
ATOM      9  C   UNL     1      45.947 -38.976  -1.807  1.00  0.00     0.211 A 
ATOM     10  C   UNL     1      47.146 -38.942  -2.559  1.00  0.00     0.208 A 
ATOM     11  C   UNL     1      48.063 -37.885  -2.357  1.00  0.00     0.179 A 
ENDROOT
BRANCH   1  12
ATOM     12  C   UNL     1      46.998 -34.253   1.865  1.00  0.00     0.021 A 
ATOM     13  C   UNL     1      46.398 -32.478   3.974  1.00  0.00     0.160 A 
ATOM     14  C   UNL     1      46.237 -33.860   4.156  1.00  0.00     0.161 A 
ATOM     15  C   UNL     1      46.865 -31.991   2.740  1.00  0.00     0.051 A 
ATOM     16  C   UNL     1      46.540 -34.743   3.100  1.00  0.00     0.062 A 
ATOM     17  C   UNL     1      47.165 -32.871   1.701  1.00  0.00     0.016 A 
BRANCH  13  18
ATOM     18  O   UNL     1      46.086 -31.623   5.043  1.00  0.00    -0.493 OA
ATOM     19  C   UNL     1      44.790 -31.093   5.300  1.00  0.00     0.278 C 
ENDBRANCH  13  18
BRANCH  14  20
ATOM     20  O   UNL     1      45.775 -34.318   5.401  1.00  0.00    -0.493 OA
ATOM     21  C   UNL     1      44.503 -34.917   5.620  1.00  0.00     0.278 C 
ENDBRANCH  14  20
ENDBRANCH   1  12
BRANCH   8  22
ATOM     22  O   UNL     1      44.497 -38.142  -0.099  1.00  0.00    -0.490 OA
ATOM     23  C   UNL     1      44.305 -38.721   1.187  1.00  0.00     0.278 C 
ENDBRANCH   8  22
BRANCH  11  24
ATOM     24  O   UNL     1      49.157 -37.744  -3.212  1.00  0.00    -0.492 OA
ATOM     25  C   UNL     1      48.989 -37.285  -4.548  1.00  0.00     0.278 C 
ENDBRANCH  11  24
BRANCH   9  26
ATOM     26  O   UNL     1      44.935 -39.939  -2.001  1.00  0.00    -0.490 OA
ATOM     27  C   UNL     1      43.901 -39.908  -2.978  1.00  0.00     0.279 C 
ENDBRANCH   9  26
BRANCH  10  28
ATOM     28  O   UNL     1      47.399 -39.964  -3.488  1.00  0.00    -0.490 OA
ATOM     29  C   UNL     1      48.334 -41.026  -3.313  1.00  0.00     0.278 C 
ENDBRANCH  10  28
TORSDOF 7
ENDMDL
MODEL 5
REMARK VINA RESULT:    -5.397      5.728      9.457
REMARK INTER + INTRA:          -8.309
REMARK INTER:                  -7.789
REMARK INTRA:                  -0.519
REMARK UNBOUND:                -0.703
REMARK SMILES COc1ccc(-c2cc(=O)c3c(OC)c(OC)c(OC)c(OC)c3o2)cc1OC
REMARK SMILES IDX 7 1 8 2 9 3 10 4 11 5 24 6 25 7 21 8 18 9 15 10 12 11 6 12
REMARK SMILES IDX 3 13 27 14 4 15 26 16 5 17 2 18 1 19 28 20 29 21 22 22 23 23
REMARK SMILES IDX 13 24 14 25 19 26 20 27 16 28 17 29
REMARK H PARENT
REMARK Flexibility Score: inf
ROOT
ATOM      1  C   UNL     1      46.941 -36.485   5.289  1.00  0.00     0.138 A 
ATOM      2  C   UNL     1      45.681 -37.010   5.593  1.00  0.00     0.100 A 
ATOM      3  C   UNL     1      45.484 -37.642   6.818  1.00  0.00     0.197 A 
ATOM      4  O   UNL     1      44.351 -38.137   7.065  1.00  0.00    -0.289 OA
ATOM      5  C   UNL     1      46.550 -37.730   7.741  1.00  0.00     0.115 A 
ATOM      6  C   UNL     1      47.796 -37.173   7.365  1.00  0.00     0.188 A 
ATOM      7  O   UNL     1      47.929 -36.596   6.173  1.00  0.00    -0.452 OA
ATOM      8  C   UNL     1      48.892 -37.226   8.257  1.00  0.00     0.209 A 
ATOM      9  C   UNL     1      48.761 -37.874   9.494  1.00  0.00     0.211 A 
ATOM     10  C   UNL     1      47.534 -38.482   9.856  1.00  0.00     0.208 A 
ATOM     11  C   UNL     1      46.413 -38.344   9.007  1.00  0.00     0.179 A 
ENDROOT
BRANCH   1  12
ATOM     12  C   UNL     1      47.209 -35.821   3.992  1.00  0.00     0.021 A 
ATOM     13  C   UNL     1      47.691 -34.525   1.532  1.00  0.00     0.160 A 
ATOM     14  C   UNL     1      47.985 -35.889   1.673  1.00  0.00     0.161 A 
ATOM     15  C   UNL     1      47.151 -33.817   2.621  1.00  0.00     0.051 A 
ATOM     16  C   UNL     1      47.741 -36.533   2.903  1.00  0.00     0.062 A 
ATOM     17  C   UNL     1      46.909 -34.461   3.834  1.00  0.00     0.016 A 
BRANCH  13  18
ATOM     18  O   UNL     1      47.948 -33.910   0.297  1.00  0.00    -0.493 OA
ATOM     19  C   UNL     1      47.996 -32.503   0.090  1.00  0.00     0.278 C 
ENDBRANCH  13  18
BRANCH  14  20
ATOM     20  O   UNL     1      48.518 -36.572   0.568  1.00  0.00    -0.493 OA
ATOM     21  C   UNL     1      47.777 -37.446  -0.277  1.00  0.00     0.278 C 
ENDBRANCH  14  20
ENDBRANCH   1  12
BRANCH   8  22
ATOM     22  O   UNL     1      50.150 -36.655   7.977  1.00  0.00    -0.490 OA
ATOM     23  C   UNL     1      50.572 -35.331   8.283  1.00  0.00     0.278 C 
ENDBRANCH   8  22
BRANCH  11  24
ATOM     24  O   UNL     1      45.160 -38.785   9.436  1.00  0.00    -0.492 OA
ATOM     25  C   UNL     1      44.851 -40.173   9.487  1.00  0.00     0.278 C 
ENDBRANCH  11  24
BRANCH   9  26
ATOM     26  O   UNL     1      49.906 -37.883  10.317  1.00  0.00    -0.490 OA
ATOM     27  C   UNL     1      50.102 -37.141  11.516  1.00  0.00     0.279 C 
ENDBRANCH   9  26
BRANCH  10  28
ATOM     28  O   UNL     1      47.461 -39.212  11.053  1.00  0.00    -0.490 OA
ATOM     29  C   UNL     1      48.014 -40.509  11.264  1.00  0.00     0.278 C 
ENDBRANCH  10  28
TORSDOF 7
ENDMDL
MODEL 6
REMARK VINA RESULT:    -5.382      6.482      9.814
REMARK INTER + INTRA:          -8.287
REMARK INTER:                  -7.573
REMARK INTRA:                  -0.715
REMARK UNBOUND:                -0.703
REMARK SMILES COc1ccc(-c2cc(=O)c3c(OC)c(OC)c(OC)c(OC)c3o2)cc1OC
REMARK SMILES IDX 7 1 8 2 9 3 10 4 11 5 24 6 25 7 21 8 18 9 15 10 12 11 6 12
REMARK SMILES IDX 3 13 27 14 4 15 26 16 5 17 2 18 1 19 28 20 29 21 22 22 23 23
REMARK SMILES IDX 13 24 14 25 19 26 20 27 16 28 17 29
REMARK H PARENT
REMARK Flexibility Score: inf
ROOT
ATOM      1  C   UNL     1      47.418 -37.132   6.057  1.00  0.00     0.138 A 
ATOM      2  C   UNL     1      48.494 -36.277   6.318  1.00  0.00     0.100 A 
ATOM      3  C   UNL     1      49.126 -36.338   7.557  1.00  0.00     0.197 A 
ATOM      4  O   UNL     1      50.075 -35.541   7.790  1.00  0.00    -0.289 OA
ATOM      5  C   UNL     1      48.687 -37.270   8.524  1.00  0.00     0.115 A 
ATOM      6  C   UNL     1      47.594 -38.103   8.187  1.00  0.00     0.188 A 
ATOM      7  O   UNL     1      47.018 -37.988   6.993  1.00  0.00    -0.452 OA
ATOM      8  C   UNL     1      47.121 -39.060   9.116  1.00  0.00     0.209 A 
ATOM      9  C   UNL     1      47.702 -39.149  10.389  1.00  0.00     0.211 A 
ATOM     10  C   UNL     1      48.760 -38.281  10.755  1.00  0.00     0.208 A 
ATOM     11  C   UNL     1      49.295 -37.394   9.794  1.00  0.00     0.179 A 
ENDROOT
BRANCH   1  12
ATOM     12  C   UNL     1      46.699 -37.093   4.763  1.00  0.00     0.021 A 
ATOM     13  C   UNL     1      45.302 -37.049   2.311  1.00  0.00     0.160 A 
ATOM     14  C   UNL     1      46.585 -36.487   2.395  1.00  0.00     0.161 A 
ATOM     15  C   UNL     1      44.727 -37.637   3.452  1.00  0.00     0.051 A 
ATOM     16  C   UNL     1      47.279 -36.512   3.621  1.00  0.00     0.062 A 
ATOM     17  C   UNL     1      45.422 -37.661   4.661  1.00  0.00     0.016 A 
BRANCH  13  18
ATOM     18  O   UNL     1      44.634 -37.006   1.077  1.00  0.00    -0.493 OA
ATOM     19  C   UNL     1      44.596 -38.079   0.143  1.00  0.00     0.278 C 
ENDBRANCH  13  18
BRANCH  14  20
ATOM     20  O   UNL     1      47.136 -35.912   1.238  1.00  0.00    -0.493 OA
ATOM     21  C   UNL     1      48.129 -36.527   0.424  1.00  0.00     0.278 C 
ENDBRANCH  14  20
ENDBRANCH   1  12
BRANCH   8  22
ATOM     22  O   UNL     1      46.071 -39.958   8.840  1.00  0.00    -0.490 OA
ATOM     23  C   UNL     1      44.676 -39.698   8.951  1.00  0.00     0.278 C 
ENDBRANCH   8  22
BRANCH  11  24
ATOM     24  O   UNL     1      50.447 -36.665  10.090  1.00  0.00    -0.492 OA
ATOM     25  C   UNL     1      51.727 -37.288  10.096  1.00  0.00     0.278 C 
ENDBRANCH  11  24
BRANCH   9  26
ATOM     26  O   UNL     1      47.165 -40.127  11.252  1.00  0.00    -0.490 OA
ATOM     27  C   UNL     1      47.853 -41.235  11.821  1.00  0.00     0.279 C 
ENDBRANCH   9  26
BRANCH  10  28
ATOM     28  O   UNL     1      49.252 -38.322  12.070  1.00  0.00    -0.490 OA
ATOM     29  C   UNL     1      48.860 -37.447  13.125  1.00  0.00     0.278 C 
ENDBRANCH  10  28
TORSDOF 7
ENDMDL
MODEL 7
REMARK VINA RESULT:    -5.217      3.180      7.494
REMARK INTER + INTRA:          -8.054
REMARK INTER:                  -7.406
REMARK INTRA:                  -0.648
REMARK UNBOUND:                -0.703
REMARK SMILES COc1ccc(-c2cc(=O)c3c(OC)c(OC)c(OC)c(OC)c3o2)cc1OC
REMARK SMILES IDX 7 1 8 2 9 3 10 4 11 5 24 6 25 7 21 8 18 9 15 10 12 11 6 12
REMARK SMILES IDX 3 13 27 14 4 15 26 16 5 17 2 18 1 19 28 20 29 21 22 22 23 23
REMARK SMILES IDX 13 24 14 25 19 26 20 27 16 28 17 29
REMARK H PARENT
REMARK Flexibility Score: inf
ROOT
ATOM      1  C   UNL     1      47.144 -34.978   3.855  1.00  0.00     0.138 A 
ATOM      2  C   UNL     1      46.906 -33.604   3.741  1.00  0.00     0.100 A 
ATOM      3  C   UNL     1      46.991 -33.000   2.490  1.00  0.00     0.197 A 
ATOM      4  O   UNL     1      46.804 -31.756   2.408  1.00  0.00    -0.289 OA
ATOM      5  C   UNL     1      47.299 -33.780   1.353  1.00  0.00     0.115 A 
ATOM      6  C   UNL     1      47.524 -35.164   1.545  1.00  0.00     0.188 A 
ATOM      7  O   UNL     1      47.446 -35.683   2.768  1.00  0.00    -0.452 OA
ATOM      8  C   UNL     1      47.826 -35.992   0.439  1.00  0.00     0.209 A 
ATOM      9  C   UNL     1      47.951 -35.434  -0.842  1.00  0.00     0.211 A 
ATOM     10  C   UNL     1      47.782 -34.041  -1.035  1.00  0.00     0.208 A 
ATOM     11  C   UNL     1      47.385 -33.232   0.053  1.00  0.00     0.179 A 
ENDROOT
BRANCH   1  12
ATOM     12  C   UNL     1      47.086 -35.666   5.166  1.00  0.00     0.021 A 
ATOM     13  C   UNL     1      46.948 -36.946   7.676  1.00  0.00     0.160 A 
ATOM     14  C   UNL     1      48.010 -37.230   6.804  1.00  0.00     0.161 A 
ATOM     15  C   UNL     1      45.964 -36.018   7.291  1.00  0.00     0.051 A 
ATOM     16  C   UNL     1      48.075 -36.587   5.552  1.00  0.00     0.062 A 
ATOM     17  C   UNL     1      46.038 -35.383   6.051  1.00  0.00     0.016 A 
BRANCH  13  18
ATOM     18  O   UNL     1      46.908 -37.604   8.915  1.00  0.00    -0.493 OA
ATOM     19  C   UNL     1      46.083 -38.727   9.206  1.00  0.00     0.278 C 
ENDBRANCH  13  18
BRANCH  14  20
ATOM     20  O   UNL     1      48.980 -38.157   7.218  1.00  0.00    -0.493 OA
ATOM     21  C   UNL     1      50.214 -37.813   7.839  1.00  0.00     0.278 C 
ENDBRANCH  14  20
ENDBRANCH   1  12
BRANCH   8  22
ATOM     22  O   UNL     1      48.017 -37.385   0.539  1.00  0.00    -0.490 OA
ATOM     23  C   UNL     1      47.004 -38.384   0.580  1.00  0.00     0.278 C 
ENDBRANCH   8  22
BRANCH  11  24
ATOM     24  O   UNL     1      47.045 -31.896  -0.164  1.00  0.00    -0.492 OA
ATOM     25  C   UNL     1      48.033 -30.939  -0.530  1.00  0.00     0.278 C 
ENDBRANCH  11  24
BRANCH   9  26
ATOM     26  O   UNL     1      48.258 -36.332  -1.885  1.00  0.00    -0.490 OA
ATOM     27  C   UNL     1      47.346 -36.906  -2.815  1.00  0.00     0.279 C 
ENDBRANCH   9  26
BRANCH  10  28
ATOM     28  O   UNL     1      48.015 -33.496  -2.308  1.00  0.00    -0.490 OA
ATOM     29  C   UNL     1      47.023 -33.280  -3.308  1.00  0.00     0.278 C 
ENDBRANCH  10  28
TORSDOF 7
ENDMDL
MODEL 8
REMARK VINA RESULT:    -5.209      1.868      4.033
REMARK INTER + INTRA:          -8.044
REMARK INTER:                  -7.461
REMARK INTRA:                  -0.583
REMARK UNBOUND:                -0.703
REMARK SMILES COc1ccc(-c2cc(=O)c3c(OC)c(OC)c(OC)c(OC)c3o2)cc1OC
REMARK SMILES IDX 7 1 8 2 9 3 10 4 11 5 24 6 25 7 21 8 18 9 15 10 12 11 6 12
REMARK SMILES IDX 3 13 27 14 4 15 26 16 5 17 2 18 1 19 28 20 29 21 22 22 23 23
REMARK SMILES IDX 13 24 14 25 19 26 20 27 16 28 17 29
REMARK H PARENT
REMARK Flexibility Score: inf
ROOT
ATOM      1  C   UNL     1      47.630 -38.103  -1.401  1.00  0.00     0.138 A 
ATOM      2  C   UNL     1      46.746 -38.940  -0.712  1.00  0.00     0.100 A 
ATOM      3  C   UNL     1      46.084 -38.454   0.412  1.00  0.00     0.197 A 
ATOM      4  O   UNL     1      45.314 -39.229   1.041  1.00  0.00    -0.289 OA
ATOM      5  C   UNL     1      46.298 -37.121   0.830  1.00  0.00     0.115 A 
ATOM      6  C   UNL     1      47.205 -36.333   0.082  1.00  0.00     0.188 A 
ATOM      7  O   UNL     1      47.822 -36.858  -0.974  1.00  0.00    -0.452 OA
ATOM      8  C   UNL     1      47.448 -34.990   0.453  1.00  0.00     0.209 A 
ATOM      9  C   UNL     1      46.830 -34.453   1.592  1.00  0.00     0.211 A 
ATOM     10  C   UNL     1      45.964 -35.251   2.379  1.00  0.00     0.208 A 
ATOM     11  C   UNL     1      45.647 -36.561   1.952  1.00  0.00     0.179 A 
ENDROOT
BRANCH   1  12
ATOM     12  C   UNL     1      48.374 -38.578  -2.590  1.00  0.00     0.021 A 
ATOM     13  C   UNL     1      49.773 -39.454  -4.879  1.00  0.00     0.160 A 
ATOM     14  C   UNL     1      49.672 -40.292  -3.758  1.00  0.00     0.161 A 
ATOM     15  C   UNL     1      49.167 -38.185  -4.852  1.00  0.00     0.051 A 
ATOM     16  C   UNL     1      48.972 -39.851  -2.617  1.00  0.00     0.062 A 
ATOM     17  C   UNL     1      48.472 -37.757  -3.721  1.00  0.00     0.016 A 
BRANCH  13  18
ATOM     18  O   UNL     1      50.479 -39.920  -5.999  1.00  0.00    -0.493 OA
ATOM     19  C   UNL     1      51.400 -39.139  -6.753  1.00  0.00     0.278 C 
ENDBRANCH  13  18
BRANCH  14  20
ATOM     20  O   UNL     1      50.282 -41.556  -3.815  1.00  0.00    -0.493 OA
ATOM     21  C   UNL     1      51.414 -41.943  -3.043  1.00  0.00     0.278 C 
ENDBRANCH  14  20
ENDBRANCH   1  12
BRANCH   8  22
ATOM     22  O   UNL     1      48.298 -34.126  -0.266  1.00  0.00    -0.490 OA
ATOM     23  C   UNL     1      47.978 -33.408  -1.452  1.00  0.00     0.278 C 
ENDBRANCH   8  22
BRANCH  11  24
ATOM     24  O   UNL     1      44.661 -37.288   2.622  1.00  0.00    -0.492 OA
ATOM     25  C   UNL     1      44.916 -37.861   3.900  1.00  0.00     0.278 C 
ENDBRANCH  11  24
BRANCH   9  26
ATOM     26  O   UNL     1      47.133 -33.109   1.891  1.00  0.00    -0.490 OA
ATOM     27  C   UNL     1      46.328 -31.969   1.610  1.00  0.00     0.279 C 
ENDBRANCH   9  26
BRANCH  10  28
ATOM     28  O   UNL     1      45.441 -34.721   3.570  1.00  0.00    -0.490 OA
ATOM     29  C   UNL     1      46.155 -34.585   4.796  1.00  0.00     0.278 C 
ENDBRANCH  10  28
TORSDOF 7
ENDMDL
MODEL 9
REMARK VINA RESULT:    -5.182      1.825      2.873
REMARK INTER + INTRA:          -8.005
REMARK INTER:                  -7.403
REMARK INTRA:                  -0.602
REMARK UNBOUND:                -0.703
REMARK SMILES COc1ccc(-c2cc(=O)c3c(OC)c(OC)c(OC)c(OC)c3o2)cc1OC
REMARK SMILES IDX 7 1 8 2 9 3 10 4 11 5 24 6 25 7 21 8 18 9 15 10 12 11 6 12
REMARK SMILES IDX 3 13 27 14 4 15 26 16 5 17 2 18 1 19 28 20 29 21 22 22 23 23
REMARK SMILES IDX 13 24 14 25 19 26 20 27 16 28 17 29
REMARK H PARENT
REMARK Flexibility Score: inf
ROOT
ATOM      1  C   UNL     1      48.438 -36.708  -1.598  1.00  0.00     0.138 A 
ATOM      2  C   UNL     1      48.742 -35.349  -1.473  1.00  0.00     0.100 A 
ATOM      3  C   UNL     1      48.163 -34.615  -0.442  1.00  0.00     0.197 A 
ATOM      4  O   UNL     1      48.421 -33.383  -0.360  1.00  0.00    -0.289 OA
ATOM      5  C   UNL     1      47.294 -35.252   0.472  1.00  0.00     0.115 A 
ATOM      6  C   UNL     1      47.036 -36.631   0.283  1.00  0.00     0.188 A 
ATOM      7  O   UNL     1      47.605 -37.277  -0.731  1.00  0.00    -0.452 OA
ATOM      8  C   UNL     1      46.181 -37.320   1.175  1.00  0.00     0.209 A 
ATOM      9  C   UNL     1      45.548 -36.626   2.217  1.00  0.00     0.211 A 
ATOM     10  C   UNL     1      45.756 -35.234   2.381  1.00  0.00     0.208 A 
ATOM     11  C   UNL     1      46.686 -34.569   1.549  1.00  0.00     0.179 A 
ENDROOT
BRANCH   1  12
ATOM     12  C   UNL     1      49.012 -37.530  -2.690  1.00  0.00     0.021 A 
ATOM     13  C   UNL     1      50.113 -39.059  -4.790  1.00  0.00     0.160 A 
ATOM     14  C   UNL     1      49.256 -39.665  -3.859  1.00  0.00     0.161 A 
ATOM     15  C   UNL     1      50.409 -37.689  -4.670  1.00  0.00     0.051 A 
ATOM     16  C   UNL     1      48.708 -38.897  -2.812  1.00  0.00     0.062 A 
ATOM     17  C   UNL     1      49.859 -36.935  -3.634  1.00  0.00     0.016 A 
BRANCH  13  18
ATOM     18  O   UNL     1      50.647 -39.850  -5.819  1.00  0.00    -0.493 OA
ATOM     19  C   UNL     1      51.407 -39.346  -6.912  1.00  0.00     0.278 C 
ENDBRANCH  13  18
BRANCH  14  20
ATOM     20  O   UNL     1      48.974 -41.033  -4.007  1.00  0.00    -0.493 OA
ATOM     21  C   UNL     1      49.734 -42.083  -3.420  1.00  0.00     0.278 C 
ENDBRANCH  14  20
ENDBRANCH   1  12
BRANCH   8  22
ATOM     22  O   UNL     1      45.911 -38.700   1.084  1.00  0.00    -0.490 OA
ATOM     23  C   UNL     1      44.920 -39.323   0.275  1.00  0.00     0.278 C 
ENDBRANCH   8  22
BRANCH  11  24
ATOM     24  O   UNL     1      47.028 -33.242   1.816  1.00  0.00    -0.492 OA
ATOM     25  C   UNL     1      46.120 -32.182   1.541  1.00  0.00     0.278 C 
ENDBRANCH  11  24
BRANCH   9  26
ATOM     26  O   UNL     1      44.709 -37.389   3.055  1.00  0.00    -0.490 OA
ATOM     27  C   UNL     1      45.038 -37.932   4.329  1.00  0.00     0.279 C 
ENDBRANCH   9  26
BRANCH  10  28
ATOM     28  O   UNL     1      45.030 -34.547   3.366  1.00  0.00    -0.490 OA
ATOM     29  C   UNL     1      45.478 -34.294   4.696  1.00  0.00     0.278 C 
ENDBRANCH  10  28
TORSDOF 7
ENDMDL
