MODEL 1
REMARK VINA RESULT:    -5.504      0.000      0.000
REMARK INTER + INTRA:          -5.504
REMARK INTER:                  -5.504
REMARK INTRA:                   0.000
REMARK UNBOUND:                 0.000
REMARK SMILES CC1=CC(=O)[C@@H]2C[C@H]1C2(C)C
REMARK SMILES IDX 1 1 2 2 3 3 4 4 5 5 6 6 7 7 8 8 9 9 10 10 11 11
REMARK H PARENT
REMARK Flexibility Score: inf
ROOT
ATOM      1  C   UNL     1     116.006 176.350 128.511  1.00  0.00     0.040 C 
ATOM      2  C   UNL     1     116.289 176.857 127.133  1.00  0.00    -0.066 C 
ATOM      3  C   UNL     1     115.313 176.910 126.184  1.00  0.00     0.047 C 
ATOM      4  C   UNL     1     115.713 177.467 124.851  1.00  0.00     0.159 C 
ATOM      5  O   UNL     1     114.893 177.604 123.906  1.00  0.00    -0.295 OA
ATOM      6  C   UNL     1     117.186 177.858 124.720  1.00  0.00     0.067 C 
ATOM      7  C   UNL     1     117.948 176.666 125.338  1.00  0.00     0.021 C 
ATOM      8  C   UNL     1     117.697 177.327 126.711  1.00  0.00     0.022 C 
ATOM      9  C   UNL     1     117.588 178.691 125.971  1.00  0.00    -0.019 C 
ATOM     10  C   UNL     1     118.966 179.381 125.801  1.00  0.00     0.012 C 
ATOM     11  C   UNL     1     116.581 179.744 126.514  1.00  0.00     0.012 C 
ENDROOT
TORSDOF 0
ENDMDL
MODEL 2
REMARK VINA RESULT:    -5.428      2.216      3.685
REMARK INTER + INTRA:          -5.428
REMARK INTER:                  -5.428
REMARK INTRA:                   0.000
REMARK UNBOUND:                 0.000
REMARK SMILES CC1=CC(=O)[C@@H]2C[C@H]1C2(C)C
REMARK SMILES IDX 1 1 2 2 3 3 4 4 5 5 6 6 7 7 8 8 9 9 10 10 11 11
REMARK H PARENT
REMARK Flexibility Score: inf
ROOT
ATOM      1  C   UNL     1     119.022 178.518 123.796  1.00  0.00     0.040 C 
ATOM      2  C   UNL     1     118.391 178.175 125.107  1.00  0.00    -0.066 C 
ATOM      3  C   UNL     1     119.055 178.356 126.283  1.00  0.00     0.047 C 
ATOM      4  C   UNL     1     118.305 178.003 127.530  1.00  0.00     0.159 C 
ATOM      5  O   UNL     1     118.796 178.164 128.679  1.00  0.00    -0.295 OA
ATOM      6  C   UNL     1     116.901 177.437 127.313  1.00  0.00     0.067 C 
ATOM      7  C   UNL     1     117.084 176.400 126.183  1.00  0.00     0.021 C 
ATOM      8  C   UNL     1     116.968 177.583 125.196  1.00  0.00     0.022 C 
ATOM      9  C   UNL     1     116.158 178.341 126.287  1.00  0.00    -0.019 C 
ATOM     10  C   UNL     1     114.642 178.029 126.217  1.00  0.00     0.012 C 
ATOM     11  C   UNL     1     116.334 179.882 126.395  1.00  0.00     0.012 C 
ENDROOT
TORSDOF 0
ENDMDL
MODEL 3
REMARK VINA RESULT:    -5.372      1.740      2.222
REMARK INTER + INTRA:          -5.372
REMARK INTER:                  -5.372
REMARK INTRA:                   0.000
REMARK UNBOUND:                 0.000
REMARK SMILES CC1=CC(=O)[C@@H]2C[C@H]1C2(C)C
REMARK SMILES IDX 1 1 2 2 3 3 4 4 5 5 6 6 7 7 8 8 9 9 10 10 11 11
REMARK H PARENT
REMARK Flexibility Score: inf
ROOT
ATOM      1  C   UNL     1     116.528 175.246 126.250  1.00  0.00     0.040 C 
ATOM      2  C   UNL     1     116.999 176.659 126.121  1.00  0.00    -0.066 C 
ATOM      3  C   UNL     1     116.153 177.709 126.318  1.00  0.00     0.047 C 
ATOM      4  C   UNL     1     116.753 179.076 126.189  1.00  0.00     0.159 C 
ATOM      5  O   UNL     1     116.084 180.125 126.387  1.00  0.00    -0.295 OA
ATOM      6  C   UNL     1     118.232 179.110 125.804  1.00  0.00     0.067 C 
ATOM      7  C   UNL     1     118.344 178.089 124.651  1.00  0.00     0.021 C 
ATOM      8  C   UNL     1     118.456 177.000 125.741  1.00  0.00     0.022 C 
ATOM      9  C   UNL     1     118.999 178.097 126.702  1.00  0.00    -0.019 C 
ATOM     10  C   UNL     1     120.536 178.263 126.597  1.00  0.00     0.012 C 
ATOM     11  C   UNL     1     118.620 178.008 128.207  1.00  0.00     0.012 C 
ENDROOT
TORSDOF 0
ENDMDL
MODEL 4
REMARK VINA RESULT:    -5.328      2.615      3.835
REMARK INTER + INTRA:          -5.328
REMARK INTER:                  -5.328
REMARK INTRA:                   0.000
REMARK UNBOUND:                 0.000
REMARK SMILES CC1=CC(=O)[C@@H]2C[C@H]1C2(C)C
REMARK SMILES IDX 1 1 2 2 3 3 4 4 5 5 6 6 7 7 8 8 9 9 10 10 11 11
REMARK H PARENT
REMARK Flexibility Score: inf
ROOT
ATOM      1  C   UNL     1     122.022 178.624 127.511  1.00  0.00     0.040 C 
ATOM      2  C   UNL     1     120.845 177.929 126.904  1.00  0.00    -0.066 C 
ATOM      3  C   UNL     1     119.849 177.415 127.678  1.00  0.00     0.047 C 
ATOM      4  C   UNL     1     118.709 176.769 126.951  1.00  0.00     0.159 C 
ATOM      5  O   UNL     1     117.712 176.292 127.552  1.00  0.00    -0.295 OA
ATOM      6  C   UNL     1     118.842 176.732 125.428  1.00  0.00     0.067 C 
ATOM      7  C   UNL     1     120.294 176.267 125.187  1.00  0.00     0.021 C 
ATOM      8  C   UNL     1     120.708 177.744 125.378  1.00  0.00     0.022 C 
ATOM      9  C   UNL     1     119.271 178.144 124.935  1.00  0.00    -0.019 C 
ATOM     10  C   UNL     1     119.149 178.293 123.397  1.00  0.00     0.012 C 
ATOM     11  C   UNL     1     118.617 179.389 125.598  1.00  0.00     0.012 C 
ENDROOT
TORSDOF 0
ENDMDL
MODEL 5
REMARK VINA RESULT:    -5.316      2.536      4.001
REMARK INTER + INTRA:          -5.316
REMARK INTER:                  -5.316
REMARK INTRA:                   0.000
REMARK UNBOUND:                 0.000
REMARK SMILES CC1=CC(=O)[C@@H]2C[C@H]1C2(C)C
REMARK SMILES IDX 1 1 2 2 3 3 4 4 5 5 6 6 7 7 8 8 9 9 10 10 11 11
REMARK H PARENT
REMARK Flexibility Score: inf
ROOT
ATOM      1  C   UNL     1     122.002 178.972 127.371  1.00  0.00     0.040 C 
ATOM      2  C   UNL     1     120.822 178.250 126.803  1.00  0.00    -0.066 C 
ATOM      3  C   UNL     1     120.798 176.891 126.713  1.00  0.00     0.047 C 
ATOM      4  C   UNL     1     119.546 176.285 126.155  1.00  0.00     0.159 C 
ATOM      5  O   UNL     1     119.388 175.039 126.058  1.00  0.00    -0.295 OA
ATOM      6  C   UNL     1     118.476 177.283 125.712  1.00  0.00     0.067 C 
ATOM      7  C   UNL     1     119.260 178.347 124.914  1.00  0.00     0.021 C 
ATOM      8  C   UNL     1     119.583 179.005 126.275  1.00  0.00     0.022 C 
ATOM      9  C   UNL     1     118.293 178.342 126.837  1.00  0.00    -0.019 C 
ATOM     10  C   UNL     1     117.036 179.221 126.620  1.00  0.00     0.012 C 
ATOM     11  C   UNL     1     118.299 177.859 128.315  1.00  0.00     0.012 C 
ENDROOT
TORSDOF 0
ENDMDL
MODEL 6
REMARK VINA RESULT:    -5.300      1.670      3.546
REMARK INTER + INTRA:          -5.300
REMARK INTER:                  -5.300
REMARK INTRA:                   0.000
REMARK UNBOUND:                 0.000
REMARK SMILES CC1=CC(=O)[C@@H]2C[C@H]1C2(C)C
REMARK SMILES IDX 1 1 2 2 3 3 4 4 5 5 6 6 7 7 8 8 9 9 10 10 11 11
REMARK H PARENT
REMARK Flexibility Score: inf
ROOT
ATOM      1  C   UNL     1     119.389 178.623 122.510  1.00  0.00     0.040 C 
ATOM      2  C   UNL     1     118.682 178.346 123.799  1.00  0.00    -0.066 C 
ATOM      3  C   UNL     1     117.414 177.848 123.819  1.00  0.00     0.047 C 
ATOM      4  C   UNL     1     116.827 177.584 125.172  1.00  0.00     0.159 C 
ATOM      5  O   UNL     1     115.679 177.088 125.321  1.00  0.00    -0.295 OA
ATOM      6  C   UNL     1     117.718 177.957 126.357  1.00  0.00     0.067 C 
ATOM      7  C   UNL     1     118.262 179.356 125.994  1.00  0.00     0.021 C 
ATOM      8  C   UNL     1     119.343 178.625 125.165  1.00  0.00     0.022 C 
ATOM      9  C   UNL     1     119.145 177.396 126.098  1.00  0.00    -0.019 C 
ATOM     10  C   UNL     1     120.043 177.463 127.360  1.00  0.00     0.012 C 
ATOM     11  C   UNL     1     119.280 175.975 125.480  1.00  0.00     0.012 C 
ENDROOT
TORSDOF 0
ENDMDL
MODEL 7
REMARK VINA RESULT:    -5.288      1.625      3.048
REMARK INTER + INTRA:          -5.288
REMARK INTER:                  -5.288
REMARK INTRA:                   0.000
REMARK UNBOUND:                 0.000
REMARK SMILES CC1=CC(=O)[C@@H]2C[C@H]1C2(C)C
REMARK SMILES IDX 1 1 2 2 3 3 4 4 5 5 6 6 7 7 8 8 9 9 10 10 11 11
REMARK H PARENT
REMARK Flexibility Score: inf
ROOT
ATOM      1  C   UNL     1     119.021 177.806 128.717  1.00  0.00     0.040 C 
ATOM      2  C   UNL     1     118.269 177.966 127.434  1.00  0.00    -0.066 C 
ATOM      3  C   UNL     1     118.835 177.649 126.236  1.00  0.00     0.047 C 
ATOM      4  C   UNL     1     117.969 177.824 125.026  1.00  0.00     0.159 C 
ATOM      5  O   UNL     1     118.365 177.528 123.868  1.00  0.00    -0.295 OA
ATOM      6  C   UNL     1     116.572 178.384 125.296  1.00  0.00     0.067 C 
ATOM      7  C   UNL     1     116.819 179.561 126.264  1.00  0.00     0.021 C 
ATOM      8  C   UNL     1     116.826 178.513 127.400  1.00  0.00     0.022 C 
ATOM      9  C   UNL     1     115.949 177.605 126.490  1.00  0.00    -0.019 C 
ATOM     10  C   UNL     1     114.435 177.892 126.655  1.00  0.00     0.012 C 
ATOM     11  C   UNL     1     116.164 176.066 126.561  1.00  0.00     0.012 C 
ENDROOT
TORSDOF 0
ENDMDL
MODEL 8
REMARK VINA RESULT:    -5.275      1.634      3.011
REMARK INTER + INTRA:          -5.275
REMARK INTER:                  -5.275
REMARK INTRA:                   0.000
REMARK UNBOUND:                 0.000
REMARK SMILES CC1=CC(=O)[C@@H]2C[C@H]1C2(C)C
REMARK SMILES IDX 1 1 2 2 3 3 4 4 5 5 6 6 7 7 8 8 9 9 10 10 11 11
REMARK H PARENT
REMARK Flexibility Score: inf
ROOT
ATOM      1  C   UNL     1     115.211 177.814 123.796  1.00  0.00     0.040 C 
ATOM      2  C   UNL     1     115.867 177.772 125.139  1.00  0.00    -0.066 C 
ATOM      3  C   UNL     1     115.414 176.946 126.123  1.00  0.00     0.047 C 
ATOM      4  C   UNL     1     116.174 176.972 127.413  1.00  0.00     0.159 C 
ATOM      5  O   UNL     1     115.878 176.227 128.384  1.00  0.00    -0.295 OA
ATOM      6  C   UNL     1     117.335 177.966 127.469  1.00  0.00     0.067 C 
ATOM      7  C   UNL     1     116.749 179.264 126.873  1.00  0.00     0.021 C 
ATOM      8  C   UNL     1     117.073 178.670 125.484  1.00  0.00     0.022 C 
ATOM      9  C   UNL     1     118.177 177.815 126.170  1.00  0.00    -0.019 C 
ATOM     10  C   UNL     1     119.533 178.562 126.256  1.00  0.00     0.012 C 
ATOM     11  C   UNL     1     118.444 176.384 125.623  1.00  0.00     0.012 C 
ENDROOT
TORSDOF 0
ENDMDL
MODEL 9
REMARK VINA RESULT:    -5.198      0.945      3.081
REMARK INTER + INTRA:          -5.198
REMARK INTER:                  -5.198
REMARK INTRA:                   0.000
REMARK UNBOUND:                 0.000
REMARK SMILES CC1=CC(=O)[C@@H]2C[C@H]1C2(C)C
REMARK SMILES IDX 1 1 2 2 3 3 4 4 5 5 6 6 7 7 8 8 9 9 10 10 11 11
REMARK H PARENT
REMARK Flexibility Score: inf
ROOT
ATOM      1  C   UNL     1     119.583 177.321 125.045  1.00  0.00     0.040 C 
ATOM      2  C   UNL     1     118.136 177.550 125.345  1.00  0.00    -0.066 C 
ATOM      3  C   UNL     1     117.222 177.713 124.347  1.00  0.00     0.047 C 
ATOM      4  C   UNL     1     115.799 177.904 124.775  1.00  0.00     0.159 C 
ATOM      5  O   UNL     1     114.858 178.026 123.947  1.00  0.00    -0.295 OA
ATOM      6  C   UNL     1     115.569 177.940 126.286  1.00  0.00     0.067 C 
ATOM      7  C   UNL     1     116.683 178.870 126.815  1.00  0.00     0.021 C 
ATOM      8  C   UNL     1     117.608 177.632 126.792  1.00  0.00     0.022 C 
ATOM      9  C   UNL     1     116.334 176.749 126.931  1.00  0.00    -0.019 C 
ATOM     10  C   UNL     1     115.933 176.522 128.411  1.00  0.00     0.012 C 
ATOM     11  C   UNL     1     116.311 175.374 126.204  1.00  0.00     0.012 C 
ENDROOT
TORSDOF 0
ENDMDL
