MODEL 1
REMARK VINA RESULT:    -4.522      0.000      0.000
REMARK INTER + INTRA:          -6.275
REMARK INTER:                  -6.109
REMARK INTRA:                  -0.167
REMARK UNBOUND:                -0.167
REMARK SMILES [NH3+]CCCC[C@@H]([NH3+])C(=O)[O-]
REMARK SMILES IDX 4 1 3 2 2 3 1 4 5 8 6 9 7 10 8 14 9 15 10 16
REMARK H PARENT 1 5 1 6 1 7 7 11 7 12 7 13
REMARK Flexibility Score: inf
ROOT
ATOM      1  C   UNL     1       3.089  41.791  11.333  1.00  0.00     0.012 C 
ENDROOT
BRANCH   1   2
ATOM      2  C   UNL     1       3.106  40.675  12.389  1.00  0.00     0.061 C 
BRANCH   2   3
ATOM      3  C   UNL     1       4.531  40.272  12.801  1.00  0.00     0.258 C 
BRANCH   3   4
ATOM      4  N   UNL     1       4.504  39.163  13.756  1.00  0.00    -0.358 N 
ATOM      5  H   UNL     1       5.469  38.787  13.898  1.00  0.00     0.344 HD
ATOM      6  H   UNL     1       4.111  39.487  14.670  1.00  0.00     0.344 HD
ATOM      7  H   UNL     1       3.897  38.402  13.378  1.00  0.00     0.344 HD
ENDBRANCH   3   4
ENDBRANCH   2   3
ENDBRANCH   1   2
BRANCH   1   8
ATOM      8  C   UNL     1       2.541  43.120  11.884  1.00  0.00     0.072 C 
BRANCH   8   9
ATOM      9  C   UNL     1       3.615  44.228  11.937  1.00  0.00     0.227 C 
BRANCH   9  10
ATOM     10  N   UNL     1       4.915  43.747  11.448  1.00  0.00    -0.350 N 
ATOM     11  H   UNL     1       5.335  43.083  12.136  1.00  0.00     0.345 HD
ATOM     12  H   UNL     1       4.810  43.268  10.523  1.00  0.00     0.345 HD
ATOM     13  H   UNL     1       5.576  44.552  11.343  1.00  0.00     0.345 HD
ENDBRANCH   9  10
BRANCH   9  14
ATOM     14  C   UNL     1       3.162  45.407  11.119  1.00  0.00     0.099 C 
ATOM     15  O   UNL     1       1.962  45.495  10.745  1.00  0.00    -0.544 OA
ATOM     16  O   UNL     1       4.067  46.397  10.754  1.00  0.00    -0.544 OA
ENDBRANCH   9  14
ENDBRANCH   8   9
ENDBRANCH   1   8
TORSDOF 7
ENDMDL
MODEL 2
REMARK VINA RESULT:    -4.495      2.895      5.377
REMARK INTER + INTRA:          -6.239
REMARK INTER:                  -6.050
REMARK INTRA:                  -0.189
REMARK UNBOUND:                -0.167
REMARK SMILES [NH3+]CCCC[C@@H]([NH3+])C(=O)[O-]
REMARK SMILES IDX 4 1 3 2 2 3 1 4 5 8 6 9 7 10 8 14 9 15 10 16
REMARK H PARENT 1 5 1 6 1 7 7 11 7 12 7 13
REMARK Flexibility Score: inf
ROOT
ATOM      1  C   UNL     1       3.966  46.270  10.759  1.00  0.00     0.012 C 
ENDROOT
BRANCH   1   2
ATOM      2  C   UNL     1       4.538  46.415   9.339  1.00  0.00     0.061 C 
BRANCH   2   3
ATOM      3  C   UNL     1       5.628  47.496   9.248  1.00  0.00     0.258 C 
BRANCH   3   4
ATOM      4  N   UNL     1       5.215  48.579   8.356  1.00  0.00    -0.358 N 
ATOM      5  H   UNL     1       5.779  48.555   7.476  1.00  0.00     0.344 HD
ATOM      6  H   UNL     1       4.198  48.487   8.127  1.00  0.00     0.344 HD
ATOM      7  H   UNL     1       5.373  49.494   8.834  1.00  0.00     0.344 HD
ENDBRANCH   3   4
ENDBRANCH   2   3
ENDBRANCH   1   2
BRANCH   1   8
ATOM      8  C   UNL     1       4.190  44.865  11.347  1.00  0.00     0.072 C 
BRANCH   8   9
ATOM      9  C   UNL     1       3.900  43.742  10.327  1.00  0.00     0.227 C 
BRANCH   9  10
ATOM     10  N   UNL     1       4.658  42.520  10.636  1.00  0.00    -0.350 N 
ATOM     11  H   UNL     1       4.113  41.914  11.289  1.00  0.00     0.345 HD
ATOM     12  H   UNL     1       4.871  41.985   9.762  1.00  0.00     0.345 HD
ATOM     13  H   UNL     1       5.557  42.769  11.112  1.00  0.00     0.345 HD
ENDBRANCH   9  10
BRANCH   9  14
ATOM     14  C   UNL     1       2.425  43.445  10.314  1.00  0.00     0.099 C 
ATOM     15  O   UNL     1       1.738  43.695   9.288  1.00  0.00    -0.544 OA
ATOM     16  O   UNL     1       1.807  42.911  11.438  1.00  0.00    -0.544 OA
ENDBRANCH   9  14
ENDBRANCH   8   9
ENDBRANCH   1   8
TORSDOF 7
ENDMDL
MODEL 3
REMARK VINA RESULT:    -4.492      2.796      5.447
REMARK INTER + INTRA:          -6.235
REMARK INTER:                  -6.114
REMARK INTRA:                  -0.121
REMARK UNBOUND:                -0.167
REMARK SMILES [NH3+]CCCC[C@@H]([NH3+])C(=O)[O-]
REMARK SMILES IDX 4 1 3 2 2 3 1 4 5 8 6 9 7 10 8 14 9 15 10 16
REMARK H PARENT 1 5 1 6 1 7 7 11 7 12 7 13
REMARK Flexibility Score: inf
ROOT
ATOM      1  C   UNL     1       3.662  46.031  10.917  1.00  0.00     0.012 C 
ENDROOT
BRANCH   1   2
ATOM      2  C   UNL     1       4.792  46.502   9.987  1.00  0.00     0.061 C 
BRANCH   2   3
ATOM      3  C   UNL     1       4.276  47.337   8.804  1.00  0.00     0.258 C 
BRANCH   3   4
ATOM      4  N   UNL     1       5.174  48.458   8.527  1.00  0.00    -0.358 N 
ATOM      5  H   UNL     1       5.093  48.745   7.524  1.00  0.00     0.344 HD
ATOM      6  H   UNL     1       4.938  49.268   9.146  1.00  0.00     0.344 HD
ATOM      7  H   UNL     1       6.158  48.164   8.716  1.00  0.00     0.344 HD
ENDBRANCH   3   4
ENDBRANCH   2   3
ENDBRANCH   1   2
BRANCH   1   8
ATOM      8  C   UNL     1       3.976  44.688  11.598  1.00  0.00     0.072 C 
BRANCH   8   9
ATOM      9  C   UNL     1       3.555  43.475  10.740  1.00  0.00     0.227 C 
BRANCH   9  10
ATOM     10  N   UNL     1       4.717  42.678  10.319  1.00  0.00    -0.350 N 
ATOM     11  H   UNL     1       5.256  42.359  11.154  1.00  0.00     0.345 HD
ATOM     12  H   UNL     1       4.414  41.845   9.762  1.00  0.00     0.345 HD
ATOM     13  H   UNL     1       5.357  43.265   9.734  1.00  0.00     0.345 HD
ENDBRANCH   9  10
BRANCH   9  14
ATOM     14  C   UNL     1       2.597  42.616  11.520  1.00  0.00     0.099 C 
ATOM     15  O   UNL     1       2.937  41.459  11.886  1.00  0.00    -0.544 OA
ATOM     16  O   UNL     1       1.324  43.084  11.826  1.00  0.00    -0.544 OA
ENDBRANCH   9  14
ENDBRANCH   8   9
ENDBRANCH   1   8
TORSDOF 7
ENDMDL
MODEL 4
REMARK VINA RESULT:    -4.472      2.847      5.434
REMARK INTER + INTRA:          -6.208
REMARK INTER:                  -6.082
REMARK INTRA:                  -0.126
REMARK UNBOUND:                -0.167
REMARK SMILES [NH3+]CCCC[C@@H]([NH3+])C(=O)[O-]
REMARK SMILES IDX 4 1 3 2 2 3 1 4 5 8 6 9 7 10 8 14 9 15 10 16
REMARK H PARENT 1 5 1 6 1 7 7 11 7 12 7 13
REMARK Flexibility Score: inf
ROOT
ATOM      1  C   UNL     1       3.735  46.040  10.885  1.00  0.00     0.012 C 
ENDROOT
BRANCH   1   2
ATOM      2  C   UNL     1       4.817  46.443   9.870  1.00  0.00     0.061 C 
BRANCH   2   3
ATOM      3  C   UNL     1       4.258  47.281   8.710  1.00  0.00     0.258 C 
BRANCH   3   4
ATOM      4  N   UNL     1       5.146  48.403   8.402  1.00  0.00    -0.358 N 
ATOM      5  H   UNL     1       6.132  48.067   8.309  1.00  0.00     0.344 HD
ATOM      6  H   UNL     1       4.844  48.866   7.514  1.00  0.00     0.344 HD
ATOM      7  H   UNL     1       5.098  49.100   9.179  1.00  0.00     0.344 HD
ENDBRANCH   3   4
ENDBRANCH   2   3
ENDBRANCH   1   2
BRANCH   1   8
ATOM      8  C   UNL     1       4.015  44.676  11.540  1.00  0.00     0.072 C 
BRANCH   8   9
ATOM      9  C   UNL     1       3.545  43.491  10.668  1.00  0.00     0.227 C 
BRANCH   9  10
ATOM     10  N   UNL     1       4.680  42.719  10.142  1.00  0.00    -0.350 N 
ATOM     11  H   UNL     1       4.777  41.820  10.664  1.00  0.00     0.345 HD
ATOM     12  H   UNL     1       4.552  42.517   9.123  1.00  0.00     0.345 HD
ATOM     13  H   UNL     1       5.568  43.259  10.274  1.00  0.00     0.345 HD
ENDBRANCH   9  10
BRANCH   9  14
ATOM     14  C   UNL     1       2.645  42.598  11.478  1.00  0.00     0.099 C 
ATOM     15  O   UNL     1       1.543  43.031  11.908  1.00  0.00    -0.544 OA
ATOM     16  O   UNL     1       3.031  41.295  11.773  1.00  0.00    -0.544 OA
ENDBRANCH   9  14
ENDBRANCH   8   9
ENDBRANCH   1   8
TORSDOF 7
ENDMDL
MODEL 5
REMARK VINA RESULT:    -4.471      2.521      3.508
REMARK INTER + INTRA:          -6.206
REMARK INTER:                  -5.686
REMARK INTRA:                  -0.520
REMARK UNBOUND:                -0.167
REMARK SMILES [NH3+]CCCC[C@@H]([NH3+])C(=O)[O-]
REMARK SMILES IDX 4 1 3 2 2 3 1 4 5 8 6 9 7 10 8 14 9 15 10 16
REMARK H PARENT 1 5 1 6 1 7 7 11 7 12 7 13
REMARK Flexibility Score: inf
ROOT
ATOM      1  C   UNL     1       1.468  44.266   9.593  1.00  0.00     0.012 C 
ENDROOT
BRANCH   1   2
ATOM      2  C   UNL     1       2.479  43.157   9.260  1.00  0.00     0.061 C 
BRANCH   2   3
ATOM      3  C   UNL     1       3.099  42.524  10.515  1.00  0.00     0.258 C 
BRANCH   3   4
ATOM      4  N   UNL     1       4.555  42.670  10.509  1.00  0.00    -0.358 N 
ATOM      5  H   UNL     1       4.984  42.031  11.217  1.00  0.00     0.344 HD
ATOM      6  H   UNL     1       4.933  42.449   9.559  1.00  0.00     0.344 HD
ATOM      7  H   UNL     1       4.800  43.656  10.750  1.00  0.00     0.344 HD
ENDBRANCH   3   4
ENDBRANCH   2   3
ENDBRANCH   1   2
BRANCH   1   8
ATOM      8  C   UNL     1       2.105  45.436  10.364  1.00  0.00     0.072 C 
BRANCH   8   9
ATOM      9  C   UNL     1       2.999  46.320   9.468  1.00  0.00     0.227 C 
BRANCH   9  10
ATOM     10  N   UNL     1       2.536  47.716   9.448  1.00  0.00    -0.350 N 
ATOM     11  H   UNL     1       3.079  48.285  10.134  1.00  0.00     0.345 HD
ATOM     12  H   UNL     1       2.643  48.129   8.491  1.00  0.00     0.345 HD
ATOM     13  H   UNL     1       1.528  47.760   9.727  1.00  0.00     0.345 HD
ENDBRANCH   9  10
BRANCH   9  14
ATOM     14  C   UNL     1       4.421  46.256   9.956  1.00  0.00     0.099 C 
ATOM     15  O   UNL     1       4.702  45.617  11.005  1.00  0.00    -0.544 OA
ATOM     16  O   UNL     1       5.430  46.917   9.266  1.00  0.00    -0.544 OA
ENDBRANCH   9  14
ENDBRANCH   8   9
ENDBRANCH   1   8
TORSDOF 7
ENDMDL
MODEL 6
REMARK VINA RESULT:    -4.460      3.368      4.605
REMARK INTER + INTRA:          -6.191
REMARK INTER:                  -6.122
REMARK INTRA:                  -0.069
REMARK UNBOUND:                -0.167
REMARK SMILES [NH3+]CCCC[C@@H]([NH3+])C(=O)[O-]
REMARK SMILES IDX 4 1 3 2 2 3 1 4 5 8 6 9 7 10 8 14 9 15 10 16
REMARK H PARENT 1 5 1 6 1 7 7 11 7 12 7 13
REMARK Flexibility Score: inf
ROOT
ATOM      1  C   UNL     1       3.387  46.085  10.620  1.00  0.00     0.012 C 
ENDROOT
BRANCH   1   2
ATOM      2  C   UNL     1       3.148  44.793  11.417  1.00  0.00     0.061 C 
BRANCH   2   3
ATOM      3  C   UNL     1       4.442  44.002  11.667  1.00  0.00     0.258 C 
BRANCH   3   4
ATOM      4  N   UNL     1       4.574  42.902  10.711  1.00  0.00    -0.358 N 
ATOM      5  H   UNL     1       5.408  42.317  10.948  1.00  0.00     0.344 HD
ATOM      6  H   UNL     1       3.711  42.310  10.725  1.00  0.00     0.344 HD
ATOM      7  H   UNL     1       4.698  43.295   9.752  1.00  0.00     0.344 HD
ENDBRANCH   3   4
ENDBRANCH   2   3
ENDBRANCH   1   2
BRANCH   1   8
ATOM      8  C   UNL     1       4.879  46.340  10.339  1.00  0.00     0.072 C 
BRANCH   8   9
ATOM      9  C   UNL     1       5.109  47.153   9.046  1.00  0.00     0.227 C 
BRANCH   9  10
ATOM     10  N   UNL     1       3.957  48.011   8.733  1.00  0.00    -0.350 N 
ATOM     11  H   UNL     1       3.355  47.556   8.012  1.00  0.00     0.345 HD
ATOM     12  H   UNL     1       3.389  48.199   9.593  1.00  0.00     0.345 HD
ATOM     13  H   UNL     1       4.289  48.922   8.339  1.00  0.00     0.345 HD
ENDBRANCH   9  10
BRANCH   9  14
ATOM     14  C   UNL     1       6.351  47.990   9.193  1.00  0.00     0.099 C 
ATOM     15  O   UNL     1       7.421  47.468   9.605  1.00  0.00    -0.544 OA
ATOM     16  O   UNL     1       6.321  49.347   8.895  1.00  0.00    -0.544 OA
ENDBRANCH   9  14
ENDBRANCH   8   9
ENDBRANCH   1   8
TORSDOF 7
ENDMDL
MODEL 7
REMARK VINA RESULT:    -4.381      2.561      3.959
REMARK INTER + INTRA:          -6.085
REMARK INTER:                  -5.535
REMARK INTRA:                  -0.550
REMARK UNBOUND:                -0.167
REMARK SMILES [NH3+]CCCC[C@@H]([NH3+])C(=O)[O-]
REMARK SMILES IDX 4 1 3 2 2 3 1 4 5 8 6 9 7 10 8 14 9 15 10 16
REMARK H PARENT 1 5 1 6 1 7 7 11 7 12 7 13
REMARK Flexibility Score: inf
ROOT
ATOM      1  C   UNL     1       1.761  43.538  11.158  1.00  0.00     0.012 C 
ENDROOT
BRANCH   1   2
ATOM      2  C   UNL     1       0.725  44.665  11.013  1.00  0.00     0.061 C 
BRANCH   2   3
ATOM      3  C   UNL     1       0.644  45.214   9.580  1.00  0.00     0.258 C 
BRANCH   3   4
ATOM      4  N   UNL     1       1.275  44.295   8.633  1.00  0.00    -0.358 N 
ATOM      5  H   UNL     1       0.557  43.891   7.989  1.00  0.00     0.344 HD
ATOM      6  H   UNL     1       2.006  44.797   8.078  1.00  0.00     0.344 HD
ATOM      7  H   UNL     1       1.729  43.516   9.162  1.00  0.00     0.344 HD
ENDBRANCH   3   4
ENDBRANCH   2   3
ENDBRANCH   1   2
BRANCH   1   8
ATOM      8  C   UNL     1       2.917  43.914  12.102  1.00  0.00     0.072 C 
BRANCH   8   9
ATOM      9  C   UNL     1       4.271  44.023  11.368  1.00  0.00     0.227 C 
BRANCH   9  10
ATOM     10  N   UNL     1       4.570  42.808  10.597  1.00  0.00    -0.350 N 
ATOM     11  H   UNL     1       5.080  42.119  11.194  1.00  0.00     0.345 HD
ATOM     12  H   UNL     1       3.689  42.370  10.237  1.00  0.00     0.345 HD
ATOM     13  H   UNL     1       5.190  43.044   9.787  1.00  0.00     0.345 HD
ENDBRANCH   9  10
BRANCH   9  14
ATOM     14  C   UNL     1       4.252  45.220  10.456  1.00  0.00     0.099 C 
ATOM     15  O   UNL     1       4.196  46.383  10.938  1.00  0.00    -0.544 OA
ATOM     16  O   UNL     1       4.276  45.051   9.076  1.00  0.00    -0.544 OA
ENDBRANCH   9  14
ENDBRANCH   8   9
ENDBRANCH   1   8
TORSDOF 7
ENDMDL
MODEL 8
REMARK VINA RESULT:    -4.282      1.910      2.759
REMARK INTER + INTRA:          -5.951
REMARK INTER:                  -5.748
REMARK INTRA:                  -0.203
REMARK UNBOUND:                -0.167
REMARK SMILES [NH3+]CCCC[C@@H]([NH3+])C(=O)[O-]
REMARK SMILES IDX 4 1 3 2 2 3 1 4 5 8 6 9 7 10 8 14 9 15 10 16
REMARK H PARENT 1 5 1 6 1 7 7 11 7 12 7 13
REMARK Flexibility Score: inf
ROOT
ATOM      1  C   UNL     1       3.150  44.164  12.139  1.00  0.00     0.012 C 
ENDROOT
BRANCH   1   2
ATOM      2  C   UNL     1       2.212  43.014  11.739  1.00  0.00     0.061 C 
BRANCH   2   3
ATOM      3  C   UNL     1       2.924  41.652  11.706  1.00  0.00     0.258 C 
BRANCH   3   4
ATOM      4  N   UNL     1       4.377  41.824  11.709  1.00  0.00    -0.358 N 
ATOM      5  H   UNL     1       4.776  41.532  10.787  1.00  0.00     0.344 HD
ATOM      6  H   UNL     1       4.620  42.824  11.899  1.00  0.00     0.344 HD
ATOM      7  H   UNL     1       4.791  41.227  12.460  1.00  0.00     0.344 HD
ENDBRANCH   3   4
ENDBRANCH   2   3
ENDBRANCH   1   2
BRANCH   1   8
ATOM      8  C   UNL     1       3.175  45.298  11.098  1.00  0.00     0.072 C 
BRANCH   8   9
ATOM      9  C   UNL     1       4.359  45.175  10.115  1.00  0.00     0.227 C 
BRANCH   9  10
ATOM     10  N   UNL     1       4.070  44.222   9.033  1.00  0.00    -0.350 N 
ATOM     11  H   UNL     1       4.035  44.719   8.115  1.00  0.00     0.345 HD
ATOM     12  H   UNL     1       4.799  43.472   8.994  1.00  0.00     0.345 HD
ATOM     13  H   UNL     1       3.133  43.780   9.189  1.00  0.00     0.345 HD
ENDBRANCH   9  10
BRANCH   9  14
ATOM     14  C   UNL     1       4.676  46.529   9.538  1.00  0.00     0.099 C 
ATOM     15  O   UNL     1       5.856  46.967   9.564  1.00  0.00    -0.544 OA
ATOM     16  O   UNL     1       3.666  47.312   8.992  1.00  0.00    -0.544 OA
ENDBRANCH   9  14
ENDBRANCH   8   9
ENDBRANCH   1   8
TORSDOF 7
ENDMDL
MODEL 9
REMARK VINA RESULT:    -4.228      3.147      5.422
REMARK INTER + INTRA:          -5.878
REMARK INTER:                  -5.450
REMARK INTRA:                  -0.428
REMARK UNBOUND:                -0.167
REMARK SMILES [NH3+]CCCC[C@@H]([NH3+])C(=O)[O-]
REMARK SMILES IDX 4 1 3 2 2 3 1 4 5 8 6 9 7 10 8 14 9 15 10 16
REMARK H PARENT 1 5 1 6 1 7 7 11 7 12 7 13
REMARK Flexibility Score: inf
ROOT
ATOM      1  C   UNL     1       4.861  46.271   9.488  1.00  0.00     0.012 C 
ENDROOT
BRANCH   1   2
ATOM      2  C   UNL     1       4.024  47.363   8.803  1.00  0.00     0.061 C 
BRANCH   2   3
ATOM      3  C   UNL     1       2.531  47.273   9.155  1.00  0.00     0.258 C 
BRANCH   3   4
ATOM      4  N   UNL     1       1.747  46.839   7.998  1.00  0.00    -0.358 N 
ATOM      5  H   UNL     1       2.173  47.207   7.117  1.00  0.00     0.344 HD
ATOM      6  H   UNL     1       1.707  45.794   7.963  1.00  0.00     0.344 HD
ATOM      7  H   UNL     1       0.775  47.212   8.084  1.00  0.00     0.344 HD
ENDBRANCH   3   4
ENDBRANCH   2   3
ENDBRANCH   1   2
BRANCH   1   8
ATOM      8  C   UNL     1       4.025  45.389  10.433  1.00  0.00     0.072 C 
BRANCH   8   9
ATOM      9  C   UNL     1       3.809  43.964   9.878  1.00  0.00     0.227 C 
BRANCH   9  10
ATOM     10  N   UNL     1       4.654  42.979  10.568  1.00  0.00    -0.350 N 
ATOM     11  H   UNL     1       5.107  43.415  11.402  1.00  0.00     0.345 HD
ATOM     12  H   UNL     1       4.089  42.152  10.872  1.00  0.00     0.345 HD
ATOM     13  H   UNL     1       5.417  42.654   9.928  1.00  0.00     0.345 HD
ENDBRANCH   9  10
BRANCH   9  14
ATOM     14  C   UNL     1       2.359  43.585  10.016  1.00  0.00     0.099 C 
ATOM     15  O   UNL     1       1.973  42.907  11.005  1.00  0.00    -0.544 OA
ATOM     16  O   UNL     1       1.440  43.963   9.044  1.00  0.00    -0.544 OA
ENDBRANCH   9  14
ENDBRANCH   8   9
ENDBRANCH   1   8
TORSDOF 7
ENDMDL
