MODEL 1
REMARK VINA RESULT:    -3.880      0.000      0.000
REMARK INTER + INTRA:          -4.235
REMARK INTER:                  -4.221
REMARK INTRA:                  -0.014
REMARK UNBOUND:                -0.014
REMARK SMILES OCc1ccco1
REMARK SMILES IDX 2 1 3 2 5 3 6 4 4 5 7 6 1 7
REMARK H PARENT 1 8
REMARK Flexibility Score: inf
ROOT
ATOM      1  C   UNL     1       4.340   9.716  17.787  1.00  0.00     0.231 C 
ENDROOT
BRANCH   1   2
ATOM      2  C   UNL     1       4.688  11.164  17.645  1.00  0.00     0.129 A 
ATOM      3  C   UNL     1       5.302  13.104  16.820  1.00  0.00     0.042 A 
ATOM      4  C   UNL     1       5.096  13.185  18.183  1.00  0.00     0.195 A 
ATOM      5  C   UNL     1       5.042  11.797  16.471  1.00  0.00     0.048 A 
ATOM      6  O   UNL     1       4.735  12.011  18.646  1.00  0.00    -0.467 OA
ENDBRANCH   1   2
BRANCH   1   7
ATOM      7  O   UNL     1       2.977   9.578  18.083  1.00  0.00    -0.388 OA
ATOM      8  H   UNL     1       2.574  10.481  17.993  1.00  0.00     0.211 HD
ENDBRANCH   1   7
TORSDOF 2
ENDMDL
MODEL 2
REMARK VINA RESULT:    -3.827      1.391      2.915
REMARK INTER + INTRA:          -4.177
REMARK INTER:                  -4.162
REMARK INTRA:                  -0.015
REMARK UNBOUND:                -0.014
REMARK SMILES OCc1ccco1
REMARK SMILES IDX 2 1 3 2 5 3 6 4 4 5 7 6 1 7
REMARK H PARENT 1 8
REMARK Flexibility Score: inf
ROOT
ATOM      1  C   UNL     1       4.262  12.534  17.817  1.00  0.00     0.231 C 
ENDROOT
BRANCH   1   2
ATOM      2  C   UNL     1       4.649  11.099  17.655  1.00  0.00     0.129 A 
ATOM      3  C   UNL     1       5.657   9.256  17.015  1.00  0.00     0.042 A 
ATOM      4  C   UNL     1       4.584   8.976  17.837  1.00  0.00     0.195 A 
ATOM      5  C   UNL     1       5.699  10.627  16.892  1.00  0.00     0.048 A 
ATOM      6  O   UNL     1       4.001  10.095  18.199  1.00  0.00    -0.467 OA
ENDBRANCH   1   2
BRANCH   1   7
ATOM      7  O   UNL     1       3.220  12.852  16.936  1.00  0.00    -0.388 OA
ATOM      8  H   UNL     1       2.403  12.418  17.294  1.00  0.00     0.211 HD
ENDBRANCH   1   7
TORSDOF 2
ENDMDL
MODEL 3
REMARK VINA RESULT:    -3.779      2.259      3.082
REMARK INTER + INTRA:          -4.125
REMARK INTER:                  -4.107
REMARK INTRA:                  -0.017
REMARK UNBOUND:                -0.014
REMARK SMILES OCc1ccco1
REMARK SMILES IDX 2 1 3 2 5 3 6 4 4 5 7 6 1 7
REMARK H PARENT 1 8
REMARK Flexibility Score: inf
ROOT
ATOM      1  C   UNL     1       4.481  13.203  14.790  1.00  0.00     0.231 C 
ENDROOT
BRANCH   1   2
ATOM      2  C   UNL     1       4.507  12.890  16.252  1.00  0.00     0.129 A 
ATOM      3  C   UNL     1       4.681  11.836  18.170  1.00  0.00     0.042 A 
ATOM      4  C   UNL     1       4.298  13.149  18.357  1.00  0.00     0.195 A 
ATOM      5  C   UNL     1       4.813  11.665  16.810  1.00  0.00     0.048 A 
ATOM      6  O   UNL     1       4.199  13.750  17.195  1.00  0.00    -0.467 OA
ENDBRANCH   1   2
BRANCH   1   7
ATOM      7  O   UNL     1       3.217  13.683  14.425  1.00  0.00    -0.388 OA
ATOM      8  H   UNL     1       2.885  14.221  15.190  1.00  0.00     0.211 HD
ENDBRANCH   1   7
TORSDOF 2
ENDMDL
MODEL 4
REMARK VINA RESULT:    -3.699      1.038      1.415
REMARK INTER + INTRA:          -4.037
REMARK INTER:                  -4.024
REMARK INTRA:                  -0.014
REMARK UNBOUND:                -0.014
REMARK SMILES OCc1ccco1
REMARK SMILES IDX 2 1 3 2 5 3 6 4 4 5 7 6 1 7
REMARK H PARENT 1 8
REMARK Flexibility Score: inf
ROOT
ATOM      1  C   UNL     1       4.357   9.757  17.767  1.00  0.00     0.231 C 
ENDROOT
BRANCH   1   2
ATOM      2  C   UNL     1       4.645  11.199  17.499  1.00  0.00     0.129 A 
ATOM      3  C   UNL     1       4.957  13.359  17.746  1.00  0.00     0.042 A 
ATOM      4  C   UNL     1       5.051  12.991  16.418  1.00  0.00     0.195 A 
ATOM      5  C   UNL     1       4.692  12.202  18.446  1.00  0.00     0.048 A 
ATOM      6  O   UNL     1       4.856  11.698  16.303  1.00  0.00    -0.467 OA
ENDBRANCH   1   2
BRANCH   1   7
ATOM      7  O   UNL     1       3.004   9.591  18.091  1.00  0.00    -0.388 OA
ATOM      8  H   UNL     1       2.877   8.628  18.297  1.00  0.00     0.211 HD
ENDBRANCH   1   7
TORSDOF 2
ENDMDL
MODEL 5
REMARK VINA RESULT:    -3.537      3.182      3.444
REMARK INTER + INTRA:          -3.862
REMARK INTER:                  -3.847
REMARK INTRA:                  -0.014
REMARK UNBOUND:                -0.014
REMARK SMILES OCc1ccco1
REMARK SMILES IDX 2 1 3 2 5 3 6 4 4 5 7 6 1 7
REMARK H PARENT 1 8
REMARK Flexibility Score: inf
ROOT
ATOM      1  C   UNL     1       4.377  13.226  14.910  1.00  0.00     0.231 C 
ENDROOT
BRANCH   1   2
ATOM      2  C   UNL     1       4.584  13.713  16.308  1.00  0.00     0.129 A 
ATOM      3  C   UNL     1       4.273  14.221  18.422  1.00  0.00     0.042 A 
ATOM      4  C   UNL     1       5.513  14.644  17.986  1.00  0.00     0.195 A 
ATOM      5  C   UNL     1       3.669  13.622  17.338  1.00  0.00     0.048 A 
ATOM      6  O   UNL     1       5.667  14.330  16.720  1.00  0.00    -0.467 OA
ENDBRANCH   1   2
BRANCH   1   7
ATOM      7  O   UNL     1       3.181  13.743  14.394  1.00  0.00    -0.388 OA
ATOM      8  H   UNL     1       3.365  14.684  14.137  1.00  0.00     0.211 HD
ENDBRANCH   1   7
TORSDOF 2
ENDMDL
MODEL 6
REMARK VINA RESULT:    -3.294      6.884      8.346
REMARK INTER + INTRA:          -3.597
REMARK INTER:                  -3.581
REMARK INTRA:                  -0.016
REMARK UNBOUND:                -0.014
REMARK SMILES OCc1ccco1
REMARK SMILES IDX 2 1 3 2 5 3 6 4 4 5 7 6 1 7
REMARK H PARENT 1 8
REMARK Flexibility Score: inf
ROOT
ATOM      1  C   UNL     1       9.321  19.778  17.321  1.00  0.00     0.231 C 
ENDROOT
BRANCH   1   2
ATOM      2  C   UNL     1       8.779  18.499  17.875  1.00  0.00     0.129 A 
ATOM      3  C   UNL     1       8.097  16.422  18.080  1.00  0.00     0.042 A 
ATOM      4  C   UNL     1       7.887  17.132  19.245  1.00  0.00     0.195 A 
ATOM      5  C   UNL     1       8.671  17.305  17.191  1.00  0.00     0.048 A 
ATOM      6  O   UNL     1       8.300  18.368  19.090  1.00  0.00    -0.467 OA
ENDBRANCH   1   2
BRANCH   1   7
ATOM      7  O   UNL     1       9.430  19.688  15.927  1.00  0.00    -0.388 OA
ATOM      8  H   UNL     1      10.138  20.328  15.655  1.00  0.00     0.211 HD
ENDBRANCH   1   7
TORSDOF 2
ENDMDL
MODEL 7
REMARK VINA RESULT:    -3.281      7.819      8.586
REMARK INTER + INTRA:          -3.583
REMARK INTER:                  -3.567
REMARK INTRA:                  -0.016
REMARK UNBOUND:                -0.014
REMARK SMILES OCc1ccco1
REMARK SMILES IDX 2 1 3 2 5 3 6 4 4 5 7 6 1 7
REMARK H PARENT 1 8
REMARK Flexibility Score: inf
ROOT
ATOM      1  C   UNL     1       7.351  19.541  20.836  1.00  0.00     0.231 C 
ENDROOT
BRANCH   1   2
ATOM      2  C   UNL     1       7.960  19.046  19.564  1.00  0.00     0.129 A 
ATOM      3  C   UNL     1       8.761  17.744  17.987  1.00  0.00     0.042 A 
ATOM      4  C   UNL     1       8.915  19.076  17.658  1.00  0.00     0.195 A 
ATOM      5  C   UNL     1       8.147  17.722  19.220  1.00  0.00     0.048 A 
ATOM      6  O   UNL     1       8.432  19.827  18.620  1.00  0.00    -0.467 OA
ENDBRANCH   1   2
BRANCH   1   7
ATOM      7  O   UNL     1       7.369  18.526  21.802  1.00  0.00    -0.388 OA
ATOM      8  H   UNL     1       8.316  18.243  21.899  1.00  0.00     0.211 HD
ENDBRANCH   1   7
TORSDOF 2
ENDMDL
MODEL 8
REMARK VINA RESULT:    -3.215      5.721      6.240
REMARK INTER + INTRA:          -3.512
REMARK INTER:                  -3.490
REMARK INTRA:                  -0.022
REMARK UNBOUND:                -0.014
REMARK SMILES OCc1ccco1
REMARK SMILES IDX 2 1 3 2 5 3 6 4 4 5 7 6 1 7
REMARK H PARENT 1 8
REMARK Flexibility Score: inf
ROOT
ATOM      1  C   UNL     1       8.904  15.568  17.227  1.00  0.00     0.231 C 
ENDROOT
BRANCH   1   2
ATOM      2  C   UNL     1       8.389  15.466  18.627  1.00  0.00     0.129 A 
ATOM      3  C   UNL     1       7.851  14.708  20.616  1.00  0.00     0.042 A 
ATOM      4  C   UNL     1       7.410  16.005  20.442  1.00  0.00     0.195 A 
ATOM      5  C   UNL     1       8.481  14.357  19.442  1.00  0.00     0.048 A 
ATOM      6  O   UNL     1       7.742  16.428  19.245  1.00  0.00    -0.467 OA
ENDBRANCH   1   2
BRANCH   1   7
ATOM      7  O   UNL     1       8.595  16.826  16.693  1.00  0.00    -0.388 OA
ATOM      8  H   UNL     1       8.352  16.679  15.742  1.00  0.00     0.211 HD
ENDBRANCH   1   7
TORSDOF 2
ENDMDL
MODEL 9
REMARK VINA RESULT:    -3.214      7.354      8.296
REMARK INTER + INTRA:          -3.510
REMARK INTER:                  -3.494
REMARK INTRA:                  -0.016
REMARK UNBOUND:                -0.014
REMARK SMILES OCc1ccco1
REMARK SMILES IDX 2 1 3 2 5 3 6 4 4 5 7 6 1 7
REMARK H PARENT 1 8
REMARK Flexibility Score: inf
ROOT
ATOM      1  C   UNL     1       8.509  17.547  17.872  1.00  0.00     0.231 C 
ENDROOT
BRANCH   1   2
ATOM      2  C   UNL     1       8.031  18.224  19.117  1.00  0.00     0.129 A 
ATOM      3  C   UNL     1       7.410  19.746  20.573  1.00  0.00     0.042 A 
ATOM      4  C   UNL     1       7.416  18.487  21.140  1.00  0.00     0.195 A 
ATOM      5  C   UNL     1       7.810  19.578  19.265  1.00  0.00     0.048 A 
ATOM      6  O   UNL     1       7.795  17.602  20.249  1.00  0.00    -0.467 OA
ENDBRANCH   1   2
BRANCH   1   7
ATOM      7  O   UNL     1       8.868  18.505  16.914  1.00  0.00    -0.388 OA
ATOM      8  H   UNL     1       9.860  18.542  16.908  1.00  0.00     0.211 HD
ENDBRANCH   1   7
TORSDOF 2
ENDMDL
