MODEL 1
REMARK VINA RESULT:    -2.683      0.000      0.000
REMARK INTER + INTRA:          -2.683
REMARK INTER:                  -2.683
REMARK INTRA:                   0.000
REMARK UNBOUND:                 0.000
REMARK SMILES CC(=O)[O-]
REMARK SMILES IDX 1 1 2 2 3 3 4 4
REMARK H PARENT
REMARK Flexibility Score: inf
ROOT
ATOM      1  C   UNL     1       8.486  -7.158 -17.498  1.00  0.00     0.063 C 
ATOM      2  C   UNL     1       8.692  -8.244 -16.497  1.00  0.00     0.038 C 
ATOM      3  O   UNL     1       7.840  -9.162 -16.375  1.00  0.00    -0.550 OA
ATOM      4  O   UNL     1       9.853  -8.277 -15.734  1.00  0.00    -0.550 OA
ENDROOT
TORSDOF 0
ENDMDL
MODEL 2
REMARK VINA RESULT:    -2.661      1.396      1.777
REMARK INTER + INTRA:          -2.661
REMARK INTER:                  -2.661
REMARK INTRA:                   0.000
REMARK UNBOUND:                 0.000
REMARK SMILES CC(=O)[O-]
REMARK SMILES IDX 1 1 2 2 3 3 4 4
REMARK H PARENT
REMARK Flexibility Score: inf
ROOT
ATOM      1  C   UNL     1      10.023  -8.482 -15.721  1.00  0.00     0.063 C 
ATOM      2  C   UNL     1       8.790  -8.333 -16.545  1.00  0.00     0.038 C 
ATOM      3  O   UNL     1       7.800  -9.083 -16.342  1.00  0.00    -0.550 OA
ATOM      4  O   UNL     1       8.708  -7.329 -17.501  1.00  0.00    -0.550 OA
ENDROOT
TORSDOF 0
ENDMDL
MODEL 3
REMARK VINA RESULT:    -2.613     16.105     16.587
REMARK INTER + INTRA:          -2.613
REMARK INTER:                  -2.613
REMARK INTRA:                   0.000
REMARK UNBOUND:                 0.000
REMARK SMILES CC(=O)[O-]
REMARK SMILES IDX 1 1 2 2 3 3 4 4
REMARK H PARENT
REMARK Flexibility Score: inf
ROOT
ATOM      1  C   UNL     1      -8.797  -9.668 -15.794  1.00  0.00     0.063 C 
ATOM      2  C   UNL     1      -7.646  -9.355 -14.899  1.00  0.00     0.038 C 
ATOM      3  O   UNL     1      -6.641 -10.113 -14.874  1.00  0.00    -0.550 OA
ATOM      4  O   UNL     1      -7.654  -8.197 -14.132  1.00  0.00    -0.550 OA
ENDROOT
TORSDOF 0
ENDMDL
MODEL 4
REMARK VINA RESULT:    -2.537     16.244     16.778
REMARK INTER + INTRA:          -2.537
REMARK INTER:                  -2.537
REMARK INTRA:                   0.000
REMARK UNBOUND:                 0.000
REMARK SMILES CC(=O)[O-]
REMARK SMILES IDX 1 1 2 2 3 3 4 4
REMARK H PARENT
REMARK Flexibility Score: inf
ROOT
ATOM      1  C   UNL     1      -7.698  -8.374 -14.196  1.00  0.00     0.063 C 
ATOM      2  C   UNL     1      -7.816  -9.497 -15.169  1.00  0.00     0.038 C 
ATOM      3  O   UNL     1      -6.928 -10.387 -15.219  1.00  0.00    -0.550 OA
ATOM      4  O   UNL     1      -8.936  -9.596 -15.985  1.00  0.00    -0.550 OA
ENDROOT
TORSDOF 0
ENDMDL
MODEL 5
REMARK VINA RESULT:    -2.207     16.141     16.694
REMARK INTER + INTRA:          -2.207
REMARK INTER:                  -2.207
REMARK INTRA:                   0.000
REMARK UNBOUND:                 0.000
REMARK SMILES CC(=O)[O-]
REMARK SMILES IDX 1 1 2 2 3 3 4 4
REMARK H PARENT
REMARK Flexibility Score: inf
ROOT
ATOM      1  C   UNL     1      -6.588 -10.187 -14.925  1.00  0.00     0.063 C 
ATOM      2  C   UNL     1      -7.746  -9.248 -14.947  1.00  0.00     0.038 C 
ATOM      3  O   UNL     1      -7.731  -8.209 -14.237  1.00  0.00    -0.550 OA
ATOM      4  O   UNL     1      -8.821  -9.487 -15.795  1.00  0.00    -0.550 OA
ENDROOT
TORSDOF 0
ENDMDL
MODEL 6
REMARK VINA RESULT:    -1.940     12.392     12.873
REMARK INTER + INTRA:          -1.940
REMARK INTER:                  -1.940
REMARK INTRA:                   0.000
REMARK UNBOUND:                 0.000
REMARK SMILES CC(=O)[O-]
REMARK SMILES IDX 1 1 2 2 3 3 4 4
REMARK H PARENT
REMARK Flexibility Score: inf
ROOT
ATOM      1  C   UNL     1       9.212 -20.484 -14.558  1.00  0.00     0.063 C 
ATOM      2  C   UNL     1       8.077 -20.907 -15.428  1.00  0.00     0.038 C 
ATOM      3  O   UNL     1       8.169 -21.953 -16.122  1.00  0.00    -0.550 OA
ATOM      4  O   UNL     1       6.894 -20.179 -15.433  1.00  0.00    -0.550 OA
ENDROOT
TORSDOF 0
ENDMDL
MODEL 7
REMARK VINA RESULT:    -1.836     20.683     21.313
REMARK INTER + INTRA:          -1.836
REMARK INTER:                  -1.836
REMARK INTRA:                   0.000
REMARK UNBOUND:                 0.000
REMARK SMILES CC(=O)[O-]
REMARK SMILES IDX 1 1 2 2 3 3 4 4
REMARK H PARENT
REMARK Flexibility Score: inf
ROOT
ATOM      1  C   UNL     1      -6.872 -21.271 -17.091  1.00  0.00     0.063 C 
ATOM      2  C   UNL     1      -8.011 -21.440 -16.144  1.00  0.00     0.038 C 
ATOM      3  O   UNL     1      -8.933 -22.257 -16.403  1.00  0.00    -0.550 OA
ATOM      4  O   UNL     1      -8.030 -20.738 -14.945  1.00  0.00    -0.550 OA
ENDROOT
TORSDOF 0
ENDMDL
MODEL 8
REMARK VINA RESULT:    -1.740     20.959     21.078
REMARK INTER + INTRA:          -1.740
REMARK INTER:                  -1.740
REMARK INTRA:                   0.000
REMARK UNBOUND:                 0.000
REMARK SMILES CC(=O)[O-]
REMARK SMILES IDX 1 1 2 2 3 3 4 4
REMARK H PARENT
REMARK Flexibility Score: inf
ROOT
ATOM      1  C   UNL     1      -7.968 -21.593 -16.787  1.00  0.00     0.063 C 
ATOM      2  C   UNL     1      -7.688 -21.299 -15.353  1.00  0.00     0.038 C 
ATOM      3  O   UNL     1      -8.318 -20.385 -14.760  1.00  0.00    -0.550 OA
ATOM      4  O   UNL     1      -6.770 -22.070 -14.650  1.00  0.00    -0.550 OA
ENDROOT
TORSDOF 0
ENDMDL
MODEL 9
REMARK VINA RESULT:    -1.712     12.505     12.875
REMARK INTER + INTRA:          -1.712
REMARK INTER:                  -1.712
REMARK INTRA:                   0.000
REMARK UNBOUND:                 0.000
REMARK SMILES CC(=O)[O-]
REMARK SMILES IDX 1 1 2 2 3 3 4 4
REMARK H PARENT
REMARK Flexibility Score: inf
ROOT
ATOM      1  C   UNL     1       8.103 -21.742 -16.668  1.00  0.00     0.063 C 
ATOM      2  C   UNL     1       7.814 -20.860 -15.501  1.00  0.00     0.038 C 
ATOM      3  O   UNL     1       8.651 -20.755 -14.566  1.00  0.00    -0.550 OA
ATOM      4  O   UNL     1       6.647 -20.108 -15.468  1.00  0.00    -0.550 OA
ENDROOT
TORSDOF 0
ENDMDL
