MODEL 1
REMARK VINA RESULT:    -5.499      0.000      0.000
REMARK INTER + INTRA:          -8.588
REMARK INTER:                  -7.749
REMARK INTRA:                  -0.839
REMARK UNBOUND:                -0.839
REMARK SMILES COc1ccc(-c2cc(=O)c3c(OC)c(OC)c(OC)c(OC)c3o2)cc1OC
REMARK SMILES IDX 7 1 8 2 9 3 10 4 11 5 24 6 25 7 21 8 18 9 15 10 12 11 6 12
REMARK SMILES IDX 3 13 27 14 4 15 26 16 5 17 2 18 1 19 28 20 29 21 22 22 23 23
REMARK SMILES IDX 13 24 14 25 19 26 20 27 16 28 17 29
REMARK H PARENT
REMARK Flexibility Score: inf
ROOT
ATOM      1  C   UNL     1      16.770  40.126  21.723  1.00  0.00     0.138 A 
ATOM      2  C   UNL     1      18.006  40.262  21.086  1.00  0.00     0.100 A 
ATOM      3  C   UNL     1      19.103  40.707  21.816  1.00  0.00     0.197 A 
ATOM      4  O   UNL     1      20.212  40.815  21.224  1.00  0.00    -0.289 OA
ATOM      5  C   UNL     1      18.959  41.019  23.189  1.00  0.00     0.115 A 
ATOM      6  C   UNL     1      17.673  40.870  23.762  1.00  0.00     0.188 A 
ATOM      7  O   UNL     1      16.665  40.426  23.014  1.00  0.00    -0.452 OA
ATOM      8  C   UNL     1      17.455  41.182  25.123  1.00  0.00     0.209 A 
ATOM      9  C   UNL     1      18.546  41.590  25.931  1.00  0.00     0.211 A 
ATOM     10  C   UNL     1      19.845  41.686  25.371  1.00  0.00     0.208 A 
ATOM     11  C   UNL     1      20.042  41.455  23.987  1.00  0.00     0.179 A 
ENDROOT
BRANCH   1  12
ATOM     12  C   UNL     1      15.571  39.647  20.993  1.00  0.00     0.021 A 
ATOM     13  C   UNL     1      13.249  38.752  19.658  1.00  0.00     0.160 A 
ATOM     14  C   UNL     1      13.467  38.396  20.998  1.00  0.00     0.161 A 
ATOM     15  C   UNL     1      14.191  39.557  18.992  1.00  0.00     0.051 A 
ATOM     16  C   UNL     1      14.631  38.838  21.655  1.00  0.00     0.062 A 
ATOM     17  C   UNL     1      15.335  40.005  19.656  1.00  0.00     0.016 A 
BRANCH  13  18
ATOM     18  O   UNL     1      12.084  38.291  19.025  1.00  0.00    -0.493 OA
ATOM     19  C   UNL     1      11.920  38.181  17.614  1.00  0.00     0.278 C 
ENDBRANCH  13  18
BRANCH  14  20
ATOM     20  O   UNL     1      12.501  37.607  21.644  1.00  0.00    -0.493 OA
ATOM     21  C   UNL     1      12.748  36.317  22.195  1.00  0.00     0.278 C 
ENDBRANCH  14  20
ENDBRANCH   1  12
BRANCH   8  22
ATOM     22  O   UNL     1      16.180  41.092  25.710  1.00  0.00    -0.490 OA
ATOM     23  C   UNL     1      15.196  42.119  25.785  1.00  0.00     0.278 C 
ENDBRANCH   8  22
BRANCH  11  24
ATOM     24  O   UNL     1      21.297  41.625  23.362  1.00  0.00    -0.492 OA
ATOM     25  C   UNL     1      21.989  42.848  23.127  1.00  0.00     0.278 C 
ENDBRANCH  11  24
BRANCH   9  26
ATOM     26  O   UNL     1      18.392  41.944  27.286  1.00  0.00    -0.490 OA
ATOM     27  C   UNL     1      18.496  41.097  28.427  1.00  0.00     0.279 C 
ENDBRANCH   9  26
BRANCH  10  28
ATOM     28  O   UNL     1      20.967  42.015  26.156  1.00  0.00    -0.490 OA
ATOM     29  C   UNL     1      21.856  41.107  26.800  1.00  0.00     0.278 C 
ENDBRANCH  10  28
TORSDOF 7
ENDMDL
MODEL 2
REMARK VINA RESULT:    -5.416      5.041      8.526
REMARK INTER + INTRA:          -8.471
REMARK INTER:                  -7.613
REMARK INTRA:                  -0.858
REMARK UNBOUND:                -0.839
REMARK SMILES COc1ccc(-c2cc(=O)c3c(OC)c(OC)c(OC)c(OC)c3o2)cc1OC
REMARK SMILES IDX 7 1 8 2 9 3 10 4 11 5 24 6 25 7 21 8 18 9 15 10 12 11 6 12
REMARK SMILES IDX 3 13 27 14 4 15 26 16 5 17 2 18 1 19 28 20 29 21 22 22 23 23
REMARK SMILES IDX 13 24 14 25 19 26 20 27 16 28 17 29
REMARK H PARENT
REMARK Flexibility Score: inf
ROOT
ATOM      1  C   UNL     1      12.582  38.481  15.921  1.00  0.00     0.138 A 
ATOM      2  C   UNL     1      13.142  39.676  16.382  1.00  0.00     0.100 A 
ATOM      3  C   UNL     1      13.818  39.687  17.597  1.00  0.00     0.197 A 
ATOM      4  O   UNL     1      14.323  40.773  17.991  1.00  0.00    -0.289 OA
ATOM      5  C   UNL     1      13.933  38.495  18.353  1.00  0.00     0.115 A 
ATOM      6  C   UNL     1      13.329  37.327  17.829  1.00  0.00     0.188 A 
ATOM      7  O   UNL     1      12.706  37.377  16.653  1.00  0.00    -0.452 OA
ATOM      8  C   UNL     1      13.389  36.109  18.541  1.00  0.00     0.209 A 
ATOM      9  C   UNL     1      14.110  36.045  19.760  1.00  0.00     0.211 A 
ATOM     10  C   UNL     1      14.762  37.201  20.258  1.00  0.00     0.208 A 
ATOM     11  C   UNL     1      14.627  38.440  19.584  1.00  0.00     0.179 A 
ENDROOT
BRANCH   1  12
ATOM     12  C   UNL     1      11.859  38.413  14.628  1.00  0.00     0.021 A 
ATOM     13  C   UNL     1      10.422  38.269  12.201  1.00  0.00     0.160 A 
ATOM     14  C   UNL     1      10.242  37.280  13.180  1.00  0.00     0.161 A 
ATOM     15  C   UNL     1      11.316  39.328  12.441  1.00  0.00     0.051 A 
ATOM     16  C   UNL     1      10.968  37.352  14.385  1.00  0.00     0.062 A 
ATOM     17  C   UNL     1      12.020  39.402  13.644  1.00  0.00     0.016 A 
BRANCH  13  18
ATOM     18  O   UNL     1       9.691  38.168  11.007  1.00  0.00    -0.493 OA
ATOM     19  C   UNL     1       8.923  39.223  10.437  1.00  0.00     0.278 C 
ENDBRANCH  13  18
BRANCH  14  20
ATOM     20  O   UNL     1       9.329  36.244  12.922  1.00  0.00    -0.493 OA
ATOM     21  C   UNL     1       9.630  34.856  13.025  1.00  0.00     0.278 C 
ENDBRANCH  14  20
ENDBRANCH   1  12
BRANCH   8  22
ATOM     22  O   UNL     1      12.757  34.942  18.072  1.00  0.00    -0.490 OA
ATOM     23  C   UNL     1      13.306  33.964  17.194  1.00  0.00     0.278 C 
ENDBRANCH   8  22
BRANCH  11  24
ATOM     24  O   UNL     1      15.180  39.640  20.084  1.00  0.00    -0.492 OA
ATOM     25  C   UNL     1      14.766  40.370  21.235  1.00  0.00     0.278 C 
ENDBRANCH  11  24
BRANCH   9  26
ATOM     26  O   UNL     1      14.184  34.870  20.535  1.00  0.00    -0.490 OA
ATOM     27  C   UNL     1      15.158  33.834  20.458  1.00  0.00     0.279 C 
ENDBRANCH   9  26
BRANCH  10  28
ATOM     28  O   UNL     1      15.549  37.163  21.425  1.00  0.00    -0.490 OA
ATOM     29  C   UNL     1      16.969  37.064  21.495  1.00  0.00     0.278 C 
ENDBRANCH  10  28
TORSDOF 7
ENDMDL
MODEL 3
REMARK VINA RESULT:    -5.395      6.654     10.047
REMARK INTER + INTRA:          -8.441
REMARK INTER:                  -7.587
REMARK INTRA:                  -0.854
REMARK UNBOUND:                -0.839
REMARK SMILES COc1ccc(-c2cc(=O)c3c(OC)c(OC)c(OC)c(OC)c3o2)cc1OC
REMARK SMILES IDX 7 1 8 2 9 3 10 4 11 5 24 6 25 7 21 8 18 9 15 10 12 11 6 12
REMARK SMILES IDX 3 13 27 14 4 15 26 16 5 17 2 18 1 19 28 20 29 21 22 22 23 23
REMARK SMILES IDX 13 24 14 25 19 26 20 27 16 28 17 29
REMARK H PARENT
REMARK Flexibility Score: inf
ROOT
ATOM      1  C   UNL     1      12.081  37.430  15.676  1.00  0.00     0.138 A 
ATOM      2  C   UNL     1      12.203  38.379  16.695  1.00  0.00     0.100 A 
ATOM      3  C   UNL     1      12.725  37.993  17.925  1.00  0.00     0.197 A 
ATOM      4  O   UNL     1      12.835  38.865  18.829  1.00  0.00    -0.289 OA
ATOM      5  C   UNL     1      13.126  36.651  18.133  1.00  0.00     0.115 A 
ATOM      6  C   UNL     1      12.961  35.745  17.058  1.00  0.00     0.188 A 
ATOM      7  O   UNL     1      12.466  36.177  15.900  1.00  0.00    -0.452 OA
ATOM      8  C   UNL     1      13.322  34.387  17.205  1.00  0.00     0.209 A 
ATOM      9  C   UNL     1      13.909  33.945  18.417  1.00  0.00     0.211 A 
ATOM     10  C   UNL     1      14.127  34.865  19.474  1.00  0.00     0.208 A 
ATOM     11  C   UNL     1      13.685  36.205  19.354  1.00  0.00     0.179 A 
ENDROOT
BRANCH   1  12
ATOM     12  C   UNL     1      11.539  37.792  14.343  1.00  0.00     0.021 A 
ATOM     13  C   UNL     1      10.443  38.456  11.827  1.00  0.00     0.160 A 
ATOM     14  C   UNL     1      10.153  37.213  12.410  1.00  0.00     0.161 A 
ATOM     15  C   UNL     1      11.277  39.364  12.505  1.00  0.00     0.051 A 
ATOM     16  C   UNL     1      10.709  36.884  13.661  1.00  0.00     0.062 A 
ATOM     17  C   UNL     1      11.812  39.037  13.753  1.00  0.00     0.016 A 
BRANCH  13  18
ATOM     18  O   UNL     1       9.881  38.755  10.575  1.00  0.00    -0.493 OA
ATOM     19  C   UNL     1       8.815  39.677  10.368  1.00  0.00     0.278 C 
ENDBRANCH  13  18
BRANCH  14  20
ATOM     20  O   UNL     1       9.302  36.335  11.719  1.00  0.00    -0.493 OA
ATOM     21  C   UNL     1       9.737  35.180  11.008  1.00  0.00     0.278 C 
ENDBRANCH  14  20
ENDBRANCH   1  12
BRANCH   8  22
ATOM     22  O   UNL     1      13.124  33.450  16.174  1.00  0.00    -0.490 OA
ATOM     23  C   UNL     1      11.952  32.679  15.929  1.00  0.00     0.278 C 
ENDBRANCH   8  22
BRANCH  11  24
ATOM     24  O   UNL     1      13.795  37.138  20.408  1.00  0.00    -0.492 OA
ATOM     25  C   UNL     1      13.118  37.111  21.662  1.00  0.00     0.278 C 
ENDBRANCH  11  24
BRANCH   9  26
ATOM     26  O   UNL     1      14.265  32.600  18.640  1.00  0.00    -0.490 OA
ATOM     27  C   UNL     1      15.467  31.939  18.254  1.00  0.00     0.279 C 
ENDBRANCH   9  26
BRANCH  10  28
ATOM     28  O   UNL     1      14.774  34.484  20.666  1.00  0.00    -0.490 OA
ATOM     29  C   UNL     1      16.176  34.504  20.921  1.00  0.00     0.278 C 
ENDBRANCH  10  28
TORSDOF 7
ENDMDL
MODEL 4
REMARK VINA RESULT:    -5.389      4.018      8.267
REMARK INTER + INTRA:          -8.433
REMARK INTER:                  -7.636
REMARK INTRA:                  -0.797
REMARK UNBOUND:                -0.839
REMARK SMILES COc1ccc(-c2cc(=O)c3c(OC)c(OC)c(OC)c(OC)c3o2)cc1OC
REMARK SMILES IDX 7 1 8 2 9 3 10 4 11 5 24 6 25 7 21 8 18 9 15 10 12 11 6 12
REMARK SMILES IDX 3 13 27 14 4 15 26 16 5 17 2 18 1 19 28 20 29 21 22 22 23 23
REMARK SMILES IDX 13 24 14 25 19 26 20 27 16 28 17 29
REMARK H PARENT
REMARK Flexibility Score: inf
ROOT
ATOM      1  C   UNL     1      12.738  38.289  16.173  1.00  0.00     0.138 A 
ATOM      2  C   UNL     1      12.009  38.167  17.359  1.00  0.00     0.100 A 
ATOM      3  C   UNL     1      12.685  38.167  18.575  1.00  0.00     0.197 A 
ATOM      4  O   UNL     1      12.009  38.064  19.635  1.00  0.00    -0.289 OA
ATOM      5  C   UNL     1      14.095  38.289  18.601  1.00  0.00     0.115 A 
ATOM      6  C   UNL     1      14.765  38.396  17.359  1.00  0.00     0.188 A 
ATOM      7  O   UNL     1      14.062  38.402  16.228  1.00  0.00    -0.452 OA
ATOM      8  C   UNL     1      16.173  38.501  17.311  1.00  0.00     0.209 A 
ATOM      9  C   UNL     1      16.912  38.560  18.520  1.00  0.00     0.211 A 
ATOM     10  C   UNL     1      16.237  38.510  19.765  1.00  0.00     0.208 A 
ATOM     11  C   UNL     1      14.833  38.318  19.807  1.00  0.00     0.179 A 
ENDROOT
BRANCH   1  12
ATOM     12  C   UNL     1      12.066  38.303  14.850  1.00  0.00     0.021 A 
ATOM     13  C   UNL     1      10.725  38.317  12.365  1.00  0.00     0.160 A 
ATOM     14  C   UNL     1      10.476  37.290  13.289  1.00  0.00     0.161 A 
ATOM     15  C   UNL     1      11.640  39.335  12.689  1.00  0.00     0.051 A 
ATOM     16  C   UNL     1      11.155  37.284  14.523  1.00  0.00     0.062 A 
ATOM     17  C   UNL     1      12.297  39.331  13.921  1.00  0.00     0.016 A 
BRANCH  13  18
ATOM     18  O   UNL     1      10.041  38.294  11.139  1.00  0.00    -0.493 OA
ATOM     19  C   UNL     1       9.335  39.400  10.587  1.00  0.00     0.278 C 
ENDBRANCH  13  18
BRANCH  14  20
ATOM     20  O   UNL     1       9.544  36.297  12.947  1.00  0.00    -0.493 OA
ATOM     21  C   UNL     1       9.754  34.898  13.114  1.00  0.00     0.278 C 
ENDBRANCH  14  20
ENDBRANCH   1  12
BRANCH   8  22
ATOM     22  O   UNL     1      16.873  38.558  16.092  1.00  0.00    -0.490 OA
ATOM     23  C   UNL     1      17.270  37.459  15.279  1.00  0.00     0.278 C 
ENDBRANCH   8  22
BRANCH  11  24
ATOM     24  O   UNL     1      14.124  38.170  21.019  1.00  0.00    -0.492 OA
ATOM     25  C   UNL     1      14.170  37.068  21.920  1.00  0.00     0.278 C 
ENDBRANCH  11  24
BRANCH   9  26
ATOM     26  O   UNL     1      18.319  38.635  18.543  1.00  0.00    -0.490 OA
ATOM     27  C   UNL     1      19.131  39.805  18.512  1.00  0.00     0.279 C 
ENDBRANCH   9  26
BRANCH  10  28
ATOM     28  O   UNL     1      16.926  38.640  20.987  1.00  0.00    -0.490 OA
ATOM     29  C   UNL     1      17.144  39.841  21.721  1.00  0.00     0.278 C 
ENDBRANCH  10  28
TORSDOF 7
ENDMDL
MODEL 5
REMARK VINA RESULT:    -5.384      5.144      9.415
REMARK INTER + INTRA:          -8.426
REMARK INTER:                  -7.709
REMARK INTRA:                  -0.717
REMARK UNBOUND:                -0.839
REMARK SMILES COc1ccc(-c2cc(=O)c3c(OC)c(OC)c(OC)c(OC)c3o2)cc1OC
REMARK SMILES IDX 7 1 8 2 9 3 10 4 11 5 24 6 25 7 21 8 18 9 15 10 12 11 6 12
REMARK SMILES IDX 3 13 27 14 4 15 26 16 5 17 2 18 1 19 28 20 29 21 22 22 23 23
REMARK SMILES IDX 13 24 14 25 19 26 20 27 16 28 17 29
REMARK H PARENT
REMARK Flexibility Score: inf
ROOT
ATOM      1  C   UNL     1      11.767  38.126  15.009  1.00  0.00     0.138 A 
ATOM      2  C   UNL     1      12.077  39.482  15.148  1.00  0.00     0.100 A 
ATOM      3  C   UNL     1      12.786  39.906  16.267  1.00  0.00     0.197 A 
ATOM      4  O   UNL     1      13.063  41.132  16.370  1.00  0.00    -0.289 OA
ATOM      5  C   UNL     1      13.185  38.968  17.249  1.00  0.00     0.115 A 
ATOM      6  C   UNL     1      12.824  37.615  17.045  1.00  0.00     0.188 A 
ATOM      7  O   UNL     1      12.155  37.268  15.948  1.00  0.00    -0.452 OA
ATOM      8  C   UNL     1      13.173  36.630  17.996  1.00  0.00     0.209 A 
ATOM      9  C   UNL     1      13.942  36.993  19.130  1.00  0.00     0.211 A 
ATOM     10  C   UNL     1      14.352  38.338  19.306  1.00  0.00     0.208 A 
ATOM     11  C   UNL     1      13.927  39.336  18.395  1.00  0.00     0.179 A 
ENDROOT
BRANCH   1  12
ATOM     12  C   UNL     1      11.020  37.620  13.831  1.00  0.00     0.021 A 
ATOM     13  C   UNL     1       9.647  36.686  11.547  1.00  0.00     0.160 A 
ATOM     14  C   UNL     1      10.107  38.011  11.594  1.00  0.00     0.161 A 
ATOM     15  C   UNL     1       9.879  35.832  12.640  1.00  0.00     0.051 A 
ATOM     16  C   UNL     1      10.783  38.474  12.739  1.00  0.00     0.062 A 
ATOM     17  C   UNL     1      10.565  36.293  13.766  1.00  0.00     0.016 A 
BRANCH  13  18
ATOM     18  O   UNL     1       8.970  36.254  10.396  1.00  0.00    -0.493 OA
ATOM     19  C   UNL     1       9.370  35.151   9.589  1.00  0.00     0.278 C 
ENDBRANCH  13  18
BRANCH  14  20
ATOM     20  O   UNL     1       9.879  38.837  10.480  1.00  0.00    -0.493 OA
ATOM     21  C   UNL     1       8.777  39.729  10.348  1.00  0.00     0.278 C 
ENDBRANCH  14  20
ENDBRANCH   1  12
BRANCH   8  22
ATOM     22  O   UNL     1      12.786  35.285  17.849  1.00  0.00    -0.490 OA
ATOM     23  C   UNL     1      13.525  34.245  17.214  1.00  0.00     0.278 C 
ENDBRANCH   8  22
BRANCH  11  24
ATOM     24  O   UNL     1      14.231  40.704  18.573  1.00  0.00    -0.492 OA
ATOM     25  C   UNL     1      15.508  41.327  18.479  1.00  0.00     0.278 C 
ENDBRANCH  11  24
BRANCH   9  26
ATOM     26  O   UNL     1      14.298  36.066  20.131  1.00  0.00    -0.490 OA
ATOM     27  C   UNL     1      13.544  35.687  21.278  1.00  0.00     0.279 C 
ENDBRANCH   9  26
BRANCH  10  28
ATOM     28  O   UNL     1      15.179  38.726  20.379  1.00  0.00    -0.490 OA
ATOM     29  C   UNL     1      14.757  39.245  21.637  1.00  0.00     0.278 C 
ENDBRANCH  10  28
TORSDOF 7
ENDMDL
MODEL 6
REMARK VINA RESULT:    -5.362      5.265     12.582
REMARK INTER + INTRA:          -8.394
REMARK INTER:                  -7.739
REMARK INTRA:                  -0.655
REMARK UNBOUND:                -0.839
REMARK SMILES COc1ccc(-c2cc(=O)c3c(OC)c(OC)c(OC)c(OC)c3o2)cc1OC
REMARK SMILES IDX 7 1 8 2 9 3 10 4 11 5 24 6 25 7 21 8 18 9 15 10 12 11 6 12
REMARK SMILES IDX 3 13 27 14 4 15 26 16 5 17 2 18 1 19 28 20 29 21 22 22 23 23
REMARK SMILES IDX 13 24 14 25 19 26 20 27 16 28 17 29
REMARK H PARENT
REMARK Flexibility Score: inf
ROOT
ATOM      1  C   UNL     1      12.198  38.161  15.759  1.00  0.00     0.138 A 
ATOM      2  C   UNL     1      12.009  39.180  14.822  1.00  0.00     0.100 A 
ATOM      3  C   UNL     1      11.591  38.852  13.536  1.00  0.00     0.197 A 
ATOM      4  O   UNL     1      11.419  39.787  12.707  1.00  0.00    -0.289 OA
ATOM      5  C   UNL     1      11.362  37.498  13.190  1.00  0.00     0.115 A 
ATOM      6  C   UNL     1      11.586  36.522  14.189  1.00  0.00     0.188 A 
ATOM      7  O   UNL     1      11.975  36.898  15.406  1.00  0.00    -0.452 OA
ATOM      8  C   UNL     1      11.396  35.151  13.905  1.00  0.00     0.209 A 
ATOM      9  C   UNL     1      10.919  34.760  12.629  1.00  0.00     0.211 A 
ATOM     10  C   UNL     1      10.640  35.742  11.646  1.00  0.00     0.208 A 
ATOM     11  C   UNL     1      10.915  37.107  11.907  1.00  0.00     0.179 A 
ENDROOT
BRANCH   1  12
ATOM     12  C   UNL     1      12.634  38.456  17.146  1.00  0.00     0.021 A 
ATOM     13  C   UNL     1      13.463  38.950  19.800  1.00  0.00     0.160 A 
ATOM     14  C   UNL     1      12.397  38.071  19.552  1.00  0.00     0.161 A 
ATOM     15  C   UNL     1      14.112  39.576  18.720  1.00  0.00     0.051 A 
ATOM     16  C   UNL     1      11.983  37.836  18.227  1.00  0.00     0.062 A 
ATOM     17  C   UNL     1      13.707  39.325  17.408  1.00  0.00     0.016 A 
BRANCH  13  18
ATOM     18  O   UNL     1      13.850  39.172  21.131  1.00  0.00    -0.493 OA
ATOM     19  C   UNL     1      14.128  40.453  21.689  1.00  0.00     0.278 C 
ENDBRANCH  13  18
BRANCH  14  20
ATOM     20  O   UNL     1      11.779  37.446  20.648  1.00  0.00    -0.493 OA
ATOM     21  C   UNL     1      12.032  36.107  21.062  1.00  0.00     0.278 C 
ENDBRANCH  14  20
ENDBRANCH   1  12
BRANCH   8  22
ATOM     22  O   UNL     1      11.658  34.151  14.860  1.00  0.00    -0.490 OA
ATOM     23  C   UNL     1      12.892  33.473  15.075  1.00  0.00     0.278 C 
ENDBRANCH   8  22
BRANCH  11  24
ATOM     24  O   UNL     1      10.742  38.115  10.933  1.00  0.00    -0.492 OA
ATOM     25  C   UNL     1       9.520  38.720  10.519  1.00  0.00     0.278 C 
ENDBRANCH  11  24
BRANCH   9  26
ATOM     26  O   UNL     1      10.736  33.409  12.271  1.00  0.00    -0.490 OA
ATOM     27  C   UNL     1       9.570  32.609  12.447  1.00  0.00     0.279 C 
ENDBRANCH   9  26
BRANCH  10  28
ATOM     28  O   UNL     1      10.096  35.402  10.392  1.00  0.00    -0.490 OA
ATOM     29  C   UNL     1      10.818  35.055   9.214  1.00  0.00     0.278 C 
ENDBRANCH  10  28
TORSDOF 7
ENDMDL
MODEL 7
REMARK VINA RESULT:    -5.279      3.922      8.120
REMARK INTER + INTRA:          -8.277
REMARK INTER:                  -7.460
REMARK INTRA:                  -0.817
REMARK UNBOUND:                -0.839
REMARK SMILES COc1ccc(-c2cc(=O)c3c(OC)c(OC)c(OC)c(OC)c3o2)cc1OC
REMARK SMILES IDX 7 1 8 2 9 3 10 4 11 5 24 6 25 7 21 8 18 9 15 10 12 11 6 12
REMARK SMILES IDX 3 13 27 14 4 15 26 16 5 17 2 18 1 19 28 20 29 21 22 22 23 23
REMARK SMILES IDX 13 24 14 25 19 26 20 27 16 28 17 29
REMARK H PARENT
REMARK Flexibility Score: inf
ROOT
ATOM      1  C   UNL     1      13.002  38.793  16.078  1.00  0.00     0.138 A 
ATOM      2  C   UNL     1      12.052  38.267  16.957  1.00  0.00     0.100 A 
ATOM      3  C   UNL     1      12.269  38.359  18.328  1.00  0.00     0.197 A 
ATOM      4  O   UNL     1      11.396  37.886  19.105  1.00  0.00    -0.289 OA
ATOM      5  C   UNL     1      13.444  38.980  18.818  1.00  0.00     0.115 A 
ATOM      6  C   UNL     1      14.366  39.477  17.867  1.00  0.00     0.188 A 
ATOM      7  O   UNL     1      14.096  39.371  16.567  1.00  0.00    -0.452 OA
ATOM      8  C   UNL     1      15.567  40.090  18.287  1.00  0.00     0.209 A 
ATOM      9  C   UNL     1      15.820  40.260  19.671  1.00  0.00     0.211 A 
ATOM     10  C   UNL     1      14.870  39.813  20.624  1.00  0.00     0.208 A 
ATOM     11  C   UNL     1      13.708  39.122  20.200  1.00  0.00     0.179 A 
ENDROOT
BRANCH   1  12
ATOM     12  C   UNL     1      12.815  38.730  14.608  1.00  0.00     0.021 A 
ATOM     13  C   UNL     1      12.414  38.663  11.813  1.00  0.00     0.160 A 
ATOM     14  C   UNL     1      11.313  38.779  12.676  1.00  0.00     0.161 A 
ATOM     15  C   UNL     1      13.711  38.584  12.351  1.00  0.00     0.051 A 
ATOM     16  C   UNL     1      11.519  38.803  14.069  1.00  0.00     0.062 A 
ATOM     17  C   UNL     1      13.909  38.625  13.733  1.00  0.00     0.016 A 
BRANCH  13  18
ATOM     18  O   UNL     1      12.179  38.634  10.429  1.00  0.00    -0.493 OA
ATOM     19  C   UNL     1      12.200  37.455   9.631  1.00  0.00     0.278 C 
ENDBRANCH  13  18
BRANCH  14  20
ATOM     20  O   UNL     1      10.030  38.875  12.111  1.00  0.00    -0.493 OA
ATOM     21  C   UNL     1       9.028  37.868  12.205  1.00  0.00     0.278 C 
ENDBRANCH  14  20
ENDBRANCH   1  12
BRANCH   8  22
ATOM     22  O   UNL     1      16.528  40.550  17.367  1.00  0.00    -0.490 OA
ATOM     23  C   UNL     1      17.626  39.816  16.836  1.00  0.00     0.278 C 
ENDBRANCH   8  22
BRANCH  11  24
ATOM     24  O   UNL     1      12.776  38.576  21.110  1.00  0.00    -0.492 OA
ATOM     25  C   UNL     1      12.950  37.439  21.950  1.00  0.00     0.278 C 
ENDBRANCH  11  24
BRANCH   9  26
ATOM     26  O   UNL     1      17.010  40.836  20.158  1.00  0.00    -0.490 OA
ATOM     27  C   UNL     1      18.215  40.170  20.526  1.00  0.00     0.279 C 
ENDBRANCH   9  26
BRANCH  10  28
ATOM     28  O   UNL     1      15.048  40.029  22.005  1.00  0.00    -0.490 OA
ATOM     29  C   UNL     1      14.749  41.219  22.729  1.00  0.00     0.278 C 
ENDBRANCH  10  28
TORSDOF 7
ENDMDL
MODEL 8
REMARK VINA RESULT:    -5.255      2.917      6.689
REMARK INTER + INTRA:          -8.244
REMARK INTER:                  -7.672
REMARK INTRA:                  -0.572
REMARK UNBOUND:                -0.839
REMARK SMILES COc1ccc(-c2cc(=O)c3c(OC)c(OC)c(OC)c(OC)c3o2)cc1OC
REMARK SMILES IDX 7 1 8 2 9 3 10 4 11 5 24 6 25 7 21 8 18 9 15 10 12 11 6 12
REMARK SMILES IDX 3 13 27 14 4 15 26 16 5 17 2 18 1 19 28 20 29 21 22 22 23 23
REMARK SMILES IDX 13 24 14 25 19 26 20 27 16 28 17 29
REMARK H PARENT
REMARK Flexibility Score: inf
ROOT
ATOM      1  C   UNL     1      20.170  39.970  23.066  1.00  0.00     0.138 A 
ATOM      2  C   UNL     1      20.671  40.154  24.358  1.00  0.00     0.100 A 
ATOM      3  C   UNL     1      19.846  40.696  25.337  1.00  0.00     0.197 A 
ATOM      4  O   UNL     1      20.314  40.846  26.499  1.00  0.00    -0.289 OA
ATOM      5  C   UNL     1      18.514  41.055  25.019  1.00  0.00     0.115 A 
ATOM      6  C   UNL     1      18.081  40.851  23.688  1.00  0.00     0.188 A 
ATOM      7  O   UNL     1      18.915  40.317  22.797  1.00  0.00    -0.452 OA
ATOM      8  C   UNL     1      16.771  41.207  23.298  1.00  0.00     0.209 A 
ATOM      9  C   UNL     1      15.866  41.714  24.265  1.00  0.00     0.211 A 
ATOM     10  C   UNL     1      16.281  41.865  25.611  1.00  0.00     0.208 A 
ATOM     11  C   UNL     1      17.621  41.589  25.979  1.00  0.00     0.179 A 
ENDROOT
BRANCH   1  12
ATOM     12  C   UNL     1      21.006  39.388  21.987  1.00  0.00     0.021 A 
ATOM     13  C   UNL     1      22.646  38.328  19.948  1.00  0.00     0.160 A 
ATOM     14  C   UNL     1      22.467  39.716  20.051  1.00  0.00     0.161 A 
ATOM     15  C   UNL     1      22.008  37.475  20.867  1.00  0.00     0.051 A 
ATOM     16  C   UNL     1      21.640  40.238  21.065  1.00  0.00     0.062 A 
ATOM     17  C   UNL     1      21.203  38.001  21.880  1.00  0.00     0.016 A 
BRANCH  13  18
ATOM     18  O   UNL     1      23.469  37.834  18.923  1.00  0.00    -0.493 OA
ATOM     19  C   UNL     1      24.348  36.722  19.057  1.00  0.00     0.278 C 
ENDBRANCH  13  18
BRANCH  14  20
ATOM     20  O   UNL     1      23.131  40.544  19.132  1.00  0.00    -0.493 OA
ATOM     21  C   UNL     1      22.707  40.765  17.790  1.00  0.00     0.278 C 
ENDBRANCH  14  20
ENDBRANCH   1  12
BRANCH   8  22
ATOM     22  O   UNL     1      16.325  41.063  21.971  1.00  0.00    -0.490 OA
ATOM     23  C   UNL     1      15.719  39.913  21.390  1.00  0.00     0.278 C 
ENDBRANCH   8  22
BRANCH  11  24
ATOM     24  O   UNL     1      18.111  41.809  27.285  1.00  0.00    -0.492 OA
ATOM     25  C   UNL     1      18.466  43.055  27.879  1.00  0.00     0.278 C 
ENDBRANCH  11  24
BRANCH   9  26
ATOM     26  O   UNL     1      14.555  42.115  23.937  1.00  0.00    -0.490 OA
ATOM     27  C   UNL     1      14.138  43.349  23.360  1.00  0.00     0.279 C 
ENDBRANCH   9  26
BRANCH  10  28
ATOM     28  O   UNL     1      15.393  42.296  26.616  1.00  0.00    -0.490 OA
ATOM     29  C   UNL     1      15.066  43.642  26.948  1.00  0.00     0.278 C 
ENDBRANCH  10  28
TORSDOF 7
ENDMDL
MODEL 9
REMARK VINA RESULT:    -5.249      4.634      7.773
REMARK INTER + INTRA:          -8.236
REMARK INTER:                  -7.519
REMARK INTRA:                  -0.716
REMARK UNBOUND:                -0.839
REMARK SMILES COc1ccc(-c2cc(=O)c3c(OC)c(OC)c(OC)c(OC)c3o2)cc1OC
REMARK SMILES IDX 7 1 8 2 9 3 10 4 11 5 24 6 25 7 21 8 18 9 15 10 12 11 6 12
REMARK SMILES IDX 3 13 27 14 4 15 26 16 5 17 2 18 1 19 28 20 29 21 22 22 23 23
REMARK SMILES IDX 13 24 14 25 19 26 20 27 16 28 17 29
REMARK H PARENT
REMARK Flexibility Score: inf
ROOT
ATOM      1  C   UNL     1      19.873  39.929  24.228  1.00  0.00     0.138 A 
ATOM      2  C   UNL     1      19.573  38.567  24.150  1.00  0.00     0.100 A 
ATOM      3  C   UNL     1      20.077  37.819  23.091  1.00  0.00     0.197 A 
ATOM      4  O   UNL     1      19.801  36.589  23.043  1.00  0.00    -0.289 OA
ATOM      5  C   UNL     1      20.884  38.440  22.108  1.00  0.00     0.115 A 
ATOM      6  C   UNL     1      21.134  39.826  22.247  1.00  0.00     0.188 A 
ATOM      7  O   UNL     1      20.634  40.485  23.290  1.00  0.00    -0.452 OA
ATOM      8  C   UNL     1      21.915  40.512  21.290  1.00  0.00     0.209 A 
ATOM      9  C   UNL     1      22.500  39.793  20.218  1.00  0.00     0.211 A 
ATOM     10  C   UNL     1      22.296  38.394  20.109  1.00  0.00     0.208 A 
ATOM     11  C   UNL     1      21.442  37.726  21.022  1.00  0.00     0.179 A 
ENDROOT
BRANCH   1  12
ATOM     12  C   UNL     1      19.368  40.771  25.342  1.00  0.00     0.021 A 
ATOM     13  C   UNL     1      18.342  42.349  27.446  1.00  0.00     0.160 A 
ATOM     14  C   UNL     1      17.702  42.347  26.197  1.00  0.00     0.161 A 
ATOM     15  C   UNL     1      19.490  41.559  27.639  1.00  0.00     0.051 A 
ATOM     16  C   UNL     1      18.224  41.565  25.149  1.00  0.00     0.062 A 
ATOM     17  C   UNL     1      19.992  40.773  26.600  1.00  0.00     0.016 A 
BRANCH  13  18
ATOM     18  O   UNL     1      17.805  43.144  28.471  1.00  0.00    -0.493 OA
ATOM     19  C   UNL     1      18.292  44.432  28.835  1.00  0.00     0.278 C 
ENDBRANCH  13  18
BRANCH  14  20
ATOM     20  O   UNL     1      16.547  43.130  26.038  1.00  0.00    -0.493 OA
ATOM     21  C   UNL     1      15.216  42.625  26.076  1.00  0.00     0.278 C 
ENDBRANCH  14  20
ENDBRANCH   1  12
BRANCH   8  22
ATOM     22  O   UNL     1      22.141  41.898  21.372  1.00  0.00    -0.490 OA
ATOM     23  C   UNL     1      23.261  42.551  21.963  1.00  0.00     0.278 C 
ENDBRANCH   8  22
BRANCH  11  24
ATOM     24  O   UNL     1      21.133  36.353  20.905  1.00  0.00    -0.492 OA
ATOM     25  C   UNL     1      20.401  35.716  19.862  1.00  0.00     0.278 C 
ENDBRANCH  11  24
BRANCH   9  26
ATOM     26  O   UNL     1      23.265  40.420  19.214  1.00  0.00    -0.490 OA
ATOM     27  C   UNL     1      22.875  40.714  17.876  1.00  0.00     0.279 C 
ENDBRANCH   9  26
BRANCH  10  28
ATOM     28  O   UNL     1      22.919  37.631  19.103  1.00  0.00    -0.490 OA
ATOM     29  C   UNL     1      24.163  36.943  19.199  1.00  0.00     0.278 C 
ENDBRANCH  10  28
TORSDOF 7
ENDMDL
