MODEL 1
REMARK VINA RESULT:    -3.296      0.000      0.000
REMARK INTER + INTRA:         -13.474
REMARK INTER:                  -8.306
REMARK INTRA:                  -5.167
REMARK UNBOUND:                -5.167
REMARK SMILES CCCCCCCCCCCCCCCCCCCCCCCCCCCC(=O)[O-]
REMARK SMILES IDX 15 1 16 2 17 3 18 4 19 5 20 6 21 7 22 8 23 9 24 10 25 11
REMARK SMILES IDX 26 12 27 13 28 14 29 15 30 16 14 17 13 18 12 19 11 20 10 21
REMARK SMILES IDX 9 22 8 23 7 24 6 25 5 26 4 27 3 28 2 29 1 30
REMARK H PARENT
REMARK Flexibility Score: inf
ROOT
ATOM      1  C   UNL     1      63.823  31.942  58.009  1.00  0.00     0.000 C 
ENDROOT
BRANCH   1   2
ATOM      2  C   UNL     1      64.787  31.100  58.861  1.00  0.00     0.000 C 
BRANCH   2   3
ATOM      3  C   UNL     1      64.047  30.051  59.716  1.00  0.00     0.000 C 
BRANCH   3   4
ATOM      4  C   UNL     1      63.697  30.542  61.130  1.00  0.00     0.000 C 
BRANCH   4   5
ATOM      5  C   UNL     1      62.445  29.858  61.703  1.00  0.00     0.000 C 
BRANCH   5   6
ATOM      6  C   UNL     1      61.232  30.806  61.791  1.00  0.00     0.000 C 
BRANCH   6   7
ATOM      7  C   UNL     1      61.106  31.825  60.640  1.00  0.00     0.000 C 
BRANCH   7   8
ATOM      8  C   UNL     1      60.005  31.459  59.630  1.00  0.00     0.000 C 
BRANCH   8   9
ATOM      9  C   UNL     1      60.497  30.465  58.554  1.00  0.00     0.000 C 
BRANCH   9  10
ATOM     10  C   UNL     1      59.731  29.127  58.540  1.00  0.00     0.000 C 
BRANCH  10  11
ATOM     11  C   UNL     1      60.352  28.010  59.399  1.00  0.00     0.000 C 
BRANCH  11  12
ATOM     12  C   UNL     1      59.478  27.532  60.580  1.00  0.00     0.006 C 
BRANCH  12  13
ATOM     13  C   UNL     1      58.333  28.489  60.949  1.00  0.00     0.053 C 
BRANCH  13  14
ATOM     14  C   UNL     1      57.141  27.760  61.487  1.00  0.00     0.041 C 
ATOM     15  O   UNL     1      57.175  26.509  61.630  1.00  0.00    -0.550 OA
ATOM     16  O   UNL     1      56.017  28.469  61.892  1.00  0.00    -0.550 OA
ENDBRANCH  13  14
ENDBRANCH  12  13
ENDBRANCH  11  12
ENDBRANCH  10  11
ENDBRANCH   9  10
ENDBRANCH   8   9
ENDBRANCH   7   8
ENDBRANCH   6   7
ENDBRANCH   5   6
ENDBRANCH   4   5
ENDBRANCH   3   4
ENDBRANCH   2   3
ENDBRANCH   1   2
BRANCH   1  17
ATOM     17  C   UNL     1      63.671  33.354  58.589  1.00  0.00     0.000 C 
BRANCH  17  18
ATOM     18  C   UNL     1      64.887  33.734  59.447  1.00  0.00     0.000 C 
BRANCH  18  19
ATOM     19  C   UNL     1      64.486  34.244  60.842  1.00  0.00     0.000 C 
BRANCH  19  20
ATOM     20  C   UNL     1      63.030  34.737  60.891  1.00  0.00     0.000 C 
BRANCH  20  21
ATOM     21  C   UNL     1      62.965  36.251  61.126  1.00  0.00     0.000 C 
BRANCH  21  22
ATOM     22  C   UNL     1      61.539  36.777  60.914  1.00  0.00    -0.000 C 
BRANCH  22  23
ATOM     23  C   UNL     1      60.537  35.668  60.559  1.00  0.00    -0.000 C 
BRANCH  23  24
ATOM     24  C   UNL     1      59.760  35.959  59.265  1.00  0.00    -0.000 C 
BRANCH  24  25
ATOM     25  C   UNL     1      60.573  35.533  58.033  1.00  0.00    -0.000 C 
BRANCH  25  26
ATOM     26  C   UNL     1      60.063  34.224  57.406  1.00  0.00    -0.000 C 
BRANCH  26  27
ATOM     27  C   UNL     1      58.550  33.969  57.568  1.00  0.00    -0.000 C 
BRANCH  27  28
ATOM     28  C   UNL     1      57.722  34.089  56.273  1.00  0.00    -0.000 C 
BRANCH  28  29
ATOM     29  C   UNL     1      56.963  32.813  55.868  1.00  0.00    -0.003 C 
ATOM     30  C   UNL     1      57.529  31.550  56.519  1.00  0.00     0.004 C 
ENDBRANCH  28  29
ENDBRANCH  27  28
ENDBRANCH  26  27
ENDBRANCH  25  26
ENDBRANCH  24  25
ENDBRANCH  23  24
ENDBRANCH  22  23
ENDBRANCH  21  22
ENDBRANCH  20  21
ENDBRANCH  19  20
ENDBRANCH  18  19
ENDBRANCH  17  18
ENDBRANCH   1  17
TORSDOF 26
ENDMDL
MODEL 2
REMARK VINA RESULT:    -3.170      7.884     11.421
REMARK INTER + INTRA:         -13.156
REMARK INTER:                  -7.818
REMARK INTRA:                  -5.338
REMARK UNBOUND:                -5.167
REMARK SMILES CCCCCCCCCCCCCCCCCCCCCCCCCCCC(=O)[O-]
REMARK SMILES IDX 15 1 16 2 17 3 18 4 19 5 20 6 21 7 22 8 23 9 24 10 25 11
REMARK SMILES IDX 26 12 27 13 28 14 29 15 30 16 14 17 13 18 12 19 11 20 10 21
REMARK SMILES IDX 9 22 8 23 7 24 6 25 5 26 4 27 3 28 2 29 1 30
REMARK H PARENT
REMARK Flexibility Score: inf
ROOT
ATOM      1  C   UNL     1      57.606  25.978  52.527  1.00  0.00     0.000 C 
ENDROOT
BRANCH   1   2
ATOM      2  C   UNL     1      56.480  26.827  53.136  1.00  0.00     0.000 C 
BRANCH   2   3
ATOM      3  C   UNL     1      56.871  28.314  53.259  1.00  0.00     0.000 C 
BRANCH   3   4
ATOM      4  C   UNL     1      58.299  28.620  52.779  1.00  0.00     0.000 C 
BRANCH   4   5
ATOM      5  C   UNL     1      58.344  29.735  51.722  1.00  0.00     0.000 C 
BRANCH   5   6
ATOM      6  C   UNL     1      57.938  29.245  50.317  1.00  0.00     0.000 C 
BRANCH   6   7
ATOM      7  C   UNL     1      59.104  28.799  49.411  1.00  0.00     0.000 C 
BRANCH   7   8
ATOM      8  C   UNL     1      59.415  27.296  49.528  1.00  0.00     0.000 C 
BRANCH   8   9
ATOM      9  C   UNL     1      60.860  27.028  50.007  1.00  0.00     0.000 C 
BRANCH   9  10
ATOM     10  C   UNL     1      61.745  28.289  50.062  1.00  0.00     0.000 C 
BRANCH  10  11
ATOM     11  C   UNL     1      62.070  28.797  51.480  1.00  0.00     0.000 C 
BRANCH  11  12
ATOM     12  C   UNL     1      62.282  30.323  51.594  1.00  0.00     0.006 C 
BRANCH  12  13
ATOM     13  C   UNL     1      61.857  31.117  50.348  1.00  0.00     0.053 C 
BRANCH  13  14
ATOM     14  C   UNL     1      63.032  31.681  49.611  1.00  0.00     0.041 C 
ATOM     15  O   UNL     1      63.094  32.915  49.367  1.00  0.00    -0.550 OA
ATOM     16  O   UNL     1      64.091  30.855  49.254  1.00  0.00    -0.550 OA
ENDBRANCH  13  14
ENDBRANCH  12  13
ENDBRANCH  11  12
ENDBRANCH  10  11
ENDBRANCH   9  10
ENDBRANCH   8   9
ENDBRANCH   7   8
ENDBRANCH   6   7
ENDBRANCH   5   6
ENDBRANCH   4   5
ENDBRANCH   3   4
ENDBRANCH   2   3
ENDBRANCH   1   2
BRANCH   1  17
ATOM     17  C   UNL     1      57.078  25.114  51.374  1.00  0.00     0.000 C 
BRANCH  17  18
ATOM     18  C   UNL     1      56.302  25.963  50.357  1.00  0.00     0.000 C 
BRANCH  18  19
ATOM     19  C   UNL     1      54.885  25.422  50.099  1.00  0.00     0.000 C 
BRANCH  19  20
ATOM     20  C   UNL     1      53.840  26.544  49.980  1.00  0.00     0.000 C 
BRANCH  20  21
ATOM     21  C   UNL     1      54.459  27.912  50.293  1.00  0.00     0.000 C 
BRANCH  21  22
ATOM     22  C   UNL     1      53.369  28.945  50.614  1.00  0.00    -0.000 C 
BRANCH  22  23
ATOM     23  C   UNL     1      53.601  29.665  51.952  1.00  0.00    -0.000 C 
BRANCH  23  24
ATOM     24  C   UNL     1      54.673  30.762  51.859  1.00  0.00    -0.000 C 
BRANCH  24  25
ATOM     25  C   UNL     1      54.431  31.852  52.914  1.00  0.00    -0.000 C 
BRANCH  25  26
ATOM     26  C   UNL     1      55.736  32.482  53.429  1.00  0.00    -0.000 C 
BRANCH  26  27
ATOM     27  C   UNL     1      56.492  31.649  54.484  1.00  0.00    -0.000 C 
BRANCH  27  28
ATOM     28  C   UNL     1      55.785  31.519  55.849  1.00  0.00    -0.000 C 
BRANCH  28  29
ATOM     29  C   UNL     1      55.568  30.074  56.331  1.00  0.00    -0.003 C 
ATOM     30  C   UNL     1      54.305  29.435  55.755  1.00  0.00     0.004 C 
ENDBRANCH  28  29
ENDBRANCH  27  28
ENDBRANCH  26  27
ENDBRANCH  25  26
ENDBRANCH  24  25
ENDBRANCH  23  24
ENDBRANCH  22  23
ENDBRANCH  21  22
ENDBRANCH  20  21
ENDBRANCH  19  20
ENDBRANCH  18  19
ENDBRANCH  17  18
ENDBRANCH   1  17
TORSDOF 26
ENDMDL
MODEL 3
REMARK VINA RESULT:    -3.030      8.689     12.282
REMARK INTER + INTRA:         -12.802
REMARK INTER:                  -7.416
REMARK INTRA:                  -5.386
REMARK UNBOUND:                -5.167
REMARK SMILES CCCCCCCCCCCCCCCCCCCCCCCCCCCC(=O)[O-]
REMARK SMILES IDX 15 1 16 2 17 3 18 4 19 5 20 6 21 7 22 8 23 9 24 10 25 11
REMARK SMILES IDX 26 12 27 13 28 14 29 15 30 16 14 17 13 18 12 19 11 20 10 21
REMARK SMILES IDX 9 22 8 23 7 24 6 25 5 26 4 27 3 28 2 29 1 30
REMARK H PARENT
REMARK Flexibility Score: inf
ROOT
ATOM      1  C   UNL     1      56.887  27.985  50.635  1.00  0.00     0.000 C 
ENDROOT
BRANCH   1   2
ATOM      2  C   UNL     1      57.666  29.308  50.586  1.00  0.00     0.000 C 
BRANCH   2   3
ATOM      3  C   UNL     1      58.861  29.248  49.612  1.00  0.00     0.000 C 
BRANCH   3   4
ATOM      4  C   UNL     1      59.290  27.817  49.247  1.00  0.00     0.000 C 
BRANCH   4   5
ATOM      5  C   UNL     1      60.709  27.481  49.732  1.00  0.00     0.000 C 
BRANCH   5   6
ATOM      6  C   UNL     1      61.358  28.631  50.530  1.00  0.00     0.000 C 
BRANCH   6   7
ATOM      7  C   UNL     1      61.752  28.286  51.981  1.00  0.00     0.000 C 
BRANCH   7   8
ATOM      8  C   UNL     1      61.536  29.455  52.957  1.00  0.00     0.000 C 
BRANCH   8   9
ATOM      9  C   UNL     1      60.907  30.689  52.270  1.00  0.00     0.000 C 
BRANCH   9  10
ATOM     10  C   UNL     1      61.814  31.936  52.270  1.00  0.00     0.000 C 
BRANCH  10  11
ATOM     11  C   UNL     1      62.905  31.949  51.182  1.00  0.00     0.000 C 
BRANCH  11  12
ATOM     12  C   UNL     1      62.389  32.178  49.744  1.00  0.00     0.006 C 
BRANCH  12  13
ATOM     13  C   UNL     1      62.979  33.416  49.049  1.00  0.00     0.053 C 
BRANCH  13  14
ATOM     14  C   UNL     1      62.757  34.667  49.841  1.00  0.00     0.041 C 
ATOM     15  O   UNL     1      61.606  35.172  49.917  1.00  0.00    -0.550 OA
ATOM     16  O   UNL     1      63.807  35.237  50.550  1.00  0.00    -0.550 OA
ENDBRANCH  13  14
ENDBRANCH  12  13
ENDBRANCH  11  12
ENDBRANCH  10  11
ENDBRANCH   9  10
ENDBRANCH   8   9
ENDBRANCH   7   8
ENDBRANCH   6   7
ENDBRANCH   5   6
ENDBRANCH   4   5
ENDBRANCH   3   4
ENDBRANCH   2   3
ENDBRANCH   1   2
BRANCH   1  17
ATOM     17  C   UNL     1      56.835  27.433  52.066  1.00  0.00     0.000 C 
BRANCH  17  18
ATOM     18  C   UNL     1      58.118  27.774  52.838  1.00  0.00     0.000 C 
BRANCH  18  19
ATOM     19  C   UNL     1      58.882  26.519  53.292  1.00  0.00     0.000 C 
BRANCH  19  20
ATOM     20  C   UNL     1      58.977  25.456  52.185  1.00  0.00     0.000 C 
BRANCH  20  21
ATOM     21  C   UNL     1      60.186  24.537  52.401  1.00  0.00     0.000 C 
BRANCH  21  22
ATOM     22  C   UNL     1      60.377  23.593  51.206  1.00  0.00    -0.000 C 
BRANCH  22  23
ATOM     23  C   UNL     1      61.801  23.632  50.633  1.00  0.00    -0.000 C 
BRANCH  23  24
ATOM     24  C   UNL     1      62.603  24.851  51.114  1.00  0.00    -0.000 C 
BRANCH  24  25
ATOM     25  C   UNL     1      63.907  24.997  50.314  1.00  0.00    -0.000 C 
BRANCH  25  26
ATOM     26  C   UNL     1      64.580  26.365  50.517  1.00  0.00    -0.000 C 
BRANCH  26  27
ATOM     27  C   UNL     1      65.200  26.983  49.247  1.00  0.00    -0.000 C 
BRANCH  27  28
ATOM     28  C   UNL     1      64.224  27.786  48.364  1.00  0.00    -0.000 C 
BRANCH  28  29
ATOM     29  C   UNL     1      64.325  29.315  48.512  1.00  0.00    -0.003 C 
ATOM     30  C   UNL     1      65.540  29.757  49.328  1.00  0.00     0.004 C 
ENDBRANCH  28  29
ENDBRANCH  27  28
ENDBRANCH  26  27
ENDBRANCH  25  26
ENDBRANCH  24  25
ENDBRANCH  23  24
ENDBRANCH  22  23
ENDBRANCH  21  22
ENDBRANCH  20  21
ENDBRANCH  19  20
ENDBRANCH  18  19
ENDBRANCH  17  18
ENDBRANCH   1  17
TORSDOF 26
ENDMDL
MODEL 4
REMARK VINA RESULT:    -3.000      3.092      6.066
REMARK INTER + INTRA:         -12.728
REMARK INTER:                  -7.487
REMARK INTRA:                  -5.241
REMARK UNBOUND:                -5.167
REMARK SMILES CCCCCCCCCCCCCCCCCCCCCCCCCCCC(=O)[O-]
REMARK SMILES IDX 15 1 16 2 17 3 18 4 19 5 20 6 21 7 22 8 23 9 24 10 25 11
REMARK SMILES IDX 26 12 27 13 28 14 29 15 30 16 14 17 13 18 12 19 11 20 10 21
REMARK SMILES IDX 9 22 8 23 7 24 6 25 5 26 4 27 3 28 2 29 1 30
REMARK H PARENT
REMARK Flexibility Score: inf
ROOT
ATOM      1  C   UNL     1      62.116  28.015  58.230  1.00  0.00     0.000 C 
ENDROOT
BRANCH   1   2
ATOM      2  C   UNL     1      60.722  27.763  58.825  1.00  0.00     0.000 C 
BRANCH   2   3
ATOM      3  C   UNL     1      59.687  28.804  58.351  1.00  0.00     0.000 C 
BRANCH   3   4
ATOM      4  C   UNL     1      58.442  28.893  59.250  1.00  0.00     0.000 C 
BRANCH   4   5
ATOM      5  C   UNL     1      58.723  28.458  60.697  1.00  0.00     0.000 C 
BRANCH   5   6
ATOM      6  C   UNL     1      57.591  27.598  61.295  1.00  0.00     0.000 C 
BRANCH   6   7
ATOM      7  C   UNL     1      57.266  26.305  60.520  1.00  0.00     0.000 C 
BRANCH   7   8
ATOM      8  C   UNL     1      58.491  25.394  60.328  1.00  0.00     0.000 C 
BRANCH   8   9
ATOM      9  C   UNL     1      59.094  24.924  61.671  1.00  0.00     0.000 C 
BRANCH   9  10
ATOM     10  C   UNL     1      60.635  24.908  61.694  1.00  0.00     0.000 C 
BRANCH  10  11
ATOM     11  C   UNL     1      61.296  26.242  62.091  1.00  0.00     0.000 C 
BRANCH  11  12
ATOM     12  C   UNL     1      62.776  26.387  61.672  1.00  0.00     0.006 C 
BRANCH  12  13
ATOM     13  C   UNL     1      63.374  25.134  61.011  1.00  0.00     0.053 C 
BRANCH  13  14
ATOM     14  C   UNL     1      64.334  24.425  61.915  1.00  0.00     0.041 C 
ATOM     15  O   UNL     1      65.422  23.981  61.459  1.00  0.00    -0.550 OA
ATOM     16  O   UNL     1      64.060  24.314  63.272  1.00  0.00    -0.550 OA
ENDBRANCH  13  14
ENDBRANCH  12  13
ENDBRANCH  11  12
ENDBRANCH  10  11
ENDBRANCH   9  10
ENDBRANCH   8   9
ENDBRANCH   7   8
ENDBRANCH   6   7
ENDBRANCH   5   6
ENDBRANCH   4   5
ENDBRANCH   3   4
ENDBRANCH   2   3
ENDBRANCH   1   2
BRANCH   1  17
ATOM     17  C   UNL     1      62.012  28.514  56.783  1.00  0.00     0.000 C 
BRANCH  17  18
ATOM     18  C   UNL     1      62.920  29.731  56.551  1.00  0.00     0.000 C 
BRANCH  18  19
ATOM     19  C   UNL     1      63.061  30.606  57.808  1.00  0.00     0.000 C 
BRANCH  19  20
ATOM     20  C   UNL     1      64.513  31.048  58.057  1.00  0.00     0.000 C 
BRANCH  20  21
ATOM     21  C   UNL     1      64.812  31.147  59.558  1.00  0.00     0.000 C 
BRANCH  21  22
ATOM     22  C   UNL     1      64.207  29.957  60.316  1.00  0.00    -0.000 C 
BRANCH  22  23
ATOM     23  C   UNL     1      63.438  30.378  61.577  1.00  0.00    -0.000 C 
BRANCH  23  24
ATOM     24  C   UNL     1      61.967  29.933  61.554  1.00  0.00    -0.000 C 
BRANCH  24  25
ATOM     25  C   UNL     1      61.029  31.149  61.569  1.00  0.00    -0.000 C 
BRANCH  25  26
ATOM     26  C   UNL     1      60.884  31.807  60.185  1.00  0.00    -0.000 C 
BRANCH  26  27
ATOM     27  C   UNL     1      61.095  33.335  60.163  1.00  0.00    -0.000 C 
BRANCH  27  28
ATOM     28  C   UNL     1      62.523  33.806  60.502  1.00  0.00    -0.000 C 
BRANCH  28  29
ATOM     29  C   UNL     1      62.641  35.292  60.885  1.00  0.00    -0.003 C 
ATOM     30  C   UNL     1      64.067  35.702  61.257  1.00  0.00     0.004 C 
ENDBRANCH  28  29
ENDBRANCH  27  28
ENDBRANCH  26  27
ENDBRANCH  25  26
ENDBRANCH  24  25
ENDBRANCH  23  24
ENDBRANCH  22  23
ENDBRANCH  21  22
ENDBRANCH  20  21
ENDBRANCH  19  20
ENDBRANCH  18  19
ENDBRANCH  17  18
ENDBRANCH   1  17
TORSDOF 26
ENDMDL
MODEL 5
REMARK VINA RESULT:    -2.982      3.530      7.852
REMARK INTER + INTRA:         -12.681
REMARK INTER:                  -7.360
REMARK INTRA:                  -5.321
REMARK UNBOUND:                -5.167
REMARK SMILES CCCCCCCCCCCCCCCCCCCCCCCCCCCC(=O)[O-]
REMARK SMILES IDX 15 1 16 2 17 3 18 4 19 5 20 6 21 7 22 8 23 9 24 10 25 11
REMARK SMILES IDX 26 12 27 13 28 14 29 15 30 16 14 17 13 18 12 19 11 20 10 21
REMARK SMILES IDX 9 22 8 23 7 24 6 25 5 26 4 27 3 28 2 29 1 30
REMARK H PARENT
REMARK Flexibility Score: inf
ROOT
ATOM      1  C   UNL     1      61.001  31.063  61.144  1.00  0.00     0.000 C 
ENDROOT
BRANCH   1   2
ATOM      2  C   UNL     1      60.050  30.604  60.028  1.00  0.00     0.000 C 
BRANCH   2   3
ATOM      3  C   UNL     1      59.739  31.733  59.024  1.00  0.00     0.000 C 
BRANCH   3   4
ATOM      4  C   UNL     1      60.917  32.694  58.791  1.00  0.00     0.000 C 
BRANCH   4   5
ATOM      5  C   UNL     1      60.594  34.139  59.204  1.00  0.00     0.000 C 
BRANCH   5   6
ATOM      6  C   UNL     1      61.386  34.600  60.445  1.00  0.00     0.000 C 
BRANCH   6   7
ATOM      7  C   UNL     1      61.642  36.118  60.537  1.00  0.00     0.000 C 
BRANCH   7   8
ATOM      8  C   UNL     1      62.982  36.462  61.211  1.00  0.00     0.000 C 
BRANCH   8   9
ATOM      9  C   UNL     1      63.937  35.249  61.280  1.00  0.00     0.000 C 
BRANCH   9  10
ATOM     10  C   UNL     1      65.431  35.624  61.210  1.00  0.00     0.000 C 
BRANCH  10  11
ATOM     11  C   UNL     1      65.960  35.932  59.796  1.00  0.00     0.000 C 
BRANCH  11  12
ATOM     12  C   UNL     1      65.178  35.261  58.646  1.00  0.00     0.006 C 
BRANCH  12  13
ATOM     13  C   UNL     1      64.454  36.246  57.712  1.00  0.00     0.053 C 
BRANCH  13  14
ATOM     14  C   UNL     1      63.214  35.652  57.119  1.00  0.00     0.041 C 
ATOM     15  O   UNL     1      62.187  36.362  56.957  1.00  0.00    -0.550 OA
ATOM     16  O   UNL     1      63.215  34.333  56.682  1.00  0.00    -0.550 OA
ENDBRANCH  13  14
ENDBRANCH  12  13
ENDBRANCH  11  12
ENDBRANCH  10  11
ENDBRANCH   9  10
ENDBRANCH   8   9
ENDBRANCH   7   8
ENDBRANCH   6   7
ENDBRANCH   5   6
ENDBRANCH   4   5
ENDBRANCH   3   4
ENDBRANCH   2   3
ENDBRANCH   1   2
BRANCH   1  17
ATOM     17  C   UNL     1      61.924  29.917  61.582  1.00  0.00     0.000 C 
BRANCH  17  18
ATOM     18  C   UNL     1      63.394  30.360  61.581  1.00  0.00     0.000 C 
BRANCH  18  19
ATOM     19  C   UNL     1      63.616  31.657  60.784  1.00  0.00     0.000 C 
BRANCH  19  20
ATOM     20  C   UNL     1      64.854  31.583  59.874  1.00  0.00     0.000 C 
BRANCH  20  21
ATOM     21  C   UNL     1      64.450  31.486  58.397  1.00  0.00     0.000 C 
BRANCH  21  22
ATOM     22  C   UNL     1      64.221  30.024  57.987  1.00  0.00    -0.000 C 
BRANCH  22  23
ATOM     23  C   UNL     1      62.753  29.718  57.655  1.00  0.00    -0.000 C 
BRANCH  23  24
ATOM     24  C   UNL     1      62.487  28.216  57.468  1.00  0.00    -0.000 C 
BRANCH  24  25
ATOM     25  C   UNL     1      61.652  27.661  58.633  1.00  0.00    -0.000 C 
BRANCH  25  26
ATOM     26  C   UNL     1      62.371  26.537  59.398  1.00  0.00    -0.000 C 
BRANCH  26  27
ATOM     27  C   UNL     1      63.618  26.980  60.191  1.00  0.00    -0.000 C 
BRANCH  27  28
ATOM     28  C   UNL     1      64.906  26.190  59.885  1.00  0.00    -0.000 C 
BRANCH  28  29
ATOM     29  C   UNL     1      65.906  26.913  58.965  1.00  0.00    -0.003 C 
ATOM     30  C   UNL     1      67.223  26.155  58.801  1.00  0.00     0.004 C 
ENDBRANCH  28  29
ENDBRANCH  27  28
ENDBRANCH  26  27
ENDBRANCH  25  26
ENDBRANCH  24  25
ENDBRANCH  23  24
ENDBRANCH  22  23
ENDBRANCH  21  22
ENDBRANCH  20  21
ENDBRANCH  19  20
ENDBRANCH  18  19
ENDBRANCH  17  18
ENDBRANCH   1  17
TORSDOF 26
ENDMDL
MODEL 6
REMARK VINA RESULT:    -2.962      3.531      7.588
REMARK INTER + INTRA:         -12.631
REMARK INTER:                  -6.846
REMARK INTRA:                  -5.785
REMARK UNBOUND:                -5.167
REMARK SMILES CCCCCCCCCCCCCCCCCCCCCCCCCCCC(=O)[O-]
REMARK SMILES IDX 15 1 16 2 17 3 18 4 19 5 20 6 21 7 22 8 23 9 24 10 25 11
REMARK SMILES IDX 26 12 27 13 28 14 29 15 30 16 14 17 13 18 12 19 11 20 10 21
REMARK SMILES IDX 9 22 8 23 7 24 6 25 5 26 4 27 3 28 2 29 1 30
REMARK H PARENT
REMARK Flexibility Score: inf
ROOT
ATOM      1  C   UNL     1      59.787  35.364  57.980  1.00  0.00     0.000 C 
ENDROOT
BRANCH   1   2
ATOM      2  C   UNL     1      60.668  36.230  58.894  1.00  0.00     0.000 C 
BRANCH   2   3
ATOM      3  C   UNL     1      60.752  35.668  60.328  1.00  0.00     0.000 C 
BRANCH   3   4
ATOM      4  C   UNL     1      62.187  35.577  60.873  1.00  0.00     0.000 C 
BRANCH   4   5
ATOM      5  C   UNL     1      62.835  34.209  60.612  1.00  0.00     0.000 C 
BRANCH   5   6
ATOM      6  C   UNL     1      64.310  34.149  61.059  1.00  0.00     0.000 C 
BRANCH   6   7
ATOM      7  C   UNL     1      64.828  35.404  61.791  1.00  0.00     0.000 C 
BRANCH   7   8
ATOM      8  C   UNL     1      66.004  36.081  61.065  1.00  0.00     0.000 C 
BRANCH   8   9
ATOM      9  C   UNL     1      65.924  35.917  59.530  1.00  0.00     0.000 C 
BRANCH   9  10
ATOM     10  C   UNL     1      64.956  36.902  58.845  1.00  0.00     0.000 C 
BRANCH  10  11
ATOM     11  C   UNL     1      64.309  36.384  57.546  1.00  0.00     0.000 C 
BRANCH  11  12
ATOM     12  C   UNL     1      64.354  34.852  57.360  1.00  0.00     0.006 C 
BRANCH  12  13
ATOM     13  C   UNL     1      63.064  34.244  56.786  1.00  0.00     0.053 C 
BRANCH  13  14
ATOM     14  C   UNL     1      62.821  34.670  55.372  1.00  0.00     0.041 C 
ATOM     15  O   UNL     1      63.619  34.325  54.461  1.00  0.00    -0.550 OA
ATOM     16  O   UNL     1      61.677  35.390  55.049  1.00  0.00    -0.550 OA
ENDBRANCH  13  14
ENDBRANCH  12  13
ENDBRANCH  11  12
ENDBRANCH  10  11
ENDBRANCH   9  10
ENDBRANCH   8   9
ENDBRANCH   7   8
ENDBRANCH   6   7
ENDBRANCH   5   6
ENDBRANCH   4   5
ENDBRANCH   3   4
ENDBRANCH   2   3
ENDBRANCH   1   2
BRANCH   1  17
ATOM     17  C   UNL     1      59.467  34.018  58.643  1.00  0.00     0.000 C 
BRANCH  17  18
ATOM     18  C   UNL     1      59.805  32.847  57.709  1.00  0.00     0.000 C 
BRANCH  18  19
ATOM     19  C   UNL     1      60.428  31.657  58.461  1.00  0.00     0.000 C 
BRANCH  19  20
ATOM     20  C   UNL     1      60.497  31.893  59.979  1.00  0.00     0.000 C 
BRANCH  20  21
ATOM     21  C   UNL     1      60.450  30.567  60.748  1.00  0.00     0.000 C 
BRANCH  21  22
ATOM     22  C   UNL     1      61.544  30.519  61.824  1.00  0.00    -0.000 C 
BRANCH  22  23
ATOM     23  C   UNL     1      62.963  30.599  61.240  1.00  0.00    -0.000 C 
BRANCH  23  24
ATOM     24  C   UNL     1      63.376  29.317  60.501  1.00  0.00    -0.000 C 
BRANCH  24  25
ATOM     25  C   UNL     1      63.859  29.639  59.078  1.00  0.00    -0.000 C 
BRANCH  25  26
ATOM     26  C   UNL     1      64.032  31.149  58.836  1.00  0.00    -0.000 C 
BRANCH  26  27
ATOM     27  C   UNL     1      65.491  31.619  58.667  1.00  0.00    -0.000 C 
BRANCH  27  28
ATOM     28  C   UNL     1      66.434  30.605  57.988  1.00  0.00    -0.000 C 
BRANCH  28  29
ATOM     29  C   UNL     1      66.593  30.786  56.468  1.00  0.00    -0.003 C 
ATOM     30  C   UNL     1      66.558  32.251  56.033  1.00  0.00     0.004 C 
ENDBRANCH  28  29
ENDBRANCH  27  28
ENDBRANCH  26  27
ENDBRANCH  25  26
ENDBRANCH  24  25
ENDBRANCH  23  24
ENDBRANCH  22  23
ENDBRANCH  21  22
ENDBRANCH  20  21
ENDBRANCH  19  20
ENDBRANCH  18  19
ENDBRANCH  17  18
ENDBRANCH   1  17
TORSDOF 26
ENDMDL
MODEL 7
REMARK VINA RESULT:    -2.955      3.185      6.541
REMARK INTER + INTRA:         -12.613
REMARK INTER:                  -6.923
REMARK INTRA:                  -5.690
REMARK UNBOUND:                -5.167
REMARK SMILES CCCCCCCCCCCCCCCCCCCCCCCCCCCC(=O)[O-]
REMARK SMILES IDX 15 1 16 2 17 3 18 4 19 5 20 6 21 7 22 8 23 9 24 10 25 11
REMARK SMILES IDX 26 12 27 13 28 14 29 15 30 16 14 17 13 18 12 19 11 20 10 21
REMARK SMILES IDX 9 22 8 23 7 24 6 25 5 26 4 27 3 28 2 29 1 30
REMARK H PARENT
REMARK Flexibility Score: inf
ROOT
ATOM      1  C   UNL     1      60.803  27.309  58.069  1.00  0.00     0.000 C 
ENDROOT
BRANCH   1   2
ATOM      2  C   UNL     1      60.867  25.800  58.354  1.00  0.00     0.000 C 
BRANCH   2   3
ATOM      3  C   UNL     1      61.310  25.496  59.800  1.00  0.00     0.000 C 
BRANCH   3   4
ATOM      4  C   UNL     1      61.148  26.687  60.759  1.00  0.00     0.000 C 
BRANCH   4   5
ATOM      5  C   UNL     1      61.969  26.527  62.048  1.00  0.00     0.000 C 
BRANCH   5   6
ATOM      6  C   UNL     1      61.873  25.110  62.648  1.00  0.00     0.000 C 
BRANCH   6   7
ATOM      7  C   UNL     1      60.761  24.913  63.699  1.00  0.00     0.000 C 
BRANCH   7   8
ATOM      8  C   UNL     1      59.968  23.610  63.499  1.00  0.00     0.000 C 
BRANCH   8   9
ATOM      9  C   UNL     1      59.222  23.574  62.146  1.00  0.00     0.000 C 
BRANCH   9  10
ATOM     10  C   UNL     1      58.166  24.686  61.984  1.00  0.00     0.000 C 
BRANCH  10  11
ATOM     11  C   UNL     1      57.778  25.011  60.529  1.00  0.00     0.000 C 
BRANCH  11  12
ATOM     12  C   UNL     1      57.469  26.499  60.253  1.00  0.00     0.006 C 
BRANCH  12  13
ATOM     13  C   UNL     1      57.481  27.392  61.505  1.00  0.00     0.053 C 
BRANCH  13  14
ATOM     14  C   UNL     1      56.106  27.836  61.895  1.00  0.00     0.041 C 
ATOM     15  O   UNL     1      55.697  27.667  63.074  1.00  0.00    -0.550 OA
ATOM     16  O   UNL     1      55.301  28.496  60.975  1.00  0.00    -0.550 OA
ENDBRANCH  13  14
ENDBRANCH  12  13
ENDBRANCH  11  12
ENDBRANCH  10  11
ENDBRANCH   9  10
ENDBRANCH   8   9
ENDBRANCH   7   8
ENDBRANCH   6   7
ENDBRANCH   5   6
ENDBRANCH   4   5
ENDBRANCH   3   4
ENDBRANCH   2   3
ENDBRANCH   1   2
BRANCH   1  17
ATOM     17  C   UNL     1      59.428  27.704  57.516  1.00  0.00     0.000 C 
BRANCH  17  18
ATOM     18  C   UNL     1      59.273  29.231  57.457  1.00  0.00     0.000 C 
BRANCH  18  19
ATOM     19  C   UNL     1      60.353  29.962  58.274  1.00  0.00     0.000 C 
BRANCH  19  20
ATOM     20  C   UNL     1      59.760  30.771  59.440  1.00  0.00     0.000 C 
BRANCH  20  21
ATOM     21  C   UNL     1      59.973  30.051  60.778  1.00  0.00     0.000 C 
BRANCH  21  22
ATOM     22  C   UNL     1      60.962  30.822  61.663  1.00  0.00    -0.000 C 
BRANCH  22  23
ATOM     23  C   UNL     1      62.356  30.178  61.706  1.00  0.00    -0.000 C 
BRANCH  23  24
ATOM     24  C   UNL     1      63.404  30.973  60.912  1.00  0.00    -0.000 C 
BRANCH  24  25
ATOM     25  C   UNL     1      63.699  30.294  59.566  1.00  0.00    -0.000 C 
BRANCH  25  26
ATOM     26  C   UNL     1      63.856  28.768  59.691  1.00  0.00    -0.000 C 
BRANCH  26  27
ATOM     27  C   UNL     1      65.293  28.242  59.497  1.00  0.00    -0.000 C 
BRANCH  27  28
ATOM     28  C   UNL     1      65.435  27.070  58.504  1.00  0.00    -0.000 C 
BRANCH  28  29
ATOM     29  C   UNL     1      64.732  25.770  58.932  1.00  0.00    -0.003 C 
ATOM     30  C   UNL     1      65.125  25.312  60.337  1.00  0.00     0.004 C 
ENDBRANCH  28  29
ENDBRANCH  27  28
ENDBRANCH  26  27
ENDBRANCH  25  26
ENDBRANCH  24  25
ENDBRANCH  23  24
ENDBRANCH  22  23
ENDBRANCH  21  22
ENDBRANCH  20  21
ENDBRANCH  19  20
ENDBRANCH  18  19
ENDBRANCH  17  18
ENDBRANCH   1  17
TORSDOF 26
ENDMDL
MODEL 8
REMARK VINA RESULT:    -2.942      6.962     11.335
REMARK INTER + INTRA:         -12.581
REMARK INTER:                  -6.532
REMARK INTRA:                  -6.048
REMARK UNBOUND:                -5.167
REMARK SMILES CCCCCCCCCCCCCCCCCCCCCCCCCCCC(=O)[O-]
REMARK SMILES IDX 15 1 16 2 17 3 18 4 19 5 20 6 21 7 22 8 23 9 24 10 25 11
REMARK SMILES IDX 26 12 27 13 28 14 29 15 30 16 14 17 13 18 12 19 11 20 10 21
REMARK SMILES IDX 9 22 8 23 7 24 6 25 5 26 4 27 3 28 2 29 1 30
REMARK H PARENT
REMARK Flexibility Score: inf
ROOT
ATOM      1  C   UNL     1      55.889  26.120  54.318  1.00  0.00     0.000 C 
ENDROOT
BRANCH   1   2
ATOM      2  C   UNL     1      56.635  26.546  53.044  1.00  0.00     0.000 C 
BRANCH   2   3
ATOM      3  C   UNL     1      58.166  26.446  53.202  1.00  0.00     0.000 C 
BRANCH   3   4
ATOM      4  C   UNL     1      58.835  25.520  52.173  1.00  0.00     0.000 C 
BRANCH   4   5
ATOM      5  C   UNL     1      57.970  25.299  50.922  1.00  0.00     0.000 C 
BRANCH   5   6
ATOM      6  C   UNL     1      58.421  26.158  49.723  1.00  0.00     0.000 C 
BRANCH   6   7
ATOM      7  C   UNL     1      59.779  26.869  49.895  1.00  0.00     0.000 C 
BRANCH   7   8
ATOM      8  C   UNL     1      59.666  28.403  49.837  1.00  0.00     0.000 C 
BRANCH   8   9
ATOM      9  C   UNL     1      58.204  28.892  49.950  1.00  0.00     0.000 C 
BRANCH   9  10
ATOM     10  C   UNL     1      57.915  29.709  51.225  1.00  0.00     0.000 C 
BRANCH  10  11
ATOM     11  C   UNL     1      59.109  29.864  52.186  1.00  0.00     0.000 C 
BRANCH  11  12
ATOM     12  C   UNL     1      58.745  30.349  53.606  1.00  0.00     0.006 C 
BRANCH  12  13
ATOM     13  C   UNL     1      59.292  31.742  53.961  1.00  0.00     0.053 C 
BRANCH  13  14
ATOM     14  C   UNL     1      58.197  32.739  54.178  1.00  0.00     0.041 C 
ATOM     15  O   UNL     1      58.067  33.302  55.297  1.00  0.00    -0.550 OA
ATOM     16  O   UNL     1      57.364  33.098  53.126  1.00  0.00    -0.550 OA
ENDBRANCH  13  14
ENDBRANCH  12  13
ENDBRANCH  11  12
ENDBRANCH  10  11
ENDBRANCH   9  10
ENDBRANCH   8   9
ENDBRANCH   7   8
ENDBRANCH   6   7
ENDBRANCH   5   6
ENDBRANCH   4   5
ENDBRANCH   3   4
ENDBRANCH   2   3
ENDBRANCH   1   2
BRANCH   1  17
ATOM     17  C   UNL     1      54.650  25.283  53.973  1.00  0.00     0.000 C 
BRANCH  17  18
ATOM     18  C   UNL     1      54.796  24.620  52.595  1.00  0.00     0.000 C 
BRANCH  18  19
ATOM     19  C   UNL     1      53.485  24.646  51.789  1.00  0.00     0.000 C 
BRANCH  19  20
ATOM     20  C   UNL     1      53.708  24.351  50.297  1.00  0.00     0.000 C 
BRANCH  20  21
ATOM     21  C   UNL     1      54.448  25.505  49.608  1.00  0.00     0.000 C 
BRANCH  21  22
ATOM     22  C   UNL     1      53.786  26.851  49.934  1.00  0.00    -0.000 C 
BRANCH  22  23
ATOM     23  C   UNL     1      54.799  27.940  50.318  1.00  0.00    -0.000 C 
BRANCH  23  24
ATOM     24  C   UNL     1      54.172  29.070  51.149  1.00  0.00    -0.000 C 
BRANCH  24  25
ATOM     25  C   UNL     1      53.254  28.500  52.241  1.00  0.00    -0.000 C 
BRANCH  25  26
ATOM     26  C   UNL     1      53.639  28.978  53.652  1.00  0.00    -0.000 C 
BRANCH  26  27
ATOM     27  C   UNL     1      54.987  29.723  53.744  1.00  0.00    -0.000 C 
BRANCH  27  28
ATOM     28  C   UNL     1      55.055  30.826  54.819  1.00  0.00    -0.000 C 
BRANCH  28  29
ATOM     29  C   UNL     1      55.914  30.481  56.048  1.00  0.00    -0.003 C 
ATOM     30  C   UNL     1      55.704  29.049  56.541  1.00  0.00     0.004 C 
ENDBRANCH  28  29
ENDBRANCH  27  28
ENDBRANCH  26  27
ENDBRANCH  25  26
ENDBRANCH  24  25
ENDBRANCH  23  24
ENDBRANCH  22  23
ENDBRANCH  21  22
ENDBRANCH  20  21
ENDBRANCH  19  20
ENDBRANCH  18  19
ENDBRANCH  17  18
ENDBRANCH   1  17
TORSDOF 26
ENDMDL
MODEL 9
REMARK VINA RESULT:    -2.889      6.743     10.601
REMARK INTER + INTRA:         -12.447
REMARK INTER:                  -6.768
REMARK INTRA:                  -5.680
REMARK UNBOUND:                -5.167
REMARK SMILES CCCCCCCCCCCCCCCCCCCCCCCCCCCC(=O)[O-]
REMARK SMILES IDX 15 1 16 2 17 3 18 4 19 5 20 6 21 7 22 8 23 9 24 10 25 11
REMARK SMILES IDX 26 12 27 13 28 14 29 15 30 16 14 17 13 18 12 19 11 20 10 21
REMARK SMILES IDX 9 22 8 23 7 24 6 25 5 26 4 27 3 28 2 29 1 30
REMARK H PARENT
REMARK Flexibility Score: inf
ROOT
ATOM      1  C   UNL     1      56.088  27.073  51.321  1.00  0.00     0.000 C 
ENDROOT
BRANCH   1   2
ATOM      2  C   UNL     1      57.365  27.352  50.513  1.00  0.00     0.000 C 
BRANCH   2   3
ATOM      3  C   UNL     1      57.631  28.861  50.342  1.00  0.00     0.000 C 
BRANCH   3   4
ATOM      4  C   UNL     1      58.960  29.179  49.638  1.00  0.00     0.000 C 
BRANCH   4   5
ATOM      5  C   UNL     1      59.742  27.915  49.247  1.00  0.00     0.000 C 
BRANCH   5   6
ATOM      6  C   UNL     1      61.024  27.720  50.082  1.00  0.00     0.000 C 
BRANCH   6   7
ATOM      7  C   UNL     1      60.944  26.626  51.167  1.00  0.00     0.000 C 
BRANCH   7   8
ATOM      8  C   UNL     1      61.151  27.174  52.590  1.00  0.00     0.000 C 
BRANCH   8   9
ATOM      9  C   UNL     1      59.830  27.644  53.239  1.00  0.00     0.000 C 
BRANCH   9  10
ATOM     10  C   UNL     1      59.722  29.174  53.399  1.00  0.00     0.000 C 
BRANCH  10  11
ATOM     11  C   UNL     1      61.033  29.949  53.167  1.00  0.00     0.000 C 
BRANCH  11  12
ATOM     12  C   UNL     1      60.991  30.971  52.010  1.00  0.00     0.006 C 
BRANCH  12  13
ATOM     13  C   UNL     1      62.347  31.622  51.690  1.00  0.00     0.053 C 
BRANCH  13  14
ATOM     14  C   UNL     1      62.688  31.529  50.236  1.00  0.00     0.041 C 
ATOM     15  O   UNL     1      62.476  32.508  49.472  1.00  0.00    -0.550 OA
ATOM     16  O   UNL     1      63.302  30.387  49.737  1.00  0.00    -0.550 OA
ENDBRANCH  13  14
ENDBRANCH  12  13
ENDBRANCH  11  12
ENDBRANCH  10  11
ENDBRANCH   9  10
ENDBRANCH   8   9
ENDBRANCH   7   8
ENDBRANCH   6   7
ENDBRANCH   5   6
ENDBRANCH   4   5
ENDBRANCH   3   4
ENDBRANCH   2   3
ENDBRANCH   1   2
BRANCH   1  17
ATOM     17  C   UNL     1      54.874  26.927  50.394  1.00  0.00     0.000 C 
BRANCH  17  18
ATOM     18  C   UNL     1      53.691  27.769  50.896  1.00  0.00     0.000 C 
BRANCH  18  19
ATOM     19  C   UNL     1      53.758  29.226  50.406  1.00  0.00     0.000 C 
BRANCH  19  20
ATOM     20  C   UNL     1      54.069  30.214  51.542  1.00  0.00     0.000 C 
BRANCH  20  21
ATOM     21  C   UNL     1      53.923  29.545  52.914  1.00  0.00     0.000 C 
BRANCH  21  22
ATOM     22  C   UNL     1      55.024  30.018  53.874  1.00  0.00    -0.000 C 
BRANCH  22  23
ATOM     23  C   UNL     1      56.203  30.687  53.151  1.00  0.00    -0.000 C 
BRANCH  23  24
ATOM     24  C   UNL     1      56.524  32.085  53.703  1.00  0.00    -0.000 C 
BRANCH  24  25
ATOM     25  C   UNL     1      57.983  32.466  53.408  1.00  0.00    -0.000 C 
BRANCH  25  26
ATOM     26  C   UNL     1      58.816  32.667  54.686  1.00  0.00    -0.000 C 
BRANCH  26  27
ATOM     27  C   UNL     1      58.135  32.202  55.990  1.00  0.00    -0.000 C 
BRANCH  27  28
ATOM     28  C   UNL     1      58.673  30.881  56.577  1.00  0.00    -0.000 C 
BRANCH  28  29
ATOM     29  C   UNL     1      57.728  29.676  56.430  1.00  0.00    -0.003 C 
ATOM     30  C   UNL     1      56.489  29.775  57.320  1.00  0.00     0.004 C 
ENDBRANCH  28  29
ENDBRANCH  27  28
ENDBRANCH  26  27
ENDBRANCH  25  26
ENDBRANCH  24  25
ENDBRANCH  23  24
ENDBRANCH  22  23
ENDBRANCH  21  22
ENDBRANCH  20  21
ENDBRANCH  19  20
ENDBRANCH  18  19
ENDBRANCH  17  18
ENDBRANCH   1  17
TORSDOF 26
ENDMDL
