MODEL 1
REMARK VINA RESULT:    -4.975      0.000      0.000
REMARK INTER + INTRA:          -7.383
REMARK INTER:                  -6.720
REMARK INTRA:                  -0.663
REMARK UNBOUND:                -0.663
REMARK SMILES CC(=O)CCC=C(C)CCC=C(C)C
REMARK SMILES IDX 7 1 6 2 8 3 9 4 10 5 11 6 13 7 12 8 14 9 5 10 4 11 2 12 3 13
REMARK SMILES IDX 1 14
REMARK H PARENT
REMARK Flexibility Score: inf
ROOT
ATOM      1  C   UNL     1     -10.229  -5.697  17.890  1.00  0.00    -0.077 C 
ATOM      2  C   UNL     1     -10.385  -5.316  19.179  1.00  0.00    -0.028 C 
ATOM      3  C   UNL     1     -11.456  -6.071  17.100  1.00  0.00     0.039 C 
ENDROOT
BRANCH   1   4
ATOM      4  C   UNL     1      -8.871  -5.835  17.229  1.00  0.00     0.034 C 
BRANCH   4   5
ATOM      5  C   UNL     1      -8.384  -7.286  17.295  1.00  0.00     0.032 C 
BRANCH   5   6
ATOM      6  C   UNL     1      -7.261  -7.428  18.291  1.00  0.00    -0.028 C 
ATOM      7  C   UNL     1      -7.414  -9.928  18.348  1.00  0.00     0.039 C 
ATOM      8  C   UNL     1      -6.792  -8.612  18.747  1.00  0.00    -0.080 C 
ATOM      9  C   UNL     1      -5.643  -8.639  19.721  1.00  0.00     0.039 C 
ENDBRANCH   5   6
ENDBRANCH   4   5
ENDBRANCH   1   4
BRANCH   2  10
ATOM     10  C   UNL     1      -9.263  -4.905  20.098  1.00  0.00     0.035 C 
BRANCH  10  11
ATOM     11  C   UNL     1      -9.614  -3.612  20.843  1.00  0.00     0.079 C 
BRANCH  11  12
ATOM     12  C   UNL     1      -9.753  -3.870  22.319  1.00  0.00     0.130 C 
ATOM     13  O   UNL     1      -9.188  -3.134  23.113  1.00  0.00    -0.300 OA
ATOM     14  C   UNL     1     -10.583  -5.006  22.841  1.00  0.00     0.087 C 
ENDBRANCH  11  12
ENDBRANCH  10  11
ENDBRANCH   2  10
TORSDOF 6
ENDMDL
MODEL 2
REMARK VINA RESULT:    -4.874     17.894     19.400
REMARK INTER + INTRA:          -7.247
REMARK INTER:                  -6.008
REMARK INTRA:                  -1.239
REMARK UNBOUND:                -0.663
REMARK SMILES CC(=O)CCC=C(C)CCC=C(C)C
REMARK SMILES IDX 7 1 6 2 8 3 9 4 10 5 11 6 13 7 12 8 14 9 5 10 4 11 2 12 3 13
REMARK SMILES IDX 1 14
REMARK H PARENT
REMARK Flexibility Score: inf
ROOT
ATOM      1  C   UNL     1       3.144   4.535  31.290  1.00  0.00    -0.077 C 
ATOM      2  C   UNL     1       2.568   5.611  31.873  1.00  0.00    -0.028 C 
ATOM      3  C   UNL     1       4.632   4.350  31.439  1.00  0.00     0.039 C 
ENDROOT
BRANCH   1   4
ATOM      4  C   UNL     1       2.375   3.549  30.432  1.00  0.00     0.034 C 
BRANCH   4   5
ATOM      5  C   UNL     1       2.315   4.030  28.979  1.00  0.00     0.032 C 
BRANCH   5   6
ATOM      6  C   UNL     1       3.278   3.252  28.117  1.00  0.00    -0.028 C 
ATOM      7  C   UNL     1       4.735   5.240  27.673  1.00  0.00     0.039 C 
ATOM      8  C   UNL     1       4.389   3.777  27.552  1.00  0.00    -0.080 C 
ATOM      9  C   UNL     1       5.298   2.899  26.732  1.00  0.00     0.039 C 
ENDBRANCH   5   6
ENDBRANCH   4   5
ENDBRANCH   1   4
BRANCH   2  10
ATOM     10  C   UNL     1       1.096   5.933  31.822  1.00  0.00     0.035 C 
BRANCH  10  11
ATOM     11  C   UNL     1       0.861   7.317  31.207  1.00  0.00     0.079 C 
BRANCH  11  12
ATOM     12  C   UNL     1       0.940   7.252  29.705  1.00  0.00     0.130 C 
ATOM     13  O   UNL     1       0.021   6.751  29.076  1.00  0.00    -0.300 OA
ATOM     14  C   UNL     1       2.119   7.803  28.959  1.00  0.00     0.087 C 
ENDBRANCH  11  12
ENDBRANCH  10  11
ENDBRANCH   2  10
TORSDOF 6
ENDMDL
MODEL 3
REMARK VINA RESULT:    -4.731     18.005     20.101
REMARK INTER + INTRA:          -7.053
REMARK INTER:                  -5.276
REMARK INTRA:                  -1.777
REMARK UNBOUND:                -0.663
REMARK SMILES CC(=O)CCC=C(C)CCC=C(C)C
REMARK SMILES IDX 7 1 6 2 8 3 9 4 10 5 11 6 13 7 12 8 14 9 5 10 4 11 2 12 3 13
REMARK SMILES IDX 1 14
REMARK H PARENT
REMARK Flexibility Score: inf
ROOT
ATOM      1  C   UNL     1       1.108   5.981  30.929  1.00  0.00    -0.077 C 
ATOM      2  C   UNL     1       1.555   4.840  31.501  1.00  0.00    -0.028 C 
ATOM      3  C   UNL     1       0.614   7.086  31.826  1.00  0.00     0.039 C 
ENDROOT
BRANCH   1   4
ATOM      4  C   UNL     1       1.011   6.170  29.427  1.00  0.00     0.034 C 
BRANCH   4   5
ATOM      5  C   UNL     1       1.823   7.391  28.983  1.00  0.00     0.032 C 
BRANCH   5   6
ATOM      6  C   UNL     1       3.201   6.981  28.530  1.00  0.00    -0.028 C 
ATOM      7  C   UNL     1       4.289   7.681  30.676  1.00  0.00     0.039 C 
ATOM      8  C   UNL     1       4.314   7.075  29.294  1.00  0.00    -0.080 C 
ATOM      9  C   UNL     1       5.639   6.608  28.750  1.00  0.00     0.039 C 
ENDBRANCH   5   6
ENDBRANCH   4   5
ENDBRANCH   1   4
BRANCH   2  10
ATOM     10  C   UNL     1       2.087   3.649  30.745  1.00  0.00     0.035 C 
BRANCH  10  11
ATOM     11  C   UNL     1       3.616   3.695  30.661  1.00  0.00     0.079 C 
BRANCH  11  12
ATOM     12  C   UNL     1       4.086   3.290  29.289  1.00  0.00     0.130 C 
ATOM     13  O   UNL     1       5.230   2.888  29.140  1.00  0.00    -0.300 OA
ATOM     14  C   UNL     1       3.175   3.356  28.098  1.00  0.00     0.087 C 
ENDBRANCH  11  12
ENDBRANCH  10  11
ENDBRANCH   2  10
TORSDOF 6
ENDMDL
MODEL 4
REMARK VINA RESULT:    -4.714     18.448     20.044
REMARK INTER + INTRA:          -7.030
REMARK INTER:                  -5.782
REMARK INTRA:                  -1.248
REMARK UNBOUND:                -0.663
REMARK SMILES CC(=O)CCC=C(C)CCC=C(C)C
REMARK SMILES IDX 7 1 6 2 8 3 9 4 10 5 11 6 13 7 12 8 14 9 5 10 4 11 2 12 3 13
REMARK SMILES IDX 1 14
REMARK H PARENT
REMARK Flexibility Score: inf
ROOT
ATOM      1  C   UNL     1       2.784   5.199  28.879  1.00  0.00    -0.077 C 
ATOM      2  C   UNL     1       2.028   6.318  28.826  1.00  0.00    -0.028 C 
ATOM      3  C   UNL     1       4.190   5.258  28.339  1.00  0.00     0.039 C 
ENDROOT
BRANCH   1   4
ATOM      4  C   UNL     1       2.260   3.869  29.386  1.00  0.00     0.034 C 
BRANCH   4   5
ATOM      5  C   UNL     1       2.249   3.842  30.918  1.00  0.00     0.032 C 
BRANCH   5   6
ATOM      6  C   UNL     1       3.580   3.377  31.453  1.00  0.00    -0.028 C 
ATOM      7  C   UNL     1       4.222   5.652  32.281  1.00  0.00     0.039 C 
ATOM      8  C   UNL     1       4.462   4.173  32.099  1.00  0.00    -0.080 C 
ATOM      9  C   UNL     1       5.752   3.595  32.620  1.00  0.00     0.039 C 
ENDBRANCH   5   6
ENDBRANCH   4   5
ENDBRANCH   1   4
BRANCH   2  10
ATOM     10  C   UNL     1       0.610   6.424  29.329  1.00  0.00     0.035 C 
BRANCH  10  11
ATOM     11  C   UNL     1       0.407   7.722  30.119  1.00  0.00     0.079 C 
BRANCH  11  12
ATOM     12  C   UNL     1       1.124   7.658  31.441  1.00  0.00     0.130 C 
ATOM     13  O   UNL     1       2.121   8.341  31.618  1.00  0.00    -0.300 OA
ATOM     14  C   UNL     1       0.633   6.781  32.556  1.00  0.00     0.087 C 
ENDBRANCH  11  12
ENDBRANCH  10  11
ENDBRANCH   2  10
TORSDOF 6
ENDMDL
MODEL 5
REMARK VINA RESULT:    -4.686      2.377      5.502
REMARK INTER + INTRA:          -6.993
REMARK INTER:                  -6.305
REMARK INTRA:                  -0.688
REMARK UNBOUND:                -0.663
REMARK SMILES CC(=O)CCC=C(C)CCC=C(C)C
REMARK SMILES IDX 7 1 6 2 8 3 9 4 10 5 11 6 13 7 12 8 14 9 5 10 4 11 2 12 3 13
REMARK SMILES IDX 1 14
REMARK H PARENT
REMARK Flexibility Score: inf
ROOT
ATOM      1  C   UNL     1      -9.577  -6.054  18.047  1.00  0.00    -0.077 C 
ATOM      2  C   UNL     1      -8.873  -6.785  17.152  1.00  0.00    -0.028 C 
ATOM      3  C   UNL     1     -11.048  -5.842  17.800  1.00  0.00     0.039 C 
ENDROOT
BRANCH   1   4
ATOM      4  C   UNL     1      -8.939  -5.376  19.244  1.00  0.00     0.034 C 
BRANCH   4   5
ATOM      5  C   UNL     1      -9.783  -4.183  19.702  1.00  0.00     0.032 C 
BRANCH   5   6
ATOM      6  C   UNL     1      -9.137  -3.490  20.876  1.00  0.00    -0.028 C 
ATOM      7  C   UNL     1     -10.458  -4.781  22.569  1.00  0.00     0.039 C 
ATOM      8  C   UNL     1      -9.407  -3.773  22.171  1.00  0.00    -0.080 C 
ATOM      9  C   UNL     1      -8.680  -3.038  23.267  1.00  0.00     0.039 C 
ENDBRANCH   5   6
ENDBRANCH   4   5
ENDBRANCH   1   4
BRANCH   2  10
ATOM     10  C   UNL     1      -7.402  -7.094  17.259  1.00  0.00     0.035 C 
BRANCH  10  11
ATOM     11  C   UNL     1      -7.162  -8.607  17.291  1.00  0.00     0.079 C 
BRANCH  11  12
ATOM     12  C   UNL     1      -6.922  -9.079  18.701  1.00  0.00     0.130 C 
ATOM     13  O   UNL     1      -7.426 -10.125  19.078  1.00  0.00    -0.300 OA
ATOM     14  C   UNL     1      -6.065  -8.297  19.652  1.00  0.00     0.087 C 
ENDBRANCH  11  12
ENDBRANCH  10  11
ENDBRANCH   2  10
TORSDOF 6
ENDMDL
MODEL 6
REMARK VINA RESULT:    -4.684      1.346      2.135
REMARK INTER + INTRA:          -6.989
REMARK INTER:                  -5.629
REMARK INTRA:                  -1.361
REMARK UNBOUND:                -0.663
REMARK SMILES CC(=O)CCC=C(C)CCC=C(C)C
REMARK SMILES IDX 7 1 6 2 8 3 9 4 10 5 11 6 13 7 12 8 14 9 5 10 4 11 2 12 3 13
REMARK SMILES IDX 1 14
REMARK H PARENT
REMARK Flexibility Score: inf
ROOT
ATOM      1  C   UNL     1      -8.415  -6.201  16.690  1.00  0.00    -0.077 C 
ATOM      2  C   UNL     1      -8.722  -5.335  17.683  1.00  0.00    -0.028 C 
ATOM      3  C   UNL     1      -7.773  -5.658  15.439  1.00  0.00     0.039 C 
ENDROOT
BRANCH   1   4
ATOM      4  C   UNL     1      -8.755  -7.678  16.746  1.00  0.00     0.034 C 
BRANCH   4   5
ATOM      5  C   UNL     1      -7.481  -8.521  16.859  1.00  0.00     0.032 C 
BRANCH   5   6
ATOM      6  C   UNL     1      -7.126  -8.764  18.304  1.00  0.00    -0.028 C 
ATOM      7  C   UNL     1      -5.272  -7.080  18.299  1.00  0.00     0.039 C 
ATOM      8  C   UNL     1      -6.157  -8.099  18.974  1.00  0.00    -0.080 C 
ATOM      9  C   UNL     1      -5.906  -8.403  20.428  1.00  0.00     0.039 C 
ENDBRANCH   5   6
ENDBRANCH   4   5
ENDBRANCH   1   4
BRANCH   2  10
ATOM     10  C   UNL     1      -9.358  -5.720  18.994  1.00  0.00     0.035 C 
BRANCH  10  11
ATOM     11  C   UNL     1      -8.498  -5.256  20.174  1.00  0.00     0.079 C 
BRANCH  11  12
ATOM     12  C   UNL     1      -9.231  -4.229  20.996  1.00  0.00     0.130 C 
ATOM     13  O   UNL     1      -9.187  -3.053  20.667  1.00  0.00    -0.300 OA
ATOM     14  C   UNL     1     -10.028  -4.618  22.207  1.00  0.00     0.087 C 
ENDBRANCH  11  12
ENDBRANCH  10  11
ENDBRANCH   2  10
TORSDOF 6
ENDMDL
MODEL 7
REMARK VINA RESULT:    -4.622      3.030      6.040
REMARK INTER + INTRA:          -6.906
REMARK INTER:                  -5.544
REMARK INTRA:                  -1.362
REMARK UNBOUND:                -0.663
REMARK SMILES CC(=O)CCC=C(C)CCC=C(C)C
REMARK SMILES IDX 7 1 6 2 8 3 9 4 10 5 11 6 13 7 12 8 14 9 5 10 4 11 2 12 3 13
REMARK SMILES IDX 1 14
REMARK H PARENT
REMARK Flexibility Score: inf
ROOT
ATOM      1  C   UNL     1      -6.237  -8.446  18.901  1.00  0.00    -0.077 C 
ATOM      2  C   UNL     1      -6.840  -9.585  18.492  1.00  0.00    -0.028 C 
ATOM      3  C   UNL     1      -6.000  -8.249  20.376  1.00  0.00     0.039 C 
ENDROOT
BRANCH   1   4
ATOM      4  C   UNL     1      -5.855  -7.327  17.951  1.00  0.00     0.034 C 
BRANCH   4   5
ATOM      5  C   UNL     1      -6.469  -5.999  18.407  1.00  0.00     0.032 C 
BRANCH   5   6
ATOM      6  C   UNL     1      -7.957  -5.987  18.166  1.00  0.00    -0.028 C 
ATOM      7  C   UNL     1      -8.484  -5.137  20.462  1.00  0.00     0.039 C 
ATOM      8  C   UNL     1      -8.873  -5.570  19.070  1.00  0.00    -0.080 C 
ATOM      9  C   UNL     1     -10.336  -5.572  18.712  1.00  0.00     0.039 C 
ENDBRANCH   5   6
ENDBRANCH   4   5
ENDBRANCH   1   4
BRANCH   2  10
ATOM     10  C   UNL     1      -7.140  -9.935  17.057  1.00  0.00     0.035 C 
BRANCH  10  11
ATOM     11  C   UNL     1      -8.622  -9.710  16.739  1.00  0.00     0.079 C 
BRANCH  11  12
ATOM     12  C   UNL     1      -8.791  -8.583  15.755  1.00  0.00     0.130 C 
ATOM     13  O   UNL     1      -7.870  -8.297  15.006  1.00  0.00    -0.300 OA
ATOM     14  C   UNL     1     -10.073  -7.809  15.664  1.00  0.00     0.087 C 
ENDBRANCH  11  12
ENDBRANCH  10  11
ENDBRANCH   2  10
TORSDOF 6
ENDMDL
MODEL 8
REMARK VINA RESULT:    -4.608      2.464      5.029
REMARK INTER + INTRA:          -6.887
REMARK INTER:                  -5.618
REMARK INTRA:                  -1.269
REMARK UNBOUND:                -0.663
REMARK SMILES CC(=O)CCC=C(C)CCC=C(C)C
REMARK SMILES IDX 7 1 6 2 8 3 9 4 10 5 11 6 13 7 12 8 14 9 5 10 4 11 2 12 3 13
REMARK SMILES IDX 1 14
REMARK H PARENT
REMARK Flexibility Score: inf
ROOT
ATOM      1  C   UNL     1      -9.093  -8.493  15.915  1.00  0.00    -0.077 C 
ATOM      2  C   UNL     1      -8.531  -9.542  16.559  1.00  0.00    -0.028 C 
ATOM      3  C   UNL     1     -10.495  -8.646  15.386  1.00  0.00     0.039 C 
ENDROOT
BRANCH   1   4
ATOM      4  C   UNL     1      -8.351  -7.200  15.638  1.00  0.00     0.034 C 
BRANCH   4   5
ATOM      5  C   UNL     1      -9.094  -6.009  16.251  1.00  0.00     0.032 C 
BRANCH   5   6
ATOM      6  C   UNL     1      -8.534  -5.671  17.610  1.00  0.00    -0.028 C 
ATOM      7  C   UNL     1     -10.788  -5.619  18.701  1.00  0.00     0.039 C 
ATOM      8  C   UNL     1      -9.282  -5.526  18.727  1.00  0.00    -0.080 C 
ATOM      9  C   UNL     1      -8.614  -5.216  20.041  1.00  0.00     0.039 C 
ENDBRANCH   5   6
ENDBRANCH   4   5
ENDBRANCH   1   4
BRANCH   2  10
ATOM     10  C   UNL     1      -7.144  -9.546  17.152  1.00  0.00     0.035 C 
BRANCH  10  11
ATOM     11  C   UNL     1      -7.205  -9.464  18.681  1.00  0.00     0.079 C 
BRANCH  11  12
ATOM     12  C   UNL     1      -6.183  -8.489  19.203  1.00  0.00     0.130 C 
ATOM     13  O   UNL     1      -5.837  -8.551  20.372  1.00  0.00    -0.300 OA
ATOM     14  C   UNL     1      -5.569  -7.448  18.314  1.00  0.00     0.087 C 
ENDBRANCH  11  12
ENDBRANCH  10  11
ENDBRANCH   2  10
TORSDOF 6
ENDMDL
MODEL 9
REMARK VINA RESULT:    -4.601     18.506     20.070
REMARK INTER + INTRA:          -6.878
REMARK INTER:                  -5.211
REMARK INTRA:                  -1.667
REMARK UNBOUND:                -0.663
REMARK SMILES CC(=O)CCC=C(C)CCC=C(C)C
REMARK SMILES IDX 7 1 6 2 8 3 9 4 10 5 11 6 13 7 12 8 14 9 5 10 4 11 2 12 3 13
REMARK SMILES IDX 1 14
REMARK H PARENT
REMARK Flexibility Score: inf
ROOT
ATOM      1  C   UNL     1       3.579   3.641  30.026  1.00  0.00    -0.077 C 
ATOM      2  C   UNL     1       2.862   3.972  31.123  1.00  0.00    -0.028 C 
ATOM      3  C   UNL     1       4.933   3.007  30.220  1.00  0.00     0.039 C 
ENDROOT
BRANCH   1   4
ATOM      4  C   UNL     1       3.118   3.944  28.614  1.00  0.00     0.034 C 
BRANCH   4   5
ATOM      5  C   UNL     1       4.026   4.992  27.962  1.00  0.00     0.032 C 
BRANCH   5   6
ATOM      6  C   UNL     1       3.608   6.385  28.361  1.00  0.00    -0.028 C 
ATOM      7  C   UNL     1       5.574   6.713  29.878  1.00  0.00     0.039 C 
ATOM      8  C   UNL     1       4.312   7.183  29.196  1.00  0.00    -0.080 C 
ATOM      9  C   UNL     1       3.815   8.571  29.504  1.00  0.00     0.039 C 
ENDBRANCH   5   6
ENDBRANCH   4   5
ENDBRANCH   1   4
BRANCH   2  10
ATOM     10  C   UNL     1       1.493   4.604  31.099  1.00  0.00     0.035 C 
BRANCH  10  11
ATOM     11  C   UNL     1       1.532   6.013  31.700  1.00  0.00     0.079 C 
BRANCH  11  12
ATOM     12  C   UNL     1       0.747   6.977  30.850  1.00  0.00     0.130 C 
ATOM     13  O   UNL     1       0.413   8.055  31.316  1.00  0.00    -0.300 OA
ATOM     14  C   UNL     1       0.375   6.647  29.434  1.00  0.00     0.087 C 
ENDBRANCH  11  12
ENDBRANCH  10  11
ENDBRANCH   2  10
TORSDOF 6
ENDMDL
