MODEL 1
REMARK VINA RESULT:    -2.834      0.000      0.000
REMARK INTER + INTRA:          -3.638
REMARK INTER:                  -3.414
REMARK INTRA:                  -0.224
REMARK UNBOUND:                -0.224
REMARK SMILES OCC(O)CO
REMARK SMILES IDX 3 1 5 2 6 3 2 5 1 6 4 8
REMARK H PARENT 6 4 1 7 4 9
REMARK Flexibility Score: inf
ROOT
ATOM      1  C   UNL     1     161.132 162.423 176.260  1.00  0.00     0.165 C 
ENDROOT
BRANCH   1   2
ATOM      2  C   UNL     1     160.914 161.045 175.615  1.00  0.00     0.190 C 
BRANCH   2   3
ATOM      3  O   UNL     1     159.875 160.361 176.262  1.00  0.00    -0.394 OA
ATOM      4  H   UNL     1     160.197 159.432 176.392  1.00  0.00     0.210 HD
ENDBRANCH   2   3
ENDBRANCH   1   2
BRANCH   1   5
ATOM      5  C   UNL     1     162.140 162.360 177.417  1.00  0.00     0.190 C 
BRANCH   5   6
ATOM      6  O   UNL     1     161.995 161.170 178.145  1.00  0.00    -0.394 OA
ATOM      7  H   UNL     1     161.048 160.889 178.047  1.00  0.00     0.210 HD
ENDBRANCH   5   6
ENDBRANCH   1   5
BRANCH   1   8
ATOM      8  O   UNL     1     159.912 162.924 176.743  1.00  0.00    -0.388 OA
ATOM      9  H   UNL     1     160.104 163.347 177.621  1.00  0.00     0.211 HD
ENDBRANCH   1   8
TORSDOF 5
ENDMDL
MODEL 2
REMARK VINA RESULT:    -2.785     16.586     17.535
REMARK INTER + INTRA:          -3.578
REMARK INTER:                  -3.403
REMARK INTRA:                  -0.176
REMARK UNBOUND:                -0.224
REMARK SMILES OCC(O)CO
REMARK SMILES IDX 3 1 5 2 6 3 2 5 1 6 4 8
REMARK H PARENT 6 4 1 7 4 9
REMARK Flexibility Score: inf
ROOT
ATOM      1  C   UNL     1     177.555 164.442 178.836  1.00  0.00     0.165 C 
ENDROOT
BRANCH   1   2
ATOM      2  C   UNL     1     179.000 164.821 178.474  1.00  0.00     0.190 C 
BRANCH   2   3
ATOM      3  O   UNL     1     179.437 164.083 177.366  1.00  0.00    -0.394 OA
ATOM      4  H   UNL     1     179.872 164.734 176.757  1.00  0.00     0.210 HD
ENDBRANCH   2   3
ENDBRANCH   1   2
BRANCH   1   5
ATOM      5  C   UNL     1     177.498 163.501 180.048  1.00  0.00     0.190 C 
BRANCH   5   6
ATOM      6  O   UNL     1     178.598 162.632 180.063  1.00  0.00    -0.394 OA
ATOM      7  H   UNL     1     178.421 161.958 180.770  1.00  0.00     0.210 HD
ENDBRANCH   5   6
ENDBRANCH   1   5
BRANCH   1   8
ATOM      8  O   UNL     1     176.937 163.815 177.742  1.00  0.00    -0.388 OA
ATOM      9  H   UNL     1     175.989 163.663 177.996  1.00  0.00     0.211 HD
ENDBRANCH   1   8
TORSDOF 5
ENDMDL
MODEL 3
REMARK VINA RESULT:    -2.754     20.974     21.640
REMARK INTER + INTRA:          -3.541
REMARK INTER:                  -3.325
REMARK INTRA:                  -0.216
REMARK UNBOUND:                -0.224
REMARK SMILES OCC(O)CO
REMARK SMILES IDX 3 1 5 2 6 3 2 5 1 6 4 8
REMARK H PARENT 6 4 1 7 4 9
REMARK Flexibility Score: inf
ROOT
ATOM      1  C   UNL     1     177.428 174.260 179.571  1.00  0.00     0.165 C 
ENDROOT
BRANCH   1   2
ATOM      2  C   UNL     1     176.655 174.695 178.317  1.00  0.00     0.190 C 
BRANCH   2   3
ATOM      3  O   UNL     1     177.275 175.799 177.717  1.00  0.00    -0.394 OA
ATOM      4  H   UNL     1     176.744 176.006 176.906  1.00  0.00     0.210 HD
ENDBRANCH   2   3
ENDBRANCH   1   2
BRANCH   1   5
ATOM      5  C   UNL     1     177.738 175.449 180.493  1.00  0.00     0.190 C 
BRANCH   5   6
ATOM      6  O   UNL     1     178.999 175.991 180.206  1.00  0.00    -0.394 OA
ATOM      7  H   UNL     1     178.842 176.820 179.684  1.00  0.00     0.210 HD
ENDBRANCH   5   6
ENDBRANCH   1   5
BRANCH   1   8
ATOM      8  O   UNL     1     178.635 173.643 179.200  1.00  0.00    -0.388 OA
ATOM      9  H   UNL     1     178.781 173.852 178.240  1.00  0.00     0.211 HD
ENDBRANCH   1   8
TORSDOF 5
ENDMDL
MODEL 4
REMARK VINA RESULT:    -2.752     15.788     17.051
REMARK INTER + INTRA:          -3.538
REMARK INTER:                  -3.325
REMARK INTRA:                  -0.214
REMARK UNBOUND:                -0.224
REMARK SMILES OCC(O)CO
REMARK SMILES IDX 3 1 5 2 6 3 2 5 1 6 4 8
REMARK H PARENT 6 4 1 7 4 9
REMARK Flexibility Score: inf
ROOT
ATOM      1  C   UNL     1     177.926 163.688 180.158  1.00  0.00     0.165 C 
ENDROOT
BRANCH   1   2
ATOM      2  C   UNL     1     176.437 163.348 179.981  1.00  0.00     0.190 C 
BRANCH   2   3
ATOM      3  O   UNL     1     176.288 162.214 179.171  1.00  0.00    -0.394 OA
ATOM      4  H   UNL     1     176.540 162.495 178.255  1.00  0.00     0.210 HD
ENDBRANCH   2   3
ENDBRANCH   1   2
BRANCH   1   5
ATOM      5  C   UNL     1     178.474 164.488 178.967  1.00  0.00     0.190 C 
BRANCH   5   6
ATOM      6  O   UNL     1     177.861 164.091 177.770  1.00  0.00    -0.394 OA
ATOM      7  H   UNL     1     178.380 164.505 177.032  1.00  0.00     0.210 HD
ENDBRANCH   5   6
ENDBRANCH   1   5
BRANCH   1   8
ATOM      8  O   UNL     1     178.674 162.508 180.298  1.00  0.00    -0.388 OA
ATOM      9  H   UNL     1     179.630 162.773 180.307  1.00  0.00     0.211 HD
ENDBRANCH   1   8
TORSDOF 5
ENDMDL
MODEL 5
REMARK VINA RESULT:    -2.750     21.258     21.988
REMARK INTER + INTRA:          -3.536
REMARK INTER:                  -3.314
REMARK INTRA:                  -0.222
REMARK UNBOUND:                -0.224
REMARK SMILES OCC(O)CO
REMARK SMILES IDX 3 1 5 2 6 3 2 5 1 6 4 8
REMARK H PARENT 6 4 1 7 4 9
REMARK Flexibility Score: inf
ROOT
ATOM      1  C   UNL     1     177.685 175.711 180.168  1.00  0.00     0.165 C 
ENDROOT
BRANCH   1   2
ATOM      2  C   UNL     1     177.525 174.198 179.955  1.00  0.00     0.190 C 
BRANCH   2   3
ATOM      3  O   UNL     1     178.575 173.701 179.169  1.00  0.00    -0.394 OA
ATOM      4  H   UNL     1     179.221 173.292 179.800  1.00  0.00     0.210 HD
ENDBRANCH   2   3
ENDBRANCH   1   2
BRANCH   1   5
ATOM      5  C   UNL     1     177.087 176.519 179.007  1.00  0.00     0.190 C 
BRANCH   5   6
ATOM      6  O   UNL     1     177.378 175.916 177.774  1.00  0.00    -0.394 OA
ATOM      7  H   UNL     1     177.617 176.648 177.148  1.00  0.00     0.210 HD
ENDBRANCH   5   6
ENDBRANCH   1   5
BRANCH   1   8
ATOM      8  O   UNL     1     179.045 176.036 180.298  1.00  0.00    -0.388 OA
ATOM      9  H   UNL     1     179.103 176.771 180.962  1.00  0.00     0.211 HD
ENDBRANCH   1   8
TORSDOF 5
ENDMDL
MODEL 6
REMARK VINA RESULT:    -2.738     21.108     21.907
REMARK INTER + INTRA:          -3.522
REMARK INTER:                  -3.303
REMARK INTRA:                  -0.219
REMARK UNBOUND:                -0.224
REMARK SMILES OCC(O)CO
REMARK SMILES IDX 3 1 5 2 6 3 2 5 1 6 4 8
REMARK H PARENT 6 4 1 7 4 9
REMARK Flexibility Score: inf
ROOT
ATOM      1  C   UNL     1     177.044 175.448 179.268  1.00  0.00     0.165 C 
ENDROOT
BRANCH   1   2
ATOM      2  C   UNL     1     177.801 176.526 180.058  1.00  0.00     0.190 C 
BRANCH   2   3
ATOM      3  O   UNL     1     179.082 176.073 180.402  1.00  0.00    -0.394 OA
ATOM      4  H   UNL     1     178.967 175.143 180.726  1.00  0.00     0.210 HD
ENDBRANCH   2   3
ENDBRANCH   1   2
BRANCH   1   5
ATOM      5  C   UNL     1     177.421 174.032 179.728  1.00  0.00     0.190 C 
BRANCH   5   6
ATOM      6  O   UNL     1     178.588 173.590 179.088  1.00  0.00    -0.394 OA
ATOM      7  H   UNL     1     179.124 173.109 179.772  1.00  0.00     0.210 HD
ENDBRANCH   5   6
ENDBRANCH   1   5
BRANCH   1   8
ATOM      8  O   UNL     1     177.325 175.572 177.897  1.00  0.00    -0.388 OA
ATOM      9  H   UNL     1     177.053 176.489 177.631  1.00  0.00     0.211 HD
ENDBRANCH   1   8
TORSDOF 5
ENDMDL
MODEL 7
REMARK VINA RESULT:    -2.716     21.313     22.232
REMARK INTER + INTRA:          -3.496
REMARK INTER:                  -3.374
REMARK INTRA:                  -0.122
REMARK UNBOUND:                -0.224
REMARK SMILES OCC(O)CO
REMARK SMILES IDX 3 1 5 2 6 3 2 5 1 6 4 8
REMARK H PARENT 6 4 1 7 4 9
REMARK Flexibility Score: inf
ROOT
ATOM      1  C   UNL     1     176.777 175.983 178.739  1.00  0.00     0.165 C 
ENDROOT
BRANCH   1   2
ATOM      2  C   UNL     1     176.992 177.422 178.245  1.00  0.00     0.190 C 
BRANCH   2   3
ATOM      3  O   UNL     1     177.852 177.437 177.139  1.00  0.00    -0.394 OA
ATOM      4  H   UNL     1     178.771 177.366 177.504  1.00  0.00     0.210 HD
ENDBRANCH   2   3
ENDBRANCH   1   2
BRANCH   1   5
ATOM      5  C   UNL     1     177.518 175.713 180.056  1.00  0.00     0.190 C 
BRANCH   5   6
ATOM      6  O   UNL     1     178.855 176.132 179.975  1.00  0.00    -0.394 OA
ATOM      7  H   UNL     1     178.840 177.122 179.910  1.00  0.00     0.210 HD
ENDBRANCH   5   6
ENDBRANCH   1   5
BRANCH   1   8
ATOM      8  O   UNL     1     177.225 175.072 177.768  1.00  0.00    -0.388 OA
ATOM      9  H   UNL     1     177.305 175.576 176.916  1.00  0.00     0.211 HD
ENDBRANCH   1   8
TORSDOF 5
ENDMDL
MODEL 8
REMARK VINA RESULT:    -2.715     15.563     16.853
REMARK INTER + INTRA:          -3.494
REMARK INTER:                  -3.273
REMARK INTRA:                  -0.221
REMARK UNBOUND:                -0.224
REMARK SMILES OCC(O)CO
REMARK SMILES IDX 3 1 5 2 6 3 2 5 1 6 4 8
REMARK H PARENT 6 4 1 7 4 9
REMARK Flexibility Score: inf
ROOT
ATOM      1  C   UNL     1     177.314 164.161 179.273  1.00  0.00     0.165 C 
ENDROOT
BRANCH   1   2
ATOM      2  C   UNL     1     178.570 163.836 180.098  1.00  0.00     0.190 C 
BRANCH   2   3
ATOM      3  O   UNL     1     178.657 162.457 180.335  1.00  0.00    -0.394 OA
ATOM      4  H   UNL     1     178.341 162.015 179.505  1.00  0.00     0.210 HD
ENDBRANCH   2   3
ENDBRANCH   1   2
BRANCH   1   5
ATOM      5  C   UNL     1     176.115 163.300 179.696  1.00  0.00     0.190 C 
BRANCH   5   6
ATOM      6  O   UNL     1     176.124 162.065 179.032  1.00  0.00    -0.394 OA
ATOM      7  H   UNL     1     175.250 161.984 178.567  1.00  0.00     0.210 HD
ENDBRANCH   5   6
ENDBRANCH   1   5
BRANCH   1   8
ATOM      8  O   UNL     1     177.570 163.949 177.909  1.00  0.00    -0.388 OA
ATOM      9  H   UNL     1     177.885 163.012 177.817  1.00  0.00     0.211 HD
ENDBRANCH   1   8
TORSDOF 5
ENDMDL
MODEL 9
REMARK VINA RESULT:    -2.650      1.754      2.084
REMARK INTER + INTRA:          -3.416
REMARK INTER:                  -3.406
REMARK INTRA:                  -0.010
REMARK UNBOUND:                -0.224
REMARK SMILES OCC(O)CO
REMARK SMILES IDX 3 1 5 2 6 3 2 5 1 6 4 8
REMARK H PARENT 6 4 1 7 4 9
REMARK Flexibility Score: inf
ROOT
ATOM      1  C   UNL     1     161.139 162.004 175.942  1.00  0.00     0.165 C 
ENDROOT
BRANCH   1   2
ATOM      2  C   UNL     1     160.381 160.801 175.357  1.00  0.00     0.190 C 
BRANCH   2   3
ATOM      3  O   UNL     1     160.076 159.878 176.366  1.00  0.00    -0.394 OA
ATOM      4  H   UNL     1     160.528 159.032 176.112  1.00  0.00     0.210 HD
ENDBRANCH   2   3
ENDBRANCH   1   2
BRANCH   1   5
ATOM      5  C   UNL     1     162.143 162.590 174.938  1.00  0.00     0.190 C 
BRANCH   5   6
ATOM      6  O   UNL     1     163.228 161.722 174.747  1.00  0.00    -0.394 OA
ATOM      7  H   UNL     1     164.014 162.149 175.176  1.00  0.00     0.210 HD
ENDBRANCH   5   6
ENDBRANCH   1   5
BRANCH   1   8
ATOM      8  O   UNL     1     161.828 161.617 177.103  1.00  0.00    -0.388 OA
ATOM      9  H   UNL     1     162.362 160.814 176.867  1.00  0.00     0.211 HD
ENDBRANCH   1   8
TORSDOF 5
ENDMDL
