MODEL 1
REMARK VINA RESULT:    -4.288      0.000      0.000
REMARK INTER + INTRA:          -6.345
REMARK INTER:                  -5.793
REMARK INTRA:                  -0.552
REMARK UNBOUND:                -0.552
REMARK SMILES O=C[C@H](O)[C@H](O)[C@H](O)CO
REMARK SMILES IDX 7 1 9 2 10 3 5 5 3 6 2 7 1 8 4 9 6 11 8 13
REMARK H PARENT 10 4 4 10 6 12 8 14
REMARK Flexibility Score: inf
ROOT
ATOM      1  C   UNL     1      -9.675  -3.237  10.528  1.00  0.00     0.171 C 
ENDROOT
BRANCH   1   2
ATOM      2  C   UNL     1      -8.585  -4.319  10.584  1.00  0.00     0.190 C 
BRANCH   2   3
ATOM      3  O   UNL     1      -7.524  -3.884  11.388  1.00  0.00    -0.394 OA
ATOM      4  H   UNL     1      -7.072  -4.705  11.716  1.00  0.00     0.210 HD
ENDBRANCH   2   3
ENDBRANCH   1   2
BRANCH   1   5
ATOM      5  C   UNL     1      -9.531  -2.236  11.705  1.00  0.00     0.181 C 
BRANCH   5   6
ATOM      6  C   UNL     1     -10.704  -2.350  12.719  1.00  0.00     0.209 C 
BRANCH   6   7
ATOM      7  C   UNL     1     -10.587  -1.322  13.817  1.00  0.00     0.258 C 
ATOM      8  O   UNL     1      -9.519  -0.780  14.052  1.00  0.00    -0.300 OA
ENDBRANCH   6   7
BRANCH   6   9
ATOM      9  O   UNL     1     -10.787  -3.638  13.279  1.00  0.00    -0.383 OA
ATOM     10  H   UNL     1     -10.572  -3.563  14.246  1.00  0.00     0.211 HD
ENDBRANCH   6   9
ENDBRANCH   5   6
BRANCH   5  11
ATOM     11  O   UNL     1      -9.440  -0.917  11.221  1.00  0.00    -0.387 OA
ATOM     12  H   UNL     1      -8.533  -0.580  11.441  1.00  0.00     0.211 HD
ENDBRANCH   5  11
ENDBRANCH   1   5
BRANCH   1  13
ATOM     13  O   UNL     1     -10.937  -3.853  10.586  1.00  0.00    -0.388 OA
ATOM     14  H   UNL     1     -10.794  -4.782  10.908  1.00  0.00     0.211 HD
ENDBRANCH   1  13
TORSDOF 8
ENDMDL
MODEL 2
REMARK VINA RESULT:    -3.978      1.047      2.361
REMARK INTER + INTRA:          -5.925
REMARK INTER:                  -5.187
REMARK INTRA:                  -0.738
REMARK UNBOUND:                -0.552
REMARK SMILES O=C[C@H](O)[C@H](O)[C@H](O)CO
REMARK SMILES IDX 7 1 9 2 10 3 5 5 3 6 2 7 1 8 4 9 6 11 8 13
REMARK H PARENT 10 4 4 10 6 12 8 14
REMARK Flexibility Score: inf
ROOT
ATOM      1  C   UNL     1      -8.968  -4.145  11.202  1.00  0.00     0.171 C 
ENDROOT
BRANCH   1   2
ATOM      2  C   UNL     1      -9.244  -4.464   9.724  1.00  0.00     0.190 C 
BRANCH   2   3
ATOM      3  O   UNL     1      -9.627  -3.299   9.049  1.00  0.00    -0.394 OA
ATOM      4  H   UNL     1     -10.569  -3.125   9.310  1.00  0.00     0.210 HD
ENDBRANCH   2   3
ENDBRANCH   1   2
BRANCH   1   5
ATOM      5  C   UNL     1     -10.080  -3.241  11.796  1.00  0.00     0.181 C 
BRANCH   5   6
ATOM      6  C   UNL     1      -9.530  -1.864  12.262  1.00  0.00     0.209 C 
BRANCH   6   7
ATOM      7  C   UNL     1     -10.452  -1.210  13.261  1.00  0.00     0.258 C 
ATOM      8  O   UNL     1     -10.361  -1.463  14.452  1.00  0.00    -0.300 OA
ENDBRANCH   6   7
BRANCH   6   9
ATOM      9  O   UNL     1      -9.309  -0.996  11.178  1.00  0.00    -0.383 OA
ATOM     10  H   UNL     1      -9.087  -1.551  10.385  1.00  0.00     0.211 HD
ENDBRANCH   6   9
ENDBRANCH   5   6
BRANCH   5  11
ATOM     11  O   UNL     1     -10.722  -3.890  12.867  1.00  0.00    -0.387 OA
ATOM     12  H   UNL     1     -11.004  -3.192  13.515  1.00  0.00     0.211 HD
ENDBRANCH   5  11
ENDBRANCH   1   5
BRANCH   1  13
ATOM     13  O   UNL     1      -7.726  -3.496  11.307  1.00  0.00    -0.388 OA
ATOM     14  H   UNL     1      -7.026  -4.199  11.280  1.00  0.00     0.211 HD
ENDBRANCH   1  13
TORSDOF 8
ENDMDL
MODEL 3
REMARK VINA RESULT:    -3.897      1.598      2.064
REMARK INTER + INTRA:          -5.816
REMARK INTER:                  -5.309
REMARK INTRA:                  -0.507
REMARK UNBOUND:                -0.552
REMARK SMILES O=C[C@H](O)[C@H](O)[C@H](O)CO
REMARK SMILES IDX 7 1 9 2 10 3 5 5 3 6 2 7 1 8 4 9 6 11 8 13
REMARK H PARENT 10 4 4 10 6 12 8 14
REMARK Flexibility Score: inf
ROOT
ATOM      1  C   UNL     1     -10.283  -3.584   9.940  1.00  0.00     0.171 C 
ENDROOT
BRANCH   1   2
ATOM      2  C   UNL     1     -11.021  -3.080   8.690  1.00  0.00     0.190 C 
BRANCH   2   3
ATOM      3  O   UNL     1     -10.095  -2.655   7.729  1.00  0.00    -0.394 OA
ATOM      4  H   UNL     1      -9.920  -3.440   7.147  1.00  0.00     0.210 HD
ENDBRANCH   2   3
ENDBRANCH   1   2
BRANCH   1   5
ATOM      5  C   UNL     1     -10.077  -2.440  10.968  1.00  0.00     0.181 C 
BRANCH   5   6
ATOM      6  C   UNL     1     -10.880  -2.677  12.278  1.00  0.00     0.209 C 
BRANCH   6   7
ATOM      7  C   UNL     1     -10.509  -1.675  13.342  1.00  0.00     0.258 C 
ATOM      8  O   UNL     1      -9.540  -0.946  13.202  1.00  0.00    -0.300 OA
ENDBRANCH   6   7
BRANCH   6   9
ATOM      9  O   UNL     1     -10.702  -3.983  12.770  1.00  0.00    -0.383 OA
ATOM     10  H   UNL     1     -10.111  -3.929  13.566  1.00  0.00     0.211 HD
ENDBRANCH   6   9
ENDBRANCH   5   6
BRANCH   5  11
ATOM     11  O   UNL     1     -10.433  -1.200  10.403  1.00  0.00    -0.387 OA
ATOM     12  H   UNL     1     -10.588  -1.347   9.433  1.00  0.00     0.211 HD
ENDBRANCH   5  11
ENDBRANCH   1   5
BRANCH   1  13
ATOM     13  O   UNL     1      -9.034  -4.102   9.557  1.00  0.00    -0.388 OA
ATOM     14  H   UNL     1      -8.951  -3.969   8.577  1.00  0.00     0.211 HD
ENDBRANCH   1  13
TORSDOF 8
ENDMDL
MODEL 4
REMARK VINA RESULT:    -3.819      1.066      3.935
REMARK INTER + INTRA:          -5.711
REMARK INTER:                  -5.184
REMARK INTRA:                  -0.527
REMARK UNBOUND:                -0.552
REMARK SMILES O=C[C@H](O)[C@H](O)[C@H](O)CO
REMARK SMILES IDX 7 1 9 2 10 3 5 5 3 6 2 7 1 8 4 9 6 11 8 13
REMARK H PARENT 10 4 4 10 6 12 8 14
REMARK Flexibility Score: inf
ROOT
ATOM      1  C   UNL     1     -10.110  -1.629  12.172  1.00  0.00     0.171 C 
ENDROOT
BRANCH   1   2
ATOM      2  C   UNL     1      -9.881  -1.073  13.586  1.00  0.00     0.190 C 
BRANCH   2   3
ATOM      3  O   UNL     1     -10.428  -1.946  14.535  1.00  0.00    -0.394 OA
ATOM      4  H   UNL     1      -9.689  -2.544  14.818  1.00  0.00     0.210 HD
ENDBRANCH   2   3
ENDBRANCH   1   2
BRANCH   1   5
ATOM      5  C   UNL     1      -9.821  -3.152  12.116  1.00  0.00     0.181 C 
BRANCH   5   6
ATOM      6  C   UNL     1      -8.896  -3.531  10.925  1.00  0.00     0.209 C 
BRANCH   6   7
ATOM      7  C   UNL     1      -9.612  -4.403   9.925  1.00  0.00     0.258 C 
ATOM      8  O   UNL     1     -10.465  -3.936   9.187  1.00  0.00    -0.300 OA
ENDBRANCH   6   7
BRANCH   6   9
ATOM      9  O   UNL     1      -7.720  -4.169  11.359  1.00  0.00    -0.383 OA
ATOM     10  H   UNL     1      -7.287  -4.580  10.565  1.00  0.00     0.211 HD
ENDBRANCH   6   9
ENDBRANCH   5   6
BRANCH   5  11
ATOM     11  O   UNL     1     -11.024  -3.879  12.040  1.00  0.00    -0.387 OA
ATOM     12  H   UNL     1     -11.768  -3.223  12.001  1.00  0.00     0.211 HD
ENDBRANCH   5  11
ENDBRANCH   1   5
BRANCH   1  13
ATOM     13  O   UNL     1      -9.267  -0.956  11.272  1.00  0.00    -0.388 OA
ATOM     14  H   UNL     1      -8.862  -1.644  10.681  1.00  0.00     0.211 HD
ENDBRANCH   1  13
TORSDOF 8
ENDMDL
MODEL 5
REMARK VINA RESULT:    -3.678      1.753      3.897
REMARK INTER + INTRA:          -5.521
REMARK INTER:                  -4.767
REMARK INTRA:                  -0.753
REMARK UNBOUND:                -0.552
REMARK SMILES O=C[C@H](O)[C@H](O)[C@H](O)CO
REMARK SMILES IDX 7 1 9 2 10 3 5 5 3 6 2 7 1 8 4 9 6 11 8 13
REMARK H PARENT 10 4 4 10 6 12 8 14
REMARK Flexibility Score: inf
ROOT
ATOM      1  C   UNL     1     -10.109  -1.681  11.768  1.00  0.00     0.171 C 
ENDROOT
BRANCH   1   2
ATOM      2  C   UNL     1     -10.922  -1.942  13.045  1.00  0.00     0.190 C 
BRANCH   2   3
ATOM      3  O   UNL     1     -10.921  -3.311  13.340  1.00  0.00    -0.394 OA
ATOM      4  H   UNL     1      -9.984  -3.543  13.572  1.00  0.00     0.210 HD
ENDBRANCH   2   3
ENDBRANCH   1   2
BRANCH   1   5
ATOM      5  C   UNL     1     -10.945  -1.992  10.498  1.00  0.00     0.181 C 
BRANCH   5   6
ATOM      6  C   UNL     1     -10.493  -3.309   9.807  1.00  0.00     0.209 C 
BRANCH   6   7
ATOM      7  C   UNL     1     -11.125  -3.464   8.446  1.00  0.00     0.258 C 
ATOM      8  O   UNL     1     -10.746  -2.789   7.502  1.00  0.00    -0.300 OA
ENDBRANCH   6   7
BRANCH   6   9
ATOM      9  O   UNL     1     -10.779  -4.438  10.596  1.00  0.00    -0.383 OA
ATOM     10  H   UNL     1      -9.923  -4.910  10.772  1.00  0.00     0.211 HD
ENDBRANCH   6   9
ENDBRANCH   5   6
BRANCH   5  11
ATOM     11  O   UNL     1     -10.873  -0.922   9.587  1.00  0.00    -0.387 OA
ATOM     12  H   UNL     1     -11.743  -0.445   9.616  1.00  0.00     0.211 HD
ENDBRANCH   5  11
ENDBRANCH   1   5
BRANCH   1  13
ATOM     13  O   UNL     1      -8.958  -2.488  11.784  1.00  0.00    -0.388 OA
ATOM     14  H   UNL     1      -9.264  -3.430  11.843  1.00  0.00     0.211 HD
ENDBRANCH   1  13
TORSDOF 8
ENDMDL
MODEL 6
REMARK VINA RESULT:    -3.622      1.031      1.905
REMARK INTER + INTRA:          -5.445
REMARK INTER:                  -5.291
REMARK INTRA:                  -0.154
REMARK UNBOUND:                -0.552
REMARK SMILES O=C[C@H](O)[C@H](O)[C@H](O)CO
REMARK SMILES IDX 7 1 9 2 10 3 5 5 3 6 2 7 1 8 4 9 6 11 8 13
REMARK H PARENT 10 4 4 10 6 12 8 14
REMARK Flexibility Score: inf
ROOT
ATOM      1  C   UNL     1      -9.698  -2.127  11.628  1.00  0.00     0.171 C 
ENDROOT
BRANCH   1   2
ATOM      2  C   UNL     1      -9.075  -3.382  10.997  1.00  0.00     0.190 C 
BRANCH   2   3
ATOM      3  O   UNL     1      -7.728  -3.483  11.369  1.00  0.00    -0.394 OA
ATOM      4  H   UNL     1      -7.605  -2.860  12.132  1.00  0.00     0.210 HD
ENDBRANCH   2   3
ENDBRANCH   1   2
BRANCH   1   5
ATOM      5  C   UNL     1     -10.812  -2.505  12.640  1.00  0.00     0.181 C 
BRANCH   5   6
ATOM      6  C   UNL     1     -10.748  -1.643  13.932  1.00  0.00     0.209 C 
BRANCH   6   7
ATOM      7  C   UNL     1      -9.539  -0.742  13.936  1.00  0.00     0.258 C 
ATOM      8  O   UNL     1      -8.667  -0.872  14.781  1.00  0.00    -0.300 OA
ENDBRANCH   6   7
BRANCH   6   9
ATOM      9  O   UNL     1     -10.753  -2.439  15.092  1.00  0.00    -0.383 OA
ATOM     10  H   UNL     1     -10.613  -3.382  14.813  1.00  0.00     0.211 HD
ENDBRANCH   6   9
ENDBRANCH   5   6
BRANCH   5  11
ATOM     11  O   UNL     1     -10.736  -3.871  12.969  1.00  0.00    -0.387 OA
ATOM     12  H   UNL     1     -10.578  -3.935  13.948  1.00  0.00     0.211 HD
ENDBRANCH   5  11
ENDBRANCH   1   5
BRANCH   1  13
ATOM     13  O   UNL     1     -10.239  -1.322  10.611  1.00  0.00    -0.388 OA
ATOM     14  H   UNL     1     -11.128  -1.011  10.927  1.00  0.00     0.211 HD
ENDBRANCH   1  13
TORSDOF 8
ENDMDL
MODEL 7
REMARK VINA RESULT:    -3.577     16.091     16.832
REMARK INTER + INTRA:          -5.383
REMARK INTER:                  -5.316
REMARK INTRA:                  -0.068
REMARK UNBOUND:                -0.552
REMARK SMILES O=C[C@H](O)[C@H](O)[C@H](O)CO
REMARK SMILES IDX 7 1 9 2 10 3 5 5 3 6 2 7 1 8 4 9 6 11 8 13
REMARK H PARENT 10 4 4 10 6 12 8 14
REMARK Flexibility Score: inf
ROOT
ATOM      1  C   UNL     1      -2.888 -14.025  21.643  1.00  0.00     0.171 C 
ENDROOT
BRANCH   1   2
ATOM      2  C   UNL     1      -1.926 -13.180  22.493  1.00  0.00     0.190 C 
BRANCH   2   3
ATOM      3  O   UNL     1      -1.054 -12.468  21.659  1.00  0.00    -0.394 OA
ATOM      4  H   UNL     1      -0.329 -13.100  21.414  1.00  0.00     0.210 HD
ENDBRANCH   2   3
ENDBRANCH   1   2
BRANCH   1   5
ATOM      5  C   UNL     1      -3.662 -15.044  22.521  1.00  0.00     0.181 C 
BRANCH   5   6
ATOM      6  C   UNL     1      -5.119 -14.584  22.809  1.00  0.00     0.209 C 
BRANCH   6   7
ATOM      7  C   UNL     1      -6.126 -15.511  22.177  1.00  0.00     0.258 C 
ATOM      8  O   UNL     1      -7.075 -15.067  21.550  1.00  0.00    -0.300 OA
ENDBRANCH   6   7
BRANCH   6   9
ATOM      9  O   UNL     1      -5.346 -13.266  22.374  1.00  0.00    -0.383 OA
ATOM     10  H   UNL     1      -5.298 -12.672  23.169  1.00  0.00     0.211 HD
ENDBRANCH   6   9
ENDBRANCH   5   6
BRANCH   5  11
ATOM     11  O   UNL     1      -2.980 -15.268  23.732  1.00  0.00    -0.387 OA
ATOM     12  H   UNL     1      -3.290 -16.138  24.094  1.00  0.00     0.211 HD
ENDBRANCH   5  11
ENDBRANCH   1   5
BRANCH   1  13
ATOM     13  O   UNL     1      -2.153 -14.711  20.662  1.00  0.00    -0.388 OA
ATOM     14  H   UNL     1      -1.997 -14.076  19.916  1.00  0.00     0.211 HD
ENDBRANCH   1  13
TORSDOF 8
ENDMDL
MODEL 8
REMARK VINA RESULT:    -3.573     15.802     16.811
REMARK INTER + INTRA:          -5.379
REMARK INTER:                  -4.654
REMARK INTRA:                  -0.725
REMARK UNBOUND:                -0.552
REMARK SMILES O=C[C@H](O)[C@H](O)[C@H](O)CO
REMARK SMILES IDX 7 1 9 2 10 3 5 5 3 6 2 7 1 8 4 9 6 11 8 13
REMARK H PARENT 10 4 4 10 6 12 8 14
REMARK Flexibility Score: inf
ROOT
ATOM      1  C   UNL     1      -2.559 -12.849  21.645  1.00  0.00     0.171 C 
ENDROOT
BRANCH   1   2
ATOM      2  C   UNL     1      -1.385 -12.461  22.557  1.00  0.00     0.190 C 
BRANCH   2   3
ATOM      3  O   UNL     1      -1.026 -13.551  23.361  1.00  0.00    -0.394 OA
ATOM      4  H   UNL     1      -0.495 -13.178  24.111  1.00  0.00     0.210 HD
ENDBRANCH   2   3
ENDBRANCH   1   2
BRANCH   1   5
ATOM      5  C   UNL     1      -3.665 -13.591  22.441  1.00  0.00     0.181 C 
BRANCH   5   6
ATOM      6  C   UNL     1      -3.864 -15.051  21.947  1.00  0.00     0.209 C 
BRANCH   6   7
ATOM      7  C   UNL     1      -5.198 -15.605  22.382  1.00  0.00     0.258 C 
ATOM      8  O   UNL     1      -6.232 -15.229  21.853  1.00  0.00    -0.300 OA
ENDBRANCH   6   7
BRANCH   6   9
ATOM      9  O   UNL     1      -2.830 -15.897  22.386  1.00  0.00    -0.383 OA
ATOM     10  H   UNL     1      -3.020 -16.143  23.330  1.00  0.00     0.211 HD
ENDBRANCH   6   9
ENDBRANCH   5   6
BRANCH   5  11
ATOM     11  O   UNL     1      -4.882 -12.887  22.367  1.00  0.00    -0.387 OA
ATOM     12  H   UNL     1      -4.688 -11.933  22.561  1.00  0.00     0.211 HD
ENDBRANCH   5  11
ENDBRANCH   1   5
BRANCH   1  13
ATOM     13  O   UNL     1      -2.085 -13.677  20.613  1.00  0.00    -0.388 OA
ATOM     14  H   UNL     1      -1.169 -13.962  20.866  1.00  0.00     0.211 HD
ENDBRANCH   1  13
TORSDOF 8
ENDMDL
MODEL 9
REMARK VINA RESULT:    -2.627      1.770      2.815
REMARK INTER + INTRA:          -4.101
REMARK INTER:                  -3.814
REMARK INTRA:                  -0.287
REMARK UNBOUND:                -0.552
REMARK SMILES O=C[C@H](O)[C@H](O)[C@H](O)CO
REMARK SMILES IDX 7 1 9 2 10 3 5 5 3 6 2 7 1 8 4 9 6 11 8 13
REMARK H PARENT 10 4 4 10 6 12 8 14
REMARK Flexibility Score: inf
ROOT
ATOM      1  C   UNL     1     -10.501  -2.109   9.586  1.00  0.00     0.171 C 
ENDROOT
BRANCH   1   2
ATOM      2  C   UNL     1     -10.930  -3.124   8.514  1.00  0.00     0.190 C 
BRANCH   2   3
ATOM      3  O   UNL     1     -10.341  -2.797   7.286  1.00  0.00    -0.394 OA
ATOM      4  H   UNL     1      -9.871  -3.615   6.979  1.00  0.00     0.210 HD
ENDBRANCH   2   3
ENDBRANCH   1   2
BRANCH   1   5
ATOM      5  C   UNL     1     -10.887  -2.599  11.007  1.00  0.00     0.181 C 
BRANCH   5   6
ATOM      6  C   UNL     1      -9.970  -1.994  12.106  1.00  0.00     0.209 C 
BRANCH   6   7
ATOM      7  C   UNL     1     -10.754  -1.629  13.341  1.00  0.00     0.258 C 
ATOM      8  O   UNL     1     -10.187  -1.216  14.340  1.00  0.00    -0.300 OA
ENDBRANCH   6   7
BRANCH   6   9
ATOM      9  O   UNL     1      -9.268  -0.868  11.638  1.00  0.00    -0.383 OA
ATOM     10  H   UNL     1      -8.545  -1.190  11.037  1.00  0.00     0.211 HD
ENDBRANCH   6   9
ENDBRANCH   5   6
BRANCH   5  11
ATOM     11  O   UNL     1     -10.849  -4.005  11.069  1.00  0.00    -0.387 OA
ATOM     12  H   UNL     1     -11.635  -4.302  11.599  1.00  0.00     0.211 HD
ENDBRANCH   5  11
ENDBRANCH   1   5
BRANCH   1  13
ATOM     13  O   UNL     1     -11.125  -0.877   9.327  1.00  0.00    -0.388 OA
ATOM     14  H   UNL     1     -10.772  -0.548   8.459  1.00  0.00     0.211 HD
ENDBRANCH   1  13
TORSDOF 8
ENDMDL
