MODEL 1
REMARK VINA RESULT:    -4.328      0.000      0.000
REMARK INTER + INTRA:         -13.577
REMARK INTER:                  -9.894
REMARK INTRA:                  -3.683
REMARK UNBOUND:                -3.683
REMARK SMILES CCCCCCCCCCCCCCCCCCCCCCCC(=O)[O-]
REMARK SMILES IDX 13 1 14 2 15 3 16 4 17 5 18 6 19 7 20 8 21 9 22 10 23 11
REMARK SMILES IDX 24 12 25 13 26 14 12 15 11 16 10 17 9 18 8 19 7 20 6 21 5 22
REMARK SMILES IDX 4 23 3 24 2 25 1 26
REMARK H PARENT
REMARK Flexibility Score: inf
ROOT
ATOM      1  C   UNL     1      48.602  -8.564 -55.448  1.00  0.00     0.000 C 
ENDROOT
BRANCH   1   2
ATOM      2  C   UNL     1      47.506  -7.638 -56.000  1.00  0.00     0.000 C 
BRANCH   2   3
ATOM      3  C   UNL     1      47.000  -8.073 -57.388  1.00  0.00     0.000 C 
BRANCH   3   4
ATOM      4  C   UNL     1      48.082  -8.628 -58.334  1.00  0.00     0.000 C 
BRANCH   4   5
ATOM      5  C   UNL     1      47.893 -10.118 -58.691  1.00  0.00     0.000 C 
BRANCH   5   6
ATOM      6  C   UNL     1      46.704 -10.746 -57.945  1.00  0.00     0.000 C 
BRANCH   6   7
ATOM      7  C   UNL     1      47.068 -12.078 -57.270  1.00  0.00     0.000 C 
BRANCH   7   8
ATOM      8  C   UNL     1      48.340 -11.972 -56.414  1.00  0.00     0.000 C 
BRANCH   8   9
ATOM      9  C   UNL     1      48.868 -13.364 -56.040  1.00  0.00     0.000 C 
BRANCH   9  10
ATOM     10  C   UNL     1      47.746 -14.398 -55.834  1.00  0.00     0.006 C 
BRANCH  10  11
ATOM     11  C   UNL     1      48.192 -15.855 -56.054  1.00  0.00     0.053 C 
BRANCH  11  12
ATOM     12  C   UNL     1      47.130 -16.692 -56.703  1.00  0.00     0.041 C 
ATOM     13  O   UNL     1      45.975 -16.748 -56.204  1.00  0.00    -0.550 OA
ATOM     14  O   UNL     1      47.401 -17.378 -57.880  1.00  0.00    -0.550 OA
ENDBRANCH  11  12
ENDBRANCH  10  11
ENDBRANCH   9  10
ENDBRANCH   8   9
ENDBRANCH   7   8
ENDBRANCH   6   7
ENDBRANCH   5   6
ENDBRANCH   4   5
ENDBRANCH   3   4
ENDBRANCH   2   3
ENDBRANCH   1   2
BRANCH   1  15
ATOM     15  C   UNL     1      49.502  -7.870 -54.409  1.00  0.00     0.000 C 
BRANCH  15  16
ATOM     16  C   UNL     1      49.176  -6.388 -54.151  1.00  0.00     0.000 C 
BRANCH  16  17
ATOM     17  C   UNL     1      50.325  -5.445 -54.541  1.00  0.00     0.000 C 
BRANCH  17  18
ATOM     18  C   UNL     1      51.533  -6.236 -55.067  1.00  0.00    -0.000 C 
BRANCH  18  19
ATOM     19  C   UNL     1      51.903  -5.858 -56.511  1.00  0.00    -0.000 C 
BRANCH  19  20
ATOM     20  C   UNL     1      50.828  -6.271 -57.529  1.00  0.00    -0.000 C 
BRANCH  20  21
ATOM     21  C   UNL     1      50.255  -5.040 -58.247  1.00  0.00    -0.000 C 
BRANCH  21  22
ATOM     22  C   UNL     1      48.781  -4.769 -57.894  1.00  0.00    -0.000 C 
BRANCH  22  23
ATOM     23  C   UNL     1      48.498  -3.363 -57.333  1.00  0.00    -0.000 C 
BRANCH  23  24
ATOM     24  C   UNL     1      47.707  -3.393 -56.016  1.00  0.00    -0.000 C 
BRANCH  24  25
ATOM     25  C   UNL     1      46.498  -4.329 -56.124  1.00  0.00    -0.003 C 
ATOM     26  C   UNL     1      45.894  -4.611 -54.751  1.00  0.00     0.004 C 
ENDBRANCH  24  25
ENDBRANCH  23  24
ENDBRANCH  22  23
ENDBRANCH  21  22
ENDBRANCH  20  21
ENDBRANCH  19  20
ENDBRANCH  18  19
ENDBRANCH  17  18
ENDBRANCH  16  17
ENDBRANCH  15  16
ENDBRANCH   1  15
TORSDOF 22
ENDMDL
MODEL 2
REMARK VINA RESULT:    -4.266      3.563      8.786
REMARK INTER + INTRA:         -13.435
REMARK INTER:                  -9.853
REMARK INTRA:                  -3.582
REMARK UNBOUND:                -3.683
REMARK SMILES CCCCCCCCCCCCCCCCCCCCCCCC(=O)[O-]
REMARK SMILES IDX 13 1 14 2 15 3 16 4 17 5 18 6 19 7 20 8 21 9 22 10 23 11
REMARK SMILES IDX 24 12 25 13 26 14 12 15 11 16 10 17 9 18 8 19 7 20 6 21 5 22
REMARK SMILES IDX 4 23 3 24 2 25 1 26
REMARK H PARENT
REMARK Flexibility Score: inf
ROOT
ATOM      1  C   UNL     1      47.570  -7.650 -54.625  1.00  0.00     0.000 C 
ENDROOT
BRANCH   1   2
ATOM      2  C   UNL     1      48.721  -7.138 -53.744  1.00  0.00     0.000 C 
BRANCH   2   3
ATOM      3  C   UNL     1      50.104  -7.588 -54.250  1.00  0.00     0.000 C 
BRANCH   3   4
ATOM      4  C   UNL     1      51.010  -6.456 -54.773  1.00  0.00     0.000 C 
BRANCH   4   5
ATOM      5  C   UNL     1      50.915  -6.235 -56.297  1.00  0.00     0.000 C 
BRANCH   5   6
ATOM      6  C   UNL     1      50.198  -4.921 -56.649  1.00  0.00     0.000 C 
BRANCH   6   7
ATOM      7  C   UNL     1      48.759  -5.146 -57.139  1.00  0.00     0.000 C 
BRANCH   7   8
ATOM      8  C   UNL     1      47.730  -4.345 -56.326  1.00  0.00     0.000 C 
BRANCH   8   9
ATOM      9  C   UNL     1      48.374  -3.740 -55.070  1.00  0.00     0.000 C 
BRANCH   9  10
ATOM     10  C   UNL     1      47.387  -3.597 -53.897  1.00  0.00     0.006 C 
BRANCH  10  11
ATOM     11  C   UNL     1      46.050  -4.328 -54.113  1.00  0.00     0.053 C 
BRANCH  11  12
ATOM     12  C   UNL     1      45.485  -4.888 -52.842  1.00  0.00     0.041 C 
ATOM     13  O   UNL     1      45.024  -6.060 -52.816  1.00  0.00    -0.550 OA
ATOM     14  O   UNL     1      45.504  -4.134 -51.676  1.00  0.00    -0.550 OA
ENDBRANCH  11  12
ENDBRANCH  10  11
ENDBRANCH   9  10
ENDBRANCH   8   9
ENDBRANCH   7   8
ENDBRANCH   6   7
ENDBRANCH   5   6
ENDBRANCH   4   5
ENDBRANCH   3   4
ENDBRANCH   2   3
ENDBRANCH   1   2
BRANCH   1  15
ATOM     15  C   UNL     1      48.048  -8.593 -55.745  1.00  0.00     0.000 C 
BRANCH  15  16
ATOM     16  C   UNL     1      47.192  -8.573 -57.024  1.00  0.00     0.000 C 
BRANCH  16  17
ATOM     17  C   UNL     1      48.004  -8.875 -58.293  1.00  0.00     0.000 C 
BRANCH  17  18
ATOM     18  C   UNL     1      47.703 -10.288 -58.816  1.00  0.00    -0.000 C 
BRANCH  18  19
ATOM     19  C   UNL     1      46.462 -10.911 -58.155  1.00  0.00    -0.000 C 
BRANCH  19  20
ATOM     20  C   UNL     1      46.749 -12.283 -57.524  1.00  0.00    -0.000 C 
BRANCH  20  21
ATOM     21  C   UNL     1      48.207 -12.370 -57.047  1.00  0.00    -0.000 C 
BRANCH  21  22
ATOM     22  C   UNL     1      48.366 -13.163 -55.737  1.00  0.00    -0.000 C 
BRANCH  22  23
ATOM     23  C   UNL     1      47.466 -14.408 -55.620  1.00  0.00    -0.000 C 
BRANCH  23  24
ATOM     24  C   UNL     1      48.168 -15.697 -56.073  1.00  0.00    -0.000 C 
BRANCH  24  25
ATOM     25  C   UNL     1      47.295 -16.478 -57.063  1.00  0.00    -0.003 C 
ATOM     26  C   UNL     1      45.814 -16.182 -56.847  1.00  0.00     0.004 C 
ENDBRANCH  24  25
ENDBRANCH  23  24
ENDBRANCH  22  23
ENDBRANCH  21  22
ENDBRANCH  20  21
ENDBRANCH  19  20
ENDBRANCH  18  19
ENDBRANCH  17  18
ENDBRANCH  16  17
ENDBRANCH  15  16
ENDBRANCH   1  15
TORSDOF 22
ENDMDL
MODEL 3
REMARK VINA RESULT:    -4.192      3.910      8.670
REMARK INTER + INTRA:         -13.267
REMARK INTER:                 -10.004
REMARK INTRA:                  -3.263
REMARK UNBOUND:                -3.683
REMARK SMILES CCCCCCCCCCCCCCCCCCCCCCCC(=O)[O-]
REMARK SMILES IDX 13 1 14 2 15 3 16 4 17 5 18 6 19 7 20 8 21 9 22 10 23 11
REMARK SMILES IDX 24 12 25 13 26 14 12 15 11 16 10 17 9 18 8 19 7 20 6 21 5 22
REMARK SMILES IDX 4 23 3 24 2 25 1 26
REMARK H PARENT
REMARK Flexibility Score: inf
ROOT
ATOM      1  C   UNL     1      48.956  -7.076 -53.768  1.00  0.00     0.000 C 
ENDROOT
BRANCH   1   2
ATOM      2  C   UNL     1      50.146  -7.420 -54.679  1.00  0.00     0.000 C 
BRANCH   2   3
ATOM      3  C   UNL     1      51.077  -6.217 -54.923  1.00  0.00     0.000 C 
BRANCH   3   4
ATOM      4  C   UNL     1      51.055  -5.655 -56.358  1.00  0.00     0.000 C 
BRANCH   4   5
ATOM      5  C   UNL     1      50.006  -6.320 -57.273  1.00  0.00     0.000 C 
BRANCH   5   6
ATOM      6  C   UNL     1      48.765  -5.433 -57.471  1.00  0.00     0.000 C 
BRANCH   6   7
ATOM      7  C   UNL     1      48.828  -4.137 -56.649  1.00  0.00     0.000 C 
BRANCH   7   8
ATOM      8  C   UNL     1      47.559  -3.911 -55.811  1.00  0.00     0.000 C 
BRANCH   8   9
ATOM      9  C   UNL     1      47.914  -3.512 -54.372  1.00  0.00     0.000 C 
BRANCH   9  10
ATOM     10  C   UNL     1      46.676  -3.225 -53.504  1.00  0.00     0.006 C 
BRANCH  10  11
ATOM     11  C   UNL     1      45.850  -4.477 -53.159  1.00  0.00     0.053 C 
BRANCH  11  12
ATOM     12  C   UNL     1      44.885  -4.242 -52.036  1.00  0.00     0.041 C 
ATOM     13  O   UNL     1      44.864  -3.131 -51.442  1.00  0.00    -0.550 OA
ATOM     14  O   UNL     1      43.982  -5.231 -51.671  1.00  0.00    -0.550 OA
ENDBRANCH  11  12
ENDBRANCH  10  11
ENDBRANCH   9  10
ENDBRANCH   8   9
ENDBRANCH   7   8
ENDBRANCH   6   7
ENDBRANCH   5   6
ENDBRANCH   4   5
ENDBRANCH   3   4
ENDBRANCH   2   3
ENDBRANCH   1   2
BRANCH   1  15
ATOM     15  C   UNL     1      47.596  -7.376 -54.424  1.00  0.00     0.000 C 
BRANCH  15  16
ATOM     16  C   UNL     1      47.635  -8.413 -55.562  1.00  0.00     0.000 C 
BRANCH  16  17
ATOM     17  C   UNL     1      46.331  -8.462 -56.373  1.00  0.00     0.000 C 
BRANCH  17  18
ATOM     18  C   UNL     1      46.614  -8.770 -57.852  1.00  0.00    -0.000 C 
BRANCH  18  19
ATOM     19  C   UNL     1      47.997  -9.408 -58.069  1.00  0.00    -0.000 C 
BRANCH  19  20
ATOM     20  C   UNL     1      47.921 -10.762 -58.793  1.00  0.00    -0.000 C 
BRANCH  20  21
ATOM     21  C   UNL     1      47.346 -11.844 -57.868  1.00  0.00    -0.000 C 
BRANCH  21  22
ATOM     22  C   UNL     1      48.017 -11.871 -56.482  1.00  0.00    -0.000 C 
BRANCH  22  23
ATOM     23  C   UNL     1      48.799 -13.159 -56.166  1.00  0.00    -0.000 C 
BRANCH  23  24
ATOM     24  C   UNL     1      47.897 -14.300 -55.672  1.00  0.00    -0.000 C 
BRANCH  24  25
ATOM     25  C   UNL     1      48.317 -15.639 -56.291  1.00  0.00    -0.003 C 
ATOM     26  C   UNL     1      47.106 -16.530 -56.553  1.00  0.00     0.004 C 
ENDBRANCH  24  25
ENDBRANCH  23  24
ENDBRANCH  22  23
ENDBRANCH  21  22
ENDBRANCH  20  21
ENDBRANCH  19  20
ENDBRANCH  18  19
ENDBRANCH  17  18
ENDBRANCH  16  17
ENDBRANCH  15  16
ENDBRANCH   1  15
TORSDOF 22
ENDMDL
MODEL 4
REMARK VINA RESULT:    -4.154      1.101      2.461
REMARK INTER + INTRA:         -13.180
REMARK INTER:                 -10.269
REMARK INTRA:                  -2.911
REMARK UNBOUND:                -3.683
REMARK SMILES CCCCCCCCCCCCCCCCCCCCCCCC(=O)[O-]
REMARK SMILES IDX 13 1 14 2 15 3 16 4 17 5 18 6 19 7 20 8 21 9 22 10 23 11
REMARK SMILES IDX 24 12 25 13 26 14 12 15 11 16 10 17 9 18 8 19 7 20 6 21 5 22
REMARK SMILES IDX 4 23 3 24 2 25 1 26
REMARK H PARENT
REMARK Flexibility Score: inf
ROOT
ATOM      1  C   UNL     1      49.488  -7.318 -58.816  1.00  0.00     0.000 C 
ENDROOT
BRANCH   1   2
ATOM      2  C   UNL     1      48.379  -6.420 -58.243  1.00  0.00     0.000 C 
BRANCH   2   3
ATOM      3  C   UNL     1      47.196  -7.225 -57.672  1.00  0.00     0.000 C 
BRANCH   3   4
ATOM      4  C   UNL     1      47.389  -7.739 -56.232  1.00  0.00     0.000 C 
BRANCH   4   5
ATOM      5  C   UNL     1      47.783  -9.229 -56.150  1.00  0.00     0.000 C 
BRANCH   5   6
ATOM      6  C   UNL     1      47.293 -10.026 -57.370  1.00  0.00     0.000 C 
BRANCH   6   7
ATOM      7  C   UNL     1      47.530 -11.537 -57.222  1.00  0.00     0.000 C 
BRANCH   7   8
ATOM      8  C   UNL     1      48.450 -11.872 -56.037  1.00  0.00     0.000 C 
BRANCH   8   9
ATOM      9  C   UNL     1      48.944 -13.324 -56.119  1.00  0.00     0.000 C 
BRANCH   9  10
ATOM     10  C   UNL     1      47.868 -14.350 -55.722  1.00  0.00     0.006 C 
BRANCH  10  11
ATOM     11  C   UNL     1      48.188 -15.791 -56.158  1.00  0.00     0.053 C 
BRANCH  11  12
ATOM     12  C   UNL     1      47.105 -16.393 -57.002  1.00  0.00     0.041 C 
ATOM     13  O   UNL     1      45.984 -15.826 -57.093  1.00  0.00    -0.550 OA
ATOM     14  O   UNL     1      47.344 -17.557 -57.721  1.00  0.00    -0.550 OA
ENDBRANCH  11  12
ENDBRANCH  10  11
ENDBRANCH   9  10
ENDBRANCH   8   9
ENDBRANCH   7   8
ENDBRANCH   6   7
ENDBRANCH   5   6
ENDBRANCH   4   5
ENDBRANCH   3   4
ENDBRANCH   2   3
ENDBRANCH   1   2
BRANCH   1  15
ATOM     15  C   UNL     1      50.866  -6.631 -58.824  1.00  0.00     0.000 C 
BRANCH  15  16
ATOM     16  C   UNL     1      50.852  -5.136 -58.456  1.00  0.00     0.000 C 
BRANCH  16  17
ATOM     17  C   UNL     1      51.640  -4.828 -57.173  1.00  0.00     0.000 C 
BRANCH  17  18
ATOM     18  C   UNL     1      51.877  -6.105 -56.352  1.00  0.00    -0.000 C 
BRANCH  18  19
ATOM     19  C   UNL     1      51.417  -5.963 -54.891  1.00  0.00    -0.000 C 
BRANCH  19  20
ATOM     20  C   UNL     1      49.889  -5.864 -54.756  1.00  0.00    -0.000 C 
BRANCH  20  21
ATOM     21  C   UNL     1      49.456  -4.412 -54.507  1.00  0.00    -0.000 C 
BRANCH  21  22
ATOM     22  C   UNL     1      48.406  -3.914 -55.517  1.00  0.00    -0.000 C 
BRANCH  22  23
ATOM     23  C   UNL     1      46.953  -3.937 -55.006  1.00  0.00    -0.000 C 
BRANCH  23  24
ATOM     24  C   UNL     1      46.850  -3.723 -53.489  1.00  0.00    -0.000 C 
BRANCH  24  25
ATOM     25  C   UNL     1      45.767  -4.620 -52.880  1.00  0.00    -0.003 C 
ATOM     26  C   UNL     1      45.489  -5.830 -53.767  1.00  0.00     0.004 C 
ENDBRANCH  24  25
ENDBRANCH  23  24
ENDBRANCH  22  23
ENDBRANCH  21  22
ENDBRANCH  20  21
ENDBRANCH  19  20
ENDBRANCH  18  19
ENDBRANCH  17  18
ENDBRANCH  16  17
ENDBRANCH  15  16
ENDBRANCH   1  15
TORSDOF 22
ENDMDL
MODEL 5
REMARK VINA RESULT:    -4.115      3.561      7.954
REMARK INTER + INTRA:         -13.090
REMARK INTER:                  -9.250
REMARK INTRA:                  -3.840
REMARK UNBOUND:                -3.683
REMARK SMILES CCCCCCCCCCCCCCCCCCCCCCCC(=O)[O-]
REMARK SMILES IDX 13 1 14 2 15 3 16 4 17 5 18 6 19 7 20 8 21 9 22 10 23 11
REMARK SMILES IDX 24 12 25 13 26 14 12 15 11 16 10 17 9 18 8 19 7 20 6 21 5 22
REMARK SMILES IDX 4 23 3 24 2 25 1 26
REMARK H PARENT
REMARK Flexibility Score: inf
ROOT
ATOM      1  C   UNL     1      50.015  -7.395 -54.295  1.00  0.00     0.000 C 
ENDROOT
BRANCH   1   2
ATOM      2  C   UNL     1      50.703  -6.063 -54.634  1.00  0.00     0.000 C 
BRANCH   2   3
ATOM      3  C   UNL     1      52.013  -6.251 -55.421  1.00  0.00     0.000 C 
BRANCH   3   4
ATOM      4  C   UNL     1      52.049  -5.573 -56.804  1.00  0.00     0.000 C 
BRANCH   4   5
ATOM      5  C   UNL     1      51.262  -6.333 -57.892  1.00  0.00     0.000 C 
BRANCH   5   6
ATOM      6  C   UNL     1      50.167  -5.462 -58.530  1.00  0.00     0.000 C 
BRANCH   6   7
ATOM      7  C   UNL     1      50.060  -4.075 -57.877  1.00  0.00     0.000 C 
BRANCH   7   8
ATOM      8  C   UNL     1      48.628  -3.750 -57.422  1.00  0.00     0.000 C 
BRANCH   8   9
ATOM      9  C   UNL     1      48.476  -3.944 -55.907  1.00  0.00     0.000 C 
BRANCH   9  10
ATOM     10  C   UNL     1      47.027  -3.760 -55.419  1.00  0.00     0.006 C 
BRANCH  10  11
ATOM     11  C   UNL     1      46.866  -3.861 -53.892  1.00  0.00     0.053 C 
BRANCH  11  12
ATOM     12  C   UNL     1      45.752  -4.781 -53.488  1.00  0.00     0.041 C 
ATOM     13  O   UNL     1      44.945  -5.215 -54.353  1.00  0.00    -0.550 OA
ATOM     14  O   UNL     1      45.628  -5.193 -52.168  1.00  0.00    -0.550 OA
ENDBRANCH  11  12
ENDBRANCH  10  11
ENDBRANCH   9  10
ENDBRANCH   8   9
ENDBRANCH   7   8
ENDBRANCH   6   7
ENDBRANCH   5   6
ENDBRANCH   4   5
ENDBRANCH   3   4
ENDBRANCH   2   3
ENDBRANCH   1   2
BRANCH   1  15
ATOM     15  C   UNL     1      48.536  -7.220 -53.904  1.00  0.00     0.000 C 
BRANCH  15  16
ATOM     16  C   UNL     1      47.521  -7.706 -54.954  1.00  0.00     0.000 C 
BRANCH  16  17
ATOM     17  C   UNL     1      48.100  -7.737 -56.377  1.00  0.00     0.000 C 
BRANCH  17  18
ATOM     18  C   UNL     1      47.101  -7.159 -57.392  1.00  0.00    -0.000 C 
BRANCH  18  19
ATOM     19  C   UNL     1      47.190  -7.846 -58.765  1.00  0.00    -0.000 C 
BRANCH  19  20
ATOM     20  C   UNL     1      47.663  -9.305 -58.671  1.00  0.00    -0.000 C 
BRANCH  20  21
ATOM     21  C   UNL     1      46.471 -10.255 -58.485  1.00  0.00    -0.000 C 
BRANCH  21  22
ATOM     22  C   UNL     1      46.788 -11.448 -57.564  1.00  0.00    -0.000 C 
BRANCH  22  23
ATOM     23  C   UNL     1      48.023 -11.259 -56.663  1.00  0.00    -0.000 C 
BRANCH  23  24
ATOM     24  C   UNL     1      48.504 -12.572 -56.026  1.00  0.00    -0.000 C 
BRANCH  24  25
ATOM     25  C   UNL     1      47.566 -13.731 -56.382  1.00  0.00    -0.003 C 
ATOM     26  C   UNL     1      47.318 -14.632 -55.175  1.00  0.00     0.004 C 
ENDBRANCH  24  25
ENDBRANCH  23  24
ENDBRANCH  22  23
ENDBRANCH  21  22
ENDBRANCH  20  21
ENDBRANCH  19  20
ENDBRANCH  18  19
ENDBRANCH  17  18
ENDBRANCH  16  17
ENDBRANCH  15  16
ENDBRANCH   1  15
TORSDOF 22
ENDMDL
MODEL 6
REMARK VINA RESULT:    -4.096      3.485      8.417
REMARK INTER + INTRA:         -13.047
REMARK INTER:                  -9.592
REMARK INTRA:                  -3.455
REMARK UNBOUND:                -3.683
REMARK SMILES CCCCCCCCCCCCCCCCCCCCCCCC(=O)[O-]
REMARK SMILES IDX 13 1 14 2 15 3 16 4 17 5 18 6 19 7 20 8 21 9 22 10 23 11
REMARK SMILES IDX 24 12 25 13 26 14 12 15 11 16 10 17 9 18 8 19 7 20 6 21 5 22
REMARK SMILES IDX 4 23 3 24 2 25 1 26
REMARK H PARENT
REMARK Flexibility Score: inf
ROOT
ATOM      1  C   UNL     1      47.624  -7.371 -54.225  1.00  0.00     0.000 C 
ENDROOT
BRANCH   1   2
ATOM      2  C   UNL     1      48.938  -7.069 -53.487  1.00  0.00     0.000 C 
BRANCH   2   3
ATOM      3  C   UNL     1      50.180  -7.552 -54.259  1.00  0.00     0.000 C 
BRANCH   3   4
ATOM      4  C   UNL     1      51.100  -6.433 -54.785  1.00  0.00     0.000 C 
BRANCH   4   5
ATOM      5  C   UNL     1      51.061  -6.263 -56.318  1.00  0.00     0.000 C 
BRANCH   5   6
ATOM      6  C   UNL     1      50.383  -4.948 -56.739  1.00  0.00     0.000 C 
BRANCH   6   7
ATOM      7  C   UNL     1      49.891  -4.126 -55.537  1.00  0.00     0.000 C 
BRANCH   7   8
ATOM      8  C   UNL     1      48.411  -3.729 -55.665  1.00  0.00     0.000 C 
BRANCH   8   9
ATOM      9  C   UNL     1      47.732  -3.687 -54.289  1.00  0.00     0.000 C 
BRANCH   9  10
ATOM     10  C   UNL     1      46.216  -3.941 -54.357  1.00  0.00     0.006 C 
BRANCH  10  11
ATOM     11  C   UNL     1      45.502  -3.833 -52.998  1.00  0.00     0.053 C 
BRANCH  11  12
ATOM     12  C   UNL     1      45.201  -5.172 -52.395  1.00  0.00     0.041 C 
ATOM     13  O   UNL     1      45.689  -5.488 -51.278  1.00  0.00    -0.550 OA
ATOM     14  O   UNL     1      44.350  -6.056 -53.045  1.00  0.00    -0.550 OA
ENDBRANCH  11  12
ENDBRANCH  10  11
ENDBRANCH   9  10
ENDBRANCH   8   9
ENDBRANCH   7   8
ENDBRANCH   6   7
ENDBRANCH   5   6
ENDBRANCH   4   5
ENDBRANCH   3   4
ENDBRANCH   2   3
ENDBRANCH   1   2
BRANCH   1  15
ATOM     15  C   UNL     1      47.837  -7.685 -55.718  1.00  0.00     0.000 C 
BRANCH  15  16
ATOM     16  C   UNL     1      46.951  -6.880 -56.687  1.00  0.00     0.000 C 
BRANCH  16  17
ATOM     17  C   UNL     1      47.285  -7.143 -58.163  1.00  0.00     0.000 C 
BRANCH  17  18
ATOM     18  C   UNL     1      48.434  -8.155 -58.296  1.00  0.00    -0.000 C 
BRANCH  18  19
ATOM     19  C   UNL     1      47.998  -9.456 -58.992  1.00  0.00    -0.000 C 
BRANCH  19  20
ATOM     20  C   UNL     1      46.959 -10.246 -58.180  1.00  0.00    -0.000 C 
BRANCH  20  21
ATOM     21  C   UNL     1      47.617 -10.934 -56.975  1.00  0.00    -0.000 C 
BRANCH  21  22
ATOM     22  C   UNL     1      47.683 -12.466 -57.118  1.00  0.00    -0.000 C 
BRANCH  22  23
ATOM     23  C   UNL     1      48.399 -13.193 -55.964  1.00  0.00    -0.000 C 
BRANCH  23  24
ATOM     24  C   UNL     1      47.593 -14.379 -55.413  1.00  0.00    -0.000 C 
BRANCH  24  25
ATOM     25  C   UNL     1      46.934 -15.170 -56.549  1.00  0.00    -0.003 C 
ATOM     26  C   UNL     1      47.667 -16.484 -56.804  1.00  0.00     0.004 C 
ENDBRANCH  24  25
ENDBRANCH  23  24
ENDBRANCH  22  23
ENDBRANCH  21  22
ENDBRANCH  20  21
ENDBRANCH  19  20
ENDBRANCH  18  19
ENDBRANCH  17  18
ENDBRANCH  16  17
ENDBRANCH  15  16
ENDBRANCH   1  15
TORSDOF 22
ENDMDL
MODEL 7
REMARK VINA RESULT:    -4.090      1.426      2.521
REMARK INTER + INTRA:         -13.032
REMARK INTER:                 -10.048
REMARK INTRA:                  -2.985
REMARK UNBOUND:                -3.683
REMARK SMILES CCCCCCCCCCCCCCCCCCCCCCCC(=O)[O-]
REMARK SMILES IDX 13 1 14 2 15 3 16 4 17 5 18 6 19 7 20 8 21 9 22 10 23 11
REMARK SMILES IDX 24 12 25 13 26 14 12 15 11 16 10 17 9 18 8 19 7 20 6 21 5 22
REMARK SMILES IDX 4 23 3 24 2 25 1 26
REMARK H PARENT
REMARK Flexibility Score: inf
ROOT
ATOM      1  C   UNL     1      48.516  -7.113 -53.859  1.00  0.00     0.000 C 
ENDROOT
BRANCH   1   2
ATOM      2  C   UNL     1      47.344  -7.403 -54.812  1.00  0.00     0.000 C 
BRANCH   2   3
ATOM      3  C   UNL     1      47.734  -8.340 -55.970  1.00  0.00     0.000 C 
BRANCH   3   4
ATOM      4  C   UNL     1      47.701  -7.698 -57.370  1.00  0.00     0.000 C 
BRANCH   4   5
ATOM      5  C   UNL     1      48.263  -8.605 -58.485  1.00  0.00     0.000 C 
BRANCH   5   6
ATOM      6  C   UNL     1      47.271  -9.710 -58.888  1.00  0.00     0.000 C 
BRANCH   6   7
ATOM      7  C   UNL     1      47.857 -11.120 -58.715  1.00  0.00     0.000 C 
BRANCH   7   8
ATOM      8  C   UNL     1      47.263 -11.857 -57.504  1.00  0.00     0.000 C 
BRANCH   8   9
ATOM      9  C   UNL     1      48.293 -11.972 -56.372  1.00  0.00     0.000 C 
BRANCH   9  10
ATOM     10  C   UNL     1      48.661 -13.430 -56.039  1.00  0.00     0.006 C 
BRANCH  10  11
ATOM     11  C   UNL     1      47.514 -14.234 -55.402  1.00  0.00     0.053 C 
BRANCH  11  12
ATOM     12  C   UNL     1      47.306 -15.564 -56.062  1.00  0.00     0.041 C 
ATOM     13  O   UNL     1      46.159 -15.901 -56.460  1.00  0.00    -0.550 OA
ATOM     14  O   UNL     1      48.382 -16.416 -56.274  1.00  0.00    -0.550 OA
ENDBRANCH  11  12
ENDBRANCH  10  11
ENDBRANCH   9  10
ENDBRANCH   8   9
ENDBRANCH   7   8
ENDBRANCH   6   7
ENDBRANCH   5   6
ENDBRANCH   4   5
ENDBRANCH   3   4
ENDBRANCH   2   3
ENDBRANCH   1   2
BRANCH   1  15
ATOM     15  C   UNL     1      49.847  -7.713 -54.351  1.00  0.00     0.000 C 
BRANCH  15  16
ATOM     16  C   UNL     1      50.958  -6.686 -54.637  1.00  0.00     0.000 C 
BRANCH  16  17
ATOM     17  C   UNL     1      51.026  -6.273 -56.115  1.00  0.00     0.000 C 
BRANCH  17  18
ATOM     18  C   UNL     1      50.640  -4.797 -56.294  1.00  0.00    -0.000 C 
BRANCH  18  19
ATOM     19  C   UNL     1      49.607  -4.588 -57.414  1.00  0.00    -0.000 C 
BRANCH  19  20
ATOM     20  C   UNL     1      48.384  -3.779 -56.953  1.00  0.00    -0.000 C 
BRANCH  20  21
ATOM     21  C   UNL     1      48.304  -3.737 -55.420  1.00  0.00    -0.000 C 
BRANCH  21  22
ATOM     22  C   UNL     1      46.905  -3.356 -54.900  1.00  0.00    -0.000 C 
BRANCH  22  23
ATOM     23  C   UNL     1      46.704  -3.547 -53.385  1.00  0.00    -0.000 C 
BRANCH  23  24
ATOM     24  C   UNL     1      45.250  -3.321 -52.943  1.00  0.00    -0.000 C 
BRANCH  24  25
ATOM     25  C   UNL     1      45.007  -3.896 -51.543  1.00  0.00    -0.003 C 
ATOM     26  C   UNL     1      45.365  -5.378 -51.484  1.00  0.00     0.004 C 
ENDBRANCH  24  25
ENDBRANCH  23  24
ENDBRANCH  22  23
ENDBRANCH  21  22
ENDBRANCH  20  21
ENDBRANCH  19  20
ENDBRANCH  18  19
ENDBRANCH  17  18
ENDBRANCH  16  17
ENDBRANCH  15  16
ENDBRANCH   1  15
TORSDOF 22
ENDMDL
MODEL 8
REMARK VINA RESULT:    -4.035      4.099      9.372
REMARK INTER + INTRA:         -12.908
REMARK INTER:                 -10.175
REMARK INTRA:                  -2.734
REMARK UNBOUND:                -3.683
REMARK SMILES CCCCCCCCCCCCCCCCCCCCCCCC(=O)[O-]
REMARK SMILES IDX 13 1 14 2 15 3 16 4 17 5 18 6 19 7 20 8 21 9 22 10 23 11
REMARK SMILES IDX 24 12 25 13 26 14 12 15 11 16 10 17 9 18 8 19 7 20 6 21 5 22
REMARK SMILES IDX 4 23 3 24 2 25 1 26
REMARK H PARENT
REMARK Flexibility Score: inf
ROOT
ATOM      1  C   UNL     1      46.721  -7.551 -56.373  1.00  0.00     0.000 C 
ENDROOT
BRANCH   1   2
ATOM      2  C   UNL     1      47.369  -7.755 -54.994  1.00  0.00     0.000 C 
BRANCH   2   3
ATOM      3  C   UNL     1      48.763  -8.403 -55.079  1.00  0.00     0.000 C 
BRANCH   3   4
ATOM      4  C   UNL     1      49.865  -7.694 -54.268  1.00  0.00     0.000 C 
BRANCH   4   5
ATOM      5  C   UNL     1      50.594  -6.580 -55.048  1.00  0.00     0.000 C 
BRANCH   5   6
ATOM      6  C   UNL     1      50.556  -5.233 -54.307  1.00  0.00     0.000 C 
BRANCH   6   7
ATOM      7  C   UNL     1      49.568  -4.240 -54.938  1.00  0.00     0.000 C 
BRANCH   7   8
ATOM      8  C   UNL     1      49.109  -4.679 -56.337  1.00  0.00     0.000 C 
BRANCH   8   9
ATOM      9  C   UNL     1      49.328  -3.559 -57.364  1.00  0.00     0.000 C 
BRANCH   9  10
ATOM     10  C   UNL     1      50.470  -3.861 -58.351  1.00  0.00     0.006 C 
BRANCH  10  11
ATOM     11  C   UNL     1      51.800  -3.172 -57.996  1.00  0.00     0.053 C 
BRANCH  11  12
ATOM     12  C   UNL     1      52.956  -4.128 -57.968  1.00  0.00     0.041 C 
ATOM     13  O   UNL     1      54.067  -3.792 -58.457  1.00  0.00    -0.550 OA
ATOM     14  O   UNL     1      52.820  -5.372 -57.367  1.00  0.00    -0.550 OA
ENDBRANCH  11  12
ENDBRANCH  10  11
ENDBRANCH   9  10
ENDBRANCH   8   9
ENDBRANCH   7   8
ENDBRANCH   6   7
ENDBRANCH   5   6
ENDBRANCH   4   5
ENDBRANCH   3   4
ENDBRANCH   2   3
ENDBRANCH   1   2
BRANCH   1  15
ATOM     15  C   UNL     1      47.677  -7.878 -57.535  1.00  0.00     0.000 C 
BRANCH  15  16
ATOM     16  C   UNL     1      47.139  -8.896 -58.556  1.00  0.00     0.000 C 
BRANCH  16  17
ATOM     17  C   UNL     1      48.196  -9.922 -58.994  1.00  0.00     0.000 C 
BRANCH  17  18
ATOM     18  C   UNL     1      47.782 -11.346 -58.591  1.00  0.00    -0.000 C 
BRANCH  18  19
ATOM     19  C   UNL     1      47.256 -11.422 -57.148  1.00  0.00    -0.000 C 
BRANCH  19  20
ATOM     20  C   UNL     1      48.334 -11.860 -56.144  1.00  0.00    -0.000 C 
BRANCH  20  21
ATOM     21  C   UNL     1      48.768 -13.309 -56.407  1.00  0.00    -0.000 C 
BRANCH  21  22
ATOM     22  C   UNL     1      47.809 -14.347 -55.796  1.00  0.00    -0.000 C 
BRANCH  22  23
ATOM     23  C   UNL     1      48.291 -15.807 -55.886  1.00  0.00    -0.000 C 
BRANCH  23  24
ATOM     24  C   UNL     1      47.370 -16.688 -56.744  1.00  0.00    -0.000 C 
BRANCH  24  25
ATOM     25  C   UNL     1      46.351 -15.836 -57.508  1.00  0.00    -0.003 C 
ATOM     26  C   UNL     1      45.001 -16.542 -57.602  1.00  0.00     0.004 C 
ENDBRANCH  24  25
ENDBRANCH  23  24
ENDBRANCH  22  23
ENDBRANCH  21  22
ENDBRANCH  20  21
ENDBRANCH  19  20
ENDBRANCH  18  19
ENDBRANCH  17  18
ENDBRANCH  16  17
ENDBRANCH  15  16
ENDBRANCH   1  15
TORSDOF 22
ENDMDL
MODEL 9
REMARK VINA RESULT:    -4.013      1.672      3.802
REMARK INTER + INTRA:         -12.856
REMARK INTER:                  -9.100
REMARK INTRA:                  -3.757
REMARK UNBOUND:                -3.683
REMARK SMILES CCCCCCCCCCCCCCCCCCCCCCCC(=O)[O-]
REMARK SMILES IDX 13 1 14 2 15 3 16 4 17 5 18 6 19 7 20 8 21 9 22 10 23 11
REMARK SMILES IDX 24 12 25 13 26 14 12 15 11 16 10 17 9 18 8 19 7 20 6 21 5 22
REMARK SMILES IDX 4 23 3 24 2 25 1 26
REMARK H PARENT
REMARK Flexibility Score: inf
ROOT
ATOM      1  C   UNL     1      50.964  -5.963 -54.734  1.00  0.00     0.000 C 
ENDROOT
BRANCH   1   2
ATOM      2  C   UNL     1      50.178  -7.251 -54.441  1.00  0.00     0.000 C 
BRANCH   2   3
ATOM      3  C   UNL     1      48.922  -7.002 -53.584  1.00  0.00     0.000 C 
BRANCH   3   4
ATOM      4  C   UNL     1      47.588  -7.387 -54.253  1.00  0.00     0.000 C 
BRANCH   4   5
ATOM      5  C   UNL     1      47.658  -7.451 -55.793  1.00  0.00     0.000 C 
BRANCH   5   6
ATOM      6  C   UNL     1      46.280  -7.714 -56.425  1.00  0.00     0.000 C 
BRANCH   6   7
ATOM      7  C   UNL     1      46.382  -8.242 -57.864  1.00  0.00     0.000 C 
BRANCH   7   8
ATOM      8  C   UNL     1      47.749  -8.879 -58.159  1.00  0.00     0.000 C 
BRANCH   8   9
ATOM      9  C   UNL     1      47.631 -10.405 -58.278  1.00  0.00     0.000 C 
BRANCH   9  10
ATOM     10  C   UNL     1      47.627 -11.117 -56.913  1.00  0.00     0.006 C 
BRANCH  10  11
ATOM     11  C   UNL     1      47.272 -12.613 -56.990  1.00  0.00     0.053 C 
BRANCH  11  12
ATOM     12  C   UNL     1      48.114 -13.454 -56.078  1.00  0.00     0.041 C 
ATOM     13  O   UNL     1      47.569 -14.268 -55.285  1.00  0.00    -0.550 OA
ATOM     14  O   UNL     1      49.499 -13.370 -56.128  1.00  0.00    -0.550 OA
ENDBRANCH  11  12
ENDBRANCH  10  11
ENDBRANCH   9  10
ENDBRANCH   8   9
ENDBRANCH   7   8
ENDBRANCH   6   7
ENDBRANCH   5   6
ENDBRANCH   4   5
ENDBRANCH   3   4
ENDBRANCH   2   3
ENDBRANCH   1   2
BRANCH   1  15
ATOM     15  C   UNL     1      52.061  -6.162 -55.796  1.00  0.00     0.000 C 
BRANCH  15  16
ATOM     16  C   UNL     1      51.562  -6.187 -57.252  1.00  0.00     0.000 C 
BRANCH  16  17
ATOM     17  C   UNL     1      50.675  -4.982 -57.603  1.00  0.00     0.000 C 
BRANCH  17  18
ATOM     18  C   UNL     1      49.388  -5.432 -58.312  1.00  0.00    -0.000 C 
BRANCH  18  19
ATOM     19  C   UNL     1      48.146  -4.671 -57.819  1.00  0.00    -0.000 C 
BRANCH  19  20
ATOM     20  C   UNL     1      48.476  -3.626 -56.742  1.00  0.00    -0.000 C 
BRANCH  20  21
ATOM     21  C   UNL     1      47.293  -3.439 -55.781  1.00  0.00    -0.000 C 
BRANCH  21  22
ATOM     22  C   UNL     1      47.674  -3.664 -54.306  1.00  0.00    -0.000 C 
BRANCH  22  23
ATOM     23  C   UNL     1      46.506  -3.539 -53.309  1.00  0.00    -0.000 C 
BRANCH  23  24
ATOM     24  C   UNL     1      45.347  -4.497 -53.623  1.00  0.00    -0.000 C 
BRANCH  24  25
ATOM     25  C   UNL     1      45.069  -5.428 -52.438  1.00  0.00    -0.003 C 
ATOM     26  C   UNL     1      44.164  -6.587 -52.846  1.00  0.00     0.004 C 
ENDBRANCH  24  25
ENDBRANCH  23  24
ENDBRANCH  22  23
ENDBRANCH  21  22
ENDBRANCH  20  21
ENDBRANCH  19  20
ENDBRANCH  18  19
ENDBRANCH  17  18
ENDBRANCH  16  17
ENDBRANCH  15  16
ENDBRANCH   1  15
TORSDOF 22
ENDMDL
