MODEL 1
REMARK VINA RESULT:    -7.054      0.000      0.000
REMARK INTER + INTRA:          -8.753
REMARK INTER:                  -8.497
REMARK INTRA:                  -0.256
REMARK UNBOUND:                -0.256
REMARK SMILES O=c1c(O)c(-c2ccc(O)c(O)c2)oc2cc(O)cc(O)c12
REMARK SMILES IDX 5 1 3 2 2 3 1 4 22 5 20 6 19 7 17 8 16 9 15 10 14 11 6 12
REMARK SMILES IDX 7 13 8 14 9 15 13 16 11 17 10 18 12 20 4 22 21 24 18 26
REMARK H PARENT 10 19 12 21 4 23 21 25 18 27
REMARK Flexibility Score: inf
ROOT
ATOM      1  C   UNL     1     127.377 129.544 142.410  1.00  0.00     0.180 A 
ATOM      2  C   UNL     1     127.259 130.299 141.230  1.00  0.00     0.208 A 
ATOM      3  C   UNL     1     126.980 129.637 140.023  1.00  0.00     0.238 A 
ATOM      4  O   UNL     1     126.930 130.313 138.962  1.00  0.00    -0.285 OA
ATOM      5  C   UNL     1     126.807 128.233 140.014  1.00  0.00     0.111 A 
ATOM      6  C   UNL     1     126.482 127.464 138.855  1.00  0.00     0.134 A 
ATOM      7  C   UNL     1     126.464 126.066 138.936  1.00  0.00     0.093 A 
ATOM      8  C   UNL     1     126.694 125.412 140.148  1.00  0.00     0.123 A 
ATOM      9  C   UNL     1     126.953 126.156 141.297  1.00  0.00     0.094 A 
ATOM     10  C   UNL     1     127.014 127.551 141.241  1.00  0.00     0.146 A 
ATOM     11  O   UNL     1     127.275 128.221 142.356  1.00  0.00    -0.452 OA
ENDROOT
BRANCH   1  12
ATOM     12  C   UNL     1     127.645 130.171 143.724  1.00  0.00     0.025 A 
ATOM     13  C   UNL     1     126.625 130.887 144.369  1.00  0.00     0.016 A 
ATOM     14  C   UNL     1     126.862 131.505 145.599  1.00  0.00     0.051 A 
ATOM     15  C   UNL     1     128.124 131.432 146.195  1.00  0.00     0.157 A 
ATOM     16  C   UNL     1     128.920 130.117 144.315  1.00  0.00     0.062 A 
ATOM     17  C   UNL     1     129.162 130.738 145.549  1.00  0.00     0.158 A 
BRANCH  15  18
ATOM     18  O   UNL     1     128.330 132.057 147.425  1.00  0.00    -0.504 OA
ATOM     19  H   UNL     1     128.010 131.650 148.296  1.00  0.00     0.293 HD
ENDBRANCH  15  18
BRANCH  17  20
ATOM     20  O   UNL     1     130.426 130.674 146.131  1.00  0.00    -0.504 OA
ATOM     21  H   UNL     1     130.566 130.274 147.052  1.00  0.00     0.293 HD
ENDBRANCH  17  20
ENDBRANCH   1  12
BRANCH   2  22
ATOM     22  O   UNL     1     127.456 131.682 141.258  1.00  0.00    -0.502 OA
ATOM     23  H   UNL     1     126.783 132.319 141.667  1.00  0.00     0.293 HD
ENDBRANCH   2  22
BRANCH   6  24
ATOM     24  O   UNL     1     126.146 128.022 137.618  1.00  0.00    -0.507 OA
ATOM     25  H   UNL     1     126.049 127.501 136.759  1.00  0.00     0.293 HD
ENDBRANCH   6  24
BRANCH   8  26
ATOM     26  O   UNL     1     126.659 124.022 140.224  1.00  0.00    -0.508 OA
ATOM     27  H   UNL     1     125.804 123.525 140.443  1.00  0.00     0.293 HD
ENDBRANCH   8  26
TORSDOF 6
ENDMDL
MODEL 2
REMARK VINA RESULT:    -6.793      1.529      3.129
REMARK INTER + INTRA:          -8.438
REMARK INTER:                  -8.276
REMARK INTRA:                  -0.162
REMARK UNBOUND:                -0.256
REMARK SMILES O=c1c(O)c(-c2ccc(O)c(O)c2)oc2cc(O)cc(O)c12
REMARK SMILES IDX 5 1 3 2 2 3 1 4 22 5 20 6 19 7 17 8 16 9 15 10 14 11 6 12
REMARK SMILES IDX 7 13 8 14 9 15 13 16 11 17 10 18 12 20 4 22 21 24 18 26
REMARK H PARENT 10 19 12 21 4 23 21 25 18 27
REMARK Flexibility Score: inf
ROOT
ATOM      1  C   UNL     1     127.106 129.342 143.528  1.00  0.00     0.180 A 
ATOM      2  C   UNL     1     127.331 127.957 143.610  1.00  0.00     0.208 A 
ATOM      3  C   UNL     1     127.407 127.207 142.425  1.00  0.00     0.238 A 
ATOM      4  O   UNL     1     127.553 125.960 142.508  1.00  0.00    -0.285 OA
ATOM      5  C   UNL     1     127.274 127.854 141.173  1.00  0.00     0.111 A 
ATOM      6  C   UNL     1     127.374 127.199 139.909  1.00  0.00     0.134 A 
ATOM      7  C   UNL     1     127.097 127.913 138.737  1.00  0.00     0.093 A 
ATOM      8  C   UNL     1     126.786 129.274 138.780  1.00  0.00     0.123 A 
ATOM      9  C   UNL     1     126.744 129.936 140.005  1.00  0.00     0.094 A 
ATOM     10  C   UNL     1     126.981 129.242 141.195  1.00  0.00     0.146 A 
ATOM     11  O   UNL     1     126.920 129.908 142.341  1.00  0.00    -0.452 OA
ENDROOT
BRANCH   1  12
ATOM     12  C   UNL     1     127.038 130.202 144.731  1.00  0.00     0.025 A 
ATOM     13  C   UNL     1     125.971 130.051 145.629  1.00  0.00     0.016 A 
ATOM     14  C   UNL     1     125.876 130.866 146.759  1.00  0.00     0.051 A 
ATOM     15  C   UNL     1     126.835 131.855 147.001  1.00  0.00     0.157 A 
ATOM     16  C   UNL     1     127.990 131.212 144.964  1.00  0.00     0.062 A 
ATOM     17  C   UNL     1     127.896 132.033 146.097  1.00  0.00     0.158 A 
BRANCH  15  18
ATOM     18  O   UNL     1     126.715 132.652 148.140  1.00  0.00    -0.504 OA
ATOM     19  H   UNL     1     127.513 132.889 148.716  1.00  0.00     0.293 HD
ENDBRANCH  15  18
BRANCH  17  20
ATOM     20  O   UNL     1     128.847 133.026 146.325  1.00  0.00    -0.504 OA
ATOM     21  H   UNL     1     129.567 132.918 147.029  1.00  0.00     0.293 HD
ENDBRANCH  17  20
ENDBRANCH   1  12
BRANCH   2  22
ATOM     22  O   UNL     1     127.436 127.335 144.858  1.00  0.00    -0.502 OA
ATOM     23  H   UNL     1     126.829 127.567 145.634  1.00  0.00     0.293 HD
ENDBRANCH   2  22
BRANCH   6  24
ATOM     24  O   UNL     1     127.767 125.866 139.749  1.00  0.00    -0.507 OA
ATOM     25  H   UNL     1     128.440 125.543 139.070  1.00  0.00     0.293 HD
ENDBRANCH   6  24
BRANCH   8  26
ATOM     26  O   UNL     1     126.526 129.982 137.609  1.00  0.00    -0.508 OA
ATOM     27  H   UNL     1     125.848 129.653 136.931  1.00  0.00     0.293 HD
ENDBRANCH   8  26
TORSDOF 6
ENDMDL
MODEL 3
REMARK VINA RESULT:    -6.568      5.954     10.490
REMARK INTER + INTRA:          -8.168
REMARK INTER:                  -7.964
REMARK INTRA:                  -0.204
REMARK UNBOUND:                -0.256
REMARK SMILES O=c1c(O)c(-c2ccc(O)c(O)c2)oc2cc(O)cc(O)c12
REMARK SMILES IDX 5 1 3 2 2 3 1 4 22 5 20 6 19 7 17 8 16 9 15 10 14 11 6 12
REMARK SMILES IDX 7 13 8 14 9 15 13 16 11 17 10 18 12 20 4 22 21 24 18 26
REMARK H PARENT 10 19 12 21 4 23 21 25 18 27
REMARK Flexibility Score: inf
ROOT
ATOM      1  C   UNL     1     130.790 133.797 147.677  1.00  0.00     0.180 A 
ATOM      2  C   UNL     1     131.515 133.708 148.877  1.00  0.00     0.208 A 
ATOM      3  C   UNL     1     132.630 134.541 149.063  1.00  0.00     0.238 A 
ATOM      4  O   UNL     1     133.307 134.418 150.117  1.00  0.00    -0.285 OA
ATOM      5  C   UNL     1     132.996 135.463 148.053  1.00  0.00     0.111 A 
ATOM      6  C   UNL     1     134.083 136.383 148.151  1.00  0.00     0.134 A 
ATOM      7  C   UNL     1     134.434 137.159 147.040  1.00  0.00     0.093 A 
ATOM      8  C   UNL     1     133.697 137.094 145.855  1.00  0.00     0.123 A 
ATOM      9  C   UNL     1     132.598 136.243 145.770  1.00  0.00     0.094 A 
ATOM     10  C   UNL     1     132.244 135.430 146.849  1.00  0.00     0.146 A 
ATOM     11  O   UNL     1     131.197 134.625 146.722  1.00  0.00    -0.452 OA
ENDROOT
BRANCH   1  12
ATOM     12  C   UNL     1     129.589 132.970 147.418  1.00  0.00     0.025 A 
ATOM     13  C   UNL     1     129.601 132.044 146.363  1.00  0.00     0.016 A 
ATOM     14  C   UNL     1     128.472 131.268 146.088  1.00  0.00     0.051 A 
ATOM     15  C   UNL     1     127.310 131.416 146.851  1.00  0.00     0.157 A 
ATOM     16  C   UNL     1     128.412 133.132 148.171  1.00  0.00     0.062 A 
ATOM     17  C   UNL     1     127.276 132.356 147.896  1.00  0.00     0.158 A 
BRANCH  15  18
ATOM     18  O   UNL     1     126.199 130.626 146.555  1.00  0.00    -0.504 OA
ATOM     19  H   UNL     1     126.167 129.638 146.777  1.00  0.00     0.293 HD
ENDBRANCH  15  18
BRANCH  17  20
ATOM     20  O   UNL     1     126.116 132.518 148.651  1.00  0.00    -0.504 OA
ATOM     21  H   UNL     1     125.829 133.428 148.992  1.00  0.00     0.293 HD
ENDBRANCH  17  20
ENDBRANCH   1  12
BRANCH   2  22
ATOM     22  O   UNL     1     131.150 132.774 149.852  1.00  0.00    -0.502 OA
ATOM     23  H   UNL     1     130.799 131.854 149.618  1.00  0.00     0.293 HD
ENDBRANCH   2  22
BRANCH   6  24
ATOM     24  O   UNL     1     134.826 136.592 149.318  1.00  0.00    -0.507 OA
ATOM     25  H   UNL     1     135.796 136.866 149.340  1.00  0.00     0.293 HD
ENDBRANCH   6  24
BRANCH   8  26
ATOM     26  O   UNL     1     134.044 137.880 144.758  1.00  0.00    -0.508 OA
ATOM     27  H   UNL     1     133.418 138.590 144.396  1.00  0.00     0.293 HD
ENDBRANCH   8  26
TORSDOF 6
ENDMDL
MODEL 4
REMARK VINA RESULT:    -6.401      7.914      9.037
REMARK INTER + INTRA:          -7.967
REMARK INTER:                  -7.638
REMARK INTRA:                  -0.329
REMARK UNBOUND:                -0.256
REMARK SMILES O=c1c(O)c(-c2ccc(O)c(O)c2)oc2cc(O)cc(O)c12
REMARK SMILES IDX 5 1 3 2 2 3 1 4 22 5 20 6 19 7 17 8 16 9 15 10 14 11 6 12
REMARK SMILES IDX 7 13 8 14 9 15 13 16 11 17 10 18 12 20 4 22 21 24 18 26
REMARK H PARENT 10 19 12 21 4 23 21 25 18 27
REMARK Flexibility Score: inf
ROOT
ATOM      1  C   UNL     1     130.698 133.202 148.172  1.00  0.00     0.180 A 
ATOM      2  C   UNL     1     131.090 134.537 147.969  1.00  0.00     0.208 A 
ATOM      3  C   UNL     1     132.260 134.799 147.239  1.00  0.00     0.238 A 
ATOM      4  O   UNL     1     132.635 135.994 147.108  1.00  0.00    -0.285 OA
ATOM      5  C   UNL     1     133.013 133.726 146.706  1.00  0.00     0.111 A 
ATOM      6  C   UNL     1     134.193 133.877 145.916  1.00  0.00     0.134 A 
ATOM      7  C   UNL     1     134.930 132.744 145.551  1.00  0.00     0.093 A 
ATOM      8  C   UNL     1     134.495 131.462 145.893  1.00  0.00     0.123 A 
ATOM      9  C   UNL     1     133.314 131.301 146.613  1.00  0.00     0.094 A 
ATOM     10  C   UNL     1     132.575 132.413 147.022  1.00  0.00     0.146 A 
ATOM     11  O   UNL     1     131.462 132.216 147.716  1.00  0.00    -0.452 OA
ENDROOT
BRANCH   1  12
ATOM     12  C   UNL     1     129.465 132.847 148.911  1.00  0.00     0.025 A 
ATOM     13  C   UNL     1     129.527 132.630 150.296  1.00  0.00     0.016 A 
ATOM     14  C   UNL     1     128.380 132.273 151.009  1.00  0.00     0.051 A 
ATOM     15  C   UNL     1     127.158 132.112 150.348  1.00  0.00     0.157 A 
ATOM     16  C   UNL     1     128.239 132.663 148.245  1.00  0.00     0.062 A 
ATOM     17  C   UNL     1     127.086 132.303 148.958  1.00  0.00     0.158 A 
BRANCH  15  18
ATOM     18  O   UNL     1     126.029 131.758 151.087  1.00  0.00    -0.504 OA
ATOM     19  H   UNL     1     125.606 132.388 151.758  1.00  0.00     0.293 HD
ENDBRANCH  15  18
BRANCH  17  20
ATOM     20  O   UNL     1     125.875 132.130 148.291  1.00  0.00    -0.504 OA
ATOM     21  H   UNL     1     125.229 132.899 148.157  1.00  0.00     0.293 HD
ENDBRANCH  17  20
ENDBRANCH   1  12
BRANCH   2  22
ATOM     22  O   UNL     1     130.344 135.581 148.524  1.00  0.00    -0.502 OA
ATOM     23  H   UNL     1     129.832 135.482 149.392  1.00  0.00     0.293 HD
ENDBRANCH   2  22
BRANCH   6  24
ATOM     24  O   UNL     1     134.663 135.107 145.443  1.00  0.00    -0.507 OA
ATOM     25  H   UNL     1     134.408 136.005 145.826  1.00  0.00     0.293 HD
ENDBRANCH   6  24
BRANCH   8  26
ATOM     26  O   UNL     1     135.227 130.338 145.514  1.00  0.00    -0.508 OA
ATOM     27  H   UNL     1     135.587 129.684 146.199  1.00  0.00     0.293 HD
ENDBRANCH   8  26
TORSDOF 6
ENDMDL
MODEL 5
REMARK VINA RESULT:    -6.222      2.358      3.470
REMARK INTER + INTRA:          -7.751
REMARK INTER:                  -7.452
REMARK INTRA:                  -0.299
REMARK UNBOUND:                -0.256
REMARK SMILES O=c1c(O)c(-c2ccc(O)c(O)c2)oc2cc(O)cc(O)c12
REMARK SMILES IDX 5 1 3 2 2 3 1 4 22 5 20 6 19 7 17 8 16 9 15 10 14 11 6 12
REMARK SMILES IDX 7 13 8 14 9 15 13 16 11 17 10 18 12 20 4 22 21 24 18 26
REMARK H PARENT 10 19 12 21 4 23 21 25 18 27
REMARK Flexibility Score: inf
ROOT
ATOM      1  C   UNL     1     127.337 130.370 145.666  1.00  0.00     0.180 A 
ATOM      2  C   UNL     1     127.293 131.225 144.550  1.00  0.00     0.208 A 
ATOM      3  C   UNL     1     127.364 130.669 143.263  1.00  0.00     0.238 A 
ATOM      4  O   UNL     1     127.379 131.443 142.271  1.00  0.00    -0.285 OA
ATOM      5  C   UNL     1     127.461 129.266 143.106  1.00  0.00     0.111 A 
ATOM      6  C   UNL     1     127.499 128.591 141.848  1.00  0.00     0.134 A 
ATOM      7  C   UNL     1     127.728 127.210 141.811  1.00  0.00     0.093 A 
ATOM      8  C   UNL     1     127.855 126.470 142.989  1.00  0.00     0.123 A 
ATOM      9  C   UNL     1     127.760 127.110 144.222  1.00  0.00     0.094 A 
ATOM     10  C   UNL     1     127.568 128.492 144.292  1.00  0.00     0.146 A 
ATOM     11  O   UNL     1     127.495 129.064 145.487  1.00  0.00    -0.452 OA
ENDROOT
BRANCH   1  12
ATOM     12  C   UNL     1     127.242 130.879 147.053  1.00  0.00     0.025 A 
ATOM     13  C   UNL     1     125.986 131.205 147.585  1.00  0.00     0.016 A 
ATOM     14  C   UNL     1     125.876 131.707 148.884  1.00  0.00     0.051 A 
ATOM     15  C   UNL     1     127.018 131.905 149.665  1.00  0.00     0.157 A 
ATOM     16  C   UNL     1     128.393 131.100 147.832  1.00  0.00     0.062 A 
ATOM     17  C   UNL     1     128.285 131.605 149.136  1.00  0.00     0.158 A 
BRANCH  15  18
ATOM     18  O   UNL     1     126.877 132.406 150.960  1.00  0.00    -0.504 OA
ATOM     19  H   UNL     1     127.104 133.365 151.193  1.00  0.00     0.293 HD
ENDBRANCH  15  18
BRANCH  17  20
ATOM     20  O   UNL     1     129.429 131.814 149.903  1.00  0.00    -0.504 OA
ATOM     21  H   UNL     1     129.748 131.129 150.578  1.00  0.00     0.293 HD
ENDBRANCH  17  20
ENDBRANCH   1  12
BRANCH   2  22
ATOM     22  O   UNL     1     127.219 132.609 144.729  1.00  0.00    -0.502 OA
ATOM     23  H   UNL     1     127.794 133.256 144.203  1.00  0.00     0.293 HD
ENDBRANCH   2  22
BRANCH   6  24
ATOM     24  O   UNL     1     127.291 129.223 140.618  1.00  0.00    -0.507 OA
ATOM     25  H   UNL     1     126.417 129.628 140.321  1.00  0.00     0.293 HD
ENDBRANCH   6  24
BRANCH   8  26
ATOM     26  O   UNL     1     128.068 125.094 142.944  1.00  0.00    -0.508 OA
ATOM     27  H   UNL     1     127.931 124.564 142.091  1.00  0.00     0.293 HD
ENDBRANCH   8  26
TORSDOF 6
ENDMDL
MODEL 6
REMARK VINA RESULT:    -6.031      7.772      9.533
REMARK INTER + INTRA:          -7.521
REMARK INTER:                  -7.187
REMARK INTRA:                  -0.335
REMARK UNBOUND:                -0.256
REMARK SMILES O=c1c(O)c(-c2ccc(O)c(O)c2)oc2cc(O)cc(O)c12
REMARK SMILES IDX 5 1 3 2 2 3 1 4 22 5 20 6 19 7 17 8 16 9 15 10 14 11 6 12
REMARK SMILES IDX 7 13 8 14 9 15 13 16 11 17 10 18 12 20 4 22 21 24 18 26
REMARK H PARENT 10 19 12 21 4 23 21 25 18 27
REMARK Flexibility Score: inf
ROOT
ATOM      1  C   UNL     1     130.671 132.846 148.020  1.00  0.00     0.180 A 
ATOM      2  C   UNL     1     131.640 131.880 147.698  1.00  0.00     0.208 A 
ATOM      3  C   UNL     1     132.793 132.277 147.002  1.00  0.00     0.238 A 
ATOM      4  O   UNL     1     133.630 131.398 146.669  1.00  0.00    -0.285 OA
ATOM      5  C   UNL     1     132.970 133.637 146.651  1.00  0.00     0.111 A 
ATOM      6  C   UNL     1     134.118 134.158 145.981  1.00  0.00     0.134 A 
ATOM      7  C   UNL     1     134.129 135.495 145.567  1.00  0.00     0.093 A 
ATOM      8  C   UNL     1     133.060 136.347 145.857  1.00  0.00     0.123 A 
ATOM      9  C   UNL     1     131.962 135.863 146.563  1.00  0.00     0.094 A 
ATOM     10  C   UNL     1     131.905 134.524 146.958  1.00  0.00     0.146 A 
ATOM     11  O   UNL     1     130.835 134.101 147.618  1.00  0.00    -0.452 OA
ENDROOT
BRANCH   1  12
ATOM     12  C   UNL     1     129.441 132.508 148.773  1.00  0.00     0.025 A 
ATOM     13  C   UNL     1     128.266 132.193 148.073  1.00  0.00     0.016 A 
ATOM     14  C   UNL     1     127.090 131.892 148.763  1.00  0.00     0.051 A 
ATOM     15  C   UNL     1     127.064 131.917 150.161  1.00  0.00     0.157 A 
ATOM     16  C   UNL     1     129.407 132.554 150.178  1.00  0.00     0.062 A 
ATOM     17  C   UNL     1     128.227 132.255 150.874  1.00  0.00     0.158 A 
BRANCH  15  18
ATOM     18  O   UNL     1     125.875 131.610 150.823  1.00  0.00    -0.504 OA
ATOM     19  H   UNL     1     125.112 131.128 150.362  1.00  0.00     0.293 HD
ENDBRANCH  15  18
BRANCH  17  20
ATOM     20  O   UNL     1     128.204 132.295 152.267  1.00  0.00    -0.504 OA
ATOM     21  H   UNL     1     128.772 132.954 152.787  1.00  0.00     0.293 HD
ENDBRANCH  17  20
ENDBRANCH   1  12
BRANCH   2  22
ATOM     22  O   UNL     1     131.434 130.539 148.035  1.00  0.00    -0.502 OA
ATOM     23  H   UNL     1     131.518 130.197 148.984  1.00  0.00     0.293 HD
ENDBRANCH   2  22
BRANCH   6  24
ATOM     24  O   UNL     1     135.275 133.416 145.724  1.00  0.00    -0.507 OA
ATOM     25  H   UNL     1     135.304 132.565 145.182  1.00  0.00     0.293 HD
ENDBRANCH   6  24
BRANCH   8  26
ATOM     26  O   UNL     1     133.085 137.681 145.456  1.00  0.00    -0.508 OA
ATOM     27  H   UNL     1     132.339 138.080 144.899  1.00  0.00     0.293 HD
ENDBRANCH   8  26
TORSDOF 6
ENDMDL
MODEL 7
REMARK VINA RESULT:    -5.974      1.812      6.973
REMARK INTER + INTRA:          -7.452
REMARK INTER:                  -7.296
REMARK INTRA:                  -0.156
REMARK UNBOUND:                -0.256
REMARK SMILES O=c1c(O)c(-c2ccc(O)c(O)c2)oc2cc(O)cc(O)c12
REMARK SMILES IDX 5 1 3 2 2 3 1 4 22 5 20 6 19 7 17 8 16 9 15 10 14 11 6 12
REMARK SMILES IDX 7 13 8 14 9 15 13 16 11 17 10 18 12 20 4 22 21 24 18 26
REMARK H PARENT 10 19 12 21 4 23 21 25 18 27
REMARK Flexibility Score: inf
ROOT
ATOM      1  C   UNL     1     127.982 128.104 142.653  1.00  0.00     0.180 A 
ATOM      2  C   UNL     1     127.165 129.056 143.286  1.00  0.00     0.208 A 
ATOM      3  C   UNL     1     127.649 129.720 144.425  1.00  0.00     0.238 A 
ATOM      4  O   UNL     1     126.892 130.531 145.020  1.00  0.00    -0.285 OA
ATOM      5  C   UNL     1     128.950 129.435 144.906  1.00  0.00     0.111 A 
ATOM      6  C   UNL     1     129.557 130.077 146.027  1.00  0.00     0.134 A 
ATOM      7  C   UNL     1     130.798 129.624 146.494  1.00  0.00     0.093 A 
ATOM      8  C   UNL     1     131.481 128.597 145.840  1.00  0.00     0.123 A 
ATOM      9  C   UNL     1     130.923 128.005 144.709  1.00  0.00     0.094 A 
ATOM     10  C   UNL     1     129.671 128.410 144.240  1.00  0.00     0.146 A 
ATOM     11  O   UNL     1     129.171 127.812 143.167  1.00  0.00    -0.452 OA
ENDROOT
BRANCH   1  12
ATOM     12  C   UNL     1     127.551 127.382 141.434  1.00  0.00     0.025 A 
ATOM     13  C   UNL     1     127.308 128.101 140.254  1.00  0.00     0.016 A 
ATOM     14  C   UNL     1     126.881 127.443 139.098  1.00  0.00     0.051 A 
ATOM     15  C   UNL     1     126.674 126.060 139.108  1.00  0.00     0.157 A 
ATOM     16  C   UNL     1     127.322 125.994 141.448  1.00  0.00     0.062 A 
ATOM     17  C   UNL     1     126.891 125.330 140.290  1.00  0.00     0.158 A 
BRANCH  15  18
ATOM     18  O   UNL     1     126.249 125.429 137.938  1.00  0.00    -0.504 OA
ATOM     19  H   UNL     1     126.329 124.427 137.809  1.00  0.00     0.293 HD
ENDBRANCH  15  18
BRANCH  17  20
ATOM     20  O   UNL     1     126.673 123.954 140.310  1.00  0.00    -0.504 OA
ATOM     21  H   UNL     1     125.902 123.547 140.827  1.00  0.00     0.293 HD
ENDBRANCH  17  20
ENDBRANCH   1  12
BRANCH   2  22
ATOM     22  O   UNL     1     125.875 129.305 142.808  1.00  0.00    -0.502 OA
ATOM     23  H   UNL     1     125.294 130.050 143.173  1.00  0.00     0.293 HD
ENDBRANCH   2  22
BRANCH   6  24
ATOM     24  O   UNL     1     129.001 131.172 146.695  1.00  0.00    -0.507 OA
ATOM     25  H   UNL     1     128.571 131.131 147.607  1.00  0.00     0.293 HD
ENDBRANCH   6  24
BRANCH   8  26
ATOM     26  O   UNL     1     132.722 128.163 146.301  1.00  0.00    -0.508 OA
ATOM     27  H   UNL     1     132.959 127.178 146.336  1.00  0.00     0.293 HD
ENDBRANCH   8  26
TORSDOF 6
ENDMDL
MODEL 8
REMARK VINA RESULT:    -5.933      5.707      8.624
REMARK INTER + INTRA:          -7.403
REMARK INTER:                  -7.101
REMARK INTRA:                  -0.302
REMARK UNBOUND:                -0.256
REMARK SMILES O=c1c(O)c(-c2ccc(O)c(O)c2)oc2cc(O)cc(O)c12
REMARK SMILES IDX 5 1 3 2 2 3 1 4 22 5 20 6 19 7 17 8 16 9 15 10 14 11 6 12
REMARK SMILES IDX 7 13 8 14 9 15 13 16 11 17 10 18 12 20 4 22 21 24 18 26
REMARK H PARENT 10 19 12 21 4 23 21 25 18 27
REMARK Flexibility Score: inf
ROOT
ATOM      1  C   UNL     1     132.325 133.361 147.103  1.00  0.00     0.180 A 
ATOM      2  C   UNL     1     132.920 132.091 147.005  1.00  0.00     0.208 A 
ATOM      3  C   UNL     1     132.105 130.974 146.760  1.00  0.00     0.238 A 
ATOM      4  O   UNL     1     132.637 129.834 146.728  1.00  0.00    -0.285 OA
ATOM      5  C   UNL     1     130.709 131.143 146.601  1.00  0.00     0.111 A 
ATOM      6  C   UNL     1     129.793 130.087 146.311  1.00  0.00     0.134 A 
ATOM      7  C   UNL     1     128.418 130.347 146.304  1.00  0.00     0.093 A 
ATOM      8  C   UNL     1     127.929 131.639 146.512  1.00  0.00     0.123 A 
ATOM      9  C   UNL     1     128.818 132.687 146.738  1.00  0.00     0.094 A 
ATOM     10  C   UNL     1     130.194 132.452 146.786  1.00  0.00     0.146 A 
ATOM     11  O   UNL     1     131.005 133.477 147.015  1.00  0.00    -0.452 OA
ENDROOT
BRANCH   1  12
ATOM     12  C   UNL     1     133.121 134.588 147.335  1.00  0.00     0.025 A 
ATOM     13  C   UNL     1     133.487 134.938 148.644  1.00  0.00     0.016 A 
ATOM     14  C   UNL     1     134.219 136.102 148.887  1.00  0.00     0.051 A 
ATOM     15  C   UNL     1     134.583 136.943 147.831  1.00  0.00     0.157 A 
ATOM     16  C   UNL     1     133.469 135.446 146.276  1.00  0.00     0.062 A 
ATOM     17  C   UNL     1     134.203 136.617 146.518  1.00  0.00     0.158 A 
BRANCH  15  18
ATOM     18  O   UNL     1     135.316 138.097 148.104  1.00  0.00    -0.504 OA
ATOM     19  H   UNL     1     135.118 138.980 147.649  1.00  0.00     0.293 HD
ENDBRANCH  15  18
BRANCH  17  20
ATOM     20  O   UNL     1     134.550 137.457 145.462  1.00  0.00    -0.504 OA
ATOM     21  H   UNL     1     134.976 138.362 145.623  1.00  0.00     0.293 HD
ENDBRANCH  17  20
ENDBRANCH   1  12
BRANCH   2  22
ATOM     22  O   UNL     1     134.298 131.945 147.188  1.00  0.00    -0.502 OA
ATOM     23  H   UNL     1     134.705 131.705 148.084  1.00  0.00     0.293 HD
ENDBRANCH   2  22
BRANCH   6  24
ATOM     24  O   UNL     1     130.183 128.780 145.997  1.00  0.00    -0.507 OA
ATOM     25  H   UNL     1     129.827 127.951 146.448  1.00  0.00     0.293 HD
ENDBRANCH   6  24
BRANCH   8  26
ATOM     26  O   UNL     1     126.559 131.893 146.489  1.00  0.00    -0.508 OA
ATOM     27  H   UNL     1     125.924 131.435 147.132  1.00  0.00     0.293 HD
ENDBRANCH   8  26
TORSDOF 6
ENDMDL
MODEL 9
REMARK VINA RESULT:    -5.919      3.832      9.579
REMARK INTER + INTRA:          -7.386
REMARK INTER:                  -7.079
REMARK INTRA:                  -0.306
REMARK UNBOUND:                -0.256
REMARK SMILES O=c1c(O)c(-c2ccc(O)c(O)c2)oc2cc(O)cc(O)c12
REMARK SMILES IDX 5 1 3 2 2 3 1 4 22 5 20 6 19 7 17 8 16 9 15 10 14 11 6 12
REMARK SMILES IDX 7 13 8 14 9 15 13 16 11 17 10 18 12 20 4 22 21 24 18 26
REMARK H PARENT 10 19 12 21 4 23 21 25 18 27
REMARK Flexibility Score: inf
ROOT
ATOM      1  C   UNL     1     129.301 132.587 146.926  1.00  0.00     0.180 A 
ATOM      2  C   UNL     1     129.035 132.438 148.298  1.00  0.00     0.208 A 
ATOM      3  C   UNL     1     129.739 133.232 149.218  1.00  0.00     0.238 A 
ATOM      4  O   UNL     1     129.536 133.055 150.448  1.00  0.00    -0.285 OA
ATOM      5  C   UNL     1     130.687 134.175 148.754  1.00  0.00     0.111 A 
ATOM      6  C   UNL     1     131.429 135.059 149.595  1.00  0.00     0.134 A 
ATOM      7  C   UNL     1     132.434 135.859 149.039  1.00  0.00     0.093 A 
ATOM      8  C   UNL     1     132.680 135.855 147.664  1.00  0.00     0.123 A 
ATOM      9  C   UNL     1     131.921 135.040 146.828  1.00  0.00     0.094 A 
ATOM     10  C   UNL     1     130.935 134.203 147.357  1.00  0.00     0.146 A 
ATOM     11  O   UNL     1     130.243 133.434 146.527  1.00  0.00    -0.452 OA
ENDROOT
BRANCH   1  12
ATOM     12  C   UNL     1     128.582 131.805 145.895  1.00  0.00     0.025 A 
ATOM     13  C   UNL     1     127.308 132.219 145.476  1.00  0.00     0.016 A 
ATOM     14  C   UNL     1     126.603 131.484 144.520  1.00  0.00     0.051 A 
ATOM     15  C   UNL     1     127.152 130.317 143.979  1.00  0.00     0.157 A 
ATOM     16  C   UNL     1     129.123 130.619 145.365  1.00  0.00     0.062 A 
ATOM     17  C   UNL     1     128.417 129.878 144.406  1.00  0.00     0.158 A 
BRANCH  15  18
ATOM     18  O   UNL     1     126.426 129.605 143.024  1.00  0.00    -0.504 OA
ATOM     19  H   UNL     1     125.708 128.938 143.282  1.00  0.00     0.293 HD
ENDBRANCH  15  18
BRANCH  17  20
ATOM     20  O   UNL     1     128.964 128.709 143.882  1.00  0.00    -0.504 OA
ATOM     21  H   UNL     1     129.301 128.662 142.928  1.00  0.00     0.293 HD
ENDBRANCH  17  20
ENDBRANCH   1  12
BRANCH   2  22
ATOM     22  O   UNL     1     128.111 131.485 148.736  1.00  0.00    -0.502 OA
ATOM     23  H   UNL     1     128.374 130.703 149.323  1.00  0.00     0.293 HD
ENDBRANCH   2  22
BRANCH   6  24
ATOM     24  O   UNL     1     131.199 135.207 150.966  1.00  0.00    -0.507 OA
ATOM     25  H   UNL     1     130.303 135.419 151.379  1.00  0.00     0.293 HD
ENDBRANCH   6  24
BRANCH   8  26
ATOM     26  O   UNL     1     133.672 136.666 147.117  1.00  0.00    -0.508 OA
ATOM     27  H   UNL     1     134.221 137.294 147.693  1.00  0.00     0.293 HD
ENDBRANCH   8  26
TORSDOF 6
ENDMDL
