MODEL 1
REMARK VINA RESULT:    -4.124      0.000      0.000
REMARK INTER + INTRA:          -9.706
REMARK INTER:                  -7.741
REMARK INTRA:                  -1.965
REMARK UNBOUND:                -1.965
REMARK SMILES CCCCCCCCC=CCCCCCCCC(=O)[O-]
REMARK SMILES IDX 10 1 9 2 11 3 12 4 13 5 14 6 15 7 16 8 17 9 18 10 19 11
REMARK SMILES IDX 20 12 8 13 7 14 6 15 5 16 4 17 3 18 2 19 1 20
REMARK H PARENT
REMARK Flexibility Score: inf
ROOT
ATOM      1  C   UNL     1      -7.803   7.586  -8.699  1.00  0.00    -0.031 C 
ATOM      2  C   UNL     1      -8.124   7.398  -9.993  1.00  0.00    -0.031 C 
ENDROOT
BRANCH   1   3
ATOM      3  C   UNL     1      -6.651   8.432  -8.205  1.00  0.00     0.027 C 
BRANCH   3   4
ATOM      4  C   UNL     1      -5.625   7.589  -7.438  1.00  0.00     0.004 C 
BRANCH   4   5
ATOM      5  C   UNL     1      -4.521   7.041  -8.359  1.00  0.00     0.000 C 
BRANCH   5   6
ATOM      6  C   UNL     1      -4.662   5.533  -8.616  1.00  0.00     0.000 C 
BRANCH   6   7
ATOM      7  C   UNL     1      -5.526   4.830  -7.555  1.00  0.00     0.000 C 
BRANCH   7   8
ATOM      8  C   UNL     1      -4.693   4.265  -6.390  1.00  0.00     0.006 C 
BRANCH   8   9
ATOM      9  C   UNL     1      -5.137   4.754  -5.002  1.00  0.00     0.053 C 
BRANCH   9  10
ATOM     10  C   UNL     1      -5.780   3.663  -4.202  1.00  0.00     0.041 C 
ATOM     11  O   UNL     1      -5.118   2.645  -3.872  1.00  0.00    -0.550 OA
ATOM     12  O   UNL     1      -7.122   3.756  -3.850  1.00  0.00    -0.550 OA
ENDBRANCH   9  10
ENDBRANCH   8   9
ENDBRANCH   7   8
ENDBRANCH   6   7
ENDBRANCH   5   6
ENDBRANCH   4   5
ENDBRANCH   3   4
ENDBRANCH   1   3
BRANCH   2  13
ATOM     13  C   UNL     1      -7.358   7.969 -11.157  1.00  0.00     0.027 C 
BRANCH  13  14
ATOM     14  C   UNL     1      -6.383   6.933 -11.735  1.00  0.00     0.004 C 
BRANCH  14  15
ATOM     15  C   UNL     1      -6.918   5.497 -11.625  1.00  0.00     0.000 C 
BRANCH  15  16
ATOM     16  C   UNL     1      -7.354   4.930 -12.988  1.00  0.00     0.000 C 
BRANCH  16  17
ATOM     17  C   UNL     1      -6.499   5.459 -14.153  1.00  0.00    -0.000 C 
BRANCH  17  18
ATOM     18  C   UNL     1      -5.430   4.480 -14.673  1.00  0.00    -0.000 C 
BRANCH  18  19
ATOM     19  C   UNL     1      -5.381   3.144 -13.904  1.00  0.00    -0.003 C 
ATOM     20  C   UNL     1      -4.064   2.396 -14.114  1.00  0.00     0.004 C 
ENDBRANCH  18  19
ENDBRANCH  17  18
ENDBRANCH  16  17
ENDBRANCH  15  16
ENDBRANCH  14  15
ENDBRANCH  13  14
ENDBRANCH   2  13
TORSDOF 15
ENDMDL
MODEL 2
REMARK VINA RESULT:    -4.027      1.453      2.302
REMARK INTER + INTRA:          -9.524
REMARK INTER:                  -8.282
REMARK INTRA:                  -1.242
REMARK UNBOUND:                -1.965
REMARK SMILES CCCCCCCCC=CCCCCCCCC(=O)[O-]
REMARK SMILES IDX 10 1 9 2 11 3 12 4 13 5 14 6 15 7 16 8 17 9 18 10 19 11
REMARK SMILES IDX 20 12 8 13 7 14 6 15 5 16 4 17 3 18 2 19 1 20
REMARK H PARENT
REMARK Flexibility Score: inf
ROOT
ATOM      1  C   UNL     1      -4.438   5.905  -8.838  1.00  0.00    -0.031 C 
ATOM      2  C   UNL     1      -5.139   5.442  -9.890  1.00  0.00    -0.031 C 
ENDROOT
BRANCH   1   3
ATOM      3  C   UNL     1      -4.357   7.354  -8.418  1.00  0.00     0.027 C 
BRANCH   3   4
ATOM      4  C   UNL     1      -5.553   7.753  -7.544  1.00  0.00     0.004 C 
BRANCH   4   5
ATOM      5  C   UNL     1      -5.823   6.727  -6.430  1.00  0.00     0.000 C 
BRANCH   5   6
ATOM      6  C   UNL     1      -5.179   7.127  -5.093  1.00  0.00     0.000 C 
BRANCH   6   7
ATOM      7  C   UNL     1      -5.438   6.096  -3.980  1.00  0.00     0.000 C 
BRANCH   7   8
ATOM      8  C   UNL     1      -6.777   5.356  -4.156  1.00  0.00     0.006 C 
BRANCH   8   9
ATOM      9  C   UNL     1      -6.745   3.883  -3.716  1.00  0.00     0.053 C 
BRANCH   9  10
ATOM     10  C   UNL     1      -5.507   3.183  -4.185  1.00  0.00     0.041 C 
ATOM     11  O   UNL     1      -5.165   3.243  -5.395  1.00  0.00    -0.550 OA
ATOM     12  O   UNL     1      -4.749   2.435  -3.292  1.00  0.00    -0.550 OA
ENDBRANCH   9  10
ENDBRANCH   8   9
ENDBRANCH   7   8
ENDBRANCH   6   7
ENDBRANCH   5   6
ENDBRANCH   4   5
ENDBRANCH   3   4
ENDBRANCH   1   3
BRANCH   2  13
ATOM     13  C   UNL     1      -5.922   6.308 -10.843  1.00  0.00     0.027 C 
BRANCH  13  14
ATOM     14  C   UNL     1      -7.403   5.898 -10.868  1.00  0.00     0.004 C 
BRANCH  14  15
ATOM     15  C   UNL     1      -7.819   5.281 -12.212  1.00  0.00     0.000 C 
BRANCH  15  16
ATOM     16  C   UNL     1      -7.012   5.852 -13.391  1.00  0.00     0.000 C 
BRANCH  16  17
ATOM     17  C   UNL     1      -6.907   4.871 -14.572  1.00  0.00    -0.000 C 
BRANCH  17  18
ATOM     18  C   UNL     1      -5.493   4.321 -14.838  1.00  0.00    -0.000 C 
BRANCH  18  19
ATOM     19  C   UNL     1      -4.925   3.476 -13.679  1.00  0.00    -0.003 C 
ATOM     20  C   UNL     1      -4.033   2.336 -14.170  1.00  0.00     0.004 C 
ENDBRANCH  18  19
ENDBRANCH  17  18
ENDBRANCH  16  17
ENDBRANCH  15  16
ENDBRANCH  14  15
ENDBRANCH  13  14
ENDBRANCH   2  13
TORSDOF 15
ENDMDL
MODEL 3
REMARK VINA RESULT:    -3.989      1.441      3.699
REMARK INTER + INTRA:          -9.453
REMARK INTER:                  -7.470
REMARK INTRA:                  -1.982
REMARK UNBOUND:                -1.965
REMARK SMILES CCCCCCCCC=CCCCCCCCC(=O)[O-]
REMARK SMILES IDX 10 1 9 2 11 3 12 4 13 5 14 6 15 7 16 8 17 9 18 10 19 11
REMARK SMILES IDX 20 12 8 13 7 14 6 15 5 16 4 17 3 18 2 19 1 20
REMARK H PARENT
REMARK Flexibility Score: inf
ROOT
ATOM      1  C   UNL     1      -4.739   5.065  -8.495  1.00  0.00    -0.031 C 
ATOM      2  C   UNL     1      -4.356   6.336  -8.723  1.00  0.00    -0.031 C 
ENDROOT
BRANCH   1   3
ATOM      3  C   UNL     1      -5.610   4.613  -7.346  1.00  0.00     0.027 C 
BRANCH   3   4
ATOM      4  C   UNL     1      -4.770   4.049  -6.194  1.00  0.00     0.004 C 
BRANCH   4   5
ATOM      5  C   UNL     1      -4.726   5.003  -4.987  1.00  0.00     0.000 C 
BRANCH   5   6
ATOM      6  C   UNL     1      -6.098   5.621  -4.675  1.00  0.00     0.000 C 
BRANCH   6   7
ATOM      7  C   UNL     1      -6.227   6.064  -3.207  1.00  0.00     0.000 C 
BRANCH   7   8
ATOM      8  C   UNL     1      -6.956   5.024  -2.335  1.00  0.00     0.006 C 
BRANCH   8   9
ATOM      9  C   UNL     1      -7.716   3.954  -3.134  1.00  0.00     0.053 C 
BRANCH   9  10
ATOM     10  C   UNL     1      -7.188   2.576  -2.872  1.00  0.00     0.041 C 
ATOM     11  O   UNL     1      -7.953   1.678  -2.432  1.00  0.00    -0.550 OA
ATOM     12  O   UNL     1      -5.844   2.294  -3.081  1.00  0.00    -0.550 OA
ENDBRANCH   9  10
ENDBRANCH   8   9
ENDBRANCH   7   8
ENDBRANCH   6   7
ENDBRANCH   5   6
ENDBRANCH   4   5
ENDBRANCH   3   4
ENDBRANCH   1   3
BRANCH   2  13
ATOM     13  C   UNL     1      -4.705   7.506  -7.840  1.00  0.00     0.027 C 
BRANCH  13  14
ATOM     14  C   UNL     1      -6.131   8.002  -8.122  1.00  0.00     0.004 C 
BRANCH  14  15
ATOM     15  C   UNL     1      -6.417   8.142  -9.625  1.00  0.00     0.000 C 
BRANCH  15  16
ATOM     16  C   UNL     1      -7.797   7.579 -10.011  1.00  0.00     0.000 C 
BRANCH  16  17
ATOM     17  C   UNL     1      -7.724   6.134 -10.535  1.00  0.00    -0.000 C 
BRANCH  17  18
ATOM     18  C   UNL     1      -6.682   5.895 -11.643  1.00  0.00    -0.000 C 
BRANCH  18  19
ATOM     19  C   UNL     1      -7.112   4.846 -12.690  1.00  0.00    -0.003 C 
ATOM     20  C   UNL     1      -5.922   4.241 -13.434  1.00  0.00     0.004 C 
ENDBRANCH  18  19
ENDBRANCH  17  18
ENDBRANCH  16  17
ENDBRANCH  15  16
ENDBRANCH  14  15
ENDBRANCH  13  14
ENDBRANCH   2  13
TORSDOF 15
ENDMDL
MODEL 4
REMARK VINA RESULT:    -3.944      3.436      7.835
REMARK INTER + INTRA:          -9.368
REMARK INTER:                  -7.579
REMARK INTRA:                  -1.789
REMARK UNBOUND:                -1.965
REMARK SMILES CCCCCCCCC=CCCCCCCCC(=O)[O-]
REMARK SMILES IDX 10 1 9 2 11 3 12 4 13 5 14 6 15 7 16 8 17 9 18 10 19 11
REMARK SMILES IDX 20 12 8 13 7 14 6 15 5 16 4 17 3 18 2 19 1 20
REMARK H PARENT
REMARK Flexibility Score: inf
ROOT
ATOM      1  C   UNL     1      -4.389   5.965  -9.022  1.00  0.00    -0.031 C 
ATOM      2  C   UNL     1      -4.785   4.911  -8.284  1.00  0.00    -0.031 C 
ENDROOT
BRANCH   1   3
ATOM      3  C   UNL     1      -4.585   7.415  -8.641  1.00  0.00     0.027 C 
BRANCH   3   4
ATOM      4  C   UNL     1      -5.298   8.195  -9.753  1.00  0.00     0.004 C 
BRANCH   4   5
ATOM      5  C   UNL     1      -6.766   8.492  -9.401  1.00  0.00     0.000 C 
BRANCH   5   6
ATOM      6  C   UNL     1      -7.751   7.845 -10.387  1.00  0.00     0.000 C 
BRANCH   6   7
ATOM      7  C   UNL     1      -7.861   6.321 -10.200  1.00  0.00     0.000 C 
BRANCH   7   8
ATOM      8  C   UNL     1      -7.870   5.558 -11.538  1.00  0.00     0.006 C 
BRANCH   8   9
ATOM      9  C   UNL     1      -6.502   5.492 -12.234  1.00  0.00     0.053 C 
BRANCH   9  10
ATOM     10  C   UNL     1      -6.437   4.384 -13.241  1.00  0.00     0.041 C 
ATOM     11  O   UNL     1      -5.324   3.903 -13.582  1.00  0.00    -0.550 OA
ATOM     12  O   UNL     1      -7.602   3.907 -13.828  1.00  0.00    -0.550 OA
ENDBRANCH   9  10
ENDBRANCH   8   9
ENDBRANCH   7   8
ENDBRANCH   6   7
ENDBRANCH   5   6
ENDBRANCH   4   5
ENDBRANCH   3   4
ENDBRANCH   1   3
BRANCH   2  13
ATOM     13  C   UNL     1      -5.527   5.013  -6.976  1.00  0.00     0.027 C 
BRANCH  13  14
ATOM     14  C   UNL     1      -5.188   3.828  -6.059  1.00  0.00     0.004 C 
BRANCH  14  15
ATOM     15  C   UNL     1      -4.849   4.273  -4.627  1.00  0.00     0.000 C 
BRANCH  15  16
ATOM     16  C   UNL     1      -5.092   5.777  -4.411  1.00  0.00     0.000 C 
BRANCH  16  17
ATOM     17  C   UNL     1      -6.156   6.060  -3.336  1.00  0.00    -0.000 C 
BRANCH  17  18
ATOM     18  C   UNL     1      -7.215   4.955  -3.162  1.00  0.00    -0.000 C 
BRANCH  18  19
ATOM     19  C   UNL     1      -7.114   4.200  -1.820  1.00  0.00    -0.003 C 
ATOM     20  C   UNL     1      -7.428   2.711  -1.963  1.00  0.00     0.004 C 
ENDBRANCH  18  19
ENDBRANCH  17  18
ENDBRANCH  16  17
ENDBRANCH  15  16
ENDBRANCH  14  15
ENDBRANCH  13  14
ENDBRANCH   2  13
TORSDOF 15
ENDMDL
MODEL 5
REMARK VINA RESULT:    -3.856      3.596      7.456
REMARK INTER + INTRA:          -9.202
REMARK INTER:                  -7.132
REMARK INTRA:                  -2.070
REMARK UNBOUND:                -1.965
REMARK SMILES CCCCCCCCC=CCCCCCCCC(=O)[O-]
REMARK SMILES IDX 10 1 9 2 11 3 12 4 13 5 14 6 15 7 16 8 17 9 18 10 19 11
REMARK SMILES IDX 20 12 8 13 7 14 6 15 5 16 4 17 3 18 2 19 1 20
REMARK H PARENT
REMARK Flexibility Score: inf
ROOT
ATOM      1  C   UNL     1      -4.467   7.293  -7.731  1.00  0.00    -0.031 C 
ATOM      2  C   UNL     1      -5.371   7.647  -6.798  1.00  0.00    -0.031 C 
ENDROOT
BRANCH   1   3
ATOM      3  C   UNL     1      -4.745   7.185  -9.213  1.00  0.00     0.027 C 
BRANCH   3   4
ATOM      4  C   UNL     1      -5.219   5.776  -9.592  1.00  0.00     0.004 C 
BRANCH   4   5
ATOM      5  C   UNL     1      -6.602   5.793 -10.266  1.00  0.00     0.000 C 
BRANCH   5   6
ATOM      6  C   UNL     1      -6.807   7.025 -11.161  1.00  0.00     0.000 C 
BRANCH   6   7
ATOM      7  C   UNL     1      -6.676   6.697 -12.658  1.00  0.00     0.000 C 
BRANCH   7   8
ATOM      8  C   UNL     1      -6.632   5.183 -12.933  1.00  0.00     0.006 C 
BRANCH   8   9
ATOM      9  C   UNL     1      -5.866   4.796 -14.209  1.00  0.00     0.053 C 
BRANCH   9  10
ATOM     10  C   UNL     1      -5.429   3.364 -14.189  1.00  0.00     0.041 C 
ATOM     11  O   UNL     1      -6.227   2.452 -14.533  1.00  0.00    -0.550 OA
ATOM     12  O   UNL     1      -4.150   3.031 -13.757  1.00  0.00    -0.550 OA
ENDBRANCH   9  10
ENDBRANCH   8   9
ENDBRANCH   7   8
ENDBRANCH   6   7
ENDBRANCH   5   6
ENDBRANCH   4   5
ENDBRANCH   3   4
ENDBRANCH   1   3
BRANCH   2  13
ATOM     13  C   UNL     1      -6.819   7.950  -7.082  1.00  0.00     0.027 C 
BRANCH  13  14
ATOM     14  C   UNL     1      -7.733   6.862  -6.500  1.00  0.00     0.004 C 
BRANCH  14  15
ATOM     15  C   UNL     1      -8.075   7.110  -5.023  1.00  0.00     0.000 C 
BRANCH  15  16
ATOM     16  C   UNL     1      -8.029   5.818  -4.188  1.00  0.00     0.000 C 
BRANCH  16  17
ATOM     17  C   UNL     1      -6.788   5.738  -3.282  1.00  0.00    -0.000 C 
BRANCH  17  18
ATOM     18  C   UNL     1      -5.478   5.369  -4.005  1.00  0.00    -0.000 C 
BRANCH  18  19
ATOM     19  C   UNL     1      -5.500   3.975  -4.664  1.00  0.00    -0.003 C 
ATOM     20  C   UNL     1      -5.124   4.022  -6.145  1.00  0.00     0.004 C 
ENDBRANCH  18  19
ENDBRANCH  17  18
ENDBRANCH  16  17
ENDBRANCH  15  16
ENDBRANCH  14  15
ENDBRANCH  13  14
ENDBRANCH   2  13
TORSDOF 15
ENDMDL
MODEL 6
REMARK VINA RESULT:    -3.849      1.573      2.235
REMARK INTER + INTRA:          -9.190
REMARK INTER:                  -7.767
REMARK INTRA:                  -1.422
REMARK UNBOUND:                -1.965
REMARK SMILES CCCCCCCCC=CCCCCCCCC(=O)[O-]
REMARK SMILES IDX 10 1 9 2 11 3 12 4 13 5 14 6 15 7 16 8 17 9 18 10 19 11
REMARK SMILES IDX 20 12 8 13 7 14 6 15 5 16 4 17 3 18 2 19 1 20
REMARK H PARENT
REMARK Flexibility Score: inf
ROOT
ATOM      1  C   UNL     1      -5.339   8.027 -10.514  1.00  0.00    -0.031 C 
ATOM      2  C   UNL     1      -5.837   8.718 -11.557  1.00  0.00    -0.031 C 
ENDROOT
BRANCH   1   3
ATOM      3  C   UNL     1      -5.569   6.555 -10.258  1.00  0.00     0.027 C 
BRANCH   3   4
ATOM      4  C   UNL     1      -4.729   6.054  -9.077  1.00  0.00     0.004 C 
BRANCH   4   5
ATOM      5  C   UNL     1      -4.565   7.128  -7.987  1.00  0.00     0.000 C 
BRANCH   5   6
ATOM      6  C   UNL     1      -5.584   6.973  -6.848  1.00  0.00     0.000 C 
BRANCH   6   7
ATOM      7  C   UNL     1      -4.984   7.296  -5.469  1.00  0.00     0.000 C 
BRANCH   7   8
ATOM      8  C   UNL     1      -5.419   6.295  -4.383  1.00  0.00     0.006 C 
BRANCH   8   9
ATOM      9  C   UNL     1      -6.095   5.027  -4.929  1.00  0.00     0.053 C 
BRANCH   9  10
ATOM     10  C   UNL     1      -5.158   3.859  -4.957  1.00  0.00     0.041 C 
ATOM     11  O   UNL     1      -5.350   2.875  -4.194  1.00  0.00    -0.550 OA
ATOM     12  O   UNL     1      -4.054   3.871  -5.800  1.00  0.00    -0.550 OA
ENDBRANCH   9  10
ENDBRANCH   8   9
ENDBRANCH   7   8
ENDBRANCH   6   7
ENDBRANCH   5   6
ENDBRANCH   4   5
ENDBRANCH   3   4
ENDBRANCH   1   3
BRANCH   2  13
ATOM     13  C   UNL     1      -6.740   8.138 -12.615  1.00  0.00     0.027 C 
BRANCH  13  14
ATOM     14  C   UNL     1      -5.952   7.817 -13.894  1.00  0.00     0.004 C 
BRANCH  14  15
ATOM     15  C   UNL     1      -6.365   6.474 -14.516  1.00  0.00     0.000 C 
BRANCH  15  16
ATOM     16  C   UNL     1      -7.100   5.567 -13.513  1.00  0.00     0.000 C 
BRANCH  16  17
ATOM     17  C   UNL     1      -6.364   4.240 -13.259  1.00  0.00    -0.000 C 
BRANCH  17  18
ATOM     18  C   UNL     1      -6.465   3.211 -14.401  1.00  0.00    -0.000 C 
BRANCH  18  19
ATOM     19  C   UNL     1      -5.113   2.886 -15.070  1.00  0.00    -0.003 C 
ATOM     20  C   UNL     1      -4.003   2.633 -14.050  1.00  0.00     0.004 C 
ENDBRANCH  18  19
ENDBRANCH  17  18
ENDBRANCH  16  17
ENDBRANCH  15  16
ENDBRANCH  14  15
ENDBRANCH  13  14
ENDBRANCH   2  13
TORSDOF 15
ENDMDL
MODEL 7
REMARK VINA RESULT:    -3.819     11.319     13.515
REMARK INTER + INTRA:          -9.133
REMARK INTER:                  -7.697
REMARK INTRA:                  -1.436
REMARK UNBOUND:                -1.965
REMARK SMILES CCCCCCCCC=CCCCCCCCC(=O)[O-]
REMARK SMILES IDX 10 1 9 2 11 3 12 4 13 5 14 6 15 7 16 8 17 9 18 10 19 11
REMARK SMILES IDX 20 12 8 13 7 14 6 15 5 16 4 17 3 18 2 19 1 20
REMARK H PARENT
REMARK Flexibility Score: inf
ROOT
ATOM      1  C   UNL     1      -5.884  -8.448  -8.700  1.00  0.00    -0.031 C 
ATOM      2  C   UNL     1      -6.027  -7.362  -9.484  1.00  0.00    -0.031 C 
ENDROOT
BRANCH   1   3
ATOM      3  C   UNL     1      -7.017  -9.317  -8.205  1.00  0.00     0.027 C 
BRANCH   3   4
ATOM      4  C   UNL     1      -7.124  -9.281  -6.676  1.00  0.00     0.004 C 
BRANCH   4   5
ATOM      5  C   UNL     1      -6.145 -10.259  -6.004  1.00  0.00     0.000 C 
BRANCH   5   6
ATOM      6  C   UNL     1      -6.107 -10.099  -4.476  1.00  0.00     0.000 C 
BRANCH   6   7
ATOM      7  C   UNL     1      -5.858  -8.645  -4.039  1.00  0.00     0.000 C 
BRANCH   7   8
ATOM      8  C   UNL     1      -5.257  -8.545  -2.625  1.00  0.00     0.006 C 
BRANCH   8   9
ATOM      9  C   UNL     1      -5.307  -7.134  -2.017  1.00  0.00     0.053 C 
BRANCH   9  10
ATOM     10  C   UNL     1      -3.943  -6.618  -1.679  1.00  0.00     0.041 C 
ATOM     11  O   UNL     1      -3.812  -5.519  -1.078  1.00  0.00    -0.550 OA
ATOM     12  O   UNL     1      -2.813  -7.334  -2.058  1.00  0.00    -0.550 OA
ENDBRANCH   9  10
ENDBRANCH   8   9
ENDBRANCH   7   8
ENDBRANCH   6   7
ENDBRANCH   5   6
ENDBRANCH   4   5
ENDBRANCH   3   4
ENDBRANCH   1   3
BRANCH   2  13
ATOM     13  C   UNL     1      -7.349  -6.817  -9.957  1.00  0.00     0.027 C 
BRANCH  13  14
ATOM     14  C   UNL     1      -7.194  -5.385 -10.491  1.00  0.00     0.004 C 
BRANCH  14  15
ATOM     15  C   UNL     1      -5.946  -5.218 -11.371  1.00  0.00     0.000 C 
BRANCH  15  16
ATOM     16  C   UNL     1      -6.280  -5.265 -12.873  1.00  0.00     0.000 C 
BRANCH  16  17
ATOM     17  C   UNL     1      -5.488  -6.348 -13.626  1.00  0.00    -0.000 C 
BRANCH  17  18
ATOM     18  C   UNL     1      -5.842  -7.798 -13.243  1.00  0.00    -0.000 C 
BRANCH  18  19
ATOM     19  C   UNL     1      -4.655  -8.599 -12.668  1.00  0.00    -0.003 C 
ATOM     20  C   UNL     1      -3.310  -7.927 -12.942  1.00  0.00     0.004 C 
ENDBRANCH  18  19
ENDBRANCH  17  18
ENDBRANCH  16  17
ENDBRANCH  15  16
ENDBRANCH  14  15
ENDBRANCH  13  14
ENDBRANCH   2  13
TORSDOF 15
ENDMDL
MODEL 8
REMARK VINA RESULT:    -3.815      1.763      2.943
REMARK INTER + INTRA:          -9.125
REMARK INTER:                  -6.879
REMARK INTRA:                  -2.246
REMARK UNBOUND:                -1.965
REMARK SMILES CCCCCCCCC=CCCCCCCCC(=O)[O-]
REMARK SMILES IDX 10 1 9 2 11 3 12 4 13 5 14 6 15 7 16 8 17 9 18 10 19 11
REMARK SMILES IDX 20 12 8 13 7 14 6 15 5 16 4 17 3 18 2 19 1 20
REMARK H PARENT
REMARK Flexibility Score: inf
ROOT
ATOM      1  C   UNL     1      -4.712   5.743  -8.961  1.00  0.00    -0.031 C 
ATOM      2  C   UNL     1      -5.466   6.107 -10.016  1.00  0.00    -0.031 C 
ENDROOT
BRANCH   1   3
ATOM      3  C   UNL     1      -5.119   5.887  -7.512  1.00  0.00     0.027 C 
BRANCH   3   4
ATOM      4  C   UNL     1      -4.803   7.289  -6.978  1.00  0.00     0.004 C 
BRANCH   4   5
ATOM      5  C   UNL     1      -6.002   7.910  -6.239  1.00  0.00     0.000 C 
BRANCH   5   6
ATOM      6  C   UNL     1      -7.170   6.925  -6.080  1.00  0.00     0.000 C 
BRANCH   6   7
ATOM      7  C   UNL     1      -7.465   6.590  -4.607  1.00  0.00     0.000 C 
BRANCH   7   8
ATOM      8  C   UNL     1      -7.082   5.144  -4.240  1.00  0.00     0.006 C 
BRANCH   8   9
ATOM      9  C   UNL     1      -5.575   4.926  -4.031  1.00  0.00     0.053 C 
BRANCH   9  10
ATOM     10  C   UNL     1      -5.166   3.514  -4.322  1.00  0.00     0.041 C 
ATOM     11  O   UNL     1      -4.813   3.183  -5.485  1.00  0.00    -0.550 OA
ATOM     12  O   UNL     1      -5.208   2.555  -3.317  1.00  0.00    -0.550 OA
ENDBRANCH   9  10
ENDBRANCH   8   9
ENDBRANCH   7   8
ENDBRANCH   6   7
ENDBRANCH   5   6
ENDBRANCH   4   5
ENDBRANCH   3   4
ENDBRANCH   1   3
BRANCH   2  13
ATOM     13  C   UNL     1      -6.822   6.755  -9.915  1.00  0.00     0.027 C 
BRANCH  13  14
ATOM     14  C   UNL     1      -6.703   8.286  -9.943  1.00  0.00     0.004 C 
BRANCH  14  15
ATOM     15  C   UNL     1      -5.853   8.788 -11.121  1.00  0.00     0.000 C 
BRANCH  15  16
ATOM     16  C   UNL     1      -6.653   8.847 -12.434  1.00  0.00     0.000 C 
BRANCH  16  17
ATOM     17  C   UNL     1      -6.054   7.957 -13.537  1.00  0.00    -0.000 C 
BRANCH  17  18
ATOM     18  C   UNL     1      -6.995   6.860 -14.070  1.00  0.00    -0.000 C 
BRANCH  18  19
ATOM     19  C   UNL     1      -6.732   5.465 -13.466  1.00  0.00    -0.003 C 
ATOM     20  C   UNL     1      -7.988   4.848 -12.851  1.00  0.00     0.004 C 
ENDBRANCH  18  19
ENDBRANCH  17  18
ENDBRANCH  16  17
ENDBRANCH  15  16
ENDBRANCH  14  15
ENDBRANCH  13  14
ENDBRANCH   2  13
TORSDOF 15
ENDMDL
MODEL 9
REMARK VINA RESULT:    -3.786     12.694     16.189
REMARK INTER + INTRA:          -9.071
REMARK INTER:                  -8.178
REMARK INTRA:                  -0.893
REMARK UNBOUND:                -1.965
REMARK SMILES CCCCCCCCC=CCCCCCCCC(=O)[O-]
REMARK SMILES IDX 10 1 9 2 11 3 12 4 13 5 14 6 15 7 16 8 17 9 18 10 19 11
REMARK SMILES IDX 20 12 8 13 7 14 6 15 5 16 4 17 3 18 2 19 1 20
REMARK H PARENT
REMARK Flexibility Score: inf
ROOT
ATOM      1  C   UNL     1      -5.885  -7.763  -3.382  1.00  0.00    -0.031 C 
ATOM      2  C   UNL     1      -5.107  -6.969  -2.623  1.00  0.00    -0.031 C 
ENDROOT
BRANCH   1   3
ATOM      3  C   UNL     1      -5.754  -9.266  -3.484  1.00  0.00     0.027 C 
BRANCH   3   4
ATOM      4  C   UNL     1      -6.727  -9.844  -4.519  1.00  0.00     0.004 C 
BRANCH   4   5
ATOM      5  C   UNL     1      -6.573  -9.173  -5.895  1.00  0.00     0.000 C 
BRANCH   5   6
ATOM      6  C   UNL     1      -7.007 -10.090  -7.050  1.00  0.00     0.000 C 
BRANCH   6   7
ATOM      7  C   UNL     1      -7.118  -9.342  -8.390  1.00  0.00     0.000 C 
BRANCH   7   8
ATOM      8  C   UNL     1      -6.176  -8.126  -8.471  1.00  0.00     0.006 C 
BRANCH   8   9
ATOM      9  C   UNL     1      -5.354  -8.052  -9.768  1.00  0.00     0.053 C 
BRANCH   9  10
ATOM     10  C   UNL     1      -5.824  -6.951 -10.668  1.00  0.00     0.041 C 
ATOM     11  O   UNL     1      -6.978  -6.467 -10.528  1.00  0.00    -0.550 OA
ATOM     12  O   UNL     1      -5.001  -6.483 -11.685  1.00  0.00    -0.550 OA
ENDBRANCH   9  10
ENDBRANCH   8   9
ENDBRANCH   7   8
ENDBRANCH   6   7
ENDBRANCH   5   6
ENDBRANCH   4   5
ENDBRANCH   3   4
ENDBRANCH   1   3
BRANCH   2  13
ATOM     13  C   UNL     1      -3.951  -7.452  -1.785  1.00  0.00     0.027 C 
BRANCH  13  14
ATOM     14  C   UNL     1      -4.431  -7.920  -0.403  1.00  0.00     0.004 C 
BRANCH  14  15
ATOM     15  C   UNL     1      -4.085  -6.918   0.709  1.00  0.00     0.000 C 
BRANCH  15  16
ATOM     16  C   UNL     1      -3.102  -5.834   0.233  1.00  0.00     0.000 C 
BRANCH  16  17
ATOM     17  C   UNL     1      -3.675  -4.412   0.364  1.00  0.00    -0.000 C 
BRANCH  17  18
ATOM     18  C   UNL     1      -2.718  -3.379   0.988  1.00  0.00    -0.000 C 
BRANCH  18  19
ATOM     19  C   UNL     1      -1.316  -3.940   1.306  1.00  0.00    -0.003 C 
ATOM     20  C   UNL     1      -0.242  -2.852   1.322  1.00  0.00     0.004 C 
ENDBRANCH  18  19
ENDBRANCH  17  18
ENDBRANCH  16  17
ENDBRANCH  15  16
ENDBRANCH  14  15
ENDBRANCH  13  14
ENDBRANCH   2  13
TORSDOF 15
ENDMDL
