MODEL 1
REMARK VINA RESULT:     2.820      0.000      0.000
REMARK INTER + INTRA:           5.728
REMARK INTER:                   7.437
REMARK INTRA:                  -1.709
REMARK UNBOUND:                -1.709
REMARK SMILES CCCCCCCCCCCCCCCCCCCCCCCCCCCCCC(=O)[O-]
REMARK SMILES IDX 16 1 17 2 18 3 19 4 20 5 21 6 22 7 23 8 24 9 25 10 26 11
REMARK SMILES IDX 27 12 28 13 29 14 30 15 31 16 32 17 15 18 14 19 13 20 12 21
REMARK SMILES IDX 11 22 10 23 9 24 8 25 7 26 6 27 5 28 4 29 3 30 2 31 1 32
REMARK H PARENT
REMARK Flexibility Score: inf
ROOT
ATOM      1  C   UNL     1       4.632   4.021   1.227  1.00  0.00     0.000 C 
ENDROOT
BRANCH   1   2
ATOM      2  C   UNL     1       5.263   5.256   1.890  1.00  0.00     0.000 C 
BRANCH   2   3
ATOM      3  C   UNL     1       6.380   5.941   1.078  1.00  0.00     0.000 C 
BRANCH   3   4
ATOM      4  C   UNL     1       7.790   5.774   1.683  1.00  0.00     0.000 C 
BRANCH   4   5
ATOM      5  C   UNL     1       8.736   4.962   0.777  1.00  0.00     0.000 C 
BRANCH   5   6
ATOM      6  C   UNL     1      10.083   4.651   1.450  1.00  0.00     0.000 C 
BRANCH   6   7
ATOM      7  C   UNL     1      10.102   3.273   2.130  1.00  0.00     0.000 C 
BRANCH   7   8
ATOM      8  C   UNL     1       9.831   3.404   3.637  1.00  0.00     0.000 C 
BRANCH   8   9
ATOM      9  C   UNL     1      10.125   4.815   4.174  1.00  0.00     0.000 C 
BRANCH   9  10
ATOM     10  C   UNL     1       8.879   5.486   4.779  1.00  0.00     0.000 C 
BRANCH  10  11
ATOM     11  C   UNL     1       9.220   6.764   5.564  1.00  0.00     0.000 C 
BRANCH  11  12
ATOM     12  C   UNL     1       9.873   7.846   4.687  1.00  0.00     0.000 C 
BRANCH  12  13
ATOM     13  C   UNL     1       9.209   9.228   4.834  1.00  0.00     0.006 C 
BRANCH  13  14
ATOM     14  C   UNL     1       7.905   9.382   4.032  1.00  0.00     0.053 C 
BRANCH  14  15
ATOM     15  C   UNL     1       6.726   8.778   4.734  1.00  0.00     0.041 C 
ATOM     16  O   UNL     1       6.189   7.731   4.284  1.00  0.00    -0.550 OA
ATOM     17  O   UNL     1       6.238   9.350   5.901  1.00  0.00    -0.550 OA
ENDBRANCH  14  15
ENDBRANCH  13  14
ENDBRANCH  12  13
ENDBRANCH  11  12
ENDBRANCH  10  11
ENDBRANCH   9  10
ENDBRANCH   8   9
ENDBRANCH   7   8
ENDBRANCH   6   7
ENDBRANCH   5   6
ENDBRANCH   4   5
ENDBRANCH   3   4
ENDBRANCH   2   3
ENDBRANCH   1   2
BRANCH   1  18
ATOM     18  C   UNL     1       3.326   3.581   1.908  1.00  0.00     0.000 C 
BRANCH  18  19
ATOM     19  C   UNL     1       2.336   3.012   0.885  1.00  0.00     0.000 C 
BRANCH  19  20
ATOM     20  C   UNL     1       2.883   1.727   0.247  1.00  0.00     0.000 C 
BRANCH  20  21
ATOM     21  C   UNL     1       2.138   1.342  -1.041  1.00  0.00     0.000 C 
BRANCH  21  22
ATOM     22  C   UNL     1       2.219  -0.165  -1.340  1.00  0.00     0.000 C 
BRANCH  22  23
ATOM     23  C   UNL     1       1.233  -0.996  -0.497  1.00  0.00     0.000 C 
BRANCH  23  24
ATOM     24  C   UNL     1       1.680  -1.254   0.954  1.00  0.00    -0.000 C 
BRANCH  24  25
ATOM     25  C   UNL     1       1.379  -2.668   1.487  1.00  0.00    -0.000 C 
BRANCH  25  26
ATOM     26  C   UNL     1      -0.101  -3.087   1.348  1.00  0.00    -0.000 C 
BRANCH  26  27
ATOM     27  C   UNL     1      -0.767  -3.347   2.708  1.00  0.00    -0.000 C 
BRANCH  27  28
ATOM     28  C   UNL     1      -1.495  -2.097   3.216  1.00  0.00    -0.000 C 
BRANCH  28  29
ATOM     29  C   UNL     1      -1.119  -1.801   4.674  1.00  0.00    -0.000 C 
BRANCH  29  30
ATOM     30  C   UNL     1      -1.977  -2.623   5.645  1.00  0.00    -0.000 C 
BRANCH  30  31
ATOM     31  C   UNL     1      -3.470  -2.451   5.334  1.00  0.00    -0.003 C 
ATOM     32  C   UNL     1      -4.313  -2.556   6.603  1.00  0.00     0.004 C 
ENDBRANCH  30  31
ENDBRANCH  29  30
ENDBRANCH  28  29
ENDBRANCH  27  28
ENDBRANCH  26  27
ENDBRANCH  25  26
ENDBRANCH  24  25
ENDBRANCH  23  24
ENDBRANCH  22  23
ENDBRANCH  21  22
ENDBRANCH  20  21
ENDBRANCH  19  20
ENDBRANCH  18  19
ENDBRANCH   1  18
TORSDOF 28
ENDMDL
MODEL 2
REMARK VINA RESULT:     3.517      3.479     11.749
REMARK INTER + INTRA:           7.566
REMARK INTER:                   8.693
REMARK INTRA:                  -1.127
REMARK UNBOUND:                -1.709
REMARK SMILES CCCCCCCCCCCCCCCCCCCCCCCCCCCCCC(=O)[O-]
REMARK SMILES IDX 16 1 17 2 18 3 19 4 20 5 21 6 22 7 23 8 24 9 25 10 26 11
REMARK SMILES IDX 27 12 28 13 29 14 30 15 31 16 32 17 15 18 14 19 13 20 12 21
REMARK SMILES IDX 11 22 10 23 9 24 8 25 7 26 6 27 5 28 4 29 3 30 2 31 1 32
REMARK H PARENT
REMARK Flexibility Score: inf
ROOT
ATOM      1  C   UNL     1       5.281   4.846   1.315  1.00  0.00     0.000 C 
ENDROOT
BRANCH   1   2
ATOM      2  C   UNL     1       4.057   4.112   1.888  1.00  0.00     0.000 C 
BRANCH   2   3
ATOM      3  C   UNL     1       2.998   3.690   0.850  1.00  0.00     0.000 C 
BRANCH   3   4
ATOM      4  C   UNL     1       3.065   2.201   0.453  1.00  0.00     0.000 C 
BRANCH   4   5
ATOM      5  C   UNL     1       2.301   1.896  -0.850  1.00  0.00     0.000 C 
BRANCH   5   6
ATOM      6  C   UNL     1       2.332   0.405  -1.223  1.00  0.00     0.000 C 
BRANCH   6   7
ATOM      7  C   UNL     1       1.059  -0.342  -0.795  1.00  0.00     0.000 C 
BRANCH   7   8
ATOM      8  C   UNL     1       1.411  -1.607   0.003  1.00  0.00     0.000 C 
BRANCH   8   9
ATOM      9  C   UNL     1       1.634  -1.326   1.498  1.00  0.00     0.000 C 
BRANCH   9  10
ATOM     10  C   UNL     1       0.973  -2.382   2.401  1.00  0.00     0.000 C 
BRANCH  10  11
ATOM     11  C   UNL     1      -0.348  -2.913   1.819  1.00  0.00     0.000 C 
BRANCH  11  12
ATOM     12  C   UNL     1      -1.439  -3.096   2.889  1.00  0.00     0.000 C 
BRANCH  12  13
ATOM     13  C   UNL     1      -0.878  -3.169   4.321  1.00  0.00     0.006 C 
BRANCH  13  14
ATOM     14  C   UNL     1      -1.937  -2.950   5.417  1.00  0.00     0.053 C 
BRANCH  14  15
ATOM     15  C   UNL     1      -3.063  -2.073   4.958  1.00  0.00     0.041 C 
ATOM     16  O   UNL     1      -4.159  -2.072   5.578  1.00  0.00    -0.550 OA
ATOM     17  O   UNL     1      -2.894  -1.234   3.864  1.00  0.00    -0.550 OA
ENDBRANCH  14  15
ENDBRANCH  13  14
ENDBRANCH  12  13
ENDBRANCH  11  12
ENDBRANCH  10  11
ENDBRANCH   9  10
ENDBRANCH   8   9
ENDBRANCH   7   8
ENDBRANCH   6   7
ENDBRANCH   5   6
ENDBRANCH   4   5
ENDBRANCH   3   4
ENDBRANCH   2   3
ENDBRANCH   1   2
BRANCH   1  18
ATOM     18  C   UNL     1       5.746   6.011   2.203  1.00  0.00     0.000 C 
BRANCH  18  19
ATOM     19  C   UNL     1       7.274   6.046   2.312  1.00  0.00     0.000 C 
BRANCH  19  20
ATOM     20  C   UNL     1       7.928   5.752   0.953  1.00  0.00     0.000 C 
BRANCH  20  21
ATOM     21  C   UNL     1       9.439   5.491   1.067  1.00  0.00     0.000 C 
BRANCH  21  22
ATOM     22  C   UNL     1       9.766   4.000   1.260  1.00  0.00     0.000 C 
BRANCH  22  23
ATOM     23  C   UNL     1       9.753   3.571   2.738  1.00  0.00     0.000 C 
BRANCH  23  24
ATOM     24  C   UNL     1      10.124   4.683   3.738  1.00  0.00    -0.000 C 
BRANCH  24  25
ATOM     25  C   UNL     1       9.119   4.888   4.888  1.00  0.00    -0.000 C 
BRANCH  25  26
ATOM     26  C   UNL     1       9.154   6.304   5.504  1.00  0.00    -0.000 C 
BRANCH  26  27
ATOM     27  C   UNL     1       9.943   7.299   4.641  1.00  0.00    -0.000 C 
BRANCH  27  28
ATOM     28  C   UNL     1      10.055   8.664   5.330  1.00  0.00    -0.000 C 
BRANCH  28  29
ATOM     29  C   UNL     1       8.920   9.596   4.884  1.00  0.00    -0.000 C 
BRANCH  29  30
ATOM     30  C   UNL     1       7.757   8.800   4.277  1.00  0.00    -0.000 C 
BRANCH  30  31
ATOM     31  C   UNL     1       6.443   9.113   5.003  1.00  0.00    -0.003 C 
ATOM     32  C   UNL     1       5.241   8.887   4.090  1.00  0.00     0.004 C 
ENDBRANCH  30  31
ENDBRANCH  29  30
ENDBRANCH  28  29
ENDBRANCH  27  28
ENDBRANCH  26  27
ENDBRANCH  25  26
ENDBRANCH  24  25
ENDBRANCH  23  24
ENDBRANCH  22  23
ENDBRANCH  21  22
ENDBRANCH  20  21
ENDBRANCH  19  20
ENDBRANCH  18  19
ENDBRANCH   1  18
TORSDOF 28
ENDMDL
MODEL 3
REMARK VINA RESULT:     3.789      2.363      4.191
REMARK INTER + INTRA:           8.283
REMARK INTER:                  10.159
REMARK INTRA:                  -1.876
REMARK UNBOUND:                -1.709
REMARK SMILES CCCCCCCCCCCCCCCCCCCCCCCCCCCCCC(=O)[O-]
REMARK SMILES IDX 16 1 17 2 18 3 19 4 20 5 21 6 22 7 23 8 24 9 25 10 26 11
REMARK SMILES IDX 27 12 28 13 29 14 30 15 31 16 32 17 15 18 14 19 13 20 12 21
REMARK SMILES IDX 11 22 10 23 9 24 8 25 7 26 6 27 5 28 4 29 3 30 2 31 1 32
REMARK H PARENT
REMARK Flexibility Score: inf
ROOT
ATOM      1  C   UNL     1       5.317   5.022   0.864  1.00  0.00     0.000 C 
ENDROOT
BRANCH   1   2
ATOM      2  C   UNL     1       6.434   5.789   1.591  1.00  0.00     0.000 C 
BRANCH   2   3
ATOM      3  C   UNL     1       6.480   5.594   3.119  1.00  0.00     0.000 C 
BRANCH   3   4
ATOM      4  C   UNL     1       6.469   6.911   3.922  1.00  0.00     0.000 C 
BRANCH   4   5
ATOM      5  C   UNL     1       7.533   6.939   5.037  1.00  0.00     0.000 C 
BRANCH   5   6
ATOM      6  C   UNL     1       8.321   8.258   5.074  1.00  0.00     0.000 C 
BRANCH   6   7
ATOM      7  C   UNL     1       9.772   8.097   4.592  1.00  0.00     0.000 C 
BRANCH   7   8
ATOM      8  C   UNL     1       9.860   8.254   3.066  1.00  0.00     0.000 C 
BRANCH   8   9
ATOM      9  C   UNL     1      10.015   6.908   2.338  1.00  0.00     0.000 C 
BRANCH   9  10
ATOM     10  C   UNL     1      10.123   5.721   3.311  1.00  0.00     0.000 C 
BRANCH  10  11
ATOM     11  C   UNL     1      10.086   4.362   2.592  1.00  0.00     0.000 C 
BRANCH  11  12
ATOM     12  C   UNL     1      10.088   3.172   3.566  1.00  0.00     0.000 C 
BRANCH  12  13
ATOM     13  C   UNL     1       9.996   1.808   2.857  1.00  0.00     0.006 C 
BRANCH  13  14
ATOM     14  C   UNL     1      10.125   0.602   3.805  1.00  0.00     0.053 C 
BRANCH  14  15
ATOM     15  C   UNL     1       9.247   0.728   5.014  1.00  0.00     0.041 C 
ATOM     16  O   UNL     1       9.596   1.459   5.978  1.00  0.00    -0.550 OA
ATOM     17  O   UNL     1       8.028   0.064   5.065  1.00  0.00    -0.550 OA
ENDBRANCH  14  15
ENDBRANCH  13  14
ENDBRANCH  12  13
ENDBRANCH  11  12
ENDBRANCH  10  11
ENDBRANCH   9  10
ENDBRANCH   8   9
ENDBRANCH   7   8
ENDBRANCH   6   7
ENDBRANCH   5   6
ENDBRANCH   4   5
ENDBRANCH   3   4
ENDBRANCH   2   3
ENDBRANCH   1   2
BRANCH   1  18
ATOM     18  C   UNL     1       4.174   4.603   1.802  1.00  0.00     0.000 C 
BRANCH  18  19
ATOM     19  C   UNL     1       3.769   3.144   1.561  1.00  0.00     0.000 C 
BRANCH  19  20
ATOM     20  C   UNL     1       2.844   3.026   0.341  1.00  0.00     0.000 C 
BRANCH  20  21
ATOM     21  C   UNL     1       3.053   1.716  -0.436  1.00  0.00     0.000 C 
BRANCH  21  22
ATOM     22  C   UNL     1       2.114   0.594   0.039  1.00  0.00     0.000 C 
BRANCH  22  23
ATOM     23  C   UNL     1       2.291   0.256   1.530  1.00  0.00     0.000 C 
BRANCH  23  24
ATOM     24  C   UNL     1       1.985  -1.207   1.903  1.00  0.00    -0.000 C 
BRANCH  24  25
ATOM     25  C   UNL     1       1.436  -2.072   0.753  1.00  0.00    -0.000 C 
BRANCH  25  26
ATOM     26  C   UNL     1       0.442  -3.163   1.209  1.00  0.00    -0.000 C 
BRANCH  26  27
ATOM     27  C   UNL     1      -0.253  -2.804   2.532  1.00  0.00    -0.000 C 
BRANCH  27  28
ATOM     28  C   UNL     1      -1.078  -3.983   3.062  1.00  0.00    -0.000 C 
BRANCH  28  29
ATOM     29  C   UNL     1      -2.289  -3.486   3.863  1.00  0.00    -0.000 C 
BRANCH  29  30
ATOM     30  C   UNL     1      -2.288  -1.956   3.974  1.00  0.00    -0.000 C 
BRANCH  30  31
ATOM     31  C   UNL     1      -3.436  -1.473   4.870  1.00  0.00    -0.003 C 
ATOM     32  C   UNL     1      -3.450  -2.222   6.201  1.00  0.00     0.004 C 
ENDBRANCH  30  31
ENDBRANCH  29  30
ENDBRANCH  28  29
ENDBRANCH  27  28
ENDBRANCH  26  27
ENDBRANCH  25  26
ENDBRANCH  24  25
ENDBRANCH  23  24
ENDBRANCH  22  23
ENDBRANCH  21  22
ENDBRANCH  20  21
ENDBRANCH  19  20
ENDBRANCH  18  19
ENDBRANCH   1  18
TORSDOF 28
ENDMDL
MODEL 4
REMARK VINA RESULT:     3.855      0.940      2.476
REMARK INTER + INTRA:           8.456
REMARK INTER:                   9.222
REMARK INTRA:                  -0.766
REMARK UNBOUND:                -1.709
REMARK SMILES CCCCCCCCCCCCCCCCCCCCCCCCCCCCCC(=O)[O-]
REMARK SMILES IDX 16 1 17 2 18 3 19 4 20 5 21 6 22 7 23 8 24 9 25 10 26 11
REMARK SMILES IDX 27 12 28 13 29 14 30 15 31 16 32 17 15 18 14 19 13 20 12 21
REMARK SMILES IDX 11 22 10 23 9 24 8 25 7 26 6 27 5 28 4 29 3 30 2 31 1 32
REMARK H PARENT
REMARK Flexibility Score: inf
ROOT
ATOM      1  C   UNL     1       3.336   2.061   0.502  1.00  0.00     0.000 C 
ENDROOT
BRANCH   1   2
ATOM      2  C   UNL     1       3.245   3.345   1.343  1.00  0.00     0.000 C 
BRANCH   2   3
ATOM      3  C   UNL     1       4.065   4.538   0.815  1.00  0.00     0.000 C 
BRANCH   3   4
ATOM      4  C   UNL     1       5.280   4.904   1.692  1.00  0.00     0.000 C 
BRANCH   4   5
ATOM      5  C   UNL     1       6.139   6.029   1.083  1.00  0.00     0.000 C 
BRANCH   5   6
ATOM      6  C   UNL     1       7.646   5.805   1.291  1.00  0.00     0.000 C 
BRANCH   6   7
ATOM      7  C   UNL     1       8.209   4.688   0.399  1.00  0.00     0.000 C 
BRANCH   7   8
ATOM      8  C   UNL     1       9.678   4.399   0.749  1.00  0.00     0.000 C 
BRANCH   8   9
ATOM      9  C   UNL     1      10.124   5.081   2.052  1.00  0.00     0.000 C 
BRANCH   9  10
ATOM     10  C   UNL     1      10.094   4.125   3.258  1.00  0.00     0.000 C 
BRANCH  10  11
ATOM     11  C   UNL     1       9.781   4.850   4.578  1.00  0.00     0.000 C 
BRANCH  11  12
ATOM     12  C   UNL     1       9.569   6.363   4.391  1.00  0.00     0.000 C 
BRANCH  12  13
ATOM     13  C   UNL     1       8.671   6.987   5.475  1.00  0.00     0.006 C 
BRANCH  13  14
ATOM     14  C   UNL     1       8.080   8.354   5.084  1.00  0.00     0.053 C 
BRANCH  14  15
ATOM     15  C   UNL     1       6.657   8.252   4.626  1.00  0.00     0.041 C 
ATOM     16  O   UNL     1       6.185   7.142   4.264  1.00  0.00    -0.550 OA
ATOM     17  O   UNL     1       5.840   9.375   4.626  1.00  0.00    -0.550 OA
ENDBRANCH  14  15
ENDBRANCH  13  14
ENDBRANCH  12  13
ENDBRANCH  11  12
ENDBRANCH  10  11
ENDBRANCH   9  10
ENDBRANCH   8   9
ENDBRANCH   7   8
ENDBRANCH   6   7
ENDBRANCH   5   6
ENDBRANCH   4   5
ENDBRANCH   3   4
ENDBRANCH   2   3
ENDBRANCH   1   2
BRANCH   1  18
ATOM     18  C   UNL     1       2.487   2.125  -0.778  1.00  0.00     0.000 C 
BRANCH  18  19
ATOM     19  C   UNL     1       2.032   0.726  -1.209  1.00  0.00     0.000 C 
BRANCH  19  20
ATOM     20  C   UNL     1       2.163  -0.274  -0.051  1.00  0.00     0.000 C 
BRANCH  20  21
ATOM     21  C   UNL     1       1.138  -1.417  -0.138  1.00  0.00     0.000 C 
BRANCH  21  22
ATOM     22  C   UNL     1       0.757  -1.973   1.245  1.00  0.00     0.000 C 
BRANCH  22  23
ATOM     23  C   UNL     1       0.982  -3.491   1.363  1.00  0.00     0.000 C 
BRANCH  23  24
ATOM     24  C   UNL     1       0.148  -4.186   2.455  1.00  0.00    -0.000 C 
BRANCH  24  25
ATOM     25  C   UNL     1      -1.252  -3.587   2.687  1.00  0.00    -0.000 C 
BRANCH  25  26
ATOM     26  C   UNL     1      -1.763  -3.732   4.137  1.00  0.00    -0.000 C 
BRANCH  26  27
ATOM     27  C   UNL     1      -1.073  -2.755   5.102  1.00  0.00    -0.000 C 
BRANCH  27  28
ATOM     28  C   UNL     1      -1.104  -1.322   4.556  1.00  0.00    -0.000 C 
BRANCH  28  29
ATOM     29  C   UNL     1      -2.548  -0.828   4.399  1.00  0.00    -0.000 C 
BRANCH  29  30
ATOM     30  C   UNL     1      -3.549  -1.976   4.587  1.00  0.00    -0.000 C 
BRANCH  30  31
ATOM     31  C   UNL     1      -4.379  -1.774   5.861  1.00  0.00    -0.003 C 
ATOM     32  C   UNL     1      -4.114  -2.885   6.874  1.00  0.00     0.004 C 
ENDBRANCH  30  31
ENDBRANCH  29  30
ENDBRANCH  28  29
ENDBRANCH  27  28
ENDBRANCH  26  27
ENDBRANCH  25  26
ENDBRANCH  24  25
ENDBRANCH  23  24
ENDBRANCH  22  23
ENDBRANCH  21  22
ENDBRANCH  20  21
ENDBRANCH  19  20
ENDBRANCH  18  19
ENDBRANCH   1  18
TORSDOF 28
ENDMDL
MODEL 5
REMARK VINA RESULT:     3.882      0.863      1.456
REMARK INTER + INTRA:           8.527
REMARK INTER:                   8.407
REMARK INTRA:                   0.121
REMARK UNBOUND:                -1.709
REMARK SMILES CCCCCCCCCCCCCCCCCCCCCCCCCCCCCC(=O)[O-]
REMARK SMILES IDX 16 1 17 2 18 3 19 4 20 5 21 6 22 7 23 8 24 9 25 10 26 11
REMARK SMILES IDX 27 12 28 13 29 14 30 15 31 16 32 17 15 18 14 19 13 20 12 21
REMARK SMILES IDX 11 22 10 23 9 24 8 25 7 26 6 27 5 28 4 29 3 30 2 31 1 32
REMARK H PARENT
REMARK Flexibility Score: inf
ROOT
ATOM      1  C   UNL     1       3.632   3.157   1.173  1.00  0.00     0.000 C 
ENDROOT
BRANCH   1   2
ATOM      2  C   UNL     1       4.230   4.453   1.746  1.00  0.00     0.000 C 
BRANCH   2   3
ATOM      3  C   UNL     1       5.435   5.020   0.971  1.00  0.00     0.000 C 
BRANCH   3   4
ATOM      4  C   UNL     1       6.337   5.954   1.806  1.00  0.00     0.000 C 
BRANCH   4   5
ATOM      5  C   UNL     1       7.768   6.060   1.245  1.00  0.00     0.000 C 
BRANCH   5   6
ATOM      6  C   UNL     1       8.218   4.784   0.517  1.00  0.00     0.000 C 
BRANCH   6   7
ATOM      7  C   UNL     1       9.389   4.080   1.221  1.00  0.00     0.000 C 
BRANCH   7   8
ATOM      8  C   UNL     1      10.125   5.050   2.159  1.00  0.00     0.000 C 
BRANCH   8   9
ATOM      9  C   UNL     1      10.097   4.596   3.627  1.00  0.00     0.000 C 
BRANCH   9  10
ATOM     10  C   UNL     1       9.081   5.388   4.470  1.00  0.00     0.000 C 
BRANCH  10  11
ATOM     11  C   UNL     1       9.656   6.715   4.993  1.00  0.00     0.000 C 
BRANCH  11  12
ATOM     12  C   UNL     1      10.125   7.648   3.863  1.00  0.00     0.000 C 
BRANCH  12  13
ATOM     13  C   UNL     1       9.227   8.887   3.689  1.00  0.00     0.006 C 
BRANCH  13  14
ATOM     14  C   UNL     1       8.435   9.266   4.953  1.00  0.00     0.053 C 
BRANCH  14  15
ATOM     15  C   UNL     1       7.032   8.738   4.929  1.00  0.00     0.041 C 
ATOM     16  O   UNL     1       6.785   7.620   4.404  1.00  0.00    -0.550 OA
ATOM     17  O   UNL     1       6.001   9.464   5.512  1.00  0.00    -0.550 OA
ENDBRANCH  14  15
ENDBRANCH  13  14
ENDBRANCH  12  13
ENDBRANCH  11  12
ENDBRANCH  10  11
ENDBRANCH   9  10
ENDBRANCH   8   9
ENDBRANCH   7   8
ENDBRANCH   6   7
ENDBRANCH   5   6
ENDBRANCH   4   5
ENDBRANCH   3   4
ENDBRANCH   2   3
ENDBRANCH   1   2
BRANCH   1  18
ATOM     18  C   UNL     1       2.277   3.380   0.482  1.00  0.00     0.000 C 
BRANCH  18  19
ATOM     19  C   UNL     1       2.229   2.675  -0.878  1.00  0.00     0.000 C 
BRANCH  19  20
ATOM     20  C   UNL     1       2.897   1.294  -0.804  1.00  0.00     0.000 C 
BRANCH  20  21
ATOM     21  C   UNL     1       2.107   0.213  -1.561  1.00  0.00     0.000 C 
BRANCH  21  22
ATOM     22  C   UNL     1       1.000  -0.418  -0.699  1.00  0.00     0.000 C 
BRANCH  22  23
ATOM     23  C   UNL     1       1.554  -1.289   0.443  1.00  0.00     0.000 C 
BRANCH  23  24
ATOM     24  C   UNL     1       1.039  -2.740   0.459  1.00  0.00    -0.000 C 
BRANCH  24  25
ATOM     25  C   UNL     1       0.644  -3.277   1.848  1.00  0.00    -0.000 C 
BRANCH  25  26
ATOM     26  C   UNL     1      -0.821  -2.984   2.239  1.00  0.00    -0.000 C 
BRANCH  26  27
ATOM     27  C   UNL     1      -1.216  -3.645   3.568  1.00  0.00    -0.000 C 
BRANCH  27  28
ATOM     28  C   UNL     1      -0.928  -2.718   4.755  1.00  0.00    -0.000 C 
BRANCH  28  29
ATOM     29  C   UNL     1      -1.874  -3.018   5.925  1.00  0.00    -0.000 C 
BRANCH  29  30
ATOM     30  C   UNL     1      -3.244  -2.360   5.711  1.00  0.00    -0.000 C 
BRANCH  30  31
ATOM     31  C   UNL     1      -3.343  -1.749   4.307  1.00  0.00    -0.003 C 
ATOM     32  C   UNL     1      -2.582  -0.428   4.226  1.00  0.00     0.004 C 
ENDBRANCH  30  31
ENDBRANCH  29  30
ENDBRANCH  28  29
ENDBRANCH  27  28
ENDBRANCH  26  27
ENDBRANCH  25  26
ENDBRANCH  24  25
ENDBRANCH  23  24
ENDBRANCH  22  23
ENDBRANCH  21  22
ENDBRANCH  20  21
ENDBRANCH  19  20
ENDBRANCH  18  19
ENDBRANCH   1  18
TORSDOF 28
ENDMDL
MODEL 6
REMARK VINA RESULT:     3.985      3.521     11.857
REMARK INTER + INTRA:           8.800
REMARK INTER:                  10.883
REMARK INTRA:                  -2.083
REMARK UNBOUND:                -1.709
REMARK SMILES CCCCCCCCCCCCCCCCCCCCCCCCCCCCCC(=O)[O-]
REMARK SMILES IDX 16 1 17 2 18 3 19 4 20 5 21 6 22 7 23 8 24 9 25 10 26 11
REMARK SMILES IDX 27 12 28 13 29 14 30 15 31 16 32 17 15 18 14 19 13 20 12 21
REMARK SMILES IDX 11 22 10 23 9 24 8 25 7 26 6 27 5 28 4 29 3 30 2 31 1 32
REMARK H PARENT
REMARK Flexibility Score: inf
ROOT
ATOM      1  C   UNL     1       6.598   5.736   0.815  1.00  0.00     0.000 C 
ENDROOT
BRANCH   1   2
ATOM      2  C   UNL     1       5.162   5.567   1.340  1.00  0.00     0.000 C 
BRANCH   2   3
ATOM      3  C   UNL     1       4.260   4.639   0.503  1.00  0.00     0.000 C 
BRANCH   3   4
ATOM      4  C   UNL     1       3.712   3.425   1.281  1.00  0.00     0.000 C 
BRANCH   4   5
ATOM      5  C   UNL     1       2.589   2.689   0.526  1.00  0.00     0.000 C 
BRANCH   5   6
ATOM      6  C   UNL     1       2.946   1.229   0.203  1.00  0.00     0.000 C 
BRANCH   6   7
ATOM      7  C   UNL     1       2.163   0.677  -0.998  1.00  0.00     0.000 C 
BRANCH   7   8
ATOM      8  C   UNL     1       1.767  -0.789  -0.765  1.00  0.00     0.000 C 
BRANCH   8   9
ATOM      9  C   UNL     1       0.884  -0.976   0.479  1.00  0.00     0.000 C 
BRANCH   9  10
ATOM     10  C   UNL     1       1.320  -2.178   1.336  1.00  0.00     0.000 C 
BRANCH  10  11
ATOM     11  C   UNL     1       0.253  -3.284   1.390  1.00  0.00     0.000 C 
BRANCH  11  12
ATOM     12  C   UNL     1      -1.117  -2.767   1.865  1.00  0.00     0.000 C 
BRANCH  12  13
ATOM     13  C   UNL     1      -1.594  -3.426   3.172  1.00  0.00     0.006 C 
BRANCH  13  14
ATOM     14  C   UNL     1      -2.258  -2.449   4.158  1.00  0.00     0.053 C 
BRANCH  14  15
ATOM     15  C   UNL     1      -2.027  -2.833   5.588  1.00  0.00     0.041 C 
ATOM     16  O   UNL     1      -3.002  -2.962   6.375  1.00  0.00    -0.550 OA
ATOM     17  O   UNL     1      -0.739  -3.080   6.047  1.00  0.00    -0.550 OA
ENDBRANCH  14  15
ENDBRANCH  13  14
ENDBRANCH  12  13
ENDBRANCH  11  12
ENDBRANCH  10  11
ENDBRANCH   9  10
ENDBRANCH   8   9
ENDBRANCH   7   8
ENDBRANCH   6   7
ENDBRANCH   5   6
ENDBRANCH   4   5
ENDBRANCH   3   4
ENDBRANCH   2   3
ENDBRANCH   1   2
BRANCH   1  18
ATOM     18  C   UNL     1       7.611   6.028   1.934  1.00  0.00     0.000 C 
BRANCH  18  19
ATOM     19  C   UNL     1       8.918   6.589   1.361  1.00  0.00     0.000 C 
BRANCH  19  20
ATOM     20  C   UNL     1      10.125   5.777   1.853  1.00  0.00     0.000 C 
BRANCH  20  21
ATOM     21  C   UNL     1       9.849   4.265   1.883  1.00  0.00     0.000 C 
BRANCH  21  22
ATOM     22  C   UNL     1       9.812   3.702   3.315  1.00  0.00     0.000 C 
BRANCH  22  23
ATOM     23  C   UNL     1      10.022   4.784   4.389  1.00  0.00     0.000 C 
BRANCH  23  24
ATOM     24  C   UNL     1       8.729   5.442   4.907  1.00  0.00    -0.000 C 
BRANCH  24  25
ATOM     25  C   UNL     1       8.940   6.643   5.848  1.00  0.00    -0.000 C 
BRANCH  25  26
ATOM     26  C   UNL     1      10.123   7.552   5.447  1.00  0.00    -0.000 C 
BRANCH  26  27
ATOM     27  C   UNL     1       9.804   8.424   4.223  1.00  0.00    -0.000 C 
BRANCH  27  28
ATOM     28  C   UNL     1       9.205   9.771   4.643  1.00  0.00    -0.000 C 
BRANCH  28  29
ATOM     29  C   UNL     1       7.805   9.957   4.044  1.00  0.00    -0.000 C 
BRANCH  29  30
ATOM     30  C   UNL     1       6.724   9.392   4.976  1.00  0.00    -0.000 C 
BRANCH  30  31
ATOM     31  C   UNL     1       5.417   9.147   4.211  1.00  0.00    -0.003 C 
ATOM     32  C   UNL     1       5.255   7.670   3.857  1.00  0.00     0.004 C 
ENDBRANCH  30  31
ENDBRANCH  29  30
ENDBRANCH  28  29
ENDBRANCH  27  28
ENDBRANCH  26  27
ENDBRANCH  25  26
ENDBRANCH  24  25
ENDBRANCH  23  24
ENDBRANCH  22  23
ENDBRANCH  21  22
ENDBRANCH  20  21
ENDBRANCH  19  20
ENDBRANCH  18  19
ENDBRANCH   1  18
TORSDOF 28
ENDMDL
MODEL 7
REMARK VINA RESULT:     4.157      3.853     11.896
REMARK INTER + INTRA:           9.254
REMARK INTER:                  11.101
REMARK INTRA:                  -1.848
REMARK UNBOUND:                -1.709
REMARK SMILES CCCCCCCCCCCCCCCCCCCCCCCCCCCCCC(=O)[O-]
REMARK SMILES IDX 16 1 17 2 18 3 19 4 20 5 21 6 22 7 23 8 24 9 25 10 26 11
REMARK SMILES IDX 27 12 28 13 29 14 30 15 31 16 32 17 15 18 14 19 13 20 12 21
REMARK SMILES IDX 11 22 10 23 9 24 8 25 7 26 6 27 5 28 4 29 3 30 2 31 1 32
REMARK H PARENT
REMARK Flexibility Score: inf
ROOT
ATOM      1  C   UNL     1       3.053   3.290   0.731  1.00  0.00     0.000 C 
ENDROOT
BRANCH   1   2
ATOM      2  C   UNL     1       3.540   1.953   0.147  1.00  0.00     0.000 C 
BRANCH   2   3
ATOM      3  C   UNL     1       2.492   1.171  -0.668  1.00  0.00     0.000 C 
BRANCH   3   4
ATOM      4  C   UNL     1       1.915  -0.058   0.064  1.00  0.00     0.000 C 
BRANCH   4   5
ATOM      5  C   UNL     1       2.198  -0.038   1.579  1.00  0.00     0.000 C 
BRANCH   5   6
ATOM      6  C   UNL     1       1.757  -1.330   2.284  1.00  0.00     0.000 C 
BRANCH   6   7
ATOM      7  C   UNL     1       1.655  -2.526   1.324  1.00  0.00     0.000 C 
BRANCH   7   8
ATOM      8  C   UNL     1       0.197  -2.992   1.186  1.00  0.00     0.000 C 
BRANCH   8   9
ATOM      9  C   UNL     1      -0.392  -3.505   2.510  1.00  0.00     0.000 C 
BRANCH   9  10
ATOM     10  C   UNL     1      -1.892  -3.188   2.650  1.00  0.00     0.000 C 
BRANCH  10  11
ATOM     11  C   UNL     1      -2.156  -1.955   3.529  1.00  0.00     0.000 C 
BRANCH  11  12
ATOM     12  C   UNL     1      -1.089  -1.761   4.620  1.00  0.00     0.000 C 
BRANCH  12  13
ATOM     13  C   UNL     1      -1.285  -2.691   5.832  1.00  0.00     0.006 C 
BRANCH  13  14
ATOM     14  C   UNL     1      -2.557  -3.554   5.757  1.00  0.00     0.053 C 
BRANCH  14  15
ATOM     15  C   UNL     1      -3.732  -2.903   6.423  1.00  0.00     0.041 C 
ATOM     16  O   UNL     1      -4.261  -1.879   5.915  1.00  0.00    -0.550 OA
ATOM     17  O   UNL     1      -4.263  -3.443   7.587  1.00  0.00    -0.550 OA
ENDBRANCH  14  15
ENDBRANCH  13  14
ENDBRANCH  12  13
ENDBRANCH  11  12
ENDBRANCH  10  11
ENDBRANCH   9  10
ENDBRANCH   8   9
ENDBRANCH   7   8
ENDBRANCH   6   7
ENDBRANCH   5   6
ENDBRANCH   4   5
ENDBRANCH   3   4
ENDBRANCH   2   3
ENDBRANCH   1   2
BRANCH   1  18
ATOM     18  C   UNL     1       4.068   3.925   1.695  1.00  0.00     0.000 C 
BRANCH  18  19
ATOM     19  C   UNL     1       4.945   4.955   0.973  1.00  0.00     0.000 C 
BRANCH  19  20
ATOM     20  C   UNL     1       5.994   5.546   1.926  1.00  0.00     0.000 C 
BRANCH  20  21
ATOM     21  C   UNL     1       7.247   6.047   1.189  1.00  0.00     0.000 C 
BRANCH  21  22
ATOM     22  C   UNL     1       8.148   4.896   0.710  1.00  0.00     0.000 C 
BRANCH  22  23
ATOM     23  C   UNL     1       9.594   5.014   1.223  1.00  0.00     0.000 C 
BRANCH  23  24
ATOM     24  C   UNL     1      10.084   3.818   2.060  1.00  0.00    -0.000 C 
BRANCH  24  25
ATOM     25  C   UNL     1      10.073   4.041   3.584  1.00  0.00    -0.000 C 
BRANCH  25  26
ATOM     26  C   UNL     1      10.079   5.529   3.999  1.00  0.00    -0.000 C 
BRANCH  26  27
ATOM     27  C   UNL     1       8.706   6.003   4.498  1.00  0.00    -0.000 C 
BRANCH  27  28
ATOM     28  C   UNL     1       8.757   7.464   4.958  1.00  0.00    -0.000 C 
BRANCH  28  29
ATOM     29  C   UNL     1       7.562   8.253   4.408  1.00  0.00    -0.000 C 
BRANCH  29  30
ATOM     30  C   UNL     1       7.066   9.288   5.426  1.00  0.00    -0.000 C 
BRANCH  30  31
ATOM     31  C   UNL     1       5.552   9.500   5.296  1.00  0.00    -0.003 C 
ATOM     32  C   UNL     1       5.089   9.298   3.855  1.00  0.00     0.004 C 
ENDBRANCH  30  31
ENDBRANCH  29  30
ENDBRANCH  28  29
ENDBRANCH  27  28
ENDBRANCH  26  27
ENDBRANCH  25  26
ENDBRANCH  24  25
ENDBRANCH  23  24
ENDBRANCH  22  23
ENDBRANCH  21  22
ENDBRANCH  20  21
ENDBRANCH  19  20
ENDBRANCH  18  19
ENDBRANCH   1  18
TORSDOF 28
ENDMDL
MODEL 8
REMARK VINA RESULT:     4.488      3.593     11.024
REMARK INTER + INTRA:          10.127
REMARK INTER:                   8.032
REMARK INTRA:                   2.095
REMARK UNBOUND:                -1.709
REMARK SMILES CCCCCCCCCCCCCCCCCCCCCCCCCCCCCC(=O)[O-]
REMARK SMILES IDX 16 1 17 2 18 3 19 4 20 5 21 6 22 7 23 8 24 9 25 10 26 11
REMARK SMILES IDX 27 12 28 13 29 14 30 15 31 16 32 17 15 18 14 19 13 20 12 21
REMARK SMILES IDX 11 22 10 23 9 24 8 25 7 26 6 27 5 28 4 29 3 30 2 31 1 32
REMARK H PARENT
REMARK Flexibility Score: inf
ROOT
ATOM      1  C   UNL     1       5.494   4.887   2.012  1.00  0.00     0.000 C 
ENDROOT
BRANCH   1   2
ATOM      2  C   UNL     1       4.172   4.661   1.260  1.00  0.00     0.000 C 
BRANCH   2   3
ATOM      3  C   UNL     1       3.388   3.400   1.672  1.00  0.00     0.000 C 
BRANCH   3   4
ATOM      4  C   UNL     1       2.555   2.776   0.532  1.00  0.00     0.000 C 
BRANCH   4   5
ATOM      5  C   UNL     1       3.008   1.347   0.176  1.00  0.00     0.000 C 
BRANCH   5   6
ATOM      6  C   UNL     1       2.767   0.998  -1.302  1.00  0.00     0.000 C 
BRANCH   6   7
ATOM      7  C   UNL     1       1.465   0.213  -1.523  1.00  0.00     0.000 C 
BRANCH   7   8
ATOM      8  C   UNL     1       1.337  -0.930  -0.503  1.00  0.00     0.000 C 
BRANCH   8   9
ATOM      9  C   UNL     1       1.922  -0.569   0.872  1.00  0.00     0.000 C 
BRANCH   9  10
ATOM     10  C   UNL     1       1.691  -1.674   1.918  1.00  0.00     0.000 C 
BRANCH  10  11
ATOM     11  C   UNL     1       1.108  -2.957   1.303  1.00  0.00     0.000 C 
BRANCH  11  12
ATOM     12  C   UNL     1      -0.397  -3.121   1.581  1.00  0.00     0.000 C 
BRANCH  12  13
ATOM     13  C   UNL     1      -0.713  -3.407   3.061  1.00  0.00     0.006 C 
BRANCH  13  14
ATOM     14  C   UNL     1      -2.179  -3.141   3.448  1.00  0.00     0.053 C 
BRANCH  14  15
ATOM     15  C   UNL     1      -2.313  -2.043   4.460  1.00  0.00     0.041 C 
ATOM     16  O   UNL     1      -3.012  -2.216   5.494  1.00  0.00    -0.550 OA
ATOM     17  O   UNL     1      -1.643  -0.840   4.280  1.00  0.00    -0.550 OA
ENDBRANCH  14  15
ENDBRANCH  13  14
ENDBRANCH  12  13
ENDBRANCH  11  12
ENDBRANCH  10  11
ENDBRANCH   9  10
ENDBRANCH   8   9
ENDBRANCH   7   8
ENDBRANCH   6   7
ENDBRANCH   5   6
ENDBRANCH   4   5
ENDBRANCH   3   4
ENDBRANCH   2   3
ENDBRANCH   1   2
BRANCH   1  18
ATOM     18  C   UNL     1       6.337   6.021   1.407  1.00  0.00     0.000 C 
BRANCH  18  19
ATOM     19  C   UNL     1       7.071   6.806   2.500  1.00  0.00     0.000 C 
BRANCH  19  20
ATOM     20  C   UNL     1       6.321   6.717   3.837  1.00  0.00     0.000 C 
BRANCH  20  21
ATOM     21  C   UNL     1       7.202   7.102   5.036  1.00  0.00     0.000 C 
BRANCH  21  22
ATOM     22  C   UNL     1       8.566   6.390   5.018  1.00  0.00     0.000 C 
BRANCH  22  23
ATOM     23  C   UNL     1       9.672   7.231   4.355  1.00  0.00     0.000 C 
BRANCH  23  24
ATOM     24  C   UNL     1      10.114   6.739   2.965  1.00  0.00    -0.000 C 
BRANCH  24  25
ATOM     25  C   UNL     1       9.988   5.220   2.739  1.00  0.00    -0.000 C 
BRANCH  25  26
ATOM     26  C   UNL     1       9.807   4.408   4.041  1.00  0.00    -0.000 C 
BRANCH  26  27
ATOM     27  C   UNL     1       9.975   2.897   3.816  1.00  0.00    -0.000 C 
BRANCH  27  28
ATOM     28  C   UNL     1      10.123   2.151   5.147  1.00  0.00    -0.000 C 
BRANCH  28  29
ATOM     29  C   UNL     1      10.041   0.634   4.935  1.00  0.00    -0.000 C 
BRANCH  29  30
ATOM     30  C   UNL     1       8.583   0.170   4.817  1.00  0.00    -0.000 C 
BRANCH  30  31
ATOM     31  C   UNL     1       7.752   0.670   6.005  1.00  0.00    -0.003 C 
ATOM     32  C   UNL     1       8.578   0.683   7.290  1.00  0.00     0.004 C 
ENDBRANCH  30  31
ENDBRANCH  29  30
ENDBRANCH  28  29
ENDBRANCH  27  28
ENDBRANCH  26  27
ENDBRANCH  25  26
ENDBRANCH  24  25
ENDBRANCH  23  24
ENDBRANCH  22  23
ENDBRANCH  21  22
ENDBRANCH  20  21
ENDBRANCH  19  20
ENDBRANCH  18  19
ENDBRANCH   1  18
TORSDOF 28
ENDMDL
MODEL 9
REMARK VINA RESULT:     4.539      3.584     11.766
REMARK INTER + INTRA:          10.259
REMARK INTER:                  10.645
REMARK INTRA:                  -0.386
REMARK UNBOUND:                -1.709
REMARK SMILES CCCCCCCCCCCCCCCCCCCCCCCCCCCCCC(=O)[O-]
REMARK SMILES IDX 16 1 17 2 18 3 19 4 20 5 21 6 22 7 23 8 24 9 25 10 26 11
REMARK SMILES IDX 27 12 28 13 29 14 30 15 31 16 32 17 15 18 14 19 13 20 12 21
REMARK SMILES IDX 11 22 10 23 9 24 8 25 7 26 6 27 5 28 4 29 3 30 2 31 1 32
REMARK H PARENT
REMARK Flexibility Score: inf
ROOT
ATOM      1  C   UNL     1       5.296   4.960   2.297  1.00  0.00     0.000 C 
ENDROOT
BRANCH   1   2
ATOM      2  C   UNL     1       4.342   4.602   1.145  1.00  0.00     0.000 C 
BRANCH   2   3
ATOM      3  C   UNL     1       3.207   3.625   1.510  1.00  0.00     0.000 C 
BRANCH   3   4
ATOM      4  C   UNL     1       2.634   2.849   0.306  1.00  0.00     0.000 C 
BRANCH   4   5
ATOM      5  C   UNL     1       2.872   1.330   0.407  1.00  0.00     0.000 C 
BRANCH   5   6
ATOM      6  C   UNL     1       3.012   0.657  -0.968  1.00  0.00     0.000 C 
BRANCH   6   7
ATOM      7  C   UNL     1       1.704   0.007  -1.447  1.00  0.00     0.000 C 
BRANCH   7   8
ATOM      8  C   UNL     1       1.195  -1.017  -0.420  1.00  0.00     0.000 C 
BRANCH   8   9
ATOM      9  C   UNL     1       1.477  -0.594   1.031  1.00  0.00     0.000 C 
BRANCH   9  10
ATOM     10  C   UNL     1       1.408  -1.777   2.013  1.00  0.00     0.000 C 
BRANCH  10  11
ATOM     11  C   UNL     1       0.984  -3.088   1.330  1.00  0.00     0.000 C 
BRANCH  11  12
ATOM     12  C   UNL     1      -0.515  -3.392   1.503  1.00  0.00     0.000 C 
BRANCH  12  13
ATOM     13  C   UNL     1      -0.925  -3.606   2.972  1.00  0.00     0.006 C 
BRANCH  13  14
ATOM     14  C   UNL     1      -1.867  -2.520   3.521  1.00  0.00     0.053 C 
BRANCH  14  15
ATOM     15  C   UNL     1      -1.970  -2.555   5.016  1.00  0.00     0.041 C 
ATOM     16  O   UNL     1      -2.953  -2.023   5.597  1.00  0.00    -0.550 OA
ATOM     17  O   UNL     1      -0.999  -3.202   5.770  1.00  0.00    -0.550 OA
ENDBRANCH  14  15
ENDBRANCH  13  14
ENDBRANCH  12  13
ENDBRANCH  11  12
ENDBRANCH  10  11
ENDBRANCH   9  10
ENDBRANCH   8   9
ENDBRANCH   7   8
ENDBRANCH   6   7
ENDBRANCH   5   6
ENDBRANCH   4   5
ENDBRANCH   3   4
ENDBRANCH   2   3
ENDBRANCH   1   2
BRANCH   1  18
ATOM     18  C   UNL     1       6.565   5.681   1.817  1.00  0.00     0.000 C 
BRANCH  18  19
ATOM     19  C   UNL     1       7.122   6.603   2.909  1.00  0.00     0.000 C 
BRANCH  19  20
ATOM     20  C   UNL     1       5.999   7.107   3.827  1.00  0.00     0.000 C 
BRANCH  20  21
ATOM     21  C   UNL     1       6.129   8.603   4.154  1.00  0.00     0.000 C 
BRANCH  21  22
ATOM     22  C   UNL     1       7.024   8.861   5.379  1.00  0.00     0.000 C 
BRANCH  22  23
ATOM     23  C   UNL     1       8.382   9.484   5.007  1.00  0.00     0.000 C 
BRANCH  23  24
ATOM     24  C   UNL     1       9.511   8.468   4.749  1.00  0.00    -0.000 C 
BRANCH  24  25
ATOM     25  C   UNL     1       9.268   7.062   5.330  1.00  0.00    -0.000 C 
BRANCH  25  26
ATOM     26  C   UNL     1      10.125   5.957   4.673  1.00  0.00    -0.000 C 
BRANCH  26  27
ATOM     27  C   UNL     1       9.698   4.547   5.110  1.00  0.00    -0.000 C 
BRANCH  27  28
ATOM     28  C   UNL     1      10.120   3.495   4.078  1.00  0.00    -0.000 C 
BRANCH  28  29
ATOM     29  C   UNL     1      10.117   4.086   2.662  1.00  0.00    -0.000 C 
BRANCH  29  30
ATOM     30  C   UNL     1       9.838   3.003   1.612  1.00  0.00    -0.000 C 
BRANCH  30  31
ATOM     31  C   UNL     1       9.721   3.618   0.211  1.00  0.00    -0.003 C 
ATOM     32  C   UNL     1       8.952   4.937   0.250  1.00  0.00     0.004 C 
ENDBRANCH  30  31
ENDBRANCH  29  30
ENDBRANCH  28  29
ENDBRANCH  27  28
ENDBRANCH  26  27
ENDBRANCH  25  26
ENDBRANCH  24  25
ENDBRANCH  23  24
ENDBRANCH  22  23
ENDBRANCH  21  22
ENDBRANCH  20  21
ENDBRANCH  19  20
ENDBRANCH  18  19
ENDBRANCH   1  18
TORSDOF 28
ENDMDL
