MODEL 1
REMARK VINA RESULT:    -2.742      0.000      0.000
REMARK INTER + INTRA:          -6.645
REMARK INTER:                  -5.146
REMARK INTRA:                  -1.500
REMARK UNBOUND:                -1.500
REMARK SMILES O=C([O-])CCCCCCCCCCCCCCC(=O)[O-]
REMARK SMILES IDX 10 1 9 2 8 3 7 4 6 5 5 6 4 7 2 8 1 9 3 10 11 11 12 12 13 13
REMARK SMILES IDX 14 14 15 15 16 16 17 17 18 18 19 19 20 20
REMARK H PARENT
REMARK Flexibility Score: inf
ROOT
ATOM      1  C   UNL     1      52.849  81.313  30.760  1.00  0.00     0.000 C 
ENDROOT
BRANCH   1   2
ATOM      2  C   UNL     1      51.885  82.504  30.886  1.00  0.00     0.000 C 
BRANCH   2   3
ATOM      3  C   UNL     1      50.592  82.306  30.074  1.00  0.00     0.000 C 
BRANCH   3   4
ATOM      4  C   UNL     1      50.419  83.369  28.977  1.00  0.00     0.000 C 
BRANCH   4   5
ATOM      5  C   UNL     1      49.128  84.190  29.146  1.00  0.00     0.000 C 
BRANCH   5   6
ATOM      6  C   UNL     1      48.298  83.747  30.365  1.00  0.00     0.006 C 
BRANCH   6   7
ATOM      7  C   UNL     1      48.240  84.783  31.499  1.00  0.00     0.053 C 
BRANCH   7   8
ATOM      8  C   UNL     1      48.914  84.292  32.743  1.00  0.00     0.041 C 
ATOM      9  O   UNL     1      48.333  83.464  33.494  1.00  0.00    -0.550 OA
ATOM     10  O   UNL     1      50.197  84.722  33.055  1.00  0.00    -0.550 OA
ENDBRANCH   7   8
ENDBRANCH   6   7
ENDBRANCH   5   6
ENDBRANCH   4   5
ENDBRANCH   3   4
ENDBRANCH   2   3
ENDBRANCH   1   2
BRANCH   1  11
ATOM     11  C   UNL     1      53.150  80.945  29.299  1.00  0.00     0.000 C 
BRANCH  11  12
ATOM     12  C   UNL     1      54.603  81.286  28.936  1.00  0.00     0.000 C 
BRANCH  12  13
ATOM     13  C   UNL     1      54.869  82.801  28.875  1.00  0.00     0.000 C 
BRANCH  13  14
ATOM     14  C   UNL     1      56.344  83.210  29.041  1.00  0.00     0.000 C 
BRANCH  14  15
ATOM     15  C   UNL     1      56.548  84.302  30.102  1.00  0.00     0.000 C 
BRANCH  15  16
ATOM     16  C   UNL     1      55.198  84.808  30.635  1.00  0.00     0.006 C 
BRANCH  16  17
ATOM     17  C   UNL     1      55.121  84.749  32.165  1.00  0.00     0.053 C 
BRANCH  17  18
ATOM     18  C   UNL     1      55.793  83.525  32.708  1.00  0.00     0.041 C 
ATOM     19  O   UNL     1      56.802  83.634  33.455  1.00  0.00    -0.550 OA
ATOM     20  O   UNL     1      55.287  82.265  32.415  1.00  0.00    -0.550 OA
ENDBRANCH  17  18
ENDBRANCH  16  17
ENDBRANCH  15  16
ENDBRANCH  14  15
ENDBRANCH  13  14
ENDBRANCH  12  13
ENDBRANCH  11  12
ENDBRANCH   1  11
TORSDOF 15
ENDMDL
MODEL 2
REMARK VINA RESULT:    -2.280      1.831      6.529
REMARK INTER + INTRA:          -5.779
REMARK INTER:                  -5.232
REMARK INTRA:                  -0.547
REMARK UNBOUND:                -1.500
REMARK SMILES O=C([O-])CCCCCCCCCCCCCCC(=O)[O-]
REMARK SMILES IDX 10 1 9 2 8 3 7 4 6 5 5 6 4 7 2 8 1 9 3 10 11 11 12 12 13 13
REMARK SMILES IDX 14 14 15 15 16 16 17 17 18 18 19 19 20 20
REMARK H PARENT
REMARK Flexibility Score: inf
ROOT
ATOM      1  C   UNL     1      54.506  81.752  32.042  1.00  0.00     0.000 C 
ENDROOT
BRANCH   1   2
ATOM      2  C   UNL     1      55.435  82.088  33.220  1.00  0.00     0.000 C 
BRANCH   2   3
ATOM      3  C   UNL     1      56.264  83.362  32.974  1.00  0.00     0.000 C 
BRANCH   3   4
ATOM      4  C   UNL     1      55.432  84.496  32.354  1.00  0.00     0.000 C 
BRANCH   4   5
ATOM      5  C   UNL     1      56.030  85.018  31.036  1.00  0.00     0.000 C 
BRANCH   5   6
ATOM      6  C   UNL     1      57.046  84.040  30.417  1.00  0.00     0.006 C 
BRANCH   6   7
ATOM      7  C   UNL     1      56.698  83.589  28.989  1.00  0.00     0.053 C 
BRANCH   7   8
ATOM      8  C   UNL     1      55.698  82.474  28.982  1.00  0.00     0.041 C 
ATOM      9  O   UNL     1      54.469  82.726  28.875  1.00  0.00    -0.550 OA
ATOM     10  O   UNL     1      56.127  81.155  29.056  1.00  0.00    -0.550 OA
ENDBRANCH   7   8
ENDBRANCH   6   7
ENDBRANCH   5   6
ENDBRANCH   4   5
ENDBRANCH   3   4
ENDBRANCH   2   3
ENDBRANCH   1   2
BRANCH   1  11
ATOM     11  C   UNL     1      53.081  82.293  32.236  1.00  0.00     0.000 C 
BRANCH  11  12
ATOM     12  C   UNL     1      52.058  81.419  31.496  1.00  0.00     0.000 C 
BRANCH  12  13
ATOM     13  C   UNL     1      50.611  81.924  31.650  1.00  0.00     0.000 C 
BRANCH  13  14
ATOM     14  C   UNL     1      50.011  82.573  30.389  1.00  0.00     0.000 C 
BRANCH  14  15
ATOM     15  C   UNL     1      48.546  82.993  30.571  1.00  0.00     0.000 C 
BRANCH  15  16
ATOM     16  C   UNL     1      48.448  84.412  31.152  1.00  0.00     0.006 C 
BRANCH  16  17
ATOM     17  C   UNL     1      49.813  84.952  31.595  1.00  0.00     0.053 C 
BRANCH  17  18
ATOM     18  C   UNL     1      49.940  84.984  33.087  1.00  0.00     0.041 C 
ATOM     19  O   UNL     1      51.070  85.124  33.625  1.00  0.00    -0.550 OA
ATOM     20  O   UNL     1      48.806  84.889  33.883  1.00  0.00    -0.550 OA
ENDBRANCH  17  18
ENDBRANCH  16  17
ENDBRANCH  15  16
ENDBRANCH  14  15
ENDBRANCH  13  14
ENDBRANCH  12  13
ENDBRANCH  11  12
ENDBRANCH   1  11
TORSDOF 15
ENDMDL
MODEL 3
REMARK VINA RESULT:    -2.272      1.874      6.274
REMARK INTER + INTRA:          -5.764
REMARK INTER:                  -4.372
REMARK INTRA:                  -1.392
REMARK UNBOUND:                -1.500
REMARK SMILES O=C([O-])CCCCCCCCCCCCCCC(=O)[O-]
REMARK SMILES IDX 10 1 9 2 8 3 7 4 6 5 5 6 4 7 2 8 1 9 3 10 11 11 12 12 13 13
REMARK SMILES IDX 14 14 15 15 16 16 17 17 18 18 19 19 20 20
REMARK H PARENT
REMARK Flexibility Score: inf
ROOT
ATOM      1  C   UNL     1      53.809  81.364  32.266  1.00  0.00     0.000 C 
ENDROOT
BRANCH   1   2
ATOM      2  C   UNL     1      54.553  82.701  32.411  1.00  0.00     0.000 C 
BRANCH   2   3
ATOM      3  C   UNL     1      53.596  83.907  32.457  1.00  0.00     0.000 C 
BRANCH   3   4
ATOM      4  C   UNL     1      54.149  85.125  31.699  1.00  0.00     0.000 C 
BRANCH   4   5
ATOM      5  C   UNL     1      53.761  85.123  30.210  1.00  0.00     0.000 C 
BRANCH   5   6
ATOM      6  C   UNL     1      54.987  85.081  29.278  1.00  0.00     0.006 C 
BRANCH   6   7
ATOM      7  C   UNL     1      56.323  84.854  30.003  1.00  0.00     0.053 C 
BRANCH   7   8
ATOM      8  C   UNL     1      57.162  83.816  29.323  1.00  0.00     0.041 C 
ATOM      9  O   UNL     1      56.682  82.678  29.072  1.00  0.00    -0.550 OA
ATOM     10  O   UNL     1      58.460  84.117  28.933  1.00  0.00    -0.550 OA
ENDBRANCH   7   8
ENDBRANCH   6   7
ENDBRANCH   5   6
ENDBRANCH   4   5
ENDBRANCH   3   4
ENDBRANCH   2   3
ENDBRANCH   1   2
BRANCH   1  11
ATOM     11  C   UNL     1      52.291  81.541  32.111  1.00  0.00     0.000 C 
BRANCH  11  12
ATOM     12  C   UNL     1      51.853  81.283  30.662  1.00  0.00     0.000 C 
BRANCH  12  13
ATOM     13  C   UNL     1      51.781  82.568  29.816  1.00  0.00     0.000 C 
BRANCH  13  14
ATOM     14  C   UNL     1      50.434  82.808  29.110  1.00  0.00     0.000 C 
BRANCH  14  15
ATOM     15  C   UNL     1      49.321  83.241  30.074  1.00  0.00     0.000 C 
BRANCH  15  16
ATOM     16  C   UNL     1      49.463  84.724  30.448  1.00  0.00     0.006 C 
BRANCH  16  17
ATOM     17  C   UNL     1      48.541  85.122  31.607  1.00  0.00     0.053 C 
BRANCH  17  18
ATOM     18  C   UNL     1      49.238  85.023  32.929  1.00  0.00     0.041 C 
ATOM     19  O   UNL     1      50.496  85.016  32.984  1.00  0.00    -0.550 OA
ATOM     20  O   UNL     1      48.497  84.971  34.103  1.00  0.00    -0.550 OA
ENDBRANCH  17  18
ENDBRANCH  16  17
ENDBRANCH  15  16
ENDBRANCH  14  15
ENDBRANCH  13  14
ENDBRANCH  12  13
ENDBRANCH  11  12
ENDBRANCH   1  11
TORSDOF 15
ENDMDL
MODEL 4
REMARK VINA RESULT:    -2.189      1.835      2.787
REMARK INTER + INTRA:          -5.608
REMARK INTER:                  -4.906
REMARK INTRA:                  -0.702
REMARK UNBOUND:                -1.500
REMARK SMILES O=C([O-])CCCCCCCCCCCCCCC(=O)[O-]
REMARK SMILES IDX 10 1 9 2 8 3 7 4 6 5 5 6 4 7 2 8 1 9 3 10 11 11 12 12 13 13
REMARK SMILES IDX 14 14 15 15 16 16 17 17 18 18 19 19 20 20
REMARK H PARENT
REMARK Flexibility Score: inf
ROOT
ATOM      1  C   UNL     1      53.011  81.486  32.340  1.00  0.00     0.000 C 
ENDROOT
BRANCH   1   2
ATOM      2  C   UNL     1      51.552  81.773  31.952  1.00  0.00     0.000 C 
BRANCH   2   3
ATOM      3  C   UNL     1      51.297  81.603  30.443  1.00  0.00     0.000 C 
BRANCH   3   4
ATOM      4  C   UNL     1      50.229  82.574  29.914  1.00  0.00     0.000 C 
BRANCH   4   5
ATOM      5  C   UNL     1      50.833  83.887  29.383  1.00  0.00     0.000 C 
BRANCH   5   6
ATOM      6  C   UNL     1      50.366  85.119  30.179  1.00  0.00     0.006 C 
BRANCH   6   7
ATOM      7  C   UNL     1      49.202  84.842  31.144  1.00  0.00     0.053 C 
BRANCH   7   8
ATOM      8  C   UNL     1      49.669  84.692  32.559  1.00  0.00     0.041 C 
ATOM      9  O   UNL     1      50.840  85.031  32.879  1.00  0.00    -0.550 OA
ATOM     10  O   UNL     1      48.802  84.211  33.530  1.00  0.00    -0.550 OA
ENDBRANCH   7   8
ENDBRANCH   6   7
ENDBRANCH   5   6
ENDBRANCH   4   5
ENDBRANCH   3   4
ENDBRANCH   2   3
ENDBRANCH   1   2
BRANCH   1  11
ATOM     11  C   UNL     1      53.978  82.586  31.876  1.00  0.00     0.000 C 
BRANCH  11  12
ATOM     12  C   UNL     1      55.400  82.318  32.388  1.00  0.00     0.000 C 
BRANCH  12  13
ATOM     13  C   UNL     1      56.163  83.606  32.750  1.00  0.00     0.000 C 
BRANCH  13  14
ATOM     14  C   UNL     1      56.987  84.218  31.603  1.00  0.00     0.000 C 
BRANCH  14  15
ATOM     15  C   UNL     1      56.124  84.973  30.582  1.00  0.00     0.000 C 
BRANCH  15  16
ATOM     16  C   UNL     1      56.665  84.783  29.157  1.00  0.00     0.006 C 
BRANCH  16  17
ATOM     17  C   UNL     1      57.082  83.332  28.884  1.00  0.00     0.053 C 
BRANCH  17  18
ATOM     18  C   UNL     1      55.911  82.399  28.932  1.00  0.00     0.041 C 
ATOM     19  O   UNL     1      56.093  81.159  29.052  1.00  0.00    -0.550 OA
ATOM     20  O   UNL     1      54.618  82.904  28.877  1.00  0.00    -0.550 OA
ENDBRANCH  17  18
ENDBRANCH  16  17
ENDBRANCH  15  16
ENDBRANCH  14  15
ENDBRANCH  13  14
ENDBRANCH  12  13
ENDBRANCH  11  12
ENDBRANCH   1  11
TORSDOF 15
ENDMDL
MODEL 5
REMARK VINA RESULT:    -2.161      1.643      5.476
REMARK INTER + INTRA:          -5.557
REMARK INTER:                  -4.589
REMARK INTRA:                  -0.967
REMARK UNBOUND:                -1.500
REMARK SMILES O=C([O-])CCCCCCCCCCCCCCC(=O)[O-]
REMARK SMILES IDX 10 1 9 2 8 3 7 4 6 5 5 6 4 7 2 8 1 9 3 10 11 11 12 12 13 13
REMARK SMILES IDX 14 14 15 15 16 16 17 17 18 18 19 19 20 20
REMARK H PARENT
REMARK Flexibility Score: inf
ROOT
ATOM      1  C   UNL     1      56.047  82.036  29.521  1.00  0.00     0.000 C 
ENDROOT
BRANCH   1   2
ATOM      2  C   UNL     1      56.319  83.499  29.138  1.00  0.00     0.000 C 
BRANCH   2   3
ATOM      3  C   UNL     1      56.680  84.371  30.355  1.00  0.00     0.000 C 
BRANCH   3   4
ATOM      4  C   UNL     1      55.450  84.748  31.195  1.00  0.00     0.000 C 
BRANCH   4   5
ATOM      5  C   UNL     1      55.652  84.481  32.697  1.00  0.00     0.000 C 
BRANCH   5   6
ATOM      6  C   UNL     1      55.877  82.990  33.010  1.00  0.00     0.006 C 
BRANCH   6   7
ATOM      7  C   UNL     1      54.998  82.034  32.188  1.00  0.00     0.053 C 
BRANCH   7   8
ATOM      8  C   UNL     1      53.768  81.621  32.935  1.00  0.00     0.041 C 
ATOM      9  O   UNL     1      53.846  80.777  33.867  1.00  0.00    -0.550 OA
ATOM     10  O   UNL     1      52.541  82.194  32.626  1.00  0.00    -0.550 OA
ENDBRANCH   7   8
ENDBRANCH   6   7
ENDBRANCH   5   6
ENDBRANCH   4   5
ENDBRANCH   3   4
ENDBRANCH   2   3
ENDBRANCH   1   2
BRANCH   1  11
ATOM     11  C   UNL     1      54.737  81.499  28.925  1.00  0.00     0.000 C 
BRANCH  11  12
ATOM     12  C   UNL     1      53.666  82.598  28.876  1.00  0.00     0.000 C 
BRANCH  12  13
ATOM     13  C   UNL     1      52.282  82.113  29.346  1.00  0.00     0.000 C 
BRANCH  13  14
ATOM     14  C   UNL     1      51.195  83.203  29.403  1.00  0.00     0.000 C 
BRANCH  14  15
ATOM     15  C   UNL     1      51.766  84.605  29.657  1.00  0.00     0.000 C 
BRANCH  15  16
ATOM     16  C   UNL     1      51.447  85.078  31.084  1.00  0.00     0.006 C 
BRANCH  16  17
ATOM     17  C   UNL     1      49.939  85.120  31.358  1.00  0.00     0.053 C 
BRANCH  17  18
ATOM     18  C   UNL     1      49.586  84.418  32.633  1.00  0.00     0.041 C 
ATOM     19  O   UNL     1      49.536  85.058  33.717  1.00  0.00    -0.550 OA
ATOM     20  O   UNL     1      49.282  83.063  32.619  1.00  0.00    -0.550 OA
ENDBRANCH  17  18
ENDBRANCH  16  17
ENDBRANCH  15  16
ENDBRANCH  14  15
ENDBRANCH  13  14
ENDBRANCH  12  13
ENDBRANCH  11  12
ENDBRANCH   1  11
TORSDOF 15
ENDMDL
MODEL 6
REMARK VINA RESULT:    -2.113      2.400      4.840
REMARK INTER + INTRA:          -5.466
REMARK INTER:                  -4.719
REMARK INTRA:                  -0.747
REMARK UNBOUND:                -1.500
REMARK SMILES O=C([O-])CCCCCCCCCCCCCCC(=O)[O-]
REMARK SMILES IDX 10 1 9 2 8 3 7 4 6 5 5 6 4 7 2 8 1 9 3 10 11 11 12 12 13 13
REMARK SMILES IDX 14 14 15 15 16 16 17 17 18 18 19 19 20 20
REMARK H PARENT
REMARK Flexibility Score: inf
ROOT
ATOM      1  C   UNL     1      56.462  82.957  30.271  1.00  0.00     0.000 C 
ENDROOT
BRANCH   1   2
ATOM      2  C   UNL     1      55.180  82.243  30.729  1.00  0.00     0.000 C 
BRANCH   2   3
ATOM      3  C   UNL     1      54.627  81.281  29.662  1.00  0.00     0.000 C 
BRANCH   3   4
ATOM      4  C   UNL     1      53.452  81.886  28.876  1.00  0.00     0.000 C 
BRANCH   4   5
ATOM      5  C   UNL     1      52.295  82.331  29.788  1.00  0.00     0.000 C 
BRANCH   5   6
ATOM      6  C   UNL     1      50.913  82.079  29.157  1.00  0.00     0.006 C 
BRANCH   6   7
ATOM      7  C   UNL     1      49.780  82.923  29.764  1.00  0.00     0.053 C 
BRANCH   7   8
ATOM      8  C   UNL     1      49.927  84.377  29.436  1.00  0.00     0.041 C 
ATOM      9  O   UNL     1      48.930  85.043  29.051  1.00  0.00    -0.550 OA
ATOM     10  O   UNL     1      51.156  85.004  29.591  1.00  0.00    -0.550 OA
ENDBRANCH   7   8
ENDBRANCH   6   7
ENDBRANCH   5   6
ENDBRANCH   4   5
ENDBRANCH   3   4
ENDBRANCH   2   3
ENDBRANCH   1   2
BRANCH   1  11
ATOM     11  C   UNL     1      56.960  83.994  31.289  1.00  0.00     0.000 C 
BRANCH  11  12
ATOM     12  C   UNL     1      56.108  83.964  32.566  1.00  0.00     0.000 C 
BRANCH  12  13
ATOM     13  C   UNL     1      55.086  85.114  32.636  1.00  0.00     0.000 C 
BRANCH  13  14
ATOM     14  C   UNL     1      53.682  84.771  32.106  1.00  0.00     0.000 C 
BRANCH  14  15
ATOM     15  C   UNL     1      52.565  85.123  33.099  1.00  0.00     0.000 C 
BRANCH  15  16
ATOM     16  C   UNL     1      51.308  84.279  32.835  1.00  0.00     0.006 C 
BRANCH  16  17
ATOM     17  C   UNL     1      50.029  85.125  32.841  1.00  0.00     0.053 C 
BRANCH  17  18
ATOM     18  C   UNL     1      48.948  84.489  33.660  1.00  0.00     0.041 C 
ATOM     19  O   UNL     1      48.782  84.825  34.862  1.00  0.00    -0.550 OA
ATOM     20  O   UNL     1      48.102  83.549  33.085  1.00  0.00    -0.550 OA
ENDBRANCH  17  18
ENDBRANCH  16  17
ENDBRANCH  15  16
ENDBRANCH  14  15
ENDBRANCH  13  14
ENDBRANCH  12  13
ENDBRANCH  11  12
ENDBRANCH   1  11
TORSDOF 15
ENDMDL
MODEL 7
REMARK VINA RESULT:    -1.949      2.151      5.769
REMARK INTER + INTRA:          -5.158
REMARK INTER:                  -3.709
REMARK INTRA:                  -1.450
REMARK UNBOUND:                -1.500
REMARK SMILES O=C([O-])CCCCCCCCCCCCCCC(=O)[O-]
REMARK SMILES IDX 10 1 9 2 8 3 7 4 6 5 5 6 4 7 2 8 1 9 3 10 11 11 12 12 13 13
REMARK SMILES IDX 14 14 15 15 16 16 17 17 18 18 19 19 20 20
REMARK H PARENT
REMARK Flexibility Score: inf
ROOT
ATOM      1  C   UNL     1      55.279  82.933  30.714  1.00  0.00     0.000 C 
ENDROOT
BRANCH   1   2
ATOM      2  C   UNL     1      55.382  82.746  32.236  1.00  0.00     0.000 C 
BRANCH   2   3
ATOM      3  C   UNL     1      54.971  81.333  32.687  1.00  0.00     0.000 C 
BRANCH   3   4
ATOM      4  C   UNL     1      53.484  81.245  33.066  1.00  0.00     0.000 C 
BRANCH   4   5
ATOM      5  C   UNL     1      52.579  82.031  32.100  1.00  0.00     0.000 C 
BRANCH   5   6
ATOM      6  C   UNL     1      51.838  81.118  31.106  1.00  0.00     0.006 C 
BRANCH   6   7
ATOM      7  C   UNL     1      52.255  81.312  29.639  1.00  0.00     0.053 C 
BRANCH   7   8
ATOM      8  C   UNL     1      53.206  80.250  29.181  1.00  0.00     0.041 C 
ATOM      9  O   UNL     1      54.417  80.530  28.975  1.00  0.00    -0.550 OA
ATOM     10  O   UNL     1      52.763  78.944  29.017  1.00  0.00    -0.550 OA
ENDBRANCH   7   8
ENDBRANCH   6   7
ENDBRANCH   5   6
ENDBRANCH   4   5
ENDBRANCH   3   4
ENDBRANCH   2   3
ENDBRANCH   1   2
BRANCH   1  11
ATOM     11  C   UNL     1      54.613  84.261  30.322  1.00  0.00     0.000 C 
BRANCH  11  12
ATOM     12  C   UNL     1      53.963  84.160  28.934  1.00  0.00     0.000 C 
BRANCH  12  13
ATOM     13  C   UNL     1      52.564  84.801  28.875  1.00  0.00     0.000 C 
BRANCH  13  14
ATOM     14  C   UNL     1      51.938  85.125  30.244  1.00  0.00     0.000 C 
BRANCH  14  15
ATOM     15  C   UNL     1      50.403  85.112  30.219  1.00  0.00     0.000 C 
BRANCH  15  16
ATOM     16  C   UNL     1      49.865  83.673  30.203  1.00  0.00     0.006 C 
BRANCH  16  17
ATOM     17  C   UNL     1      48.524  83.547  30.935  1.00  0.00     0.053 C 
BRANCH  17  18
ATOM     18  C   UNL     1      48.660  83.838  32.398  1.00  0.00     0.041 C 
ATOM     19  O   UNL     1      49.216  83.005  33.161  1.00  0.00    -0.550 OA
ATOM     20  O   UNL     1      48.200  85.044  32.913  1.00  0.00    -0.550 OA
ENDBRANCH  17  18
ENDBRANCH  16  17
ENDBRANCH  15  16
ENDBRANCH  14  15
ENDBRANCH  13  14
ENDBRANCH  12  13
ENDBRANCH  11  12
ENDBRANCH   1  11
TORSDOF 15
ENDMDL
