MODEL 1
REMARK VINA RESULT:    -7.824      0.000      0.000
REMARK INTER + INTRA:          -9.747
REMARK INTER:                  -9.425
REMARK INTRA:                  -0.322
REMARK UNBOUND:                -0.322
REMARK SMILES O=c1c(O)c(-c2ccc(O)c(O)c2)oc2cc(O)cc(O)c12
REMARK SMILES IDX 5 1 3 2 2 3 1 4 22 5 20 6 19 7 17 8 16 9 15 10 14 11 6 12
REMARK SMILES IDX 7 13 8 14 9 15 13 16 11 17 10 18 12 20 4 22 21 24 18 26
REMARK H PARENT 10 19 12 21 4 23 21 25 18 27
REMARK Flexibility Score: inf
ROOT
ATOM      1  C   UNL     1     -28.143 -26.462 104.594  1.00  0.00     0.180 A 
ATOM      2  C   UNL     1     -29.139 -25.907 105.416  1.00  0.00     0.208 A 
ATOM      3  C   UNL     1     -29.084 -26.136 106.801  1.00  0.00     0.238 A 
ATOM      4  O   UNL     1     -30.008 -25.681 107.524  1.00  0.00    -0.285 OA
ATOM      5  C   UNL     1     -28.026 -26.901 107.347  1.00  0.00     0.111 A 
ATOM      6  C   UNL     1     -27.850 -27.161 108.739  1.00  0.00     0.134 A 
ATOM      7  C   UNL     1     -26.841 -28.039 109.155  1.00  0.00     0.093 A 
ATOM      8  C   UNL     1     -25.963 -28.616 108.234  1.00  0.00     0.123 A 
ATOM      9  C   UNL     1     -26.090 -28.321 106.879  1.00  0.00     0.094 A 
ATOM     10  C   UNL     1     -27.109 -27.477 106.430  1.00  0.00     0.146 A 
ATOM     11  O   UNL     1     -27.201 -27.230 105.128  1.00  0.00    -0.452 OA
ENDROOT
BRANCH   1  12
ATOM     12  C   UNL     1     -28.120 -26.245 103.129  1.00  0.00     0.025 A 
ATOM     13  C   UNL     1     -27.483 -25.106 102.611  1.00  0.00     0.016 A 
ATOM     14  C   UNL     1     -27.468 -24.870 101.233  1.00  0.00     0.051 A 
ATOM     15  C   UNL     1     -28.101 -25.760 100.356  1.00  0.00     0.157 A 
ATOM     16  C   UNL     1     -28.773 -27.125 102.247  1.00  0.00     0.062 A 
ATOM     17  C   UNL     1     -28.760 -26.890 100.868  1.00  0.00     0.158 A 
BRANCH  15  18
ATOM     18  O   UNL     1     -28.081 -25.523  98.982  1.00  0.00    -0.504 OA
ATOM     19  H   UNL     1     -28.346 -24.625  98.595  1.00  0.00     0.293 HD
ENDBRANCH  15  18
BRANCH  17  20
ATOM     20  O   UNL     1     -29.412 -27.787 100.022  1.00  0.00    -0.504 OA
ATOM     21  H   UNL     1     -30.334 -28.150 100.231  1.00  0.00     0.293 HD
ENDBRANCH  17  20
ENDBRANCH   1  12
BRANCH   2  22
ATOM     22  O   UNL     1     -30.186 -25.173 104.853  1.00  0.00    -0.502 OA
ATOM     23  H   UNL     1     -30.201 -24.909 103.875  1.00  0.00     0.293 HD
ENDBRANCH   2  22
BRANCH   6  24
ATOM     24  O   UNL     1     -28.613 -26.566 109.747  1.00  0.00    -0.507 OA
ATOM     25  H   UNL     1     -28.237 -26.015 110.504  1.00  0.00     0.293 HD
ENDBRANCH   6  24
BRANCH   8  26
ATOM     26  O   UNL     1     -24.953 -29.477 108.658  1.00  0.00    -0.508 OA
ATOM     27  H   UNL     1     -24.178 -29.724 108.054  1.00  0.00     0.293 HD
ENDBRANCH   8  26
TORSDOF 6
ENDMDL
MODEL 2
REMARK VINA RESULT:    -7.447      3.001      6.389
REMARK INTER + INTRA:          -9.293
REMARK INTER:                  -9.047
REMARK INTRA:                  -0.246
REMARK UNBOUND:                -0.322
REMARK SMILES O=c1c(O)c(-c2ccc(O)c(O)c2)oc2cc(O)cc(O)c12
REMARK SMILES IDX 5 1 3 2 2 3 1 4 22 5 20 6 19 7 17 8 16 9 15 10 14 11 6 12
REMARK SMILES IDX 7 13 8 14 9 15 13 16 11 17 10 18 12 20 4 22 21 24 18 26
REMARK H PARENT 10 19 12 21 4 23 21 25 18 27
REMARK Flexibility Score: inf
ROOT
ATOM      1  C   UNL     1     -27.802 -25.392 105.479  1.00  0.00     0.180 A 
ATOM      2  C   UNL     1     -28.846 -25.604 104.562  1.00  0.00     0.208 A 
ATOM      3  C   UNL     1     -29.587 -24.502 104.107  1.00  0.00     0.238 A 
ATOM      4  O   UNL     1     -30.555 -24.705 103.328  1.00  0.00    -0.285 OA
ATOM      5  C   UNL     1     -29.265 -23.200 104.561  1.00  0.00     0.111 A 
ATOM      6  C   UNL     1     -29.923 -22.008 104.134  1.00  0.00     0.134 A 
ATOM      7  C   UNL     1     -29.608 -20.788 104.748  1.00  0.00     0.093 A 
ATOM      8  C   UNL     1     -28.614 -20.710 105.726  1.00  0.00     0.123 A 
ATOM      9  C   UNL     1     -27.925 -21.858 106.106  1.00  0.00     0.094 A 
ATOM     10  C   UNL     1     -28.241 -23.095 105.538  1.00  0.00     0.146 A 
ATOM     11  O   UNL     1     -27.567 -24.168 105.936  1.00  0.00    -0.452 OA
ENDROOT
BRANCH   1  12
ATOM     12  C   UNL     1     -26.961 -26.500 105.985  1.00  0.00     0.025 A 
ATOM     13  C   UNL     1     -25.662 -26.667 105.480  1.00  0.00     0.016 A 
ATOM     14  C   UNL     1     -24.858 -27.719 105.927  1.00  0.00     0.051 A 
ATOM     15  C   UNL     1     -25.346 -28.628 106.874  1.00  0.00     0.157 A 
ATOM     16  C   UNL     1     -27.455 -27.428 106.920  1.00  0.00     0.062 A 
ATOM     17  C   UNL     1     -26.653 -28.483 107.368  1.00  0.00     0.158 A 
BRANCH  15  18
ATOM     18  O   UNL     1     -24.541 -29.675 107.321  1.00  0.00    -0.504 OA
ATOM     19  H   UNL     1     -24.223 -30.405 106.693  1.00  0.00     0.293 HD
ENDBRANCH  15  18
BRANCH  17  20
ATOM     20  O   UNL     1     -27.174 -29.381 108.301  1.00  0.00    -0.504 OA
ATOM     21  H   UNL     1     -27.863 -29.102 108.989  1.00  0.00     0.293 HD
ENDBRANCH  17  20
ENDBRANCH   1  12
BRANCH   2  22
ATOM     22  O   UNL     1     -29.161 -26.900 104.144  1.00  0.00    -0.502 OA
ATOM     23  H   UNL     1     -30.025 -27.361 104.405  1.00  0.00     0.293 HD
ENDBRANCH   2  22
BRANCH   6  24
ATOM     24  O   UNL     1     -30.865 -21.962 103.103  1.00  0.00    -0.507 OA
ATOM     25  H   UNL     1     -31.332 -21.126 102.787  1.00  0.00     0.293 HD
ENDBRANCH   6  24
BRANCH   8  26
ATOM     26  O   UNL     1     -28.297 -19.490 106.320  1.00  0.00    -0.508 OA
ATOM     27  H   UNL     1     -28.800 -19.147 107.130  1.00  0.00     0.293 HD
ENDBRANCH   8  26
TORSDOF 6
ENDMDL
MODEL 3
REMARK VINA RESULT:    -7.335      1.648      6.516
REMARK INTER + INTRA:          -9.158
REMARK INTER:                  -9.100
REMARK INTRA:                  -0.058
REMARK UNBOUND:                -0.322
REMARK SMILES O=c1c(O)c(-c2ccc(O)c(O)c2)oc2cc(O)cc(O)c12
REMARK SMILES IDX 5 1 3 2 2 3 1 4 22 5 20 6 19 7 17 8 16 9 15 10 14 11 6 12
REMARK SMILES IDX 7 13 8 14 9 15 13 16 11 17 10 18 12 20 4 22 21 24 18 26
REMARK H PARENT 10 19 12 21 4 23 21 25 18 27
REMARK Flexibility Score: inf
ROOT
ATOM      1  C   UNL     1     -27.701 -26.092 105.397  1.00  0.00     0.180 A 
ATOM      2  C   UNL     1     -28.543 -25.129 105.982  1.00  0.00     0.208 A 
ATOM      3  C   UNL     1     -29.270 -24.264 105.149  1.00  0.00     0.238 A 
ATOM      4  O   UNL     1     -29.979 -23.370 105.679  1.00  0.00    -0.285 OA
ATOM      5  C   UNL     1     -29.160 -24.383 103.742  1.00  0.00     0.111 A 
ATOM      6  C   UNL     1     -29.883 -23.586 102.804  1.00  0.00     0.134 A 
ATOM      7  C   UNL     1     -29.598 -23.702 101.437  1.00  0.00     0.093 A 
ATOM      8  C   UNL     1     -28.664 -24.630 100.972  1.00  0.00     0.123 A 
ATOM      9  C   UNL     1     -27.998 -25.454 101.875  1.00  0.00     0.094 A 
ATOM     10  C   UNL     1     -28.234 -25.337 103.248  1.00  0.00     0.146 A 
ATOM     11  O   UNL     1     -27.569 -26.135 104.076  1.00  0.00    -0.452 OA
ENDROOT
BRANCH   1  12
ATOM     12  C   UNL     1     -26.922 -27.054 106.208  1.00  0.00     0.025 A 
ATOM     13  C   UNL     1     -25.549 -27.212 105.962  1.00  0.00     0.016 A 
ATOM     14  C   UNL     1     -24.799 -28.131 106.702  1.00  0.00     0.051 A 
ATOM     15  C   UNL     1     -25.412 -28.915 107.686  1.00  0.00     0.157 A 
ATOM     16  C   UNL     1     -27.539 -27.859 107.183  1.00  0.00     0.062 A 
ATOM     17  C   UNL     1     -26.790 -28.781 107.924  1.00  0.00     0.158 A 
BRANCH  15  18
ATOM     18  O   UNL     1     -24.660 -29.829 108.424  1.00  0.00    -0.504 OA
ATOM     19  H   UNL     1     -23.769 -30.174 108.089  1.00  0.00     0.293 HD
ENDBRANCH  15  18
BRANCH  17  20
ATOM     20  O   UNL     1     -27.434 -29.557 108.887  1.00  0.00    -0.504 OA
ATOM     21  H   UNL     1     -27.775 -30.490 108.687  1.00  0.00     0.293 HD
ENDBRANCH  17  20
ENDBRANCH   1  12
BRANCH   2  22
ATOM     22  O   UNL     1     -28.619 -25.016 107.372  1.00  0.00    -0.502 OA
ATOM     23  H   UNL     1     -28.074 -25.599 107.997  1.00  0.00     0.293 HD
ENDBRANCH   2  22
BRANCH   6  24
ATOM     24  O   UNL     1     -30.900 -22.695 103.156  1.00  0.00    -0.507 OA
ATOM     25  H   UNL     1     -31.703 -22.484 102.584  1.00  0.00     0.293 HD
ENDBRANCH   6  24
BRANCH   8  26
ATOM     26  O   UNL     1     -28.398 -24.749  99.609  1.00  0.00    -0.508 OA
ATOM     27  H   UNL     1     -27.636 -25.321  99.265  1.00  0.00     0.293 HD
ENDBRANCH   8  26
TORSDOF 6
ENDMDL
MODEL 4
REMARK VINA RESULT:    -7.308      5.175      7.937
REMARK INTER + INTRA:          -9.125
REMARK INTER:                  -8.824
REMARK INTRA:                  -0.302
REMARK UNBOUND:                -0.322
REMARK SMILES O=c1c(O)c(-c2ccc(O)c(O)c2)oc2cc(O)cc(O)c12
REMARK SMILES IDX 5 1 3 2 2 3 1 4 22 5 20 6 19 7 17 8 16 9 15 10 14 11 6 12
REMARK SMILES IDX 7 13 8 14 9 15 13 16 11 17 10 18 12 20 4 22 21 24 18 26
REMARK H PARENT 10 19 12 21 4 23 21 25 18 27
REMARK Flexibility Score: inf
ROOT
ATOM      1  C   UNL     1     -28.779 -21.183 103.410  1.00  0.00     0.180 A 
ATOM      2  C   UNL     1     -27.809 -21.322 102.402  1.00  0.00     0.208 A 
ATOM      3  C   UNL     1     -27.694 -22.551 101.732  1.00  0.00     0.238 A 
ATOM      4  O   UNL     1     -26.789 -22.685 100.869  1.00  0.00    -0.285 OA
ATOM      5  C   UNL     1     -28.561 -23.619 102.067  1.00  0.00     0.111 A 
ATOM      6  C   UNL     1     -28.559 -24.894 101.426  1.00  0.00     0.134 A 
ATOM      7  C   UNL     1     -29.372 -25.920 101.926  1.00  0.00     0.093 A 
ATOM      8  C   UNL     1     -30.231 -25.696 103.005  1.00  0.00     0.123 A 
ATOM      9  C   UNL     1     -30.283 -24.438 103.599  1.00  0.00     0.094 A 
ATOM     10  C   UNL     1     -29.459 -23.405 103.145  1.00  0.00     0.146 A 
ATOM     11  O   UNL     1     -29.532 -22.223 103.746  1.00  0.00    -0.452 OA
ENDROOT
BRANCH   1  12
ATOM     12  C   UNL     1     -28.977 -19.911 104.143  1.00  0.00     0.025 A 
ATOM     13  C   UNL     1     -28.503 -19.792 105.459  1.00  0.00     0.016 A 
ATOM     14  C   UNL     1     -28.697 -18.608 106.176  1.00  0.00     0.051 A 
ATOM     15  C   UNL     1     -29.382 -17.534 105.595  1.00  0.00     0.157 A 
ATOM     16  C   UNL     1     -29.682 -18.838 103.569  1.00  0.00     0.062 A 
ATOM     17  C   UNL     1     -29.880 -17.652 104.286  1.00  0.00     0.158 A 
BRANCH  15  18
ATOM     18  O   UNL     1     -29.572 -16.353 106.312  1.00  0.00    -0.504 OA
ATOM     19  H   UNL     1     -30.405 -16.199 106.868  1.00  0.00     0.293 HD
ENDBRANCH  15  18
BRANCH  17  20
ATOM     20  O   UNL     1     -30.578 -16.605 103.684  1.00  0.00    -0.504 OA
ATOM     21  H   UNL     1     -30.877 -16.644 102.717  1.00  0.00     0.293 HD
ENDBRANCH  17  20
ENDBRANCH   1  12
BRANCH   2  22
ATOM     22  O   UNL     1     -26.950 -20.261 102.102  1.00  0.00    -0.502 OA
ATOM     23  H   UNL     1     -27.290 -19.333 101.876  1.00  0.00     0.293 HD
ENDBRANCH   2  22
BRANCH   6  24
ATOM     24  O   UNL     1     -27.807 -25.194 100.287  1.00  0.00    -0.507 OA
ATOM     25  H   UNL     1     -27.762 -24.619  99.460  1.00  0.00     0.293 HD
ENDBRANCH   6  24
BRANCH   8  26
ATOM     26  O   UNL     1     -31.047 -26.717 103.486  1.00  0.00    -0.508 OA
ATOM     27  H   UNL     1     -31.625 -27.272 102.866  1.00  0.00     0.293 HD
ENDBRANCH   8  26
TORSDOF 6
ENDMDL
MODEL 5
REMARK VINA RESULT:    -7.273      1.943      6.811
REMARK INTER + INTRA:          -9.084
REMARK INTER:                  -8.916
REMARK INTRA:                  -0.167
REMARK UNBOUND:                -0.322
REMARK SMILES O=c1c(O)c(-c2ccc(O)c(O)c2)oc2cc(O)cc(O)c12
REMARK SMILES IDX 5 1 3 2 2 3 1 4 22 5 20 6 19 7 17 8 16 9 15 10 14 11 6 12
REMARK SMILES IDX 7 13 8 14 9 15 13 16 11 17 10 18 12 20 4 22 21 24 18 26
REMARK H PARENT 10 19 12 21 4 23 21 25 18 27
REMARK Flexibility Score: inf
ROOT
ATOM      1  C   UNL     1     -27.323 -25.866 105.200  1.00  0.00     0.180 A 
ATOM      2  C   UNL     1     -27.246 -24.483 105.437  1.00  0.00     0.208 A 
ATOM      3  C   UNL     1     -27.476 -23.595 104.374  1.00  0.00     0.238 A 
ATOM      4  O   UNL     1     -27.351 -22.360 104.580  1.00  0.00    -0.285 OA
ATOM      5  C   UNL     1     -27.798 -24.101 103.091  1.00  0.00     0.111 A 
ATOM      6  C   UNL     1     -28.090 -23.293 101.952  1.00  0.00     0.134 A 
ATOM      7  C   UNL     1     -28.267 -23.900 100.702  1.00  0.00     0.093 A 
ATOM      8  C   UNL     1     -28.226 -25.289 100.564  1.00  0.00     0.123 A 
ATOM      9  C   UNL     1     -28.001 -26.089 101.681  1.00  0.00     0.094 A 
ATOM     10  C   UNL     1     -27.785 -25.512 102.934  1.00  0.00     0.146 A 
ATOM     11  O   UNL     1     -27.563 -26.311 103.972  1.00  0.00    -0.452 OA
ENDROOT
BRANCH   1  12
ATOM     12  C   UNL     1     -27.118 -26.863 106.276  1.00  0.00     0.025 A 
ATOM     13  C   UNL     1     -28.019 -26.913 107.352  1.00  0.00     0.016 A 
ATOM     14  C   UNL     1     -27.832 -27.831 108.388  1.00  0.00     0.051 A 
ATOM     15  C   UNL     1     -26.735 -28.700 108.374  1.00  0.00     0.157 A 
ATOM     16  C   UNL     1     -26.006 -27.723 106.275  1.00  0.00     0.062 A 
ATOM     17  C   UNL     1     -25.815 -28.642 107.313  1.00  0.00     0.158 A 
BRANCH  15  18
ATOM     18  O   UNL     1     -26.553 -29.617 109.409  1.00  0.00    -0.504 OA
ATOM     19  H   UNL     1     -25.645 -30.023 109.604  1.00  0.00     0.293 HD
ENDBRANCH  15  18
BRANCH  17  20
ATOM     20  O   UNL     1     -24.704 -29.485 107.276  1.00  0.00    -0.504 OA
ATOM     21  H   UNL     1     -24.657 -30.287 106.659  1.00  0.00     0.293 HD
ENDBRANCH  17  20
ENDBRANCH   1  12
BRANCH   2  22
ATOM     22  O   UNL     1     -26.905 -24.006 106.706  1.00  0.00    -0.502 OA
ATOM     23  H   UNL     1     -25.997 -23.605 106.911  1.00  0.00     0.293 HD
ENDBRANCH   2  22
BRANCH   6  24
ATOM     24  O   UNL     1     -28.244 -21.905 101.998  1.00  0.00    -0.507 OA
ATOM     25  H   UNL     1     -27.774 -21.296 102.651  1.00  0.00     0.293 HD
ENDBRANCH   6  24
BRANCH   8  26
ATOM     26  O   UNL     1     -28.418 -25.885  99.319  1.00  0.00    -0.508 OA
ATOM     27  H   UNL     1     -28.774 -25.360  98.529  1.00  0.00     0.293 HD
ENDBRANCH   8  26
TORSDOF 6
ENDMDL
MODEL 6
REMARK VINA RESULT:    -7.228      2.183      6.817
REMARK INTER + INTRA:          -9.029
REMARK INTER:                  -8.948
REMARK INTRA:                  -0.082
REMARK UNBOUND:                -0.322
REMARK SMILES O=c1c(O)c(-c2ccc(O)c(O)c2)oc2cc(O)cc(O)c12
REMARK SMILES IDX 5 1 3 2 2 3 1 4 22 5 20 6 19 7 17 8 16 9 15 10 14 11 6 12
REMARK SMILES IDX 7 13 8 14 9 15 13 16 11 17 10 18 12 20 4 22 21 24 18 26
REMARK H PARENT 10 19 12 21 4 23 21 25 18 27
REMARK Flexibility Score: inf
ROOT
ATOM      1  C   UNL     1     -27.056 -26.184 104.765  1.00  0.00     0.180 A 
ATOM      2  C   UNL     1     -28.196 -26.237 103.944  1.00  0.00     0.208 A 
ATOM      3  C   UNL     1     -28.261 -25.404 102.815  1.00  0.00     0.238 A 
ATOM      4  O   UNL     1     -29.307 -25.418 102.115  1.00  0.00    -0.285 OA
ATOM      5  C   UNL     1     -27.179 -24.543 102.511  1.00  0.00     0.111 A 
ATOM      6  C   UNL     1     -27.121 -23.687 101.370  1.00  0.00     0.134 A 
ATOM      7  C   UNL     1     -26.060 -22.783 101.240  1.00  0.00     0.093 A 
ATOM      8  C   UNL     1     -25.023 -22.749 102.176  1.00  0.00     0.123 A 
ATOM      9  C   UNL     1     -25.041 -23.622 103.260  1.00  0.00     0.094 A 
ATOM     10  C   UNL     1     -26.104 -24.511 103.437  1.00  0.00     0.146 A 
ATOM     11  O   UNL     1     -26.087 -25.319 104.490  1.00  0.00    -0.452 OA
ENDROOT
BRANCH   1  12
ATOM     12  C   UNL     1     -26.904 -27.048 105.958  1.00  0.00     0.025 A 
ATOM     13  C   UNL     1     -27.836 -26.951 107.004  1.00  0.00     0.016 A 
ATOM     14  C   UNL     1     -27.700 -27.742 108.148  1.00  0.00     0.051 A 
ATOM     15  C   UNL     1     -26.623 -28.628 108.270  1.00  0.00     0.157 A 
ATOM     16  C   UNL     1     -25.813 -27.924 106.093  1.00  0.00     0.062 A 
ATOM     17  C   UNL     1     -25.673 -28.716 107.239  1.00  0.00     0.158 A 
BRANCH  15  18
ATOM     18  O   UNL     1     -26.492 -29.418 109.412  1.00  0.00    -0.504 OA
ATOM     19  H   UNL     1     -26.027 -30.318 109.384  1.00  0.00     0.293 HD
ENDBRANCH  15  18
BRANCH  17  20
ATOM     20  O   UNL     1     -24.581 -29.579 107.337  1.00  0.00    -0.504 OA
ATOM     21  H   UNL     1     -24.015 -29.823 106.534  1.00  0.00     0.293 HD
ENDBRANCH  17  20
ENDBRANCH   1  12
BRANCH   2  22
ATOM     22  O   UNL     1     -29.261 -27.078 104.274  1.00  0.00    -0.502 OA
ATOM     23  H   UNL     1     -30.222 -26.860 104.036  1.00  0.00     0.293 HD
ENDBRANCH   2  22
BRANCH   6  24
ATOM     24  O   UNL     1     -28.057 -23.706 100.332  1.00  0.00    -0.507 OA
ATOM     25  H   UNL     1     -28.338 -22.898  99.798  1.00  0.00     0.293 HD
ENDBRANCH   6  24
BRANCH   8  26
ATOM     26  O   UNL     1     -23.963 -21.856 102.029  1.00  0.00    -0.508 OA
ATOM     27  H   UNL     1     -23.183 -22.055 101.415  1.00  0.00     0.293 HD
ENDBRANCH   8  26
TORSDOF 6
ENDMDL
MODEL 7
REMARK VINA RESULT:    -7.218      5.346      7.798
REMARK INTER + INTRA:          -9.017
REMARK INTER:                  -8.694
REMARK INTRA:                  -0.323
REMARK UNBOUND:                -0.322
REMARK SMILES O=c1c(O)c(-c2ccc(O)c(O)c2)oc2cc(O)cc(O)c12
REMARK SMILES IDX 5 1 3 2 2 3 1 4 22 5 20 6 19 7 17 8 16 9 15 10 14 11 6 12
REMARK SMILES IDX 7 13 8 14 9 15 13 16 11 17 10 18 12 20 4 22 21 24 18 26
REMARK H PARENT 10 19 12 21 4 23 21 25 18 27
REMARK Flexibility Score: inf
ROOT
ATOM      1  C   UNL     1     -29.121 -21.115 103.684  1.00  0.00     0.180 A 
ATOM      2  C   UNL     1     -29.957 -22.063 103.066  1.00  0.00     0.208 A 
ATOM      3  C   UNL     1     -29.378 -23.191 102.463  1.00  0.00     0.238 A 
ATOM      4  O   UNL     1     -30.127 -24.006 101.865  1.00  0.00    -0.285 OA
ATOM      5  C   UNL     1     -27.973 -23.366 102.499  1.00  0.00     0.111 A 
ATOM      6  C   UNL     1     -27.284 -24.491 101.955  1.00  0.00     0.134 A 
ATOM      7  C   UNL     1     -25.883 -24.498 101.933  1.00  0.00     0.093 A 
ATOM      8  C   UNL     1     -25.149 -23.449 102.492  1.00  0.00     0.123 A 
ATOM      9  C   UNL     1     -25.813 -22.375 103.078  1.00  0.00     0.094 A 
ATOM     10  C   UNL     1     -27.210 -22.323 103.084  1.00  0.00     0.146 A 
ATOM     11  O   UNL     1     -27.804 -21.276 103.644  1.00  0.00    -0.452 OA
ENDROOT
BRANCH   1  12
ATOM     12  C   UNL     1     -29.659 -19.914 104.362  1.00  0.00     0.025 A 
ATOM     13  C   UNL     1     -30.011 -19.988 105.719  1.00  0.00     0.016 A 
ATOM     14  C   UNL     1     -30.541 -18.873 106.374  1.00  0.00     0.051 A 
ATOM     15  C   UNL     1     -30.741 -17.674 105.679  1.00  0.00     0.157 A 
ATOM     16  C   UNL     1     -29.881 -18.715 103.662  1.00  0.00     0.062 A 
ATOM     17  C   UNL     1     -30.413 -17.597 104.315  1.00  0.00     0.158 A 
BRANCH  15  18
ATOM     18  O   UNL     1     -31.266 -16.562 106.336  1.00  0.00    -0.504 OA
ATOM     19  H   UNL     1     -32.227 -16.269 106.198  1.00  0.00     0.293 HD
ENDBRANCH  15  18
BRANCH  17  20
ATOM     20  O   UNL     1     -30.613 -16.422 103.591  1.00  0.00    -0.504 OA
ATOM     21  H   UNL     1     -30.291 -15.522 103.926  1.00  0.00     0.293 HD
ENDBRANCH  17  20
ENDBRANCH   1  12
BRANCH   2  22
ATOM     22  O   UNL     1     -31.338 -21.858 103.023  1.00  0.00    -0.502 OA
ATOM     23  H   UNL     1     -31.837 -21.360 103.751  1.00  0.00     0.293 HD
ENDBRANCH   2  22
BRANCH   6  24
ATOM     24  O   UNL     1     -27.921 -25.630 101.455  1.00  0.00    -0.507 OA
ATOM     25  H   UNL     1     -28.012 -26.503 101.953  1.00  0.00     0.293 HD
ENDBRANCH   6  24
BRANCH   8  26
ATOM     26  O   UNL     1     -23.756 -23.471 102.478  1.00  0.00    -0.508 OA
ATOM     27  H   UNL     1     -23.224 -22.951 101.790  1.00  0.00     0.293 HD
ENDBRANCH   8  26
TORSDOF 6
ENDMDL
MODEL 8
REMARK VINA RESULT:    -7.194      3.921      6.191
REMARK INTER + INTRA:          -8.989
REMARK INTER:                  -9.040
REMARK INTRA:                   0.051
REMARK UNBOUND:                -0.322
REMARK SMILES O=c1c(O)c(-c2ccc(O)c(O)c2)oc2cc(O)cc(O)c12
REMARK SMILES IDX 5 1 3 2 2 3 1 4 22 5 20 6 19 7 17 8 16 9 15 10 14 11 6 12
REMARK SMILES IDX 7 13 8 14 9 15 13 16 11 17 10 18 12 20 4 22 21 24 18 26
REMARK H PARENT 10 19 12 21 4 23 21 25 18 27
REMARK Flexibility Score: inf
ROOT
ATOM      1  C   UNL     1     -25.696 -23.767 102.688  1.00  0.00     0.180 A 
ATOM      2  C   UNL     1     -25.257 -24.603 103.730  1.00  0.00     0.208 A 
ATOM      3  C   UNL     1     -26.163 -25.510 104.303  1.00  0.00     0.238 A 
ATOM      4  O   UNL     1     -25.779 -26.216 105.271  1.00  0.00    -0.285 OA
ATOM      5  C   UNL     1     -27.490 -25.583 103.815  1.00  0.00     0.111 A 
ATOM      6  C   UNL     1     -28.479 -26.493 104.294  1.00  0.00     0.134 A 
ATOM      7  C   UNL     1     -29.796 -26.389 103.829  1.00  0.00     0.093 A 
ATOM      8  C   UNL     1     -30.144 -25.449 102.856  1.00  0.00     0.123 A 
ATOM      9  C   UNL     1     -29.172 -24.596 102.339  1.00  0.00     0.094 A 
ATOM     10  C   UNL     1     -27.858 -24.652 102.809  1.00  0.00     0.146 A 
ATOM     11  O   UNL     1     -26.964 -23.814 102.297  1.00  0.00    -0.452 OA
ENDROOT
BRANCH   1  12
ATOM     12  C   UNL     1     -24.793 -22.804 102.018  1.00  0.00     0.025 A 
ATOM     13  C   UNL     1     -23.522 -23.226 101.597  1.00  0.00     0.016 A 
ATOM     14  C   UNL     1     -22.646 -22.328 100.981  1.00  0.00     0.051 A 
ATOM     15  C   UNL     1     -23.020 -20.992 100.793  1.00  0.00     0.157 A 
ATOM     16  C   UNL     1     -25.158 -21.456 101.845  1.00  0.00     0.062 A 
ATOM     17  C   UNL     1     -24.281 -20.554 101.231  1.00  0.00     0.158 A 
BRANCH  15  18
ATOM     18  O   UNL     1     -22.145 -20.099 100.175  1.00  0.00    -0.504 OA
ATOM     19  H   UNL     1     -22.132 -19.980  99.169  1.00  0.00     0.293 HD
ENDBRANCH  15  18
BRANCH  17  20
ATOM     20  O   UNL     1     -24.679 -19.227 101.071  1.00  0.00    -0.504 OA
ATOM     21  H   UNL     1     -25.644 -18.971 100.901  1.00  0.00     0.293 HD
ENDBRANCH  17  20
ENDBRANCH   1  12
BRANCH   2  22
ATOM     22  O   UNL     1     -23.949 -24.498 104.210  1.00  0.00    -0.502 OA
ATOM     23  H   UNL     1     -23.144 -24.783 103.664  1.00  0.00     0.293 HD
ENDBRANCH   2  22
BRANCH   6  24
ATOM     24  O   UNL     1     -28.217 -27.527 105.197  1.00  0.00    -0.507 OA
ATOM     25  H   UNL     1     -28.904 -28.185 105.533  1.00  0.00     0.293 HD
ENDBRANCH   6  24
BRANCH   8  26
ATOM     26  O   UNL     1     -31.453 -25.362 102.388  1.00  0.00    -0.508 OA
ATOM     27  H   UNL     1     -31.768 -25.900 101.589  1.00  0.00     0.293 HD
ENDBRANCH   8  26
TORSDOF 6
ENDMDL
MODEL 9
REMARK VINA RESULT:    -7.165      4.675      7.181
REMARK INTER + INTRA:          -8.954
REMARK INTER:                  -8.994
REMARK INTRA:                   0.040
REMARK UNBOUND:                -0.322
REMARK SMILES O=c1c(O)c(-c2ccc(O)c(O)c2)oc2cc(O)cc(O)c12
REMARK SMILES IDX 5 1 3 2 2 3 1 4 22 5 20 6 19 7 17 8 16 9 15 10 14 11 6 12
REMARK SMILES IDX 7 13 8 14 9 15 13 16 11 17 10 18 12 20 4 22 21 24 18 26
REMARK H PARENT 10 19 12 21 4 23 21 25 18 27
REMARK Flexibility Score: inf
ROOT
ATOM      1  C   UNL     1     -29.210 -21.972 104.234  1.00  0.00     0.180 A 
ATOM      2  C   UNL     1     -29.455 -22.964 105.200  1.00  0.00     0.208 A 
ATOM      3  C   UNL     1     -29.368 -24.314 104.827  1.00  0.00     0.238 A 
ATOM      4  O   UNL     1     -29.642 -25.196 105.683  1.00  0.00    -0.285 OA
ATOM      5  C   UNL     1     -29.021 -24.657 103.498  1.00  0.00     0.111 A 
ATOM      6  C   UNL     1     -28.865 -25.993 103.020  1.00  0.00     0.134 A 
ATOM      7  C   UNL     1     -28.648 -26.217 101.655  1.00  0.00     0.093 A 
ATOM      8  C   UNL     1     -28.519 -25.151 100.762  1.00  0.00     0.123 A 
ATOM      9  C   UNL     1     -28.609 -23.842 101.228  1.00  0.00     0.094 A 
ATOM     10  C   UNL     1     -28.861 -23.587 102.579  1.00  0.00     0.146 A 
ATOM     11  O   UNL     1     -28.951 -22.325 102.981  1.00  0.00    -0.452 OA
ENDROOT
BRANCH   1  12
ATOM     12  C   UNL     1     -29.258 -20.528 104.558  1.00  0.00     0.025 A 
ATOM     13  C   UNL     1     -28.575 -20.051 105.688  1.00  0.00     0.016 A 
ATOM     14  C   UNL     1     -28.624 -18.696 106.025  1.00  0.00     0.051 A 
ATOM     15  C   UNL     1     -29.369 -17.801 105.246  1.00  0.00     0.157 A 
ATOM     16  C   UNL     1     -30.022 -19.630 103.791  1.00  0.00     0.062 A 
ATOM     17  C   UNL     1     -30.074 -18.272 104.127  1.00  0.00     0.158 A 
BRANCH  15  18
ATOM     18  O   UNL     1     -29.413 -16.448 105.583  1.00  0.00    -0.504 OA
ATOM     19  H   UNL     1     -30.188 -15.857 105.305  1.00  0.00     0.293 HD
ENDBRANCH  15  18
BRANCH  17  20
ATOM     20  O   UNL     1     -30.836 -17.409 103.339  1.00  0.00    -0.504 OA
ATOM     21  H   UNL     1     -31.509 -16.767 103.741  1.00  0.00     0.293 HD
ENDBRANCH  17  20
ENDBRANCH   1  12
BRANCH   2  22
ATOM     22  O   UNL     1     -29.817 -22.603 106.501  1.00  0.00    -0.502 OA
ATOM     23  H   UNL     1     -30.595 -23.032 106.988  1.00  0.00     0.293 HD
ENDBRANCH   2  22
BRANCH   6  24
ATOM     24  O   UNL     1     -28.887 -27.123 103.842  1.00  0.00    -0.507 OA
ATOM     25  H   UNL     1     -28.765 -28.071 103.520  1.00  0.00     0.293 HD
ENDBRANCH   6  24
BRANCH   8  26
ATOM     26  O   UNL     1     -28.287 -25.383  99.407  1.00  0.00    -0.508 OA
ATOM     27  H   UNL     1     -28.104 -24.623  98.763  1.00  0.00     0.293 HD
ENDBRANCH   8  26
TORSDOF 6
ENDMDL
