MODEL 1
REMARK VINA RESULT:    -5.106      0.000      0.000
REMARK INTER + INTRA:          -7.548
REMARK INTER:                  -6.897
REMARK INTRA:                  -0.651
REMARK UNBOUND:                -0.651
REMARK SMILES CC(=O)CCC=C(C)CCC=C(C)C
REMARK SMILES IDX 7 1 6 2 8 3 9 4 10 5 11 6 13 7 12 8 14 9 5 10 4 11 2 12 3 13
REMARK SMILES IDX 1 14
REMARK H PARENT
REMARK Flexibility Score: inf
ROOT
ATOM      1  C   UNL     1     101.946 131.044 126.693  1.00  0.00    -0.077 C 
ATOM      2  C   UNL     1     100.942 130.910 127.590  1.00  0.00    -0.028 C 
ATOM      3  C   UNL     1     103.313 130.447 126.932  1.00  0.00     0.039 C 
ENDROOT
BRANCH   1   4
ATOM      4  C   UNL     1     101.697 131.833 125.426  1.00  0.00     0.034 C 
BRANCH   4   5
ATOM      5  C   UNL     1     101.767 133.340 125.699  1.00  0.00     0.032 C 
BRANCH   5   6
ATOM      6  C   UNL     1     100.439 134.006 125.431  1.00  0.00    -0.028 C 
ATOM      7  C   UNL     1     101.416 136.281 125.761  1.00  0.00     0.039 C 
ATOM      8  C   UNL     1     100.270 135.345 125.457  1.00  0.00    -0.080 C 
ATOM      9  C   UNL     1      98.901 135.908 125.174  1.00  0.00     0.039 C 
ENDBRANCH   5   6
ENDBRANCH   4   5
ENDBRANCH   1   4
BRANCH   2  10
ATOM     10  C   UNL     1     101.040 130.111 128.865  1.00  0.00     0.035 C 
BRANCH  10  11
ATOM     11  C   UNL     1     100.775 131.002 130.082  1.00  0.00     0.079 C 
BRANCH  11  12
ATOM     12  C   UNL     1     101.937 130.953 131.040  1.00  0.00     0.130 C 
ATOM     13  O   UNL     1     101.852 131.524 132.117  1.00  0.00    -0.300 OA
ATOM     14  C   UNL     1     103.196 130.210 130.705  1.00  0.00     0.087 C 
ENDBRANCH  11  12
ENDBRANCH  10  11
ENDBRANCH   2  10
TORSDOF 6
ENDMDL
MODEL 2
REMARK VINA RESULT:    -4.998      2.121      6.110
REMARK INTER + INTRA:          -7.403
REMARK INTER:                  -6.740
REMARK INTRA:                  -0.663
REMARK UNBOUND:                -0.651
REMARK SMILES CC(=O)CCC=C(C)CCC=C(C)C
REMARK SMILES IDX 7 1 6 2 8 3 9 4 10 5 11 6 13 7 12 8 14 9 5 10 4 11 2 12 3 13
REMARK SMILES IDX 1 14
REMARK H PARENT
REMARK Flexibility Score: inf
ROOT
ATOM      1  C   UNL     1     101.272 131.117 127.473  1.00  0.00    -0.077 C 
ATOM      2  C   UNL     1     100.748 132.009 126.601  1.00  0.00    -0.028 C 
ATOM      3  C   UNL     1     102.697 130.630 127.355  1.00  0.00     0.039 C 
ENDROOT
BRANCH   1   4
ATOM      4  C   UNL     1     100.398 130.577 128.585  1.00  0.00     0.034 C 
BRANCH   4   5
ATOM      5  C   UNL     1     101.249 129.914 129.674  1.00  0.00     0.032 C 
BRANCH   5   6
ATOM      6  C   UNL     1     101.412 130.822 130.870  1.00  0.00    -0.028 C 
ATOM      7  C   UNL     1     103.894 130.545 130.852  1.00  0.00     0.039 C 
ATOM      8  C   UNL     1     102.612 131.115 131.413  1.00  0.00    -0.080 C 
ATOM      9  C   UNL     1     102.663 132.034 132.606  1.00  0.00     0.039 C 
ENDBRANCH   5   6
ENDBRANCH   4   5
ENDBRANCH   1   4
BRANCH   2  10
ATOM     10  C   UNL     1     101.520 132.660 125.481  1.00  0.00     0.035 C 
BRANCH  10  11
ATOM     11  C   UNL     1     100.606 133.562 124.647  1.00  0.00     0.079 C 
BRANCH  11  12
ATOM     12  C   UNL     1     100.215 134.790 125.427  1.00  0.00     0.130 C 
ATOM     13  O   UNL     1     101.039 135.331 126.148  1.00  0.00    -0.300 OA
ATOM     14  C   UNL     1      98.834 135.370 125.332  1.00  0.00     0.087 C 
ENDBRANCH  11  12
ENDBRANCH  10  11
ENDBRANCH   2  10
TORSDOF 6
ENDMDL
MODEL 3
REMARK VINA RESULT:    -4.751      2.462      6.004
REMARK INTER + INTRA:          -7.069
REMARK INTER:                  -6.375
REMARK INTRA:                  -0.693
REMARK UNBOUND:                -0.651
REMARK SMILES CC(=O)CCC=C(C)CCC=C(C)C
REMARK SMILES IDX 7 1 6 2 8 3 9 4 10 5 11 6 13 7 12 8 14 9 5 10 4 11 2 12 3 13
REMARK SMILES IDX 1 14
REMARK H PARENT
REMARK Flexibility Score: inf
ROOT
ATOM      1  C   UNL     1     101.297 132.380 123.773  1.00  0.00    -0.077 C 
ATOM      2  C   UNL     1     101.877 133.601 123.833  1.00  0.00    -0.028 C 
ATOM      3  C   UNL     1     100.050 132.130 122.958  1.00  0.00     0.039 C 
ENDROOT
BRANCH   1   4
ATOM      4  C   UNL     1     101.904 131.240 124.562  1.00  0.00     0.034 C 
BRANCH   4   5
ATOM      5  C   UNL     1     102.232 131.682 125.993  1.00  0.00     0.032 C 
BRANCH   5   6
ATOM      6  C   UNL     1     101.093 131.377 126.935  1.00  0.00    -0.028 C 
ATOM      7  C   UNL     1     102.610 130.194 128.528  1.00  0.00     0.039 C 
ATOM      8  C   UNL     1     101.255 130.700 128.092  1.00  0.00    -0.080 C 
ATOM      9  C   UNL     1     100.049 130.450 128.960  1.00  0.00     0.039 C 
ENDBRANCH   5   6
ENDBRANCH   4   5
ENDBRANCH   1   4
BRANCH   2  10
ATOM     10  C   UNL     1     101.406 134.807 123.060  1.00  0.00     0.035 C 
BRANCH  10  11
ATOM     11  C   UNL     1     101.382 136.049 123.956  1.00  0.00     0.079 C 
BRANCH  11  12
ATOM     12  C   UNL     1     100.587 135.786 125.208  1.00  0.00     0.130 C 
ATOM     13  O   UNL     1     101.168 135.662 126.275  1.00  0.00    -0.300 OA
ATOM     14  C   UNL     1      99.090 135.682 125.175  1.00  0.00     0.087 C 
ENDBRANCH  11  12
ENDBRANCH  10  11
ENDBRANCH   2  10
TORSDOF 6
ENDMDL
MODEL 4
REMARK VINA RESULT:    -4.629      3.409      6.831
REMARK INTER + INTRA:          -6.904
REMARK INTER:                  -6.087
REMARK INTRA:                  -0.817
REMARK UNBOUND:                -0.651
REMARK SMILES CC(=O)CCC=C(C)CCC=C(C)C
REMARK SMILES IDX 7 1 6 2 8 3 9 4 10 5 11 6 13 7 12 8 14 9 5 10 4 11 2 12 3 13
REMARK SMILES IDX 1 14
REMARK H PARENT
REMARK Flexibility Score: inf
ROOT
ATOM      1  C   UNL     1     100.310 134.976 125.585  1.00  0.00    -0.077 C 
ATOM      2  C   UNL     1     101.482 135.459 125.111  1.00  0.00    -0.028 C 
ATOM      3  C   UNL     1      98.985 135.601 125.219  1.00  0.00     0.039 C 
ENDROOT
BRANCH   1   4
ATOM      4  C   UNL     1     100.332 133.790 126.524  1.00  0.00     0.034 C 
BRANCH   4   5
ATOM      5  C   UNL     1     100.758 132.516 125.785  1.00  0.00     0.032 C 
BRANCH   5   6
ATOM      6  C   UNL     1     101.401 131.526 126.725  1.00  0.00    -0.028 C 
ATOM      7  C   UNL     1     103.526 131.526 125.413  1.00  0.00     0.039 C 
ATOM      8  C   UNL     1     102.661 131.069 126.564  1.00  0.00    -0.080 C 
ATOM      9  C   UNL     1     103.207 130.082 127.562  1.00  0.00     0.039 C 
ENDBRANCH   5   6
ENDBRANCH   4   5
ENDBRANCH   1   4
BRANCH   2  10
ATOM     10  C   UNL     1     101.600 136.601 124.133  1.00  0.00     0.035 C 
BRANCH  10  11
ATOM     11  C   UNL     1     101.664 136.076 122.696  1.00  0.00     0.079 C 
BRANCH  11  12
ATOM     12  C   UNL     1     102.813 135.116 122.530  1.00  0.00     0.130 C 
ATOM     13  O   UNL     1     103.958 135.540 122.550  1.00  0.00    -0.300 OA
ATOM     14  C   UNL     1     102.581 133.645 122.349  1.00  0.00     0.087 C 
ENDBRANCH  11  12
ENDBRANCH  10  11
ENDBRANCH   2  10
TORSDOF 6
ENDMDL
MODEL 5
REMARK VINA RESULT:    -4.573     12.520     14.131
REMARK INTER + INTRA:          -6.828
REMARK INTER:                  -6.227
REMARK INTRA:                  -0.601
REMARK UNBOUND:                -0.651
REMARK SMILES CC(=O)CCC=C(C)CCC=C(C)C
REMARK SMILES IDX 7 1 6 2 8 3 9 4 10 5 11 6 13 7 12 8 14 9 5 10 4 11 2 12 3 13
REMARK SMILES IDX 1 14
REMARK H PARENT
REMARK Flexibility Score: inf
ROOT
ATOM      1  C   UNL     1      97.047 143.099 134.586  1.00  0.00    -0.077 C 
ATOM      2  C   UNL     1      97.724 142.237 133.792  1.00  0.00    -0.028 C 
ATOM      3  C   UNL     1      97.026 142.949 136.089  1.00  0.00     0.039 C 
ENDROOT
BRANCH   1   4
ATOM      4  C   UNL     1      96.274 144.233 133.947  1.00  0.00     0.034 C 
BRANCH   4   5
ATOM      5  C   UNL     1      96.447 145.530 134.746  1.00  0.00     0.032 C 
BRANCH   5   6
ATOM      6  C   UNL     1      97.182 146.574 133.941  1.00  0.00    -0.028 C 
ATOM      7  C   UNL     1      95.954 148.433 135.070  1.00  0.00     0.039 C 
ATOM      8  C   UNL     1      96.965 147.899 134.082  1.00  0.00    -0.080 C 
ATOM      9  C   UNL     1      97.754 148.858 133.229  1.00  0.00     0.039 C 
ENDBRANCH   5   6
ENDBRANCH   4   5
ENDBRANCH   1   4
BRANCH   2  10
ATOM     10  C   UNL     1      98.572 141.099 134.300  1.00  0.00     0.035 C 
BRANCH  10  11
ATOM     11  C   UNL     1      97.815 139.772 134.193  1.00  0.00     0.079 C 
BRANCH  11  12
ATOM     12  C   UNL     1      97.400 139.284 135.556  1.00  0.00     0.130 C 
ATOM     13  O   UNL     1      98.092 139.552 136.526  1.00  0.00    -0.300 OA
ATOM     14  C   UNL     1      96.149 138.480 135.750  1.00  0.00     0.087 C 
ENDBRANCH  11  12
ENDBRANCH  10  11
ENDBRANCH   2  10
TORSDOF 6
ENDMDL
MODEL 6
REMARK VINA RESULT:    -4.559     12.155     14.029
REMARK INTER + INTRA:          -6.809
REMARK INTER:                  -5.533
REMARK INTRA:                  -1.276
REMARK UNBOUND:                -0.651
REMARK SMILES CC(=O)CCC=C(C)CCC=C(C)C
REMARK SMILES IDX 7 1 6 2 8 3 9 4 10 5 11 6 13 7 12 8 14 9 5 10 4 11 2 12 3 13
REMARK SMILES IDX 1 14
REMARK H PARENT
REMARK Flexibility Score: inf
ROOT
ATOM      1  C   UNL     1      97.469 142.636 134.621  1.00  0.00    -0.077 C 
ATOM      2  C   UNL     1      96.438 143.393 134.179  1.00  0.00    -0.028 C 
ATOM      3  C   UNL     1      98.016 142.776 136.022  1.00  0.00     0.039 C 
ENDROOT
BRANCH   1   4
ATOM      4  C   UNL     1      98.103 141.637 133.678  1.00  0.00     0.034 C 
BRANCH   4   5
ATOM      5  C   UNL     1      98.491 140.354 134.423  1.00  0.00     0.032 C 
BRANCH   5   6
ATOM      6  C   UNL     1      97.306 139.432 134.581  1.00  0.00    -0.028 C 
ATOM      7  C   UNL     1      97.700 139.202 137.036  1.00  0.00     0.039 C 
ATOM      8  C   UNL     1      96.938 138.903 135.767  1.00  0.00    -0.080 C 
ATOM      9  C   UNL     1      95.737 137.995 135.813  1.00  0.00     0.039 C 
ENDBRANCH   5   6
ENDBRANCH   4   5
ENDBRANCH   1   4
BRANCH   2  10
ATOM     10  C   UNL     1      95.687 144.388 135.026  1.00  0.00     0.035 C 
BRANCH  10  11
ATOM     11  C   UNL     1      94.312 143.836 135.417  1.00  0.00     0.079 C 
BRANCH  11  12
ATOM     12  C   UNL     1      94.404 143.027 136.684  1.00  0.00     0.130 C 
ATOM     13  O   UNL     1      94.439 143.601 137.761  1.00  0.00    -0.300 OA
ATOM     14  C   UNL     1      94.444 141.528 136.652  1.00  0.00     0.087 C 
ENDBRANCH  11  12
ENDBRANCH  10  11
ENDBRANCH   2  10
TORSDOF 6
ENDMDL
MODEL 7
REMARK VINA RESULT:    -4.535      3.535      4.910
REMARK INTER + INTRA:          -6.777
REMARK INTER:                  -5.402
REMARK INTRA:                  -1.375
REMARK UNBOUND:                -0.651
REMARK SMILES CC(=O)CCC=C(C)CCC=C(C)C
REMARK SMILES IDX 7 1 6 2 8 3 9 4 10 5 11 6 13 7 12 8 14 9 5 10 4 11 2 12 3 13
REMARK SMILES IDX 1 14
REMARK H PARENT
REMARK Flexibility Score: inf
ROOT
ATOM      1  C   UNL     1     103.089 133.844 122.971  1.00  0.00    -0.077 C 
ATOM      2  C   UNL     1     102.475 132.705 122.575  1.00  0.00    -0.028 C 
ATOM      3  C   UNL     1     104.032 133.872 124.150  1.00  0.00     0.039 C 
ENDROOT
BRANCH   1   4
ATOM      4  C   UNL     1     102.805 135.129 122.223  1.00  0.00     0.034 C 
BRANCH   4   5
ATOM      5  C   UNL     1     102.265 136.205 123.172  1.00  0.00     0.032 C 
BRANCH   5   6
ATOM      6  C   UNL     1     100.865 135.877 123.632  1.00  0.00    -0.028 C 
ATOM      7  C   UNL     1     101.558 135.881 126.031  1.00  0.00     0.039 C 
ATOM      8  C   UNL     1     100.533 135.728 124.932  1.00  0.00    -0.080 C 
ATOM      9  C   UNL     1      99.105 135.402 125.283  1.00  0.00     0.039 C 
ENDBRANCH   5   6
ENDBRANCH   4   5
ENDBRANCH   1   4
BRANCH   2  10
ATOM     10  C   UNL     1     102.706 131.352 123.199  1.00  0.00     0.035 C 
BRANCH  10  11
ATOM     11  C   UNL     1     101.379 130.725 123.638  1.00  0.00     0.079 C 
BRANCH  11  12
ATOM     12  C   UNL     1     100.653 131.632 124.597  1.00  0.00     0.130 C 
ATOM     13  O   UNL     1      99.571 132.100 124.280  1.00  0.00    -0.300 OA
ATOM     14  C   UNL     1     101.229 131.968 125.941  1.00  0.00     0.087 C 
ENDBRANCH  11  12
ENDBRANCH  10  11
ENDBRANCH   2  10
TORSDOF 6
ENDMDL
MODEL 8
REMARK VINA RESULT:    -4.505      3.535      5.288
REMARK INTER + INTRA:          -6.737
REMARK INTER:                  -5.821
REMARK INTRA:                  -0.916
REMARK UNBOUND:                -0.651
REMARK SMILES CC(=O)CCC=C(C)CCC=C(C)C
REMARK SMILES IDX 7 1 6 2 8 3 9 4 10 5 11 6 13 7 12 8 14 9 5 10 4 11 2 12 3 13
REMARK SMILES IDX 1 14
REMARK H PARENT
REMARK Flexibility Score: inf
ROOT
ATOM      1  C   UNL     1     100.731 132.380 125.525  1.00  0.00    -0.077 C 
ATOM      2  C   UNL     1      99.965 132.067 124.454  1.00  0.00    -0.028 C 
ATOM      3  C   UNL     1     101.601 131.353 126.209  1.00  0.00     0.039 C 
ENDROOT
BRANCH   1   4
ATOM      4  C   UNL     1     100.695 133.793 126.065  1.00  0.00     0.034 C 
BRANCH   4   5
ATOM      5  C   UNL     1      99.832 134.695 125.175  1.00  0.00     0.032 C 
BRANCH   5   6
ATOM      6  C   UNL     1     100.216 136.147 125.331  1.00  0.00    -0.028 C 
ATOM      7  C   UNL     1     101.761 136.040 123.373  1.00  0.00     0.039 C 
ATOM      8  C   UNL     1     101.093 136.768 124.515  1.00  0.00    -0.080 C 
ATOM      9  C   UNL     1     101.405 138.222 124.758  1.00  0.00     0.039 C 
ENDBRANCH   5   6
ENDBRANCH   4   5
ENDBRANCH   1   4
BRANCH   2  10
ATOM     10  C   UNL     1      99.944 130.715 123.788  1.00  0.00     0.035 C 
BRANCH  10  11
ATOM     11  C   UNL     1     100.506 130.803 122.366  1.00  0.00     0.079 C 
BRANCH  11  12
ATOM     12  C   UNL     1     101.979 131.115 122.396  1.00  0.00     0.130 C 
ATOM     13  O   UNL     1     102.759 130.289 122.845  1.00  0.00    -0.300 OA
ATOM     14  C   UNL     1     102.513 132.417 121.875  1.00  0.00     0.087 C 
ENDBRANCH  11  12
ENDBRANCH  10  11
ENDBRANCH   2  10
TORSDOF 6
ENDMDL
