MODEL 1
REMARK VINA RESULT:    -5.501      0.000      0.000
REMARK INTER + INTRA:          -6.353
REMARK INTER:                  -6.305
REMARK INTRA:                  -0.048
REMARK UNBOUND:                -0.048
REMARK SMILES O=C([O-])c1cc(O)c(O)c(O)c1
REMARK SMILES IDX 4 1 5 2 12 3 6 4 10 5 8 6 2 7 1 8 3 9 7 10 11 12 9 14
REMARK H PARENT 7 11 11 13 9 15
REMARK Flexibility Score: inf
ROOT
ATOM      1  C   UNL     1      72.566  39.850  -6.602  1.00  0.00     0.005 A 
ATOM      2  C   UNL     1      73.725  40.629  -6.465  1.00  0.00     0.060 A 
ATOM      3  C   UNL     1      71.640  39.815  -5.547  1.00  0.00     0.060 A 
ATOM      4  C   UNL     1      73.958  41.361  -5.297  1.00  0.00     0.162 A 
ATOM      5  C   UNL     1      71.859  40.542  -4.371  1.00  0.00     0.162 A 
ATOM      6  C   UNL     1      73.030  41.326  -4.240  1.00  0.00     0.200 A 
ENDROOT
BRANCH   1   7
ATOM      7  C   UNL     1      72.328  39.078  -7.842  1.00  0.00     0.072 C 
ATOM      8  O   UNL     1      73.242  38.368  -8.341  1.00  0.00    -0.545 OA
ATOM      9  O   UNL     1      71.091  39.123  -8.475  1.00  0.00    -0.545 OA
ENDBRANCH   1   7
BRANCH   4  10
ATOM     10  O   UNL     1      75.125  42.121  -5.206  1.00  0.00    -0.504 OA
ATOM     11  H   UNL     1      75.147  43.026  -4.753  1.00  0.00     0.293 HD
ENDBRANCH   4  10
BRANCH   5  12
ATOM     12  O   UNL     1      70.891  40.457  -3.368  1.00  0.00    -0.504 OA
ATOM     13  H   UNL     1      70.180  41.155  -3.204  1.00  0.00     0.293 HD
ENDBRANCH   5  12
BRANCH   6  14
ATOM     14  O   UNL     1      73.303  42.072  -3.091  1.00  0.00    -0.502 OA
ATOM     15  H   UNL     1      73.261  41.704  -2.152  1.00  0.00     0.293 HD
ENDBRANCH   6  14
TORSDOF 4
ENDMDL
MODEL 2
REMARK VINA RESULT:    -5.452      0.088      2.446
REMARK INTER + INTRA:          -6.296
REMARK INTER:                  -6.248
REMARK INTRA:                  -0.048
REMARK UNBOUND:                -0.048
REMARK SMILES O=C([O-])c1cc(O)c(O)c(O)c1
REMARK SMILES IDX 4 1 5 2 12 3 6 4 10 5 8 6 2 7 1 8 3 9 7 10 11 12 9 14
REMARK H PARENT 7 11 11 13 9 15
REMARK Flexibility Score: inf
ROOT
ATOM      1  C   UNL     1      72.540  39.845  -6.556  1.00  0.00     0.005 A 
ATOM      2  C   UNL     1      71.596  39.815  -5.519  1.00  0.00     0.060 A 
ATOM      3  C   UNL     1      73.708  40.607  -6.392  1.00  0.00     0.060 A 
ATOM      4  C   UNL     1      71.811  40.530  -4.337  1.00  0.00     0.162 A 
ATOM      5  C   UNL     1      73.939  41.329  -5.215  1.00  0.00     0.162 A 
ATOM      6  C   UNL     1      72.982  41.293  -4.172  1.00  0.00     0.200 A 
ENDROOT
BRANCH   1   7
ATOM      7  C   UNL     1      72.303  39.085  -7.803  1.00  0.00     0.072 C 
ATOM      8  O   UNL     1      73.222  38.390  -8.314  1.00  0.00    -0.545 OA
ATOM      9  O   UNL     1      71.062  39.125  -8.429  1.00  0.00    -0.545 OA
ENDBRANCH   1   7
BRANCH   4  10
ATOM     10  O   UNL     1      70.844  40.470  -3.333  1.00  0.00    -0.504 OA
ATOM     11  H   UNL     1      70.157  39.728  -3.287  1.00  0.00     0.293 HD
ENDBRANCH   4  10
BRANCH   5  12
ATOM     12  O   UNL     1      75.124  42.062  -5.127  1.00  0.00    -0.504 OA
ATOM     13  H   UNL     1      75.170  43.038  -4.872  1.00  0.00     0.293 HD
ENDBRANCH   5  12
BRANCH   6  14
ATOM     14  O   UNL     1      73.156  41.993  -2.976  1.00  0.00    -0.502 OA
ATOM     15  H   UNL     1      74.041  42.091  -2.499  1.00  0.00     0.293 HD
ENDBRANCH   6  14
TORSDOF 4
ENDMDL
MODEL 3
REMARK VINA RESULT:    -5.193      1.378      4.801
REMARK INTER + INTRA:          -6.000
REMARK INTER:                  -5.951
REMARK INTRA:                  -0.049
REMARK UNBOUND:                -0.048
REMARK SMILES O=C([O-])c1cc(O)c(O)c(O)c1
REMARK SMILES IDX 4 1 5 2 12 3 6 4 10 5 8 6 2 7 1 8 3 9 7 10 11 12 9 14
REMARK H PARENT 7 11 11 13 9 15
REMARK Flexibility Score: inf
ROOT
ATOM      1  C   UNL     1      73.629  41.281  -5.113  1.00  0.00     0.005 A 
ATOM      2  C   UNL     1      72.473  40.506  -4.935  1.00  0.00     0.060 A 
ATOM      3  C   UNL     1      74.386  41.116  -6.284  1.00  0.00     0.060 A 
ATOM      4  C   UNL     1      72.077  39.582  -5.907  1.00  0.00     0.162 A 
ATOM      5  C   UNL     1      74.004  40.196  -7.266  1.00  0.00     0.162 A 
ATOM      6  C   UNL     1      72.836  39.417  -7.080  1.00  0.00     0.200 A 
ENDROOT
BRANCH   1   7
ATOM      7  C   UNL     1      74.039  42.257  -4.078  1.00  0.00     0.072 C 
ATOM      8  O   UNL     1      73.970  41.961  -2.855  1.00  0.00    -0.545 OA
ATOM      9  O   UNL     1      74.509  43.514  -4.441  1.00  0.00    -0.545 OA
ENDBRANCH   1   7
BRANCH   4  10
ATOM     10  O   UNL     1      70.921  38.832  -5.686  1.00  0.00    -0.504 OA
ATOM     11  H   UNL     1      70.406  38.876  -4.816  1.00  0.00     0.293 HD
ENDBRANCH   4  10
BRANCH   5  12
ATOM     12  O   UNL     1      74.808  40.090  -8.402  1.00  0.00    -0.504 OA
ATOM     13  H   UNL     1      75.812  40.204  -8.400  1.00  0.00     0.293 HD
ENDBRANCH   5  12
BRANCH   6  14
ATOM     14  O   UNL     1      72.405  38.482  -8.024  1.00  0.00    -0.502 OA
ATOM     15  H   UNL     1      71.536  38.548  -8.533  1.00  0.00     0.293 HD
ENDBRANCH   6  14
TORSDOF 4
ENDMDL
MODEL 4
REMARK VINA RESULT:    -5.168      1.367      4.152
REMARK INTER + INTRA:          -5.972
REMARK INTER:                  -5.923
REMARK INTRA:                  -0.049
REMARK UNBOUND:                -0.048
REMARK SMILES O=C([O-])c1cc(O)c(O)c(O)c1
REMARK SMILES IDX 4 1 5 2 12 3 6 4 10 5 8 6 2 7 1 8 3 9 7 10 11 12 9 14
REMARK H PARENT 7 11 11 13 9 15
REMARK Flexibility Score: inf
ROOT
ATOM      1  C   UNL     1      73.622  41.278  -5.126  1.00  0.00     0.005 A 
ATOM      2  C   UNL     1      74.390  41.122  -6.289  1.00  0.00     0.060 A 
ATOM      3  C   UNL     1      72.467  40.497  -4.963  1.00  0.00     0.060 A 
ATOM      4  C   UNL     1      74.015  40.203  -7.274  1.00  0.00     0.162 A 
ATOM      5  C   UNL     1      72.077  39.573  -5.939  1.00  0.00     0.162 A 
ATOM      6  C   UNL     1      72.857  39.421  -7.111  1.00  0.00     0.200 A 
ENDROOT
BRANCH   1   7
ATOM      7  C   UNL     1      74.028  42.253  -4.089  1.00  0.00     0.072 C 
ATOM      8  O   UNL     1      73.938  41.962  -2.866  1.00  0.00    -0.545 OA
ATOM      9  O   UNL     1      74.516  43.503  -4.449  1.00  0.00    -0.545 OA
ENDBRANCH   1   7
BRANCH   4  10
ATOM     10  O   UNL     1      74.809  40.083  -8.415  1.00  0.00    -0.504 OA
ATOM     11  H   UNL     1      75.820  40.115  -8.376  1.00  0.00     0.293 HD
ENDBRANCH   4  10
BRANCH   5  12
ATOM     12  O   UNL     1      70.916  38.834  -5.704  1.00  0.00    -0.504 OA
ATOM     13  H   UNL     1      70.893  37.829  -5.600  1.00  0.00     0.293 HD
ENDBRANCH   5  12
BRANCH   6  14
ATOM     14  O   UNL     1      72.518  38.516  -8.120  1.00  0.00    -0.502 OA
ATOM     15  H   UNL     1      72.963  37.620  -8.252  1.00  0.00     0.293 HD
ENDBRANCH   6  14
TORSDOF 4
ENDMDL
MODEL 5
REMARK VINA RESULT:    -5.084      2.343      5.060
REMARK INTER + INTRA:          -5.875
REMARK INTER:                  -5.822
REMARK INTRA:                  -0.053
REMARK UNBOUND:                -0.048
REMARK SMILES O=C([O-])c1cc(O)c(O)c(O)c1
REMARK SMILES IDX 4 1 5 2 12 3 6 4 10 5 8 6 2 7 1 8 3 9 7 10 11 12 9 14
REMARK H PARENT 7 11 11 13 9 15
REMARK Flexibility Score: inf
ROOT
ATOM      1  C   UNL     1      73.662  43.554  -3.481  1.00  0.00     0.005 A 
ATOM      2  C   UNL     1      74.409  43.541  -4.668  1.00  0.00     0.060 A 
ATOM      3  C   UNL     1      72.865  42.442  -3.165  1.00  0.00     0.060 A 
ATOM      4  C   UNL     1      74.365  42.438  -5.527  1.00  0.00     0.162 A 
ATOM      5  C   UNL     1      72.810  41.330  -4.014  1.00  0.00     0.162 A 
ATOM      6  C   UNL     1      73.568  41.324  -5.210  1.00  0.00     0.200 A 
ENDROOT
BRANCH   1   7
ATOM      7  C   UNL     1      73.715  44.726  -2.579  1.00  0.00     0.072 C 
ATOM      8  O   UNL     1      73.154  44.693  -1.451  1.00  0.00    -0.545 OA
ATOM      9  O   UNL     1      74.386  45.882  -2.962  1.00  0.00    -0.545 OA
ENDBRANCH   1   7
BRANCH   4  10
ATOM     10  O   UNL     1      75.125  42.471  -6.697  1.00  0.00    -0.504 OA
ATOM     11  H   UNL     1      75.618  41.658  -7.045  1.00  0.00     0.293 HD
ENDBRANCH   4  10
BRANCH   5  12
ATOM     12  O   UNL     1      71.996  40.263  -3.630  1.00  0.00    -0.504 OA
ATOM     13  H   UNL     1      71.897  39.406  -4.156  1.00  0.00     0.293 HD
ENDBRANCH   5  12
BRANCH   6  14
ATOM     14  O   UNL     1      73.552  40.244  -6.096  1.00  0.00    -0.502 OA
ATOM     15  H   UNL     1      73.113  40.262  -7.005  1.00  0.00     0.293 HD
ENDBRANCH   6  14
TORSDOF 4
ENDMDL
MODEL 6
REMARK VINA RESULT:    -5.049      2.382      5.627
REMARK INTER + INTRA:          -5.835
REMARK INTER:                  -5.782
REMARK INTRA:                  -0.053
REMARK UNBOUND:                -0.048
REMARK SMILES O=C([O-])c1cc(O)c(O)c(O)c1
REMARK SMILES IDX 4 1 5 2 12 3 6 4 10 5 8 6 2 7 1 8 3 9 7 10 11 12 9 14
REMARK H PARENT 7 11 11 13 9 15
REMARK Flexibility Score: inf
ROOT
ATOM      1  C   UNL     1      73.626  43.596  -3.380  1.00  0.00     0.005 A 
ATOM      2  C   UNL     1      72.825  42.490  -3.059  1.00  0.00     0.060 A 
ATOM      3  C   UNL     1      74.382  43.568  -4.563  1.00  0.00     0.060 A 
ATOM      4  C   UNL     1      72.777  41.375  -3.900  1.00  0.00     0.162 A 
ATOM      5  C   UNL     1      74.345  42.460  -5.416  1.00  0.00     0.162 A 
ATOM      6  C   UNL     1      73.534  41.347  -5.085  1.00  0.00     0.200 A 
ENDROOT
BRANCH   1   7
ATOM      7  C   UNL     1      73.670  44.772  -2.483  1.00  0.00     0.072 C 
ATOM      8  O   UNL     1      73.069  44.756  -1.375  1.00  0.00    -0.545 OA
ATOM      9  O   UNL     1      74.375  45.913  -2.848  1.00  0.00    -0.545 OA
ENDBRANCH   1   7
BRANCH   4  10
ATOM     10  O   UNL     1      71.967  40.298  -3.538  1.00  0.00    -0.504 OA
ATOM     11  H   UNL     1      70.959  40.376  -3.476  1.00  0.00     0.293 HD
ENDBRANCH   4  10
BRANCH   5  12
ATOM     12  O   UNL     1      75.125  42.508  -6.574  1.00  0.00    -0.504 OA
ATOM     13  H   UNL     1      75.217  43.323  -7.163  1.00  0.00     0.293 HD
ENDBRANCH   5  12
BRANCH   6  14
ATOM     14  O   UNL     1      73.458  40.213  -5.897  1.00  0.00    -0.502 OA
ATOM     15  H   UNL     1      73.758  39.291  -5.614  1.00  0.00     0.293 HD
ENDBRANCH   6  14
TORSDOF 4
ENDMDL
MODEL 7
REMARK VINA RESULT:    -4.947      1.242      4.063
REMARK INTER + INTRA:          -5.718
REMARK INTER:                  -5.666
REMARK INTRA:                  -0.053
REMARK UNBOUND:                -0.048
REMARK SMILES O=C([O-])c1cc(O)c(O)c(O)c1
REMARK SMILES IDX 4 1 5 2 12 3 6 4 10 5 8 6 2 7 1 8 3 9 7 10 11 12 9 14
REMARK H PARENT 7 11 11 13 9 15
REMARK Flexibility Score: inf
ROOT
ATOM      1  C   UNL     1      72.642  40.455  -5.395  1.00  0.00     0.005 A 
ATOM      2  C   UNL     1      73.680  41.139  -6.046  1.00  0.00     0.060 A 
ATOM      3  C   UNL     1      72.014  39.384  -6.053  1.00  0.00     0.060 A 
ATOM      4  C   UNL     1      74.087  40.762  -7.330  1.00  0.00     0.162 A 
ATOM      5  C   UNL     1      72.410  38.995  -7.337  1.00  0.00     0.162 A 
ATOM      6  C   UNL     1      73.458  39.690  -7.988  1.00  0.00     0.200 A 
ENDROOT
BRANCH   1   7
ATOM      7  C   UNL     1      72.218  40.861  -4.037  1.00  0.00     0.072 C 
ATOM      8  O   UNL     1      72.802  41.804  -3.438  1.00  0.00    -0.545 OA
ATOM      9  O   UNL     1      71.168  40.209  -3.401  1.00  0.00    -0.545 OA
ENDBRANCH   1   7
BRANCH   4  10
ATOM     10  O   UNL     1      75.123  41.472  -7.938  1.00  0.00    -0.504 OA
ATOM     11  H   UNL     1      75.352  41.362  -8.918  1.00  0.00     0.293 HD
ENDBRANCH   4  10
BRANCH   5  12
ATOM     12  O   UNL     1      71.738  37.921  -7.924  1.00  0.00    -0.504 OA
ATOM     13  H   UNL     1      70.962  37.434  -7.496  1.00  0.00     0.293 HD
ENDBRANCH   5  12
BRANCH   6  14
ATOM     14  O   UNL     1      73.896  39.348  -9.270  1.00  0.00    -0.502 OA
ATOM     15  H   UNL     1      74.792  39.609  -9.652  1.00  0.00     0.293 HD
ENDBRANCH   6  14
TORSDOF 4
ENDMDL
MODEL 8
REMARK VINA RESULT:    -4.433     15.037     17.090
REMARK INTER + INTRA:          -5.129
REMARK INTER:                  -5.082
REMARK INTRA:                  -0.047
REMARK UNBOUND:                -0.048
REMARK SMILES O=C([O-])c1cc(O)c(O)c(O)c1
REMARK SMILES IDX 4 1 5 2 12 3 6 4 10 5 8 6 2 7 1 8 3 9 7 10 11 12 9 14
REMARK H PARENT 7 11 11 13 9 15
REMARK Flexibility Score: inf
ROOT
ATOM      1  C   UNL     1      68.729  48.556   8.262  1.00  0.00     0.005 A 
ATOM      2  C   UNL     1      67.607  48.974   8.993  1.00  0.00     0.060 A 
ATOM      3  C   UNL     1      68.564  47.596   7.251  1.00  0.00     0.060 A 
ATOM      4  C   UNL     1      66.342  48.444   8.724  1.00  0.00     0.162 A 
ATOM      5  C   UNL     1      67.304  47.056   6.968  1.00  0.00     0.162 A 
ATOM      6  C   UNL     1      66.176  47.482   7.711  1.00  0.00     0.200 A 
ENDROOT
BRANCH   1   7
ATOM      7  C   UNL     1      70.065  49.123   8.555  1.00  0.00     0.072 C 
ATOM      8  O   UNL     1      70.513  49.131   9.733  1.00  0.00    -0.545 OA
ATOM      9  O   UNL     1      70.845  49.653   7.535  1.00  0.00    -0.545 OA
ENDBRANCH   1   7
BRANCH   4  10
ATOM     10  O   UNL     1      65.256  48.889   9.478  1.00  0.00    -0.504 OA
ATOM     11  H   UNL     1      64.396  49.213   9.051  1.00  0.00     0.293 HD
ENDBRANCH   4  10
BRANCH   5  12
ATOM     12  O   UNL     1      67.221  46.106   5.948  1.00  0.00    -0.504 OA
ATOM     13  H   UNL     1      66.672  45.259   6.004  1.00  0.00     0.293 HD
ENDBRANCH   5  12
BRANCH   6  14
ATOM     14  O   UNL     1      64.895  46.979   7.475  1.00  0.00    -0.502 OA
ATOM     15  H   UNL     1      64.332  47.213   6.670  1.00  0.00     0.293 HD
ENDBRANCH   6  14
TORSDOF 4
ENDMDL
MODEL 9
REMARK VINA RESULT:    -4.348     14.964     16.881
REMARK INTER + INTRA:          -5.031
REMARK INTER:                  -4.983
REMARK INTRA:                  -0.049
REMARK UNBOUND:                -0.048
REMARK SMILES O=C([O-])c1cc(O)c(O)c(O)c1
REMARK SMILES IDX 4 1 5 2 12 3 6 4 10 5 8 6 2 7 1 8 3 9 7 10 11 12 9 14
REMARK H PARENT 7 11 11 13 9 15
REMARK Flexibility Score: inf
ROOT
ATOM      1  C   UNL     1      68.776  48.605   8.062  1.00  0.00     0.005 A 
ATOM      2  C   UNL     1      68.612  47.576   7.123  1.00  0.00     0.060 A 
ATOM      3  C   UNL     1      67.670  49.014   8.824  1.00  0.00     0.060 A 
ATOM      4  C   UNL     1      67.367  46.963   6.946  1.00  0.00     0.162 A 
ATOM      5  C   UNL     1      66.418  48.412   8.659  1.00  0.00     0.162 A 
ATOM      6  C   UNL     1      66.260  47.373   7.710  1.00  0.00     0.200 A 
ENDROOT
BRANCH   1   7
ATOM      7  C   UNL     1      70.098  49.247   8.241  1.00  0.00     0.072 C 
ATOM      8  O   UNL     1      70.528  49.516   9.395  1.00  0.00    -0.545 OA
ATOM      9  O   UNL     1      70.884  49.563   7.140  1.00  0.00    -0.545 OA
ENDBRANCH   1   7
BRANCH   4  10
ATOM     10  O   UNL     1      67.252  45.944   6.000  1.00  0.00    -0.504 OA
ATOM     11  H   UNL     1      67.403  46.104   5.011  1.00  0.00     0.293 HD
ENDBRANCH   4  10
BRANCH   5  12
ATOM     12  O   UNL     1      65.368  48.874   9.455  1.00  0.00    -0.504 OA
ATOM     13  H   UNL     1      64.579  48.309   9.739  1.00  0.00     0.293 HD
ENDBRANCH   5  12
BRANCH   6  14
ATOM     14  O   UNL     1      65.035  46.735   7.501  1.00  0.00    -0.502 OA
ATOM     15  H   UNL     1      64.406  46.458   8.240  1.00  0.00     0.293 HD
ENDBRANCH   6  14
TORSDOF 4
ENDMDL
