MODEL 1
REMARK VINA RESULT:    -6.208      0.000      0.000
REMARK INTER + INTRA:          -8.022
REMARK INTER:                  -7.660
REMARK INTRA:                  -0.362
REMARK UNBOUND:                -0.362
REMARK SMILES O=c1c(O)c(-c2cc(O)c(O)c(O)c2)oc2cc(O)cc(O)c12
REMARK SMILES IDX 5 1 3 2 2 3 1 4 23 5 21 6 20 7 18 8 17 9 16 10 15 11 6 12
REMARK SMILES IDX 7 13 8 14 14 15 10 16 12 17 9 18 11 20 13 22 4 24 22 26
REMARK SMILES IDX 19 28
REMARK H PARENT 9 19 11 21 13 23 4 25 22 27 19 29
REMARK Flexibility Score: inf
ROOT
ATOM      1  C   UNL     1      76.224  62.312  54.134  1.00  0.00     0.180 A 
ATOM      2  C   UNL     1      75.337  62.442  53.052  1.00  0.00     0.208 A 
ATOM      3  C   UNL     1      74.007  62.817  53.301  1.00  0.00     0.238 A 
ATOM      4  O   UNL     1      73.205  62.879  52.334  1.00  0.00    -0.285 OA
ATOM      5  C   UNL     1      73.585  63.072  54.629  1.00  0.00     0.111 A 
ATOM      6  C   UNL     1      72.273  63.497  54.993  1.00  0.00     0.134 A 
ATOM      7  C   UNL     1      71.929  63.593  56.348  1.00  0.00     0.093 A 
ATOM      8  C   UNL     1      72.867  63.344  57.348  1.00  0.00     0.123 A 
ATOM      9  C   UNL     1      74.171  62.986  57.002  1.00  0.00     0.094 A 
ATOM     10  C   UNL     1      74.533  62.846  55.660  1.00  0.00     0.146 A 
ATOM     11  O   UNL     1      75.781  62.494  55.373  1.00  0.00    -0.452 OA
ENDROOT
BRANCH   1  12
ATOM     12  C   UNL     1      77.646  61.945  53.948  1.00  0.00     0.029 A 
ATOM     13  C   UNL     1      78.046  60.612  54.131  1.00  0.00     0.062 A 
ATOM     14  C   UNL     1      79.389  60.242  53.981  1.00  0.00     0.162 A 
ATOM     15  C   UNL     1      78.618  62.914  53.648  1.00  0.00     0.062 A 
ATOM     16  C   UNL     1      80.352  61.214  53.660  1.00  0.00     0.200 A 
ATOM     17  C   UNL     1      79.961  62.554  53.498  1.00  0.00     0.162 A 
BRANCH  14  18
ATOM     18  O   UNL     1      79.770  58.912  54.152  1.00  0.00    -0.504 OA
ATOM     19  H   UNL     1      79.254  58.152  53.722  1.00  0.00     0.293 HD
ENDBRANCH  14  18
BRANCH  16  20
ATOM     20  O   UNL     1      81.694  60.862  53.504  1.00  0.00    -0.502 OA
ATOM     21  H   UNL     1      82.274  60.588  54.288  1.00  0.00     0.293 HD
ENDBRANCH  16  20
BRANCH  17  22
ATOM     22  O   UNL     1      80.896  63.544  53.194  1.00  0.00    -0.504 OA
ATOM     23  H   UNL     1      80.678  64.321  52.581  1.00  0.00     0.293 HD
ENDBRANCH  17  22
ENDBRANCH   1  12
BRANCH   2  24
ATOM     24  O   UNL     1      75.770  62.164  51.752  1.00  0.00    -0.502 OA
ATOM     25  H   UNL     1      76.747  62.196  51.486  1.00  0.00     0.293 HD
ENDBRANCH   2  24
BRANCH   6  26
ATOM     26  O   UNL     1      71.285  63.859  54.072  1.00  0.00    -0.507 OA
ATOM     27  H   UNL     1      70.940  64.797  53.938  1.00  0.00     0.293 HD
ENDBRANCH   6  26
BRANCH   8  28
ATOM     28  O   UNL     1      72.495  63.465  58.685  1.00  0.00    -0.508 OA
ATOM     29  H   UNL     1      73.158  63.309  59.436  1.00  0.00     0.293 HD
ENDBRANCH   8  28
TORSDOF 7
ENDMDL
MODEL 2
REMARK VINA RESULT:    -5.847      3.875      6.062
REMARK INTER + INTRA:          -7.577
REMARK INTER:                  -7.247
REMARK INTRA:                  -0.330
REMARK UNBOUND:                -0.362
REMARK SMILES O=c1c(O)c(-c2cc(O)c(O)c(O)c2)oc2cc(O)cc(O)c12
REMARK SMILES IDX 5 1 3 2 2 3 1 4 23 5 21 6 20 7 18 8 17 9 16 10 15 11 6 12
REMARK SMILES IDX 7 13 8 14 14 15 10 16 12 17 9 18 11 20 13 22 4 24 22 26
REMARK SMILES IDX 19 28
REMARK H PARENT 9 19 11 21 13 23 4 25 22 27 19 29
REMARK Flexibility Score: inf
ROOT
ATOM      1  C   UNL     1      72.127  61.436  54.378  1.00  0.00     0.180 A 
ATOM      2  C   UNL     1      72.254  60.041  54.493  1.00  0.00     0.208 A 
ATOM      3  C   UNL     1      71.223  59.220  54.009  1.00  0.00     0.238 A 
ATOM      4  O   UNL     1      71.318  57.975  54.164  1.00  0.00    -0.285 OA
ATOM      5  C   UNL     1      70.084  59.804  53.403  1.00  0.00     0.111 A 
ATOM      6  C   UNL     1      68.998  59.068  52.842  1.00  0.00     0.134 A 
ATOM      7  C   UNL     1      67.863  59.750  52.386  1.00  0.00     0.093 A 
ATOM      8  C   UNL     1      67.803  61.143  52.409  1.00  0.00     0.123 A 
ATOM      9  C   UNL     1      68.884  61.875  52.900  1.00  0.00     0.094 A 
ATOM     10  C   UNL     1      70.015  61.221  53.396  1.00  0.00     0.146 A 
ATOM     11  O   UNL     1      71.017  61.954  53.864  1.00  0.00    -0.452 OA
ENDROOT
BRANCH   1  12
ATOM     12  C   UNL     1      73.183  62.364  54.841  1.00  0.00     0.029 A 
ATOM     13  C   UNL     1      72.994  63.088  56.029  1.00  0.00     0.062 A 
ATOM     14  C   UNL     1      73.968  63.988  56.479  1.00  0.00     0.162 A 
ATOM     15  C   UNL     1      74.348  62.581  54.088  1.00  0.00     0.062 A 
ATOM     16  C   UNL     1      75.142  64.184  55.730  1.00  0.00     0.200 A 
ATOM     17  C   UNL     1      75.326  63.479  54.528  1.00  0.00     0.162 A 
BRANCH  14  18
ATOM     18  O   UNL     1      73.775  64.691  57.667  1.00  0.00    -0.504 OA
ATOM     19  H   UNL     1      73.846  64.236  58.571  1.00  0.00     0.293 HD
ENDBRANCH  14  18
BRANCH  16  20
ATOM     20  O   UNL     1      76.124  65.075  56.164  1.00  0.00    -0.502 OA
ATOM     21  H   UNL     1      75.953  65.750  56.900  1.00  0.00     0.293 HD
ENDBRANCH  16  20
BRANCH  17  22
ATOM     22  O   UNL     1      76.472  63.662  53.754  1.00  0.00    -0.504 OA
ATOM     23  H   UNL     1      77.270  64.188  54.090  1.00  0.00     0.293 HD
ENDBRANCH  17  22
ENDBRANCH   1  12
BRANCH   2  24
ATOM     24  O   UNL     1      73.377  59.487  55.115  1.00  0.00    -0.502 OA
ATOM     25  H   UNL     1      73.464  58.493  55.292  1.00  0.00     0.293 HD
ENDBRANCH   2  24
BRANCH   6  26
ATOM     26  O   UNL     1      68.994  57.677  52.687  1.00  0.00    -0.507 OA
ATOM     27  H   UNL     1      68.443  57.177  52.007  1.00  0.00     0.293 HD
ENDBRANCH   6  26
BRANCH   8  28
ATOM     28  O   UNL     1      66.665  61.789  51.932  1.00  0.00    -0.508 OA
ATOM     29  H   UNL     1      66.714  62.715  51.521  1.00  0.00     0.293 HD
ENDBRANCH   8  28
TORSDOF 7
ENDMDL
MODEL 3
REMARK VINA RESULT:    -5.841      3.885      6.126
REMARK INTER + INTRA:          -7.569
REMARK INTER:                  -7.263
REMARK INTRA:                  -0.306
REMARK UNBOUND:                -0.362
REMARK SMILES O=c1c(O)c(-c2cc(O)c(O)c(O)c2)oc2cc(O)cc(O)c12
REMARK SMILES IDX 5 1 3 2 2 3 1 4 23 5 21 6 20 7 18 8 17 9 16 10 15 11 6 12
REMARK SMILES IDX 7 13 8 14 14 15 10 16 12 17 9 18 11 20 13 22 4 24 22 26
REMARK SMILES IDX 19 28
REMARK H PARENT 9 19 11 21 13 23 4 25 22 27 19 29
REMARK Flexibility Score: inf
ROOT
ATOM      1  C   UNL     1      72.069  61.500  54.364  1.00  0.00     0.180 A 
ATOM      2  C   UNL     1      72.229  60.110  54.498  1.00  0.00     0.208 A 
ATOM      3  C   UNL     1      71.224  59.259  54.011  1.00  0.00     0.238 A 
ATOM      4  O   UNL     1      71.348  58.018  54.182  1.00  0.00    -0.285 OA
ATOM      5  C   UNL     1      70.079  59.807  53.384  1.00  0.00     0.111 A 
ATOM      6  C   UNL     1      69.019  59.037  52.818  1.00  0.00     0.134 A 
ATOM      7  C   UNL     1      67.873  59.686  52.340  1.00  0.00     0.093 A 
ATOM      8  C   UNL     1      67.779  61.077  52.345  1.00  0.00     0.123 A 
ATOM      9  C   UNL     1      68.836  61.842  52.841  1.00  0.00     0.094 A 
ATOM     10  C   UNL     1      69.975  61.221  53.359  1.00  0.00     0.146 A 
ATOM     11  O   UNL     1      70.954  61.985  53.830  1.00  0.00    -0.452 OA
ENDROOT
BRANCH   1  12
ATOM     12  C   UNL     1      73.096  62.459  54.829  1.00  0.00     0.029 A 
ATOM     13  C   UNL     1      74.272  62.630  54.081  1.00  0.00     0.062 A 
ATOM     14  C   UNL     1      75.269  63.516  54.511  1.00  0.00     0.162 A 
ATOM     15  C   UNL     1      72.947  63.161  56.037  1.00  0.00     0.062 A 
ATOM     16  C   UNL     1      75.102  64.231  55.709  1.00  0.00     0.200 A 
ATOM     17  C   UNL     1      73.938  64.047  56.474  1.00  0.00     0.162 A 
BRANCH  14  18
ATOM     18  O   UNL     1      76.425  63.688  53.752  1.00  0.00    -0.504 OA
ATOM     19  H   UNL     1      77.231  64.184  54.116  1.00  0.00     0.293 HD
ENDBRANCH  14  18
BRANCH  16  20
ATOM     20  O   UNL     1      76.084  65.120  56.151  1.00  0.00    -0.502 OA
ATOM     21  H   UNL     1      76.953  64.803  56.564  1.00  0.00     0.293 HD
ENDBRANCH  16  20
BRANCH  17  22
ATOM     22  O   UNL     1      73.750  64.730  57.676  1.00  0.00    -0.504 OA
ATOM     23  H   UNL     1      74.099  65.670  57.822  1.00  0.00     0.293 HD
ENDBRANCH  17  22
ENDBRANCH   1  12
BRANCH   2  24
ATOM     24  O   UNL     1      73.357  59.591  55.140  1.00  0.00    -0.502 OA
ATOM     25  H   UNL     1      73.557  58.598  55.169  1.00  0.00     0.293 HD
ENDBRANCH   2  24
BRANCH   6  26
ATOM     26  O   UNL     1      69.051  57.646  52.681  1.00  0.00    -0.507 OA
ATOM     27  H   UNL     1      68.236  57.056  52.620  1.00  0.00     0.293 HD
ENDBRANCH   6  26
BRANCH   8  28
ATOM     28  O   UNL     1      66.631  61.689  51.846  1.00  0.00    -0.508 OA
ATOM     29  H   UNL     1      66.611  62.680  51.629  1.00  0.00     0.293 HD
ENDBRANCH   8  28
TORSDOF 7
ENDMDL
MODEL 4
REMARK VINA RESULT:    -5.782      3.664      6.263
REMARK INTER + INTRA:          -7.496
REMARK INTER:                  -7.142
REMARK INTRA:                  -0.354
REMARK UNBOUND:                -0.362
REMARK SMILES O=c1c(O)c(-c2cc(O)c(O)c(O)c2)oc2cc(O)cc(O)c12
REMARK SMILES IDX 5 1 3 2 2 3 1 4 23 5 21 6 20 7 18 8 17 9 16 10 15 11 6 12
REMARK SMILES IDX 7 13 8 14 14 15 10 16 12 17 9 18 11 20 13 22 4 24 22 26
REMARK SMILES IDX 19 28
REMARK H PARENT 9 19 11 21 13 23 4 25 22 27 19 29
REMARK Flexibility Score: inf
ROOT
ATOM      1  C   UNL     1      71.324  62.922  53.977  1.00  0.00     0.180 A 
ATOM      2  C   UNL     1      70.311  63.736  53.445  1.00  0.00     0.208 A 
ATOM      3  C   UNL     1      69.159  63.133  52.914  1.00  0.00     0.238 A 
ATOM      4  O   UNL     1      68.279  63.865  52.390  1.00  0.00    -0.285 OA
ATOM      5  C   UNL     1      69.029  61.723  52.936  1.00  0.00     0.111 A 
ATOM      6  C   UNL     1      67.889  61.007  52.463  1.00  0.00     0.134 A 
ATOM      7  C   UNL     1      67.924  59.608  52.413  1.00  0.00     0.093 A 
ATOM      8  C   UNL     1      69.029  58.898  52.881  1.00  0.00     0.123 A 
ATOM      9  C   UNL     1      70.125  59.587  53.402  1.00  0.00     0.094 A 
ATOM     10  C   UNL     1      70.135  60.983  53.430  1.00  0.00     0.146 A 
ATOM     11  O   UNL     1      71.201  61.600  53.924  1.00  0.00    -0.452 OA
ENDROOT
BRANCH   1  12
ATOM     12  C   UNL     1      72.554  63.486  54.577  1.00  0.00     0.029 A 
ATOM     13  C   UNL     1      73.741  63.508  53.827  1.00  0.00     0.062 A 
ATOM     14  C   UNL     1      74.924  64.017  54.378  1.00  0.00     0.162 A 
ATOM     15  C   UNL     1      72.576  63.948  55.903  1.00  0.00     0.062 A 
ATOM     16  C   UNL     1      74.933  64.497  55.699  1.00  0.00     0.200 A 
ATOM     17  C   UNL     1      73.753  64.457  56.462  1.00  0.00     0.162 A 
BRANCH  14  18
ATOM     18  O   UNL     1      76.093  64.047  53.618  1.00  0.00    -0.504 OA
ATOM     19  H   UNL     1      76.912  64.561  53.923  1.00  0.00     0.293 HD
ENDBRANCH  14  18
BRANCH  16  20
ATOM     20  O   UNL     1      76.102  65.010  56.263  1.00  0.00    -0.502 OA
ATOM     21  H   UNL     1      76.132  65.918  56.712  1.00  0.00     0.293 HD
ENDBRANCH  16  20
BRANCH  17  22
ATOM     22  O   UNL     1      73.733  64.911  57.781  1.00  0.00    -0.504 OA
ATOM     23  H   UNL     1      74.417  65.570  58.134  1.00  0.00     0.293 HD
ENDBRANCH  17  22
ENDBRANCH   1  12
BRANCH   2  24
ATOM     24  O   UNL     1      70.469  65.125  53.413  1.00  0.00    -0.502 OA
ATOM     25  H   UNL     1      70.469  65.652  52.548  1.00  0.00     0.293 HD
ENDBRANCH   2  24
BRANCH   6  26
ATOM     26  O   UNL     1      66.698  61.616  52.057  1.00  0.00    -0.507 OA
ATOM     27  H   UNL     1      66.143  61.323  51.268  1.00  0.00     0.293 HD
ENDBRANCH   6  26
BRANCH   8  28
ATOM     28  O   UNL     1      69.022  57.506  52.832  1.00  0.00    -0.508 OA
ATOM     29  H   UNL     1      69.884  56.971  52.834  1.00  0.00     0.293 HD
ENDBRANCH   8  28
TORSDOF 7
ENDMDL
MODEL 5
REMARK VINA RESULT:    -5.722      1.478      2.591
REMARK INTER + INTRA:          -7.422
REMARK INTER:                  -7.088
REMARK INTRA:                  -0.334
REMARK UNBOUND:                -0.362
REMARK SMILES O=c1c(O)c(-c2cc(O)c(O)c(O)c2)oc2cc(O)cc(O)c12
REMARK SMILES IDX 5 1 3 2 2 3 1 4 23 5 21 6 20 7 18 8 17 9 16 10 15 11 6 12
REMARK SMILES IDX 7 13 8 14 14 15 10 16 12 17 9 18 11 20 13 22 4 24 22 26
REMARK SMILES IDX 19 28
REMARK H PARENT 9 19 11 21 13 23 4 25 22 27 19 29
REMARK Flexibility Score: inf
ROOT
ATOM      1  C   UNL     1      75.799  61.102  54.119  1.00  0.00     0.180 A 
ATOM      2  C   UNL     1      75.282  61.833  53.036  1.00  0.00     0.208 A 
ATOM      3  C   UNL     1      74.291  62.799  53.275  1.00  0.00     0.238 A 
ATOM      4  O   UNL     1      73.794  63.412  52.295  1.00  0.00    -0.285 OA
ATOM      5  C   UNL     1      73.841  63.033  54.598  1.00  0.00     0.111 A 
ATOM      6  C   UNL     1      72.871  64.014  54.961  1.00  0.00     0.134 A 
ATOM      7  C   UNL     1      72.405  64.069  56.281  1.00  0.00     0.093 A 
ATOM      8  C   UNL     1      72.920  63.223  57.262  1.00  0.00     0.123 A 
ATOM      9  C   UNL     1      73.913  62.300  56.930  1.00  0.00     0.094 A 
ATOM     10  C   UNL     1      74.371  62.197  55.614  1.00  0.00     0.146 A 
ATOM     11  O   UNL     1      75.309  61.299  55.338  1.00  0.00    -0.452 OA
ENDROOT
BRANCH   1  12
ATOM     12  C   UNL     1      76.861  60.086  53.948  1.00  0.00     0.029 A 
ATOM     13  C   UNL     1      78.202  60.446  54.158  1.00  0.00     0.062 A 
ATOM     14  C   UNL     1      79.229  59.509  53.983  1.00  0.00     0.162 A 
ATOM     15  C   UNL     1      76.564  58.781  53.523  1.00  0.00     0.062 A 
ATOM     16  C   UNL     1      78.921  58.199  53.578  1.00  0.00     0.200 A 
ATOM     17  C   UNL     1      77.582  57.839  53.343  1.00  0.00     0.162 A 
BRANCH  14  18
ATOM     18  O   UNL     1      80.555  59.875  54.209  1.00  0.00    -0.504 OA
ATOM     19  H   UNL     1      81.029  59.646  55.075  1.00  0.00     0.293 HD
ENDBRANCH  14  18
BRANCH  16  20
ATOM     20  O   UNL     1      79.930  57.252  53.401  1.00  0.00    -0.502 OA
ATOM     21  H   UNL     1      79.818  56.450  52.792  1.00  0.00     0.293 HD
ENDBRANCH  16  20
BRANCH  17  22
ATOM     22  O   UNL     1      77.245  56.552  52.926  1.00  0.00    -0.504 OA
ATOM     23  H   UNL     1      76.382  56.103  53.206  1.00  0.00     0.293 HD
ENDBRANCH  17  22
ENDBRANCH   1  12
BRANCH   2  24
ATOM     24  O   UNL     1      75.725  61.571  51.736  1.00  0.00    -0.502 OA
ATOM     25  H   UNL     1      75.665  62.257  50.993  1.00  0.00     0.293 HD
ENDBRANCH   2  24
BRANCH   6  26
ATOM     26  O   UNL     1      72.357  64.969  54.078  1.00  0.00    -0.507 OA
ATOM     27  H   UNL     1      72.913  65.535  53.456  1.00  0.00     0.293 HD
ENDBRANCH   6  26
BRANCH   8  28
ATOM     28  O   UNL     1      72.445  63.316  58.568  1.00  0.00    -0.508 OA
ATOM     29  H   UNL     1      71.476  63.543  58.765  1.00  0.00     0.293 HD
ENDBRANCH   8  28
TORSDOF 7
ENDMDL
MODEL 6
REMARK VINA RESULT:    -5.617      1.410      7.118
REMARK INTER + INTRA:          -7.292
REMARK INTER:                  -6.936
REMARK INTRA:                  -0.357
REMARK UNBOUND:                -0.362
REMARK SMILES O=c1c(O)c(-c2cc(O)c(O)c(O)c2)oc2cc(O)cc(O)c12
REMARK SMILES IDX 5 1 3 2 2 3 1 4 23 5 21 6 20 7 18 8 17 9 16 10 15 11 6 12
REMARK SMILES IDX 7 13 8 14 14 15 10 16 12 17 9 18 11 20 13 22 4 24 22 26
REMARK SMILES IDX 19 28
REMARK H PARENT 9 19 11 21 13 23 4 25 22 27 19 29
REMARK Flexibility Score: inf
ROOT
ATOM      1  C   UNL     1      76.012  62.247  55.051  1.00  0.00     0.180 A 
ATOM      2  C   UNL     1      77.116  63.107  54.935  1.00  0.00     0.208 A 
ATOM      3  C   UNL     1      78.378  62.562  54.646  1.00  0.00     0.238 A 
ATOM      4  O   UNL     1      79.372  63.332  54.597  1.00  0.00    -0.285 OA
ATOM      5  C   UNL     1      78.516  61.165  54.461  1.00  0.00     0.111 A 
ATOM      6  C   UNL     1      79.737  60.509  54.126  1.00  0.00     0.134 A 
ATOM      7  C   UNL     1      79.785  59.110  54.096  1.00  0.00     0.093 A 
ATOM      8  C   UNL     1      78.642  58.345  54.325  1.00  0.00     0.123 A 
ATOM      9  C   UNL     1      77.428  58.979  54.595  1.00  0.00     0.094 A 
ATOM     10  C   UNL     1      77.357  60.372  54.667  1.00  0.00     0.146 A 
ATOM     11  O   UNL     1      76.185  60.935  54.937  1.00  0.00    -0.452 OA
ENDROOT
BRANCH   1  12
ATOM     12  C   UNL     1      74.647  62.749  55.328  1.00  0.00     0.029 A 
ATOM     13  C   UNL     1      74.227  62.911  56.658  1.00  0.00     0.062 A 
ATOM     14  C   UNL     1      72.934  63.365  56.949  1.00  0.00     0.162 A 
ATOM     15  C   UNL     1      73.740  63.014  54.289  1.00  0.00     0.062 A 
ATOM     16  C   UNL     1      72.039  63.648  55.902  1.00  0.00     0.200 A 
ATOM     17  C   UNL     1      72.446  63.467  54.570  1.00  0.00     0.162 A 
BRANCH  14  18
ATOM     18  O   UNL     1      72.534  63.534  58.273  1.00  0.00    -0.504 OA
ATOM     19  H   UNL     1      72.211  62.754  58.835  1.00  0.00     0.293 HD
ENDBRANCH  14  18
BRANCH  16  20
ATOM     20  O   UNL     1      70.748  64.104  56.173  1.00  0.00    -0.502 OA
ATOM     21  H   UNL     1      70.236  64.691  55.526  1.00  0.00     0.293 HD
ENDBRANCH  16  20
BRANCH  17  22
ATOM     22  O   UNL     1      71.577  63.724  53.510  1.00  0.00    -0.504 OA
ATOM     23  H   UNL     1      70.699  63.231  53.401  1.00  0.00     0.293 HD
ENDBRANCH  17  22
ENDBRANCH   1  12
BRANCH   2  24
ATOM     24  O   UNL     1      76.962  64.481  55.143  1.00  0.00    -0.502 OA
ATOM     25  H   UNL     1      76.600  65.101  54.429  1.00  0.00     0.293 HD
ENDBRANCH   2  24
BRANCH   6  26
ATOM     26  O   UNL     1      80.918  61.181  53.790  1.00  0.00    -0.507 OA
ATOM     27  H   UNL     1      81.133  62.129  54.054  1.00  0.00     0.293 HD
ENDBRANCH   6  26
BRANCH   8  28
ATOM     28  O   UNL     1      78.722  56.956  54.271  1.00  0.00    -0.508 OA
ATOM     29  H   UNL     1      78.694  56.391  55.113  1.00  0.00     0.293 HD
ENDBRANCH   8  28
TORSDOF 7
ENDMDL
MODEL 7
REMARK VINA RESULT:    -5.555      1.639      3.688
REMARK INTER + INTRA:          -7.216
REMARK INTER:                  -6.847
REMARK INTRA:                  -0.369
REMARK UNBOUND:                -0.362
REMARK SMILES O=c1c(O)c(-c2cc(O)c(O)c(O)c2)oc2cc(O)cc(O)c12
REMARK SMILES IDX 5 1 3 2 2 3 1 4 23 5 21 6 20 7 18 8 17 9 16 10 15 11 6 12
REMARK SMILES IDX 7 13 8 14 14 15 10 16 12 17 9 18 11 20 13 22 4 24 22 26
REMARK SMILES IDX 19 28
REMARK H PARENT 9 19 11 21 13 23 4 25 22 27 19 29
REMARK Flexibility Score: inf
ROOT
ATOM      1  C   UNL     1      75.109  62.371  55.322  1.00  0.00     0.180 A 
ATOM      2  C   UNL     1      74.478  62.632  56.550  1.00  0.00     0.208 A 
ATOM      3  C   UNL     1      73.116  62.973  56.558  1.00  0.00     0.238 A 
ATOM      4  O   UNL     1      72.570  63.258  57.656  1.00  0.00    -0.285 OA
ATOM      5  C   UNL     1      72.398  63.033  55.339  1.00  0.00     0.111 A 
ATOM      6  C   UNL     1      71.006  63.328  55.232  1.00  0.00     0.134 A 
ATOM      7  C   UNL     1      70.429  63.490  53.966  1.00  0.00     0.093 A 
ATOM      8  C   UNL     1      71.177  63.303  52.804  1.00  0.00     0.123 A 
ATOM      9  C   UNL     1      72.525  62.955  52.897  1.00  0.00     0.094 A 
ATOM     10  C   UNL     1      73.137  62.823  54.146  1.00  0.00     0.146 A 
ATOM     11  O   UNL     1      74.424  62.501  54.190  1.00  0.00    -0.452 OA
ENDROOT
BRANCH   1  12
ATOM     12  C   UNL     1      76.534  61.982  55.236  1.00  0.00     0.029 A 
ATOM     13  C   UNL     1      77.508  62.970  55.017  1.00  0.00     0.062 A 
ATOM     14  C   UNL     1      78.862  62.626  54.911  1.00  0.00     0.162 A 
ATOM     15  C   UNL     1      76.931  60.637  55.309  1.00  0.00     0.062 A 
ATOM     16  C   UNL     1      79.253  61.279  55.007  1.00  0.00     0.200 A 
ATOM     17  C   UNL     1      78.280  60.284  55.202  1.00  0.00     0.162 A 
BRANCH  14  18
ATOM     18  O   UNL     1      79.821  63.617  54.709  1.00  0.00    -0.504 OA
ATOM     19  H   UNL     1      79.872  64.437  55.304  1.00  0.00     0.293 HD
ENDBRANCH  14  18
BRANCH  16  20
ATOM     20  O   UNL     1      80.598  60.919  54.906  1.00  0.00    -0.502 OA
ATOM     21  H   UNL     1      81.222  60.931  55.704  1.00  0.00     0.293 HD
ENDBRANCH  16  20
BRANCH  17  22
ATOM     22  O   UNL     1      78.634  58.937  55.287  1.00  0.00    -0.504 OA
ATOM     23  H   UNL     1      79.035  58.537  56.127  1.00  0.00     0.293 HD
ENDBRANCH  17  22
ENDBRANCH   1  12
BRANCH   2  24
ATOM     24  O   UNL     1      75.211  62.588  57.739  1.00  0.00    -0.502 OA
ATOM     25  H   UNL     1      75.118  61.832  58.407  1.00  0.00     0.293 HD
ENDBRANCH   2  24
BRANCH   6  26
ATOM     26  O   UNL     1      70.146  63.446  56.329  1.00  0.00    -0.507 OA
ATOM     27  H   UNL     1      70.212  64.162  57.035  1.00  0.00     0.293 HD
ENDBRANCH   6  26
BRANCH   8  28
ATOM     28  O   UNL     1      70.566  63.456  51.562  1.00  0.00    -0.508 OA
ATOM     29  H   UNL     1      69.691  62.994  51.341  1.00  0.00     0.293 HD
ENDBRANCH   8  28
TORSDOF 7
ENDMDL
MODEL 8
REMARK VINA RESULT:    -5.523      4.423      5.778
REMARK INTER + INTRA:          -7.176
REMARK INTER:                  -6.809
REMARK INTRA:                  -0.368
REMARK UNBOUND:                -0.362
REMARK SMILES O=c1c(O)c(-c2cc(O)c(O)c(O)c2)oc2cc(O)cc(O)c12
REMARK SMILES IDX 5 1 3 2 2 3 1 4 23 5 21 6 20 7 18 8 17 9 16 10 15 11 6 12
REMARK SMILES IDX 7 13 8 14 14 15 10 16 12 17 9 18 11 20 13 22 4 24 22 26
REMARK SMILES IDX 19 28
REMARK H PARENT 9 19 11 21 13 23 4 25 22 27 19 29
REMARK Flexibility Score: inf
ROOT
ATOM      1  C   UNL     1      73.161  60.598  54.750  1.00  0.00     0.180 A 
ATOM      2  C   UNL     1      71.981  60.685  53.991  1.00  0.00     0.208 A 
ATOM      3  C   UNL     1      71.198  59.533  53.815  1.00  0.00     0.238 A 
ATOM      4  O   UNL     1      70.172  59.604  53.090  1.00  0.00    -0.285 OA
ATOM      5  C   UNL     1      71.596  58.312  54.413  1.00  0.00     0.111 A 
ATOM      6  C   UNL     1      70.858  57.093  54.335  1.00  0.00     0.134 A 
ATOM      7  C   UNL     1      71.412  55.916  54.853  1.00  0.00     0.093 A 
ATOM      8  C   UNL     1      72.644  55.926  55.506  1.00  0.00     0.123 A 
ATOM      9  C   UNL     1      73.346  57.125  55.641  1.00  0.00     0.094 A 
ATOM     10  C   UNL     1      72.837  58.308  55.101  1.00  0.00     0.146 A 
ATOM     11  O   UNL     1      73.541  59.425  55.243  1.00  0.00    -0.452 OA
ENDROOT
BRANCH   1  12
ATOM     12  C   UNL     1      74.024  61.774  55.000  1.00  0.00     0.029 A 
ATOM     13  C   UNL     1      75.132  62.008  54.170  1.00  0.00     0.062 A 
ATOM     14  C   UNL     1      75.977  63.101  54.398  1.00  0.00     0.162 A 
ATOM     15  C   UNL     1      73.794  62.632  56.088  1.00  0.00     0.062 A 
ATOM     16  C   UNL     1      75.728  63.968  55.476  1.00  0.00     0.200 A 
ATOM     17  C   UNL     1      74.634  63.726  56.324  1.00  0.00     0.162 A 
BRANCH  14  18
ATOM     18  O   UNL     1      77.065  63.330  53.557  1.00  0.00    -0.504 OA
ATOM     19  H   UNL     1      77.088  62.974  52.608  1.00  0.00     0.293 HD
ENDBRANCH  14  18
BRANCH  16  20
ATOM     20  O   UNL     1      76.558  65.064  55.716  1.00  0.00    -0.502 OA
ATOM     21  H   UNL     1      77.137  65.131  56.545  1.00  0.00     0.293 HD
ENDBRANCH  16  20
BRANCH  17  22
ATOM     22  O   UNL     1      74.368  64.558  57.412  1.00  0.00    -0.504 OA
ATOM     23  H   UNL     1      73.639  64.351  58.084  1.00  0.00     0.293 HD
ENDBRANCH  17  22
ENDBRANCH   1  12
BRANCH   2  24
ATOM     24  O   UNL     1      71.619  61.894  53.391  1.00  0.00    -0.502 OA
ATOM     25  H   UNL     1      71.486  61.986  52.391  1.00  0.00     0.293 HD
ENDBRANCH   2  24
BRANCH   6  26
ATOM     26  O   UNL     1      69.577  56.990  53.784  1.00  0.00    -0.507 OA
ATOM     27  H   UNL     1      69.336  56.412  52.994  1.00  0.00     0.293 HD
ENDBRANCH   6  26
BRANCH   8  28
ATOM     28  O   UNL     1      73.157  54.740  56.024  1.00  0.00    -0.508 OA
ATOM     29  H   UNL     1      72.854  53.836  55.679  1.00  0.00     0.293 HD
ENDBRANCH   8  28
TORSDOF 7
ENDMDL
MODEL 9
REMARK VINA RESULT:    -5.444      3.119      4.833
REMARK INTER + INTRA:          -7.079
REMARK INTER:                  -6.733
REMARK INTRA:                  -0.346
REMARK UNBOUND:                -0.362
REMARK SMILES O=c1c(O)c(-c2cc(O)c(O)c(O)c2)oc2cc(O)cc(O)c12
REMARK SMILES IDX 5 1 3 2 2 3 1 4 23 5 21 6 20 7 18 8 17 9 16 10 15 11 6 12
REMARK SMILES IDX 7 13 8 14 14 15 10 16 12 17 9 18 11 20 13 22 4 24 22 26
REMARK SMILES IDX 19 28
REMARK H PARENT 9 19 11 21 13 23 4 25 22 27 19 29
REMARK Flexibility Score: inf
ROOT
ATOM      1  C   UNL     1      72.689  62.409  54.052  1.00  0.00     0.180 A 
ATOM      2  C   UNL     1      71.718  63.424  54.008  1.00  0.00     0.208 A 
ATOM      3  C   UNL     1      70.366  63.068  53.878  1.00  0.00     0.238 A 
ATOM      4  O   UNL     1      69.506  63.983  53.784  1.00  0.00    -0.285 OA
ATOM      5  C   UNL     1      70.000  61.702  53.811  1.00  0.00     0.111 A 
ATOM      6  C   UNL     1      68.658  61.226  53.720  1.00  0.00     0.134 A 
ATOM      7  C   UNL     1      68.421  59.859  53.527  1.00  0.00     0.093 A 
ATOM      8  C   UNL     1      69.473  58.944  53.488  1.00  0.00     0.123 A 
ATOM      9  C   UNL     1      70.786  59.393  53.636  1.00  0.00     0.094 A 
ATOM     10  C   UNL     1      71.056  60.754  53.793  1.00  0.00     0.146 A 
ATOM     11  O   UNL     1      72.320  61.140  53.920  1.00  0.00    -0.452 OA
ENDROOT
BRANCH   1  12
ATOM     12  C   UNL     1      74.131  62.705  54.212  1.00  0.00     0.029 A 
ATOM     13  C   UNL     1      74.650  62.938  55.495  1.00  0.00     0.062 A 
ATOM     14  C   UNL     1      76.007  63.241  55.672  1.00  0.00     0.162 A 
ATOM     15  C   UNL     1      74.982  62.815  53.101  1.00  0.00     0.062 A 
ATOM     16  C   UNL     1      76.857  63.328  54.556  1.00  0.00     0.200 A 
ATOM     17  C   UNL     1      76.337  63.119  53.267  1.00  0.00     0.162 A 
BRANCH  14  18
ATOM     18  O   UNL     1      76.513  63.456  56.953  1.00  0.00    -0.504 OA
ATOM     19  H   UNL     1      75.907  63.686  57.733  1.00  0.00     0.293 HD
ENDBRANCH  14  18
BRANCH  16  20
ATOM     20  O   UNL     1      78.211  63.626  54.714  1.00  0.00    -0.502 OA
ATOM     21  H   UNL     1      78.562  64.576  54.686  1.00  0.00     0.293 HD
ENDBRANCH  16  20
BRANCH  17  22
ATOM     22  O   UNL     1      77.152  63.214  52.139  1.00  0.00    -0.504 OA
ATOM     23  H   UNL     1      77.536  64.096  51.824  1.00  0.00     0.293 HD
ENDBRANCH  17  22
ENDBRANCH   1  12
BRANCH   2  24
ATOM     24  O   UNL     1      72.103  64.767  54.054  1.00  0.00    -0.502 OA
ATOM     25  H   UNL     1      72.897  65.086  54.595  1.00  0.00     0.293 HD
ENDBRANCH   2  24
BRANCH   6  26
ATOM     26  O   UNL     1      67.530  62.044  53.838  1.00  0.00    -0.507 OA
ATOM     27  H   UNL     1      66.582  61.708  53.907  1.00  0.00     0.293 HD
ENDBRANCH   6  26
BRANCH   8  28
ATOM     28  O   UNL     1      69.200  57.590  53.311  1.00  0.00    -0.508 OA
ATOM     29  H   UNL     1      69.933  56.891  53.355  1.00  0.00     0.293 HD
ENDBRANCH   8  28
TORSDOF 7
ENDMDL
