MODEL 1
REMARK VINA RESULT:     3.733      0.000      0.000
REMARK INTER + INTRA:           3.884
REMARK INTER:                   4.933
REMARK INTRA:                  -1.050
REMARK UNBOUND:                -1.050
REMARK SMILES CC[C@@H](C=C[C@H](C)[C@@H]1CC[C@@H]2C3=CC[C@@H]4C[C@H](O)CC[C@]4(C)[C@@H]3CC[C@]21C)C(C)C
REMARK SMILES IDX 6 1 7 2 5 3 4 4 3 5 2 6 1 7 28 8 29 9 30 10 8 11 9 12 26 13
REMARK SMILES IDX 10 14 11 15 25 16 27 17 12 18 24 19 23 20 13 21 21 22 14 23
REMARK SMILES IDX 15 24 20 25 22 26 16 27 19 28 17 29 18 30
REMARK H PARENT 18 31
REMARK Flexibility Score: inf
ROOT
ATOM      1  C   UNL     1     131.385 127.081 137.079  1.00  0.00     0.012 C 
ATOM      2  C   UNL     1     130.215 126.646 136.194  1.00  0.00     0.012 C 
ENDROOT
BRANCH   1   3
ATOM      3  C   UNL     1     131.173 128.494 137.575  1.00  0.00    -0.028 C 
ATOM      4  C   UNL     1     132.129 129.440 137.531  1.00  0.00    -0.027 C 
BRANCH   4   5
ATOM      5  C   UNL     1     131.855 130.867 137.962  1.00  0.00     0.014 C 
BRANCH   5   6
ATOM      6  C   UNL     1     130.462 130.954 138.645  1.00  0.00     0.004 C 
ATOM      7  C   UNL     1     130.550 130.793 140.163  1.00  0.00     0.004 C 
ENDBRANCH   5   6
BRANCH   5   8
ATOM      8  C   UNL     1     132.042 131.845 136.760  1.00  0.00    -0.011 C 
ATOM      9  C   UNL     1     131.050 131.640 135.596  1.00  0.00     0.008 C 
ATOM     10  C   UNL     1     132.010 133.313 137.223  1.00  0.00     0.008 C 
ENDBRANCH   5   8
ENDBRANCH   4   5
ENDBRANCH   1   3
BRANCH   1  11
ATOM     11  C   UNL     1     131.662 126.082 138.254  1.00  0.00     0.002 C 
ATOM     12  C   UNL     1     131.273 126.677 139.637  1.00  0.00     0.005 C 
ATOM     13  C   UNL     1     133.132 125.604 138.455  1.00  0.00    -0.023 C 
ATOM     14  C   UNL     1     132.320 126.201 140.658  1.00  0.00     0.009 C 
ATOM     15  C   UNL     1     133.094 125.120 139.910  1.00  0.00     0.021 C 
ATOM     16  C   UNL     1     133.549 124.390 137.586  1.00  0.00     0.008 C 
ATOM     17  C   UNL     1     134.138 126.791 138.274  1.00  0.00     0.012 C 
ATOM     18  C   UNL     1     134.470 124.689 140.386  1.00  0.00    -0.067 C 
ATOM     19  C   UNL     1     134.957 123.897 137.977  1.00  0.00     0.009 C 
ATOM     20  C   UNL     1     135.174 123.647 139.511  1.00  0.00     0.021 C 
ATOM     21  C   UNL     1     134.910 124.978 141.628  1.00  0.00    -0.027 C 
ATOM     22  C   UNL     1     136.691 123.407 139.886  1.00  0.00    -0.023 C 
ATOM     23  C   UNL     1     136.252 124.541 142.141  1.00  0.00     0.031 C 
ATOM     24  C   UNL     1     136.796 123.279 141.440  1.00  0.00     0.002 C 
ATOM     25  C   UNL     1     137.609 124.583 139.422  1.00  0.00     0.010 C 
ATOM     26  C   UNL     1     137.135 122.093 139.181  1.00  0.00     0.012 C 
ATOM     27  C   UNL     1     138.235 122.989 141.945  1.00  0.00     0.036 C 
ATOM     28  C   UNL     1     139.015 124.651 140.083  1.00  0.00     0.032 C 
ATOM     29  C   UNL     1     139.391 123.495 141.032  1.00  0.00     0.114 C 
BRANCH  29  30
ATOM     30  O   UNL     1     140.484 123.914 141.807  1.00  0.00    -0.393 OA
ATOM     31  H   UNL     1     140.780 124.805 141.464  1.00  0.00     0.210 HD
ENDBRANCH  29  30
ENDBRANCH   1  11
TORSDOF 6
ENDMDL
