MODEL 1
REMARK VINA RESULT:    -4.137      0.000      0.000
REMARK INTER + INTRA:          -6.244
REMARK INTER:                  -5.588
REMARK INTRA:                  -0.656
REMARK UNBOUND:                -0.656
REMARK SMILES O=C[C@@H](O)[C@H](O)[C@H](O)CO
REMARK SMILES IDX 7 1 9 2 10 3 5 5 3 6 2 7 1 8 4 9 6 11 8 13
REMARK H PARENT 10 4 4 10 6 12 8 14
REMARK Flexibility Score: inf
ROOT
ATOM      1  C   UNL     1      -6.805 -19.114 -14.899  1.00  0.00     0.171 C 
ENDROOT
BRANCH   1   2
ATOM      2  C   UNL     1      -7.113 -17.758 -15.562  1.00  0.00     0.190 C 
BRANCH   2   3
ATOM      3  O   UNL     1      -6.694 -16.705 -14.739  1.00  0.00    -0.394 OA
ATOM      4  H   UNL     1      -7.129 -15.887 -15.094  1.00  0.00     0.210 HD
ENDBRANCH   2   3
ENDBRANCH   1   2
BRANCH   1   5
ATOM      5  C   UNL     1      -6.158 -18.958 -13.490  1.00  0.00     0.181 C 
BRANCH   5   6
ATOM      6  C   UNL     1      -5.590 -20.279 -12.912  1.00  0.00     0.209 C 
BRANCH   6   7
ATOM      7  C   UNL     1      -5.261 -20.196 -11.438  1.00  0.00     0.258 C 
ATOM      8  O   UNL     1      -6.024 -20.675 -10.615  1.00  0.00    -0.300 OA
ENDBRANCH   6   7
BRANCH   6   9
ATOM      9  O   UNL     1      -6.437 -21.369 -13.194  1.00  0.00    -0.383 OA
ATOM     10  H   UNL     1      -6.543 -21.434 -14.179  1.00  0.00     0.211 HD
ENDBRANCH   6   9
ENDBRANCH   5   6
BRANCH   5  11
ATOM     11  O   UNL     1      -7.096 -18.444 -12.574  1.00  0.00    -0.387 OA
ATOM     12  H   UNL     1      -6.925 -18.876 -11.697  1.00  0.00     0.211 HD
ENDBRANCH   5  11
ENDBRANCH   1   5
BRANCH   1  13
ATOM     13  O   UNL     1      -5.974 -19.866 -15.749  1.00  0.00    -0.388 OA
ATOM     14  H   UNL     1      -6.369 -20.775 -15.827  1.00  0.00     0.211 HD
ENDBRANCH   1  13
TORSDOF 8
ENDMDL
MODEL 2
REMARK VINA RESULT:    -4.058      1.300      4.314
REMARK INTER + INTRA:          -6.138
REMARK INTER:                  -5.518
REMARK INTRA:                  -0.620
REMARK UNBOUND:                -0.656
REMARK SMILES O=C[C@@H](O)[C@H](O)[C@H](O)CO
REMARK SMILES IDX 7 1 9 2 10 3 5 5 3 6 2 7 1 8 4 9 6 11 8 13
REMARK H PARENT 10 4 4 10 6 12 8 14
REMARK Flexibility Score: inf
ROOT
ATOM      1  C   UNL     1      -6.001 -20.164 -12.004  1.00  0.00     0.171 C 
ENDROOT
BRANCH   1   2
ATOM      2  C   UNL     1      -5.843 -21.694 -11.924  1.00  0.00     0.190 C 
BRANCH   2   3
ATOM      3  O   UNL     1      -7.081 -22.324 -12.107  1.00  0.00    -0.394 OA
ATOM      4  H   UNL     1      -7.001 -23.219 -11.687  1.00  0.00     0.210 HD
ENDBRANCH   2   3
ENDBRANCH   1   2
BRANCH   1   5
ATOM      5  C   UNL     1      -5.908 -19.628 -13.465  1.00  0.00     0.181 C 
BRANCH   5   6
ATOM      6  C   UNL     1      -6.705 -18.321 -13.703  1.00  0.00     0.209 C 
BRANCH   6   7
ATOM      7  C   UNL     1      -7.471 -18.315 -15.008  1.00  0.00     0.258 C 
ATOM      8  O   UNL     1      -6.875 -18.174 -16.064  1.00  0.00    -0.300 OA
ENDBRANCH   6   7
BRANCH   6   9
ATOM      9  O   UNL     1      -7.542 -18.023 -12.610  1.00  0.00    -0.383 OA
ATOM     10  H   UNL     1      -7.509 -18.786 -11.975  1.00  0.00     0.211 HD
ENDBRANCH   6   9
ENDBRANCH   5   6
BRANCH   5  11
ATOM     11  O   UNL     1      -6.370 -20.599 -14.373  1.00  0.00    -0.387 OA
ATOM     12  H   UNL     1      -5.581 -20.946 -14.866  1.00  0.00     0.211 HD
ENDBRANCH   5  11
ENDBRANCH   1   5
BRANCH   1  13
ATOM     13  O   UNL     1      -5.032 -19.556 -11.186  1.00  0.00    -0.388 OA
ATOM     14  H   UNL     1      -5.015 -20.049 -10.323  1.00  0.00     0.211 HD
ENDBRANCH   1  13
TORSDOF 8
ENDMDL
MODEL 3
REMARK VINA RESULT:    -3.830      1.575      4.691
REMARK INTER + INTRA:          -5.830
REMARK INTER:                  -5.379
REMARK INTRA:                  -0.451
REMARK UNBOUND:                -0.656
REMARK SMILES O=C[C@@H](O)[C@H](O)[C@H](O)CO
REMARK SMILES IDX 7 1 9 2 10 3 5 5 3 6 2 7 1 8 4 9 6 11 8 13
REMARK H PARENT 10 4 4 10 6 12 8 14
REMARK Flexibility Score: inf
ROOT
ATOM      1  C   UNL     1      -5.183 -21.003 -10.878  1.00  0.00     0.171 C 
ENDROOT
BRANCH   1   2
ATOM      2  C   UNL     1      -4.021 -21.952 -10.527  1.00  0.00     0.190 C 
BRANCH   2   3
ATOM      3  O   UNL     1      -4.032 -23.070 -11.372  1.00  0.00    -0.394 OA
ATOM      4  H   UNL     1      -3.458 -22.837 -12.146  1.00  0.00     0.210 HD
ENDBRANCH   2   3
ENDBRANCH   1   2
BRANCH   1   5
ATOM      5  C   UNL     1      -5.548 -21.036 -12.392  1.00  0.00     0.181 C 
BRANCH   5   6
ATOM      6  C   UNL     1      -5.795 -19.635 -13.007  1.00  0.00     0.209 C 
BRANCH   6   7
ATOM      7  C   UNL     1      -6.085 -19.674 -14.491  1.00  0.00     0.258 C 
ATOM      8  O   UNL     1      -7.096 -19.151 -14.929  1.00  0.00    -0.300 OA
ENDBRANCH   6   7
BRANCH   6   9
ATOM      9  O   UNL     1      -6.793 -18.934 -12.302  1.00  0.00    -0.383 OA
ATOM     10  H   UNL     1      -6.758 -17.981 -12.578  1.00  0.00     0.211 HD
ENDBRANCH   6   9
ENDBRANCH   5   6
BRANCH   5  11
ATOM     11  O   UNL     1      -6.698 -21.820 -12.603  1.00  0.00    -0.387 OA
ATOM     12  H   UNL     1      -6.802 -21.939 -13.583  1.00  0.00     0.211 HD
ENDBRANCH   5  11
ENDBRANCH   1   5
BRANCH   1  13
ATOM     13  O   UNL     1      -4.853 -19.698 -10.471  1.00  0.00    -0.388 OA
ATOM     14  H   UNL     1      -5.042 -19.089 -11.233  1.00  0.00     0.211 HD
ENDBRANCH   1  13
TORSDOF 8
ENDMDL
MODEL 4
REMARK VINA RESULT:    -3.743      6.117      7.533
REMARK INTER + INTRA:          -5.711
REMARK INTER:                  -5.007
REMARK INTRA:                  -0.704
REMARK UNBOUND:                -0.656
REMARK SMILES O=C[C@@H](O)[C@H](O)[C@H](O)CO
REMARK SMILES IDX 7 1 9 2 10 3 5 5 3 6 2 7 1 8 4 9 6 11 8 13
REMARK H PARENT 10 4 4 10 6 12 8 14
REMARK Flexibility Score: inf
ROOT
ATOM      1  C   UNL     1      -2.336 -23.490 -11.804  1.00  0.00     0.171 C 
ENDROOT
BRANCH   1   2
ATOM      2  C   UNL     1      -2.527 -24.845 -12.511  1.00  0.00     0.190 C 
BRANCH   2   3
ATOM      3  O   UNL     1      -1.399 -25.655 -12.329  1.00  0.00    -0.394 OA
ATOM      4  H   UNL     1      -1.016 -25.401 -11.449  1.00  0.00     0.210 HD
ENDBRANCH   2   3
ENDBRANCH   1   2
BRANCH   1   5
ATOM      5  C   UNL     1      -1.008 -23.421 -10.992  1.00  0.00     0.181 C 
BRANCH   5   6
ATOM      6  C   UNL     1      -1.033 -22.383  -9.841  1.00  0.00     0.209 C 
BRANCH   6   7
ATOM      7  C   UNL     1       0.331 -22.126  -9.237  1.00  0.00     0.258 C 
ATOM      8  O   UNL     1       1.054 -21.265  -9.709  1.00  0.00    -0.300 OA
ENDBRANCH   6   7
BRANCH   6   9
ATOM      9  O   UNL     1      -1.657 -21.186 -10.241  1.00  0.00    -0.383 OA
ATOM     10  H   UNL     1      -1.590 -21.116 -11.230  1.00  0.00     0.211 HD
ENDBRANCH   6   9
ENDBRANCH   5   6
BRANCH   5  11
ATOM     11  O   UNL     1       0.071 -23.112 -11.841  1.00  0.00    -0.387 OA
ATOM     12  H   UNL     1      -0.299 -22.965 -12.751  1.00  0.00     0.211 HD
ENDBRANCH   5  11
ENDBRANCH   1   5
BRANCH   1  13
ATOM     13  O   UNL     1      -3.444 -23.242 -10.974  1.00  0.00    -0.388 OA
ATOM     14  H   UNL     1      -4.254 -23.226 -11.549  1.00  0.00     0.211 HD
ENDBRANCH   1  13
TORSDOF 8
ENDMDL
MODEL 5
REMARK VINA RESULT:    -3.697      2.638      4.968
REMARK INTER + INTRA:          -5.649
REMARK INTER:                  -4.895
REMARK INTRA:                  -0.754
REMARK UNBOUND:                -0.656
REMARK SMILES O=C[C@@H](O)[C@H](O)[C@H](O)CO
REMARK SMILES IDX 7 1 9 2 10 3 5 5 3 6 2 7 1 8 4 9 6 11 8 13
REMARK H PARENT 10 4 4 10 6 12 8 14
REMARK Flexibility Score: inf
ROOT
ATOM      1  C   UNL     1      -3.703 -22.405 -11.386  1.00  0.00     0.171 C 
ENDROOT
BRANCH   1   2
ATOM      2  C   UNL     1      -2.404 -22.365 -10.559  1.00  0.00     0.190 C 
BRANCH   2   3
ATOM      3  O   UNL     1      -1.683 -21.197 -10.836  1.00  0.00    -0.394 OA
ATOM      4  H   UNL     1      -2.111 -20.791 -11.635  1.00  0.00     0.210 HD
ENDBRANCH   2   3
ENDBRANCH   1   2
BRANCH   1   5
ATOM      5  C   UNL     1      -4.907 -21.754 -10.641  1.00  0.00     0.181 C 
BRANCH   5   6
ATOM      6  C   UNL     1      -6.103 -21.412 -11.564  1.00  0.00     0.209 C 
BRANCH   6   7
ATOM      7  C   UNL     1      -5.715 -20.572 -12.762  1.00  0.00     0.258 C 
ATOM      8  O   UNL     1      -5.259 -19.453 -12.599  1.00  0.00    -0.300 OA
ENDBRANCH   6   7
BRANCH   6   9
ATOM      9  O   UNL     1      -6.803 -22.572 -11.949  1.00  0.00    -0.383 OA
ATOM     10  H   UNL     1      -6.142 -23.249 -12.252  1.00  0.00     0.211 HD
ENDBRANCH   6   9
ENDBRANCH   5   6
BRANCH   5  11
ATOM     11  O   UNL     1      -4.501 -20.574  -9.990  1.00  0.00    -0.387 OA
ATOM     12  H   UNL     1      -4.959 -19.814 -10.436  1.00  0.00     0.211 HD
ENDBRANCH   5  11
ENDBRANCH   1   5
BRANCH   1  13
ATOM     13  O   UNL     1      -3.990 -23.737 -11.732  1.00  0.00    -0.388 OA
ATOM     14  H   UNL     1      -3.225 -24.297 -11.434  1.00  0.00     0.211 HD
ENDBRANCH   1  13
TORSDOF 8
ENDMDL
MODEL 6
REMARK VINA RESULT:    -3.676     11.638     12.844
REMARK INTER + INTRA:          -5.622
REMARK INTER:                  -4.978
REMARK INTRA:                  -0.644
REMARK UNBOUND:                -0.656
REMARK SMILES O=C[C@@H](O)[C@H](O)[C@H](O)CO
REMARK SMILES IDX 7 1 9 2 10 3 5 5 3 6 2 7 1 8 4 9 6 11 8 13
REMARK H PARENT 10 4 4 10 6 12 8 14
REMARK Flexibility Score: inf
ROOT
ATOM      1  C   UNL     1       2.094 -27.724 -11.704  1.00  0.00     0.171 C 
ENDROOT
BRANCH   1   2
ATOM      2  C   UNL     1       2.393 -28.930 -12.614  1.00  0.00     0.190 C 
BRANCH   2   3
ATOM      3  O   UNL     1       2.967 -28.502 -13.819  1.00  0.00    -0.394 OA
ATOM      4  H   UNL     1       3.313 -27.588 -13.651  1.00  0.00     0.210 HD
ENDBRANCH   2   3
ENDBRANCH   1   2
BRANCH   1   5
ATOM      5  C   UNL     1       3.218 -27.474 -10.654  1.00  0.00     0.181 C 
BRANCH   5   6
ATOM      6  C   UNL     1       3.267 -26.018 -10.124  1.00  0.00     0.209 C 
BRANCH   6   7
ATOM      7  C   UNL     1       4.667 -25.446 -10.072  1.00  0.00     0.258 C 
ATOM      8  O   UNL     1       5.419 -25.758  -9.164  1.00  0.00    -0.300 OA
ENDBRANCH   6   7
BRANCH   6   9
ATOM      9  O   UNL     1       2.391 -25.181 -10.842  1.00  0.00    -0.383 OA
ATOM     10  H   UNL     1       2.173 -25.623 -11.704  1.00  0.00     0.211 HD
ENDBRANCH   6   9
ENDBRANCH   5   6
BRANCH   5  11
ATOM     11  O   UNL     1       4.478 -27.787 -11.199  1.00  0.00    -0.387 OA
ATOM     12  H   UNL     1       4.659 -27.134 -11.925  1.00  0.00     0.211 HD
ENDBRANCH   5  11
ENDBRANCH   1   5
BRANCH   1  13
ATOM     13  O   UNL     1       0.853 -27.918 -11.071  1.00  0.00    -0.388 OA
ATOM     14  H   UNL     1       0.523 -27.028 -10.777  1.00  0.00     0.211 HD
ENDBRANCH   1  13
TORSDOF 8
ENDMDL
MODEL 7
REMARK VINA RESULT:    -3.663      2.619      4.327
REMARK INTER + INTRA:          -5.604
REMARK INTER:                  -5.071
REMARK INTRA:                  -0.533
REMARK UNBOUND:                -0.656
REMARK SMILES O=C[C@@H](O)[C@H](O)[C@H](O)CO
REMARK SMILES IDX 7 1 9 2 10 3 5 5 3 6 2 7 1 8 4 9 6 11 8 13
REMARK H PARENT 10 4 4 10 6 12 8 14
REMARK Flexibility Score: inf
ROOT
ATOM      1  C   UNL     1      -5.979 -21.173 -11.160  1.00  0.00     0.171 C 
ENDROOT
BRANCH   1   2
ATOM      2  C   UNL     1      -5.620 -20.398 -12.442  1.00  0.00     0.190 C 
BRANCH   2   3
ATOM      3  O   UNL     1      -6.490 -20.748 -13.484  1.00  0.00    -0.394 OA
ATOM      4  H   UNL     1      -7.102 -21.436 -13.113  1.00  0.00     0.210 HD
ENDBRANCH   2   3
ENDBRANCH   1   2
BRANCH   1   5
ATOM      5  C   UNL     1      -4.721 -21.595 -10.343  1.00  0.00     0.181 C 
BRANCH   5   6
ATOM      6  C   UNL     1      -3.603 -22.236 -11.204  1.00  0.00     0.209 C 
BRANCH   6   7
ATOM      7  C   UNL     1      -2.241 -22.194 -10.546  1.00  0.00     0.258 C 
ATOM      8  O   UNL     1      -2.153 -22.151  -9.329  1.00  0.00    -0.300 OA
ENDBRANCH   6   7
BRANCH   6   9
ATOM      9  O   UNL     1      -3.946 -23.542 -11.603  1.00  0.00    -0.383 OA
ATOM     10  H   UNL     1      -3.879 -23.594 -12.592  1.00  0.00     0.211 HD
ENDBRANCH   6   9
ENDBRANCH   5   6
BRANCH   5  11
ATOM     11  O   UNL     1      -5.076 -22.507  -9.332  1.00  0.00    -0.387 OA
ATOM     12  H   UNL     1      -5.329 -21.979  -8.529  1.00  0.00     0.211 HD
ENDBRANCH   5  11
ENDBRANCH   1   5
BRANCH   1  13
ATOM     13  O   UNL     1      -6.754 -22.296 -11.500  1.00  0.00    -0.388 OA
ATOM     14  H   UNL     1      -6.197 -22.882 -12.077  1.00  0.00     0.211 HD
ENDBRANCH   1  13
TORSDOF 8
ENDMDL
MODEL 8
REMARK VINA RESULT:    -3.653      3.591      4.641
REMARK INTER + INTRA:          -5.591
REMARK INTER:                  -4.718
REMARK INTRA:                  -0.873
REMARK UNBOUND:                -0.656
REMARK SMILES O=C[C@@H](O)[C@H](O)[C@H](O)CO
REMARK SMILES IDX 7 1 9 2 10 3 5 5 3 6 2 7 1 8 4 9 6 11 8 13
REMARK H PARENT 10 4 4 10 6 12 8 14
REMARK Flexibility Score: inf
ROOT
ATOM      1  C   UNL     1      -5.935 -22.019 -11.555  1.00  0.00     0.171 C 
ENDROOT
BRANCH   1   2
ATOM      2  C   UNL     1      -6.726 -21.640 -10.289  1.00  0.00     0.190 C 
BRANCH   2   3
ATOM      3  O   UNL     1      -6.247 -22.352  -9.182  1.00  0.00    -0.394 OA
ATOM      4  H   UNL     1      -6.862 -22.142  -8.431  1.00  0.00     0.210 HD
ENDBRANCH   2   3
ENDBRANCH   1   2
BRANCH   1   5
ATOM      5  C   UNL     1      -4.542 -21.324 -11.621  1.00  0.00     0.181 C 
BRANCH   5   6
ATOM      6  C   UNL     1      -3.354 -22.277 -11.335  1.00  0.00     0.209 C 
BRANCH   6   7
ATOM      7  C   UNL     1      -2.732 -22.067  -9.971  1.00  0.00     0.258 C 
ATOM      8  O   UNL     1      -3.421 -22.153  -8.967  1.00  0.00    -0.300 OA
ENDBRANCH   6   7
BRANCH   6   9
ATOM      9  O   UNL     1      -3.714 -23.623 -11.539  1.00  0.00    -0.383 OA
ATOM     10  H   UNL     1      -4.353 -23.886 -10.826  1.00  0.00     0.211 HD
ENDBRANCH   6   9
ENDBRANCH   5   6
BRANCH   5  11
ATOM     11  O   UNL     1      -4.482 -20.257 -10.704  1.00  0.00    -0.387 OA
ATOM     12  H   UNL     1      -4.144 -19.462 -11.193  1.00  0.00     0.211 HD
ENDBRANCH   5  11
ENDBRANCH   1   5
BRANCH   1  13
ATOM     13  O   UNL     1      -6.703 -21.707 -12.691  1.00  0.00    -0.388 OA
ATOM     14  H   UNL     1      -6.074 -21.528 -13.439  1.00  0.00     0.211 HD
ENDBRANCH   1  13
TORSDOF 8
ENDMDL
MODEL 9
REMARK VINA RESULT:    -3.643      2.013      3.324
REMARK INTER + INTRA:          -5.577
REMARK INTER:                  -5.065
REMARK INTRA:                  -0.512
REMARK UNBOUND:                -0.656
REMARK SMILES O=C[C@@H](O)[C@H](O)[C@H](O)CO
REMARK SMILES IDX 7 1 9 2 10 3 5 5 3 6 2 7 1 8 4 9 6 11 8 13
REMARK H PARENT 10 4 4 10 6 12 8 14
REMARK Flexibility Score: inf
ROOT
ATOM      1  C   UNL     1      -5.271 -20.595 -12.562  1.00  0.00     0.171 C 
ENDROOT
BRANCH   1   2
ATOM      2  C   UNL     1      -5.987 -19.408 -13.233  1.00  0.00     0.190 C 
BRANCH   2   3
ATOM      3  O   UNL     1      -6.742 -19.848 -14.328  1.00  0.00    -0.394 OA
ATOM      4  H   UNL     1      -7.691 -19.663 -14.101  1.00  0.00     0.210 HD
ENDBRANCH   2   3
ENDBRANCH   1   2
BRANCH   1   5
ATOM      5  C   UNL     1      -6.069 -21.168 -11.352  1.00  0.00     0.181 C 
BRANCH   5   6
ATOM      6  C   UNL     1      -5.185 -21.520 -10.129  1.00  0.00     0.209 C 
BRANCH   6   7
ATOM      7  C   UNL     1      -5.982 -21.806  -8.875  1.00  0.00     0.258 C 
ATOM      8  O   UNL     1      -7.178 -22.034  -8.952  1.00  0.00    -0.300 OA
ENDBRANCH   6   7
BRANCH   6   9
ATOM      9  O   UNL     1      -4.291 -22.567 -10.426  1.00  0.00    -0.383 OA
ATOM     10  H   UNL     1      -4.007 -22.475 -11.373  1.00  0.00     0.211 HD
ENDBRANCH   6   9
ENDBRANCH   5   6
BRANCH   5  11
ATOM     11  O   UNL     1      -6.774 -22.326 -11.734  1.00  0.00    -0.387 OA
ATOM     12  H   UNL     1      -6.181 -23.104 -11.568  1.00  0.00     0.211 HD
ENDBRANCH   5  11
ENDBRANCH   1   5
BRANCH   1  13
ATOM     13  O   UNL     1      -3.983 -20.194 -12.165  1.00  0.00    -0.388 OA
ATOM     14  H   UNL     1      -3.885 -19.231 -12.392  1.00  0.00     0.211 HD
ENDBRANCH   1  13
TORSDOF 8
ENDMDL
