MODEL 1
REMARK VINA RESULT:    -4.504      0.000      0.000
REMARK INTER + INTRA:          -6.651
REMARK INTER:                  -6.084
REMARK INTRA:                  -0.568
REMARK UNBOUND:                -0.568
REMARK SMILES O=C[C@@H](O)[C@@H](O)[C@@H](O)CO
REMARK SMILES IDX 7 1 9 2 10 3 5 5 3 6 2 7 1 8 4 9 6 11 8 13
REMARK H PARENT 10 4 4 10 6 12 8 14
REMARK Flexibility Score: inf
ROOT
ATOM      1  C   UNL     1      16.320   7.230  37.457  1.00  0.00     0.171 C 
ENDROOT
BRANCH   1   2
ATOM      2  C   UNL     1      14.841   7.153  37.036  1.00  0.00     0.190 C 
BRANCH   2   3
ATOM      3  O   UNL     1      14.017   7.042  38.164  1.00  0.00    -0.394 OA
ATOM      4  H   UNL     1      14.624   6.906  38.937  1.00  0.00     0.210 HD
ENDBRANCH   2   3
ENDBRANCH   1   2
BRANCH   1   5
ATOM      5  C   UNL     1      16.777   8.691  37.722  1.00  0.00     0.181 C 
BRANCH   5   6
ATOM      6  C   UNL     1      16.971   9.510  36.418  1.00  0.00     0.209 C 
BRANCH   6   7
ATOM      7  C   UNL     1      16.020  10.673  36.336  1.00  0.00     0.258 C 
ATOM      8  O   UNL     1      14.851  10.501  36.032  1.00  0.00    -0.300 OA
ENDBRANCH   6   7
BRANCH   6   9
ATOM      9  O   UNL     1      18.283  10.004  36.362  1.00  0.00    -0.383 OA
ATOM     10  H   UNL     1      18.298  10.848  36.886  1.00  0.00     0.211 HD
ENDBRANCH   6   9
ENDBRANCH   5   6
BRANCH   5  11
ATOM     11  O   UNL     1      15.842   9.334  38.552  1.00  0.00    -0.387 OA
ATOM     12  H   UNL     1      15.059   8.729  38.633  1.00  0.00     0.211 HD
ENDBRANCH   5  11
ENDBRANCH   1   5
BRANCH   1  13
ATOM     13  O   UNL     1      16.529   6.425  38.591  1.00  0.00    -0.388 OA
ATOM     14  H   UNL     1      16.274   5.495  38.348  1.00  0.00     0.211 HD
ENDBRANCH   1  13
TORSDOF 8
ENDMDL
MODEL 2
REMARK VINA RESULT:    -4.257      1.224      2.126
REMARK INTER + INTRA:          -6.318
REMARK INTER:                  -6.411
REMARK INTRA:                   0.093
REMARK UNBOUND:                -0.568
REMARK SMILES O=C[C@@H](O)[C@@H](O)[C@@H](O)CO
REMARK SMILES IDX 7 1 9 2 10 3 5 5 3 6 2 7 1 8 4 9 6 11 8 13
REMARK H PARENT 10 4 4 10 6 12 8 14
REMARK Flexibility Score: inf
ROOT
ATOM      1  C   UNL     1      15.782   7.196  36.578  1.00  0.00     0.171 C 
ENDROOT
BRANCH   1   2
ATOM      2  C   UNL     1      14.506   7.816  37.177  1.00  0.00     0.190 C 
BRANCH   2   3
ATOM      3  O   UNL     1      14.015   7.016  38.217  1.00  0.00    -0.394 OA
ATOM      4  H   UNL     1      13.488   6.295  37.785  1.00  0.00     0.210 HD
ENDBRANCH   2   3
ENDBRANCH   1   2
BRANCH   1   5
ATOM      5  C   UNL     1      16.970   7.225  37.578  1.00  0.00     0.181 C 
BRANCH   5   6
ATOM      6  C   UNL     1      17.422   8.665  37.940  1.00  0.00     0.209 C 
BRANCH   6   7
ATOM      7  C   UNL     1      17.021   9.663  36.887  1.00  0.00     0.258 C 
ATOM      8  O   UNL     1      17.863  10.193  36.180  1.00  0.00    -0.300 OA
ENDBRANCH   6   7
BRANCH   6   9
ATOM      9  O   UNL     1      16.843   9.048  39.159  1.00  0.00    -0.383 OA
ATOM     10  H   UNL     1      17.281   8.510  39.870  1.00  0.00     0.211 HD
ENDBRANCH   6   9
ENDBRANCH   5   6
BRANCH   5  11
ATOM     11  O   UNL     1      16.618   6.529  38.748  1.00  0.00    -0.387 OA
ATOM     12  H   UNL     1      17.451   6.397  39.270  1.00  0.00     0.211 HD
ENDBRANCH   5  11
ENDBRANCH   1   5
BRANCH   1  13
ATOM     13  O   UNL     1      15.513   5.883  36.154  1.00  0.00    -0.388 OA
ATOM     14  H   UNL     1      16.184   5.287  36.581  1.00  0.00     0.211 HD
ENDBRANCH   1  13
TORSDOF 8
ENDMDL
MODEL 3
REMARK VINA RESULT:    -4.216      1.324      1.991
REMARK INTER + INTRA:          -6.263
REMARK INTER:                  -5.926
REMARK INTRA:                  -0.337
REMARK UNBOUND:                -0.568
REMARK SMILES O=C[C@@H](O)[C@@H](O)[C@@H](O)CO
REMARK SMILES IDX 7 1 9 2 10 3 5 5 3 6 2 7 1 8 4 9 6 11 8 13
REMARK H PARENT 10 4 4 10 6 12 8 14
REMARK Flexibility Score: inf
ROOT
ATOM      1  C   UNL     1      15.411   7.777  37.815  1.00  0.00     0.171 C 
ENDROOT
BRANCH   1   2
ATOM      2  C   UNL     1      16.535   7.058  38.584  1.00  0.00     0.190 C 
BRANCH   2   3
ATOM      3  O   UNL     1      16.269   5.685  38.667  1.00  0.00    -0.394 OA
ATOM      4  H   UNL     1      15.675   5.472  37.901  1.00  0.00     0.210 HD
ENDBRANCH   2   3
ENDBRANCH   1   2
BRANCH   1   5
ATOM      5  C   UNL     1      15.763   7.974  36.315  1.00  0.00     0.181 C 
BRANCH   5   6
ATOM      6  C   UNL     1      16.149   9.438  35.971  1.00  0.00     0.209 C 
BRANCH   6   7
ATOM      7  C   UNL     1      15.306  10.434  36.720  1.00  0.00     0.258 C 
ATOM      8  O   UNL     1      15.155  11.566  36.292  1.00  0.00    -0.300 OA
ENDBRANCH   6   7
BRANCH   6   9
ATOM      9  O   UNL     1      17.496   9.658  36.299  1.00  0.00    -0.383 OA
ATOM     10  H   UNL     1      17.558   9.650  37.290  1.00  0.00     0.211 HD
ENDBRANCH   6   9
ENDBRANCH   5   6
BRANCH   5  11
ATOM     11  O   UNL     1      16.813   7.109  35.960  1.00  0.00    -0.387 OA
ATOM     12  H   UNL     1      17.642   7.653  35.932  1.00  0.00     0.211 HD
ENDBRANCH   5  11
ENDBRANCH   1   5
BRANCH   1  13
ATOM     13  O   UNL     1      14.209   7.062  37.960  1.00  0.00    -0.388 OA
ATOM     14  H   UNL     1      14.183   6.372  37.245  1.00  0.00     0.211 HD
ENDBRANCH   1  13
TORSDOF 8
ENDMDL
MODEL 4
REMARK VINA RESULT:    -3.932      1.438      3.507
REMARK INTER + INTRA:          -5.878
REMARK INTER:                  -5.120
REMARK INTRA:                  -0.758
REMARK UNBOUND:                -0.568
REMARK SMILES O=C[C@@H](O)[C@@H](O)[C@@H](O)CO
REMARK SMILES IDX 7 1 9 2 10 3 5 5 3 6 2 7 1 8 4 9 6 11 8 13
REMARK H PARENT 10 4 4 10 6 12 8 14
REMARK Flexibility Score: inf
ROOT
ATOM      1  C   UNL     1      17.717   9.162  37.499  1.00  0.00     0.171 C 
ENDROOT
BRANCH   1   2
ATOM      2  C   UNL     1      17.428  10.080  36.296  1.00  0.00     0.190 C 
BRANCH   2   3
ATOM      3  O   UNL     1      16.096  10.513  36.321  1.00  0.00    -0.394 OA
ATOM      4  H   UNL     1      15.766  10.340  37.240  1.00  0.00     0.210 HD
ENDBRANCH   2   3
ENDBRANCH   1   2
BRANCH   1   5
ATOM      5  C   UNL     1      17.250   7.702  37.245  1.00  0.00     0.181 C 
BRANCH   5   6
ATOM      6  C   UNL     1      16.108   7.258  38.199  1.00  0.00     0.209 C 
BRANCH   6   7
ATOM      7  C   UNL     1      14.759   7.335  37.536  1.00  0.00     0.258 C 
ATOM      8  O   UNL     1      14.434   8.324  36.900  1.00  0.00    -0.300 OA
ENDBRANCH   6   7
BRANCH   6   9
ATOM      9  O   UNL     1      16.327   5.934  38.610  1.00  0.00    -0.383 OA
ATOM     10  H   UNL     1      15.989   5.860  39.542  1.00  0.00     0.211 HD
ENDBRANCH   6   9
ENDBRANCH   5   6
BRANCH   5  11
ATOM     11  O   UNL     1      16.833   7.566  35.909  1.00  0.00    -0.387 OA
ATOM     12  H   UNL     1      16.538   8.463  35.603  1.00  0.00     0.211 HD
ENDBRANCH   5  11
ENDBRANCH   1   5
BRANCH   1  13
ATOM     13  O   UNL     1      19.088   9.205  37.806  1.00  0.00    -0.388 OA
ATOM     14  H   UNL     1      19.580   8.823  37.031  1.00  0.00     0.211 HD
ENDBRANCH   1  13
TORSDOF 8
ENDMDL
MODEL 5
REMARK VINA RESULT:    -3.822      1.278      3.722
REMARK INTER + INTRA:          -5.731
REMARK INTER:                  -5.153
REMARK INTRA:                  -0.578
REMARK UNBOUND:                -0.568
REMARK SMILES O=C[C@@H](O)[C@@H](O)[C@@H](O)CO
REMARK SMILES IDX 7 1 9 2 10 3 5 5 3 6 2 7 1 8 4 9 6 11 8 13
REMARK H PARENT 10 4 4 10 6 12 8 14
REMARK Flexibility Score: inf
ROOT
ATOM      1  C   UNL     1      15.092   9.306  36.955  1.00  0.00     0.171 C 
ENDROOT
BRANCH   1   2
ATOM      2  C   UNL     1      16.252   9.584  35.980  1.00  0.00     0.190 C 
BRANCH   2   3
ATOM      3  O   UNL     1      17.469   9.639  36.672  1.00  0.00    -0.394 OA
ATOM      4  H   UNL     1      18.168   9.364  36.023  1.00  0.00     0.210 HD
ENDBRANCH   2   3
ENDBRANCH   1   2
BRANCH   1   5
ATOM      5  C   UNL     1      14.687   7.807  36.968  1.00  0.00     0.181 C 
BRANCH   5   6
ATOM      6  C   UNL     1      15.896   6.851  36.774  1.00  0.00     0.209 C 
BRANCH   6   7
ATOM      7  C   UNL     1      16.563   6.516  38.080  1.00  0.00     0.258 C 
ATOM      8  O   UNL     1      16.993   7.399  38.804  1.00  0.00    -0.300 OA
ENDBRANCH   6   7
BRANCH   6   9
ATOM      9  O   UNL     1      15.461   5.658  36.176  1.00  0.00    -0.383 OA
ATOM     10  H   UNL     1      15.250   5.869  35.229  1.00  0.00     0.211 HD
ENDBRANCH   6   9
ENDBRANCH   5   6
BRANCH   5  11
ATOM     11  O   UNL     1      14.033   7.506  38.176  1.00  0.00    -0.387 OA
ATOM     12  H   UNL     1      14.566   6.802  38.629  1.00  0.00     0.211 HD
ENDBRANCH   5  11
ENDBRANCH   1   5
BRANCH   1  13
ATOM     13  O   UNL     1      15.446   9.743  38.243  1.00  0.00    -0.388 OA
ATOM     14  H   UNL     1      14.604   9.954  38.729  1.00  0.00     0.211 HD
ENDBRANCH   1  13
TORSDOF 8
ENDMDL
MODEL 6
REMARK VINA RESULT:    -3.741      6.235      7.227
REMARK INTER + INTRA:          -5.621
REMARK INTER:                  -5.341
REMARK INTRA:                  -0.281
REMARK UNBOUND:                -0.568
REMARK SMILES O=C[C@@H](O)[C@@H](O)[C@@H](O)CO
REMARK SMILES IDX 7 1 9 2 10 3 5 5 3 6 2 7 1 8 4 9 6 11 8 13
REMARK H PARENT 10 4 4 10 6 12 8 14
REMARK Flexibility Score: inf
ROOT
ATOM      1  C   UNL     1      19.596  11.019  42.371  1.00  0.00     0.171 C 
ENDROOT
BRANCH   1   2
ATOM      2  C   UNL     1      19.601  10.125  43.626  1.00  0.00     0.190 C 
BRANCH   2   3
ATOM      3  O   UNL     1      18.572  10.503  44.499  1.00  0.00    -0.394 OA
ATOM      4  H   UNL     1      19.014  10.939  45.273  1.00  0.00     0.210 HD
ENDBRANCH   2   3
ENDBRANCH   1   2
BRANCH   1   5
ATOM      5  C   UNL     1      21.032  11.377  41.903  1.00  0.00     0.181 C 
BRANCH   5   6
ATOM      6  C   UNL     1      21.117  11.667  40.380  1.00  0.00     0.209 C 
BRANCH   6   7
ATOM      7  C   UNL     1      22.117  12.747  40.067  1.00  0.00     0.258 C 
ATOM      8  O   UNL     1      22.983  12.568  39.226  1.00  0.00    -0.300 OA
ENDBRANCH   6   7
BRANCH   6   9
ATOM      9  O   UNL     1      21.495  10.500  39.699  1.00  0.00    -0.383 OA
ATOM     10  H   UNL     1      22.416  10.649  39.357  1.00  0.00     0.211 HD
ENDBRANCH   6   9
ENDBRANCH   5   6
BRANCH   5  11
ATOM     11  O   UNL     1      21.500  12.489  42.625  1.00  0.00    -0.387 OA
ATOM     12  H   UNL     1      20.779  13.171  42.609  1.00  0.00     0.211 HD
ENDBRANCH   5  11
ENDBRANCH   1   5
BRANCH   1  13
ATOM     13  O   UNL     1      18.875  10.383  41.344  1.00  0.00    -0.388 OA
ATOM     14  H   UNL     1      17.984  10.820  41.289  1.00  0.00     0.211 HD
ENDBRANCH   1  13
TORSDOF 8
ENDMDL
MODEL 7
REMARK VINA RESULT:    -3.549      6.428      7.346
REMARK INTER + INTRA:          -5.361
REMARK INTER:                  -4.886
REMARK INTRA:                  -0.475
REMARK UNBOUND:                -0.568
REMARK SMILES O=C[C@@H](O)[C@@H](O)[C@@H](O)CO
REMARK SMILES IDX 7 1 9 2 10 3 5 5 3 6 2 7 1 8 4 9 6 11 8 13
REMARK H PARENT 10 4 4 10 6 12 8 14
REMARK Flexibility Score: inf
ROOT
ATOM      1  C   UNL     1      19.308  10.835  42.974  1.00  0.00     0.171 C 
ENDROOT
BRANCH   1   2
ATOM      2  C   UNL     1      19.083   9.816  44.107  1.00  0.00     0.190 C 
BRANCH   2   3
ATOM      3  O   UNL     1      18.204  10.338  45.065  1.00  0.00    -0.394 OA
ATOM      4  H   UNL     1      18.564  11.228  45.315  1.00  0.00     0.210 HD
ENDBRANCH   2   3
ENDBRANCH   1   2
BRANCH   1   5
ATOM      5  C   UNL     1      20.808  10.964  42.592  1.00  0.00     0.181 C 
BRANCH   5   6
ATOM      6  C   UNL     1      21.120  12.256  41.790  1.00  0.00     0.209 C 
BRANCH   6   7
ATOM      7  C   UNL     1      21.420  11.963  40.345  1.00  0.00     0.258 C 
ATOM      8  O   UNL     1      21.110  10.892  39.850  1.00  0.00    -0.300 OA
ENDBRANCH   6   7
BRANCH   6   9
ATOM      9  O   UNL     1      20.019  13.124  41.849  1.00  0.00    -0.383 OA
ATOM     10  H   UNL     1      19.210  12.581  41.653  1.00  0.00     0.211 HD
ENDBRANCH   6   9
ENDBRANCH   5   6
BRANCH   5  11
ATOM     11  O   UNL     1      21.595  10.925  43.757  1.00  0.00    -0.387 OA
ATOM     12  H   UNL     1      22.534  11.085  43.479  1.00  0.00     0.211 HD
ENDBRANCH   5  11
ENDBRANCH   1   5
BRANCH   1  13
ATOM     13  O   UNL     1      18.534  10.475  41.857  1.00  0.00    -0.388 OA
ATOM     14  H   UNL     1      17.602  10.775  42.030  1.00  0.00     0.211 HD
ENDBRANCH   1  13
TORSDOF 8
ENDMDL
MODEL 8
REMARK VINA RESULT:    -3.486      1.477      2.336
REMARK INTER + INTRA:          -5.277
REMARK INTER:                  -4.815
REMARK INTRA:                  -0.462
REMARK UNBOUND:                -0.568
REMARK SMILES O=C[C@@H](O)[C@@H](O)[C@@H](O)CO
REMARK SMILES IDX 7 1 9 2 10 3 5 5 3 6 2 7 1 8 4 9 6 11 8 13
REMARK H PARENT 10 4 4 10 6 12 8 14
REMARK Flexibility Score: inf
ROOT
ATOM      1  C   UNL     1      16.198   7.194  37.660  1.00  0.00     0.171 C 
ENDROOT
BRANCH   1   2
ATOM      2  C   UNL     1      14.801   7.333  37.026  1.00  0.00     0.190 C 
BRANCH   2   3
ATOM      3  O   UNL     1      14.859   8.154  35.892  1.00  0.00    -0.394 OA
ATOM      4  H   UNL     1      15.332   8.979  36.172  1.00  0.00     0.210 HD
ENDBRANCH   2   3
ENDBRANCH   1   2
BRANCH   1   5
ATOM      5  C   UNL     1      16.630   8.482  38.412  1.00  0.00     0.181 C 
BRANCH   5   6
ATOM      6  C   UNL     1      17.628   9.351  37.600  1.00  0.00     0.209 C 
BRANCH   6   7
ATOM      7  C   UNL     1      19.023   9.279  38.159  1.00  0.00     0.258 C 
ATOM      8  O   UNL     1      19.915   9.971  37.696  1.00  0.00    -0.300 OA
ENDBRANCH   6   7
BRANCH   6   9
ATOM      9  O   UNL     1      17.660   8.910  36.268  1.00  0.00    -0.383 OA
ATOM     10  H   UNL     1      18.597   8.645  36.072  1.00  0.00     0.211 HD
ENDBRANCH   6   9
ENDBRANCH   5   6
BRANCH   5  11
ATOM     11  O   UNL     1      15.493   9.242  38.737  1.00  0.00    -0.387 OA
ATOM     12  H   UNL     1      14.927   8.682  39.329  1.00  0.00     0.211 HD
ENDBRANCH   5  11
ENDBRANCH   1   5
BRANCH   1  13
ATOM     13  O   UNL     1      16.215   6.080  38.518  1.00  0.00    -0.388 OA
ATOM     14  H   UNL     1      16.068   5.270  37.961  1.00  0.00     0.211 HD
ENDBRANCH   1  13
TORSDOF 8
ENDMDL
MODEL 9
REMARK VINA RESULT:    -3.484      6.477      7.970
REMARK INTER + INTRA:          -5.274
REMARK INTER:                  -5.135
REMARK INTRA:                  -0.139
REMARK UNBOUND:                -0.568
REMARK SMILES O=C[C@@H](O)[C@@H](O)[C@@H](O)CO
REMARK SMILES IDX 7 1 9 2 10 3 5 5 3 6 2 7 1 8 4 9 6 11 8 13
REMARK H PARENT 10 4 4 10 6 12 8 14
REMARK Flexibility Score: inf
ROOT
ATOM      1  C   UNL     1      21.632  11.569  40.406  1.00  0.00     0.171 C 
ENDROOT
BRANCH   1   2
ATOM      2  C   UNL     1      21.947  12.728  39.441  1.00  0.00     0.190 C 
BRANCH   2   3
ATOM      3  O   UNL     1      23.289  13.114  39.563  1.00  0.00    -0.394 OA
ATOM      4  H   UNL     1      23.644  12.633  40.355  1.00  0.00     0.210 HD
ENDBRANCH   2   3
ENDBRANCH   1   2
BRANCH   1   5
ATOM      5  C   UNL     1      20.710  12.014  41.573  1.00  0.00     0.181 C 
BRANCH   5   6
ATOM      6  C   UNL     1      19.716  10.907  42.015  1.00  0.00     0.209 C 
BRANCH   6   7
ATOM      7  C   UNL     1      20.215  10.149  43.216  1.00  0.00     0.258 C 
ATOM      8  O   UNL     1      19.430   9.653  44.009  1.00  0.00    -0.300 OA
ENDBRANCH   6   7
BRANCH   6   9
ATOM      9  O   UNL     1      18.479  11.485  42.337  1.00  0.00    -0.383 OA
ATOM     10  H   UNL     1      18.558  11.845  43.260  1.00  0.00     0.211 HD
ENDBRANCH   6   9
ENDBRANCH   5   6
BRANCH   5  11
ATOM     11  O   UNL     1      21.496  12.412  42.669  1.00  0.00    -0.387 OA
ATOM     12  H   UNL     1      21.528  13.404  42.661  1.00  0.00     0.211 HD
ENDBRANCH   5  11
ENDBRANCH   1   5
BRANCH   1  13
ATOM     13  O   UNL     1      21.058  10.504  39.689  1.00  0.00    -0.388 OA
ATOM     14  H   UNL     1      21.717  10.215  39.004  1.00  0.00     0.211 HD
ENDBRANCH   1  13
TORSDOF 8
ENDMDL
