MODEL 1
REMARK VINA RESULT:    -1.271      0.000      0.000
REMARK INTER + INTRA:          -4.948
REMARK INTER:                  -3.351
REMARK INTRA:                  -1.597
REMARK UNBOUND:                -1.597
REMARK SMILES CCCCCCCCCCCCCCCCCCCCCCCCCCCCCC(=O)[O-]
REMARK SMILES IDX 16 1 17 2 18 3 19 4 20 5 21 6 22 7 23 8 24 9 25 10 26 11
REMARK SMILES IDX 27 12 28 13 29 14 30 15 31 16 32 17 15 18 14 19 13 20 12 21
REMARK SMILES IDX 11 22 10 23 9 24 8 25 7 26 6 27 5 28 4 29 3 30 2 31 1 32
REMARK H PARENT
REMARK Flexibility Score: inf
ROOT
ATOM      1  C   UNL     1      16.014  41.554   6.929  1.00  0.00     0.000 C 
ENDROOT
BRANCH   1   2
ATOM      2  C   UNL     1      15.460  42.008   5.567  1.00  0.00     0.000 C 
BRANCH   2   3
ATOM      3  C   UNL     1      13.925  41.966   5.435  1.00  0.00     0.000 C 
BRANCH   3   4
ATOM      4  C   UNL     1      13.404  42.349   4.033  1.00  0.00     0.000 C 
BRANCH   4   5
ATOM      5  C   UNL     1      14.512  42.901   3.123  1.00  0.00     0.000 C 
BRANCH   5   6
ATOM      6  C   UNL     1      13.988  43.149   1.702  1.00  0.00     0.000 C 
BRANCH   6   7
ATOM      7  C   UNL     1      14.781  44.273   1.018  1.00  0.00     0.000 C 
BRANCH   7   8
ATOM      8  C   UNL     1      16.271  44.259   1.394  1.00  0.00     0.000 C 
BRANCH   8   9
ATOM      9  C   UNL     1      17.036  45.459   0.816  1.00  0.00     0.000 C 
BRANCH   9  10
ATOM     10  C   UNL     1      16.582  45.828  -0.607  1.00  0.00     0.000 C 
BRANCH  10  11
ATOM     11  C   UNL     1      16.151  47.303  -0.757  1.00  0.00     0.000 C 
BRANCH  11  12
ATOM     12  C   UNL     1      14.740  47.441  -1.348  1.00  0.00     0.000 C 
BRANCH  12  13
ATOM     13  C   UNL     1      14.036  46.078  -1.419  1.00  0.00     0.006 C 
BRANCH  13  14
ATOM     14  C   UNL     1      12.676  46.088  -0.710  1.00  0.00     0.053 C 
BRANCH  14  15
ATOM     15  C   UNL     1      11.855  44.886  -1.066  1.00  0.00     0.041 C 
ATOM     16  O   UNL     1      10.700  45.026  -1.548  1.00  0.00    -0.550 OA
ATOM     17  O   UNL     1      12.355  43.610  -0.836  1.00  0.00    -0.550 OA
ENDBRANCH  14  15
ENDBRANCH  13  14
ENDBRANCH  12  13
ENDBRANCH  11  12
ENDBRANCH  10  11
ENDBRANCH   9  10
ENDBRANCH   8   9
ENDBRANCH   7   8
ENDBRANCH   6   7
ENDBRANCH   5   6
ENDBRANCH   4   5
ENDBRANCH   3   4
ENDBRANCH   2   3
ENDBRANCH   1   2
BRANCH   1  18
ATOM     18  C   UNL     1      15.438  42.289   8.154  1.00  0.00     0.000 C 
BRANCH  18  19
ATOM     19  C   UNL     1      16.347  42.204   9.391  1.00  0.00     0.000 C 
BRANCH  19  20
ATOM     20  C   UNL     1      15.771  42.958  10.604  1.00  0.00     0.000 C 
BRANCH  20  21
ATOM     21  C   UNL     1      16.714  43.067  11.821  1.00  0.00     0.000 C 
BRANCH  21  22
ATOM     22  C   UNL     1      17.125  41.723  12.447  1.00  0.00     0.000 C 
BRANCH  22  23
ATOM     23  C   UNL     1      16.031  41.131  13.352  1.00  0.00     0.000 C 
BRANCH  23  24
ATOM     24  C   UNL     1      16.509  39.887  14.118  1.00  0.00    -0.000 C 
BRANCH  24  25
ATOM     25  C   UNL     1      15.487  38.737  14.067  1.00  0.00    -0.000 C 
BRANCH  25  26
ATOM     26  C   UNL     1      16.116  37.421  13.561  1.00  0.00    -0.000 C 
BRANCH  26  27
ATOM     27  C   UNL     1      15.885  37.164  12.062  1.00  0.00    -0.000 C 
BRANCH  27  28
ATOM     28  C   UNL     1      15.479  38.431  11.290  1.00  0.00    -0.000 C 
BRANCH  28  29
ATOM     29  C   UNL     1      14.365  38.152  10.258  1.00  0.00    -0.000 C 
BRANCH  29  30
ATOM     30  C   UNL     1      14.564  38.894   8.925  1.00  0.00    -0.000 C 
BRANCH  30  31
ATOM     31  C   UNL     1      13.750  38.284   7.776  1.00  0.00    -0.003 C 
ATOM     32  C   UNL     1      14.456  38.487   6.437  1.00  0.00     0.004 C 
ENDBRANCH  30  31
ENDBRANCH  29  30
ENDBRANCH  28  29
ENDBRANCH  27  28
ENDBRANCH  26  27
ENDBRANCH  25  26
ENDBRANCH  24  25
ENDBRANCH  23  24
ENDBRANCH  22  23
ENDBRANCH  21  22
ENDBRANCH  20  21
ENDBRANCH  19  20
ENDBRANCH  18  19
ENDBRANCH   1  18
TORSDOF 28
ENDMDL
MODEL 2
REMARK VINA RESULT:    -0.392      0.911      2.022
REMARK INTER + INTRA:          -2.629
REMARK INTER:                  -1.264
REMARK INTRA:                  -1.365
REMARK UNBOUND:                -1.597
REMARK SMILES CCCCCCCCCCCCCCCCCCCCCCCCCCCCCC(=O)[O-]
REMARK SMILES IDX 16 1 17 2 18 3 19 4 20 5 21 6 22 7 23 8 24 9 25 10 26 11
REMARK SMILES IDX 27 12 28 13 29 14 30 15 31 16 32 17 15 18 14 19 13 20 12 21
REMARK SMILES IDX 11 22 10 23 9 24 8 25 7 26 6 27 5 28 4 29 3 30 2 31 1 32
REMARK H PARENT
REMARK Flexibility Score: inf
ROOT
ATOM      1  C   UNL     1      13.989  41.525   5.585  1.00  0.00     0.000 C 
ENDROOT
BRANCH   1   2
ATOM      2  C   UNL     1      13.764  42.501   4.416  1.00  0.00     0.000 C 
BRANCH   2   3
ATOM      3  C   UNL     1      12.910  41.952   3.257  1.00  0.00     0.000 C 
BRANCH   3   4
ATOM      4  C   UNL     1      13.042  42.754   1.944  1.00  0.00     0.000 C 
BRANCH   4   5
ATOM      5  C   UNL     1      14.488  42.807   1.429  1.00  0.00     0.000 C 
BRANCH   5   6
ATOM      6  C   UNL     1      15.017  44.247   1.413  1.00  0.00     0.000 C 
BRANCH   6   7
ATOM      7  C   UNL     1      16.545  44.266   1.257  1.00  0.00     0.000 C 
BRANCH   7   8
ATOM      8  C   UNL     1      17.006  45.102   0.053  1.00  0.00     0.000 C 
BRANCH   8   9
ATOM      9  C   UNL     1      17.086  46.603   0.373  1.00  0.00     0.000 C 
BRANCH   9  10
ATOM     10  C   UNL     1      17.090  47.483  -0.889  1.00  0.00     0.000 C 
BRANCH  10  11
ATOM     11  C   UNL     1      15.892  47.224  -1.828  1.00  0.00     0.000 C 
BRANCH  11  12
ATOM     12  C   UNL     1      14.543  47.419  -1.119  1.00  0.00     0.000 C 
BRANCH  12  13
ATOM     13  C   UNL     1      13.836  46.074  -0.899  1.00  0.00     0.006 C 
BRANCH  13  14
ATOM     14  C   UNL     1      12.309  46.204  -0.954  1.00  0.00     0.053 C 
BRANCH  14  15
ATOM     15  C   UNL     1      11.641  44.870  -1.090  1.00  0.00     0.041 C 
ATOM     16  O   UNL     1      12.019  43.897  -0.384  1.00  0.00    -0.550 OA
ATOM     17  O   UNL     1      10.623  44.693  -2.018  1.00  0.00    -0.550 OA
ENDBRANCH  14  15
ENDBRANCH  13  14
ENDBRANCH  12  13
ENDBRANCH  11  12
ENDBRANCH  10  11
ENDBRANCH   9  10
ENDBRANCH   8   9
ENDBRANCH   7   8
ENDBRANCH   6   7
ENDBRANCH   5   6
ENDBRANCH   4   5
ENDBRANCH   3   4
ENDBRANCH   2   3
ENDBRANCH   1   2
BRANCH   1  18
ATOM     18  C   UNL     1      15.076  41.941   6.593  1.00  0.00     0.000 C 
BRANCH  18  19
ATOM     19  C   UNL     1      16.390  41.162   6.419  1.00  0.00     0.000 C 
BRANCH  19  20
ATOM     20  C   UNL     1      17.123  40.929   7.753  1.00  0.00     0.000 C 
BRANCH  20  21
ATOM     21  C   UNL     1      16.268  41.133   9.021  1.00  0.00     0.000 C 
BRANCH  21  22
ATOM     22  C   UNL     1      16.466  42.487   9.726  1.00  0.00     0.000 C 
BRANCH  22  23
ATOM     23  C   UNL     1      15.983  42.471  11.186  1.00  0.00     0.000 C 
BRANCH  23  24
ATOM     24  C   UNL     1      17.125  42.209  12.181  1.00  0.00    -0.000 C 
BRANCH  24  25
ATOM     25  C   UNL     1      17.058  40.800  12.796  1.00  0.00    -0.000 C 
BRANCH  25  26
ATOM     26  C   UNL     1      15.756  40.061  12.419  1.00  0.00    -0.000 C 
BRANCH  26  27
ATOM     27  C   UNL     1      15.890  38.529  12.427  1.00  0.00    -0.000 C 
BRANCH  27  28
ATOM     28  C   UNL     1      15.766  37.908  11.025  1.00  0.00    -0.000 C 
BRANCH  28  29
ATOM     29  C   UNL     1      14.364  38.121  10.416  1.00  0.00    -0.000 C 
BRANCH  29  30
ATOM     30  C   UNL     1      14.385  38.882   9.080  1.00  0.00    -0.000 C 
BRANCH  30  31
ATOM     31  C   UNL     1      13.666  38.128   7.952  1.00  0.00    -0.003 C 
ATOM     32  C   UNL     1      14.358  38.357   6.611  1.00  0.00     0.004 C 
ENDBRANCH  30  31
ENDBRANCH  29  30
ENDBRANCH  28  29
ENDBRANCH  27  28
ENDBRANCH  26  27
ENDBRANCH  25  26
ENDBRANCH  24  25
ENDBRANCH  23  24
ENDBRANCH  22  23
ENDBRANCH  21  22
ENDBRANCH  20  21
ENDBRANCH  19  20
ENDBRANCH  18  19
ENDBRANCH   1  18
TORSDOF 28
ENDMDL
MODEL 3
REMARK VINA RESULT:    -0.188      3.402     12.285
REMARK INTER + INTRA:          -2.094
REMARK INTER:                  -1.084
REMARK INTRA:                  -1.009
REMARK UNBOUND:                -1.597
REMARK SMILES CCCCCCCCCCCCCCCCCCCCCCCCCCCCCC(=O)[O-]
REMARK SMILES IDX 16 1 17 2 18 3 19 4 20 5 21 6 22 7 23 8 24 9 25 10 26 11
REMARK SMILES IDX 27 12 28 13 29 14 30 15 31 16 32 17 15 18 14 19 13 20 12 21
REMARK SMILES IDX 11 22 10 23 9 24 8 25 7 26 6 27 5 28 4 29 3 30 2 31 1 32
REMARK H PARENT
REMARK Flexibility Score: inf
ROOT
ATOM      1  C   UNL     1      13.071  41.459   4.790  1.00  0.00     0.000 C 
ENDROOT
BRANCH   1   2
ATOM      2  C   UNL     1      14.284  42.141   5.450  1.00  0.00     0.000 C 
BRANCH   2   3
ATOM      3  C   UNL     1      15.153  41.224   6.331  1.00  0.00     0.000 C 
BRANCH   3   4
ATOM      4  C   UNL     1      16.450  41.888   6.841  1.00  0.00     0.000 C 
BRANCH   4   5
ATOM      5  C   UNL     1      16.931  41.297   8.174  1.00  0.00     0.000 C 
BRANCH   5   6
ATOM      6  C   UNL     1      16.110  41.841   9.351  1.00  0.00     0.000 C 
BRANCH   6   7
ATOM      7  C   UNL     1      16.998  42.047  10.587  1.00  0.00     0.000 C 
BRANCH   7   8
ATOM      8  C   UNL     1      16.186  42.383  11.848  1.00  0.00     0.000 C 
BRANCH   8   9
ATOM      9  C   UNL     1      17.020  42.269  13.134  1.00  0.00     0.000 C 
BRANCH   9  10
ATOM     10  C   UNL     1      16.619  41.062  14.000  1.00  0.00     0.000 C 
BRANCH  10  11
ATOM     11  C   UNL     1      17.124  39.711  13.451  1.00  0.00     0.000 C 
BRANCH  11  12
ATOM     12  C   UNL     1      16.226  38.538  13.873  1.00  0.00     0.000 C 
BRANCH  12  13
ATOM     13  C   UNL     1      14.887  38.571  13.122  1.00  0.00     0.006 C 
BRANCH  13  14
ATOM     14  C   UNL     1      14.894  37.670  11.881  1.00  0.00     0.053 C 
BRANCH  14  15
ATOM     15  C   UNL     1      15.223  38.439  10.637  1.00  0.00     0.041 C 
ATOM     16  O   UNL     1      14.327  39.087  10.036  1.00  0.00    -0.550 OA
ATOM     17  O   UNL     1      16.515  38.413  10.126  1.00  0.00    -0.550 OA
ENDBRANCH  14  15
ENDBRANCH  13  14
ENDBRANCH  12  13
ENDBRANCH  11  12
ENDBRANCH  10  11
ENDBRANCH   9  10
ENDBRANCH   8   9
ENDBRANCH   7   8
ENDBRANCH   6   7
ENDBRANCH   5   6
ENDBRANCH   4   5
ENDBRANCH   3   4
ENDBRANCH   2   3
ENDBRANCH   1   2
BRANCH   1  18
ATOM     18  C   UNL     1      12.576  42.112   3.486  1.00  0.00     0.000 C 
BRANCH  18  19
ATOM     19  C   UNL     1      13.633  42.111   2.371  1.00  0.00     0.000 C 
BRANCH  19  20
ATOM     20  C   UNL     1      13.419  43.240   1.347  1.00  0.00     0.000 C 
BRANCH  20  21
ATOM     21  C   UNL     1      14.558  44.278   1.262  1.00  0.00     0.000 C 
BRANCH  21  22
ATOM     22  C   UNL     1      15.816  43.931   2.077  1.00  0.00     0.000 C 
BRANCH  22  23
ATOM     23  C   UNL     1      17.118  44.235   1.316  1.00  0.00     0.000 C 
BRANCH  23  24
ATOM     24  C   UNL     1      16.886  45.124   0.084  1.00  0.00    -0.000 C 
BRANCH  24  25
ATOM     25  C   UNL     1      17.095  46.618   0.390  1.00  0.00    -0.000 C 
BRANCH  25  26
ATOM     26  C   UNL     1      17.092  47.481  -0.891  1.00  0.00    -0.000 C 
BRANCH  26  27
ATOM     27  C   UNL     1      15.730  48.123  -1.200  1.00  0.00    -0.000 C 
BRANCH  27  28
ATOM     28  C   UNL     1      14.770  47.171  -1.934  1.00  0.00    -0.000 C 
BRANCH  28  29
ATOM     29  C   UNL     1      13.498  46.877  -1.109  1.00  0.00    -0.000 C 
BRANCH  29  30
ATOM     30  C   UNL     1      13.282  45.380  -0.830  1.00  0.00    -0.000 C 
BRANCH  30  31
ATOM     31  C   UNL     1      11.821  44.945  -1.006  1.00  0.00    -0.003 C 
ATOM     32  C   UNL     1      11.732  43.582  -1.688  1.00  0.00     0.004 C 
ENDBRANCH  30  31
ENDBRANCH  29  30
ENDBRANCH  28  29
ENDBRANCH  27  28
ENDBRANCH  26  27
ENDBRANCH  25  26
ENDBRANCH  24  25
ENDBRANCH  23  24
ENDBRANCH  22  23
ENDBRANCH  21  22
ENDBRANCH  20  21
ENDBRANCH  19  20
ENDBRANCH  18  19
ENDBRANCH   1  18
TORSDOF 28
ENDMDL
MODEL 4
REMARK VINA RESULT:     0.135      4.338     11.946
REMARK INTER + INTRA:          -1.242
REMARK INTER:                  -1.364
REMARK INTRA:                   0.123
REMARK UNBOUND:                -1.597
REMARK SMILES CCCCCCCCCCCCCCCCCCCCCCCCCCCCCC(=O)[O-]
REMARK SMILES IDX 16 1 17 2 18 3 19 4 20 5 21 6 22 7 23 8 24 9 25 10 26 11
REMARK SMILES IDX 27 12 28 13 29 14 30 15 31 16 32 17 15 18 14 19 13 20 12 21
REMARK SMILES IDX 11 22 10 23 9 24 8 25 7 26 6 27 5 28 4 29 3 30 2 31 1 32
REMARK H PARENT
REMARK Flexibility Score: inf
ROOT
ATOM      1  C   UNL     1      13.902  39.309   7.330  1.00  0.00     0.000 C 
ENDROOT
BRANCH   1   2
ATOM      2  C   UNL     1      14.078  38.724   8.743  1.00  0.00     0.000 C 
BRANCH   2   3
ATOM      3  C   UNL     1      15.537  38.492   9.181  1.00  0.00     0.000 C 
BRANCH   3   4
ATOM      4  C   UNL     1      15.968  39.331  10.402  1.00  0.00     0.000 C 
BRANCH   4   5
ATOM      5  C   UNL     1      16.718  40.611  10.004  1.00  0.00     0.000 C 
BRANCH   5   6
ATOM      6  C   UNL     1      15.741  41.755   9.703  1.00  0.00     0.000 C 
BRANCH   6   7
ATOM      7  C   UNL     1      16.215  43.063  10.354  1.00  0.00     0.000 C 
BRANCH   7   8
ATOM      8  C   UNL     1      17.093  42.822  11.592  1.00  0.00     0.000 C 
BRANCH   8   9
ATOM      9  C   UNL     1      16.827  43.840  12.711  1.00  0.00     0.000 C 
BRANCH   9  10
ATOM     10  C   UNL     1      16.809  43.198  14.110  1.00  0.00     0.000 C 
BRANCH  10  11
ATOM     11  C   UNL     1      16.618  41.667  14.085  1.00  0.00     0.000 C 
BRANCH  11  12
ATOM     12  C   UNL     1      15.155  41.265  13.842  1.00  0.00     0.000 C 
BRANCH  12  13
ATOM     13  C   UNL     1      14.950  39.761  14.075  1.00  0.00     0.006 C 
BRANCH  13  14
ATOM     14  C   UNL     1      15.848  38.905  13.173  1.00  0.00     0.053 C 
BRANCH  14  15
ATOM     15  C   UNL     1      15.537  37.445  13.305  1.00  0.00     0.041 C 
ATOM     16  O   UNL     1      14.609  37.060  14.063  1.00  0.00    -0.550 OA
ATOM     17  O   UNL     1      16.295  36.509  12.612  1.00  0.00    -0.550 OA
ENDBRANCH  14  15
ENDBRANCH  13  14
ENDBRANCH  12  13
ENDBRANCH  11  12
ENDBRANCH  10  11
ENDBRANCH   9  10
ENDBRANCH   8   9
ENDBRANCH   7   8
ENDBRANCH   6   7
ENDBRANCH   5   6
ENDBRANCH   4   5
ENDBRANCH   3   4
ENDBRANCH   2   3
ENDBRANCH   1   2
BRANCH   1  18
ATOM     18  C   UNL     1      15.174  39.906   6.699  1.00  0.00     0.000 C 
BRANCH  18  19
ATOM     19  C   UNL     1      15.073  41.420   6.457  1.00  0.00     0.000 C 
BRANCH  19  20
ATOM     20  C   UNL     1      16.362  42.171   6.840  1.00  0.00     0.000 C 
BRANCH  20  21
ATOM     21  C   UNL     1      17.097  42.860   5.671  1.00  0.00     0.000 C 
BRANCH  21  22
ATOM     22  C   UNL     1      16.346  42.836   4.328  1.00  0.00     0.000 C 
BRANCH  22  23
ATOM     23  C   UNL     1      17.123  43.542   3.203  1.00  0.00     0.000 C 
BRANCH  23  24
ATOM     24  C   UNL     1      16.208  44.007   2.058  1.00  0.00    -0.000 C 
BRANCH  24  25
ATOM     25  C   UNL     1      16.829  45.151   1.237  1.00  0.00    -0.000 C 
BRANCH  25  26
ATOM     26  C   UNL     1      15.997  45.484  -0.020  1.00  0.00    -0.000 C 
BRANCH  26  27
ATOM     27  C   UNL     1      15.687  46.982  -0.176  1.00  0.00    -0.000 C 
BRANCH  27  28
ATOM     28  C   UNL     1      14.561  47.261  -1.187  1.00  0.00    -0.000 C 
BRANCH  28  29
ATOM     29  C   UNL     1      13.364  46.304  -1.003  1.00  0.00    -0.000 C 
BRANCH  29  30
ATOM     30  C   UNL     1      13.556  45.293   0.140  1.00  0.00    -0.000 C 
BRANCH  30  31
ATOM     31  C   UNL     1      12.569  44.120   0.073  1.00  0.00    -0.003 C 
ATOM     32  C   UNL     1      11.608  44.279  -1.103  1.00  0.00     0.004 C 
ENDBRANCH  30  31
ENDBRANCH  29  30
ENDBRANCH  28  29
ENDBRANCH  27  28
ENDBRANCH  26  27
ENDBRANCH  25  26
ENDBRANCH  24  25
ENDBRANCH  23  24
ENDBRANCH  22  23
ENDBRANCH  21  22
ENDBRANCH  20  21
ENDBRANCH  19  20
ENDBRANCH  18  19
ENDBRANCH   1  18
TORSDOF 28
ENDMDL
MODEL 5
REMARK VINA RESULT:     0.150      4.076     12.722
REMARK INTER + INTRA:          -1.202
REMARK INTER:                  -0.010
REMARK INTRA:                  -1.192
REMARK UNBOUND:                -1.597
REMARK SMILES CCCCCCCCCCCCCCCCCCCCCCCCCCCCCC(=O)[O-]
REMARK SMILES IDX 16 1 17 2 18 3 19 4 20 5 21 6 22 7 23 8 24 9 25 10 26 11
REMARK SMILES IDX 27 12 28 13 29 14 30 15 31 16 32 17 15 18 14 19 13 20 12 21
REMARK SMILES IDX 11 22 10 23 9 24 8 25 7 26 6 27 5 28 4 29 3 30 2 31 1 32
REMARK H PARENT
REMARK Flexibility Score: inf
ROOT
ATOM      1  C   UNL     1      13.432  42.692   2.996  1.00  0.00     0.000 C 
ENDROOT
BRANCH   1   2
ATOM      2  C   UNL     1      13.291  42.064   4.395  1.00  0.00     0.000 C 
BRANCH   2   3
ATOM      3  C   UNL     1      14.406  42.427   5.394  1.00  0.00     0.000 C 
BRANCH   3   4
ATOM      4  C   UNL     1      14.873  41.245   6.270  1.00  0.00     0.000 C 
BRANCH   4   5
ATOM      5  C   UNL     1      15.620  41.705   7.531  1.00  0.00     0.000 C 
BRANCH   5   6
ATOM      6  C   UNL     1      16.971  40.990   7.666  1.00  0.00     0.000 C 
BRANCH   6   7
ATOM      7  C   UNL     1      17.054  40.229   8.998  1.00  0.00     0.000 C 
BRANCH   7   8
ATOM      8  C   UNL     1      16.418  38.833   8.922  1.00  0.00     0.000 C 
BRANCH   8   9
ATOM      9  C   UNL     1      15.001  38.797   9.515  1.00  0.00     0.000 C 
BRANCH   9  10
ATOM     10  C   UNL     1      14.998  38.616  11.043  1.00  0.00     0.000 C 
BRANCH  10  11
ATOM     11  C   UNL     1      15.231  37.158  11.494  1.00  0.00     0.000 C 
BRANCH  11  12
ATOM     12  C   UNL     1      16.276  37.054  12.615  1.00  0.00     0.000 C 
BRANCH  12  13
ATOM     13  C   UNL     1      16.811  38.441  13.001  1.00  0.00     0.006 C 
BRANCH  13  14
ATOM     14  C   UNL     1      15.763  39.283  13.740  1.00  0.00     0.053 C 
BRANCH  14  15
ATOM     15  C   UNL     1      15.931  40.746  13.465  1.00  0.00     0.041 C 
ATOM     16  O   UNL     1      16.940  41.162  12.837  1.00  0.00    -0.550 OA
ATOM     17  O   UNL     1      14.987  41.653  13.929  1.00  0.00    -0.550 OA
ENDBRANCH  14  15
ENDBRANCH  13  14
ENDBRANCH  12  13
ENDBRANCH  11  12
ENDBRANCH  10  11
ENDBRANCH   9  10
ENDBRANCH   8   9
ENDBRANCH   7   8
ENDBRANCH   6   7
ENDBRANCH   5   6
ENDBRANCH   4   5
ENDBRANCH   3   4
ENDBRANCH   2   3
ENDBRANCH   1   2
BRANCH   1  18
ATOM     18  C   UNL     1      14.664  43.595   2.799  1.00  0.00     0.000 C 
BRANCH  18  19
ATOM     19  C   UNL     1      15.062  43.759   1.324  1.00  0.00     0.000 C 
BRANCH  19  20
ATOM     20  C   UNL     1      16.551  44.109   1.145  1.00  0.00     0.000 C 
BRANCH  20  21
ATOM     21  C   UNL     1      16.844  45.263   0.164  1.00  0.00     0.000 C 
BRANCH  21  22
ATOM     22  C   UNL     1      16.919  46.659   0.807  1.00  0.00     0.000 C 
BRANCH  22  23
ATOM     23  C   UNL     1      17.027  47.786  -0.234  1.00  0.00     0.000 C 
BRANCH  23  24
ATOM     24  C   UNL     1      17.125  47.252  -1.673  1.00  0.00    -0.000 C 
BRANCH  24  25
ATOM     25  C   UNL     1      16.307  48.093  -2.669  1.00  0.00    -0.000 C 
BRANCH  25  26
ATOM     26  C   UNL     1      14.806  48.124  -2.310  1.00  0.00    -0.000 C 
BRANCH  26  27
ATOM     27  C   UNL     1      14.209  46.735  -2.028  1.00  0.00    -0.000 C 
BRANCH  27  28
ATOM     28  C   UNL     1      14.004  46.462  -0.528  1.00  0.00    -0.000 C 
BRANCH  28  29
ATOM     29  C   UNL     1      12.530  46.152  -0.189  1.00  0.00    -0.000 C 
BRANCH  29  30
ATOM     30  C   UNL     1      11.941  44.997  -1.015  1.00  0.00    -0.000 C 
BRANCH  30  31
ATOM     31  C   UNL     1      11.669  43.741  -0.176  1.00  0.00    -0.003 C 
ATOM     32  C   UNL     1      12.351  42.517  -0.782  1.00  0.00     0.004 C 
ENDBRANCH  30  31
ENDBRANCH  29  30
ENDBRANCH  28  29
ENDBRANCH  27  28
ENDBRANCH  26  27
ENDBRANCH  25  26
ENDBRANCH  24  25
ENDBRANCH  23  24
ENDBRANCH  22  23
ENDBRANCH  21  22
ENDBRANCH  20  21
ENDBRANCH  19  20
ENDBRANCH  18  19
ENDBRANCH   1  18
TORSDOF 28
ENDMDL
MODEL 6
REMARK VINA RESULT:     0.290      1.110      3.536
REMARK INTER + INTRA:          -0.833
REMARK INTER:                   0.843
REMARK INTRA:                  -1.676
REMARK UNBOUND:                -1.597
REMARK SMILES CCCCCCCCCCCCCCCCCCCCCCCCCCCCCC(=O)[O-]
REMARK SMILES IDX 16 1 17 2 18 3 19 4 20 5 21 6 22 7 23 8 24 9 25 10 26 11
REMARK SMILES IDX 27 12 28 13 29 14 30 15 31 16 32 17 15 18 14 19 13 20 12 21
REMARK SMILES IDX 11 22 10 23 9 24 8 25 7 26 6 27 5 28 4 29 3 30 2 31 1 32
REMARK H PARENT
REMARK Flexibility Score: inf
ROOT
ATOM      1  C   UNL     1      13.375  42.144   4.507  1.00  0.00     0.000 C 
ENDROOT
BRANCH   1   2
ATOM      2  C   UNL     1      13.413  41.702   3.033  1.00  0.00     0.000 C 
BRANCH   2   3
ATOM      3  C   UNL     1      13.269  42.838   2.002  1.00  0.00     0.000 C 
BRANCH   3   4
ATOM      4  C   UNL     1      14.611  43.331   1.420  1.00  0.00     0.000 C 
BRANCH   4   5
ATOM      5  C   UNL     1      15.341  44.300   2.362  1.00  0.00     0.000 C 
BRANCH   5   6
ATOM      6  C   UNL     1      16.847  44.326   2.070  1.00  0.00     0.000 C 
BRANCH   6   7
ATOM      7  C   UNL     1      17.125  43.970   0.602  1.00  0.00     0.000 C 
BRANCH   7   8
ATOM      8  C   UNL     1      17.039  45.189  -0.329  1.00  0.00     0.000 C 
BRANCH   8   9
ATOM      9  C   UNL     1      16.934  46.514   0.443  1.00  0.00     0.000 C 
BRANCH   9  10
ATOM     10  C   UNL     1      15.860  47.455  -0.130  1.00  0.00     0.000 C 
BRANCH  10  11
ATOM     11  C   UNL     1      15.465  47.129  -1.586  1.00  0.00     0.000 C 
BRANCH  11  12
ATOM     12  C   UNL     1      14.190  46.276  -1.667  1.00  0.00     0.000 C 
BRANCH  12  13
ATOM     13  C   UNL     1      13.268  46.548  -0.470  1.00  0.00     0.006 C 
BRANCH  13  14
ATOM     14  C   UNL     1      12.644  45.261   0.086  1.00  0.00     0.053 C 
BRANCH  14  15
ATOM     15  C   UNL     1      11.884  44.512  -0.965  1.00  0.00     0.041 C 
ATOM     16  O   UNL     1      11.138  45.130  -1.770  1.00  0.00    -0.550 OA
ATOM     17  O   UNL     1      11.976  43.128  -1.035  1.00  0.00    -0.550 OA
ENDBRANCH  14  15
ENDBRANCH  13  14
ENDBRANCH  12  13
ENDBRANCH  11  12
ENDBRANCH  10  11
ENDBRANCH   9  10
ENDBRANCH   8   9
ENDBRANCH   7   8
ENDBRANCH   6   7
ENDBRANCH   5   6
ENDBRANCH   4   5
ENDBRANCH   3   4
ENDBRANCH   2   3
ENDBRANCH   1   2
BRANCH   1  18
ATOM     18  C   UNL     1      14.749  42.298   5.186  1.00  0.00     0.000 C 
BRANCH  18  19
ATOM     19  C   UNL     1      14.694  42.099   6.709  1.00  0.00     0.000 C 
BRANCH  19  20
ATOM     20  C   UNL     1      15.619  40.968   7.194  1.00  0.00     0.000 C 
BRANCH  20  21
ATOM     21  C   UNL     1      15.028  39.546   7.101  1.00  0.00     0.000 C 
BRANCH  21  22
ATOM     22  C   UNL     1      15.426  38.600   8.249  1.00  0.00     0.000 C 
BRANCH  22  23
ATOM     23  C   UNL     1      14.770  38.983   9.586  1.00  0.00     0.000 C 
BRANCH  23  24
ATOM     24  C   UNL     1      14.278  37.756  10.372  1.00  0.00    -0.000 C 
BRANCH  24  25
ATOM     25  C   UNL     1      14.693  37.803  11.854  1.00  0.00    -0.000 C 
BRANCH  25  26
ATOM     26  C   UNL     1      13.592  38.413  12.748  1.00  0.00    -0.000 C 
BRANCH  26  27
ATOM     27  C   UNL     1      14.131  39.062  14.034  1.00  0.00    -0.000 C 
BRANCH  27  28
ATOM     28  C   UNL     1      15.668  39.106  14.087  1.00  0.00    -0.000 C 
BRANCH  28  29
ATOM     29  C   UNL     1      16.224  40.493  13.702  1.00  0.00    -0.000 C 
BRANCH  29  30
ATOM     30  C   UNL     1      16.777  40.556  12.268  1.00  0.00    -0.000 C 
BRANCH  30  31
ATOM     31  C   UNL     1      17.115  41.984  11.821  1.00  0.00    -0.003 C 
ATOM     32  C   UNL     1      16.127  42.990  12.405  1.00  0.00     0.004 C 
ENDBRANCH  30  31
ENDBRANCH  29  30
ENDBRANCH  28  29
ENDBRANCH  27  28
ENDBRANCH  26  27
ENDBRANCH  25  26
ENDBRANCH  24  25
ENDBRANCH  23  24
ENDBRANCH  22  23
ENDBRANCH  21  22
ENDBRANCH  20  21
ENDBRANCH  19  20
ENDBRANCH  18  19
ENDBRANCH   1  18
TORSDOF 28
ENDMDL
MODEL 7
REMARK VINA RESULT:     0.418      1.837      4.312
REMARK INTER + INTRA:          -0.495
REMARK INTER:                   0.456
REMARK INTRA:                  -0.951
REMARK UNBOUND:                -1.597
REMARK SMILES CCCCCCCCCCCCCCCCCCCCCCCCCCCCCC(=O)[O-]
REMARK SMILES IDX 16 1 17 2 18 3 19 4 20 5 21 6 22 7 23 8 24 9 25 10 26 11
REMARK SMILES IDX 27 12 28 13 29 14 30 15 31 16 32 17 15 18 14 19 13 20 12 21
REMARK SMILES IDX 11 22 10 23 9 24 8 25 7 26 6 27 5 28 4 29 3 30 2 31 1 32
REMARK H PARENT
REMARK Flexibility Score: inf
ROOT
ATOM      1  C   UNL     1      16.614  42.981   3.940  1.00  0.00     0.000 C 
ENDROOT
BRANCH   1   2
ATOM      2  C   UNL     1      17.125  43.916   2.828  1.00  0.00     0.000 C 
BRANCH   2   3
ATOM      3  C   UNL     1      16.153  44.131   1.652  1.00  0.00     0.000 C 
BRANCH   3   4
ATOM      4  C   UNL     1      16.852  44.352   0.293  1.00  0.00     0.000 C 
BRANCH   4   5
ATOM      5  C   UNL     1      17.120  45.835   0.002  1.00  0.00     0.000 C 
BRANCH   5   6
ATOM      6  C   UNL     1      15.999  46.721   0.563  1.00  0.00     0.000 C 
BRANCH   6   7
ATOM      7  C   UNL     1      15.693  47.884  -0.393  1.00  0.00     0.000 C 
BRANCH   7   8
ATOM      8  C   UNL     1      14.810  47.459  -1.577  1.00  0.00     0.000 C 
BRANCH   8   9
ATOM      9  C   UNL     1      14.088  46.125  -1.325  1.00  0.00     0.000 C 
BRANCH   9  10
ATOM     10  C   UNL     1      12.711  46.308  -0.664  1.00  0.00     0.000 C 
BRANCH  10  11
ATOM     11  C   UNL     1      11.608  45.419  -1.276  1.00  0.00     0.000 C 
BRANCH  11  12
ATOM     12  C   UNL     1      11.859  43.924  -1.025  1.00  0.00     0.000 C 
BRANCH  12  13
ATOM     13  C   UNL     1      11.918  43.619   0.478  1.00  0.00     0.006 C 
BRANCH  13  14
ATOM     14  C   UNL     1      12.973  42.557   0.815  1.00  0.00     0.053 C 
BRANCH  14  15
ATOM     15  C   UNL     1      13.137  42.386   2.295  1.00  0.00     0.041 C 
ATOM     16  O   UNL     1      12.461  41.521   2.912  1.00  0.00    -0.550 OA
ATOM     17  O   UNL     1      14.013  43.205   2.996  1.00  0.00    -0.550 OA
ENDBRANCH  14  15
ENDBRANCH  13  14
ENDBRANCH  12  13
ENDBRANCH  11  12
ENDBRANCH  10  11
ENDBRANCH   9  10
ENDBRANCH   8   9
ENDBRANCH   7   8
ENDBRANCH   6   7
ENDBRANCH   5   6
ENDBRANCH   4   5
ENDBRANCH   3   4
ENDBRANCH   2   3
ENDBRANCH   1   2
BRANCH   1  18
ATOM     18  C   UNL     1      17.124  43.300   5.357  1.00  0.00     0.000 C 
BRANCH  18  19
ATOM     19  C   UNL     1      16.539  42.370   6.432  1.00  0.00     0.000 C 
BRANCH  19  20
ATOM     20  C   UNL     1      16.521  43.014   7.830  1.00  0.00     0.000 C 
BRANCH  20  21
ATOM     21  C   UNL     1      15.476  42.439   8.809  1.00  0.00     0.000 C 
BRANCH  21  22
ATOM     22  C   UNL     1      15.874  41.111   9.477  1.00  0.00     0.000 C 
BRANCH  22  23
ATOM     23  C   UNL     1      15.125  39.903   8.889  1.00  0.00     0.000 C 
BRANCH  23  24
ATOM     24  C   UNL     1      14.627  38.934   9.973  1.00  0.00    -0.000 C 
BRANCH  24  25
ATOM     25  C   UNL     1      15.590  37.754  10.194  1.00  0.00    -0.000 C 
BRANCH  25  26
ATOM     26  C   UNL     1      15.008  36.700  11.160  1.00  0.00    -0.000 C 
BRANCH  26  27
ATOM     27  C   UNL     1      15.994  36.252  12.253  1.00  0.00    -0.000 C 
BRANCH  27  28
ATOM     28  C   UNL     1      17.100  37.286  12.524  1.00  0.00    -0.000 C 
BRANCH  28  29
ATOM     29  C   UNL     1      16.638  38.392  13.496  1.00  0.00    -0.000 C 
BRANCH  29  30
ATOM     30  C   UNL     1      16.951  39.814  13.002  1.00  0.00    -0.000 C 
BRANCH  30  31
ATOM     31  C   UNL     1      15.845  40.822  13.345  1.00  0.00    -0.003 C 
ATOM     32  C   UNL     1      16.110  42.173  12.684  1.00  0.00     0.004 C 
ENDBRANCH  30  31
ENDBRANCH  29  30
ENDBRANCH  28  29
ENDBRANCH  27  28
ENDBRANCH  26  27
ENDBRANCH  25  26
ENDBRANCH  24  25
ENDBRANCH  23  24
ENDBRANCH  22  23
ENDBRANCH  21  22
ENDBRANCH  20  21
ENDBRANCH  19  20
ENDBRANCH  18  19
ENDBRANCH   1  18
TORSDOF 28
ENDMDL
