MODEL 1
REMARK VINA RESULT:    -3.689      0.000      0.000
REMARK INTER + INTRA:          -3.797
REMARK INTER:                  -3.797
REMARK INTRA:                   0.000
REMARK UNBOUND:                 0.000
REMARK SMILES CC1(C)[C@H]2CC[C@]1(C)[C@@H](O)C2
REMARK SMILES IDX 1 1 2 2 4 3 5 4 6 5 7 6 9 7 11 8 8 9 3 10 10 11
REMARK H PARENT 10 12
REMARK Flexibility Score: inf
ROOT
ATOM      1  C   UNL     1     116.587 117.130 118.863  1.00  0.00     0.012 C 
ATOM      2  C   UNL     1     115.799 116.596 120.100  1.00  0.00    -0.025 C 
ATOM      3  C   UNL     1     115.303 115.150 119.944  1.00  0.00    -0.002 C 
ATOM      4  C   UNL     1     116.616 114.335 119.835  1.00  0.00     0.005 C 
ATOM      5  C   UNL     1     117.566 115.087 120.789  1.00  0.00     0.010 C 
ATOM      6  C   UNL     1     116.667 116.233 121.330  1.00  0.00    -0.001 C 
ATOM      7  C   UNL     1     115.664 115.549 122.309  1.00  0.00     0.121 C 
ATOM      8  C   UNL     1     114.704 114.821 121.337  1.00  0.00     0.036 C 
ATOM      9  C   UNL     1     117.473 117.382 121.949  1.00  0.00     0.015 C 
ATOM     10  C   UNL     1     114.656 117.629 120.348  1.00  0.00     0.012 C 
ENDROOT
BRANCH   7  11
ATOM     11  O   UNL     1     114.987 116.485 123.105  1.00  0.00    -0.393 OA
ATOM     12  H   UNL     1     115.659 117.162 123.380  1.00  0.00     0.210 HD
ENDBRANCH   7  11
TORSDOF 1
ENDMDL
MODEL 2
REMARK VINA RESULT:    -3.678      1.023      2.334
REMARK INTER + INTRA:          -3.786
REMARK INTER:                  -3.786
REMARK INTRA:                   0.000
REMARK UNBOUND:                 0.000
REMARK SMILES CC1(C)[C@H]2CC[C@]1(C)[C@@H](O)C2
REMARK SMILES IDX 1 1 2 2 4 3 5 4 6 5 7 6 9 7 11 8 8 9 3 10 10 11
REMARK H PARENT 10 12
REMARK Flexibility Score: inf
ROOT
ATOM      1  C   UNL     1     115.812 114.919 119.240  1.00  0.00     0.012 C 
ATOM      2  C   UNL     1     115.852 115.468 120.701  1.00  0.00    -0.025 C 
ATOM      3  C   UNL     1     117.223 115.326 121.381  1.00  0.00    -0.002 C 
ATOM      4  C   UNL     1     118.143 116.223 120.516  1.00  0.00     0.005 C 
ATOM      5  C   UNL     1     117.212 117.389 120.123  1.00  0.00     0.010 C 
ATOM      6  C   UNL     1     115.880 117.011 120.826  1.00  0.00    -0.001 C 
ATOM      7  C   UNL     1     116.124 117.261 122.345  1.00  0.00     0.121 C 
ATOM      8  C   UNL     1     117.037 116.071 122.729  1.00  0.00     0.036 C 
ATOM      9  C   UNL     1     114.668 117.756 120.249  1.00  0.00     0.015 C 
ATOM     10  C   UNL     1     114.698 114.739 121.456  1.00  0.00     0.012 C 
ENDROOT
BRANCH   7  11
ATOM     11  O   UNL     1     114.927 117.256 123.078  1.00  0.00    -0.393 OA
ATOM     12  H   UNL     1     114.191 117.334 122.417  1.00  0.00     0.210 HD
ENDBRANCH   7  11
TORSDOF 1
ENDMDL
MODEL 3
REMARK VINA RESULT:    -3.665      1.436      1.824
REMARK INTER + INTRA:          -3.772
REMARK INTER:                  -3.772
REMARK INTRA:                   0.000
REMARK UNBOUND:                 0.000
REMARK SMILES CC1(C)[C@H]2CC[C@]1(C)[C@@H](O)C2
REMARK SMILES IDX 1 1 2 2 4 3 5 4 6 5 7 6 9 7 11 8 8 9 3 10 10 11
REMARK H PARENT 10 12
REMARK Flexibility Score: inf
ROOT
ATOM      1  C   UNL     1     114.814 117.466 119.343  1.00  0.00     0.012 C 
ATOM      2  C   UNL     1     115.420 117.364 120.778  1.00  0.00    -0.025 C 
ATOM      3  C   UNL     1     115.282 115.972 121.414  1.00  0.00    -0.002 C 
ATOM      4  C   UNL     1     116.128 115.070 120.482  1.00  0.00     0.005 C 
ATOM      5  C   UNL     1     117.293 115.996 120.076  1.00  0.00     0.010 C 
ATOM      6  C   UNL     1     116.966 117.308 120.840  1.00  0.00    -0.001 C 
ATOM      7  C   UNL     1     117.271 117.005 122.338  1.00  0.00     0.121 C 
ATOM      8  C   UNL     1     116.082 116.098 122.737  1.00  0.00     0.036 C 
ATOM      9  C   UNL     1     117.708 118.528 120.276  1.00  0.00     0.015 C 
ATOM     10  C   UNL     1     114.741 118.502 121.602  1.00  0.00     0.012 C 
ENDROOT
BRANCH   7  11
ATOM     11  O   UNL     1     117.316 118.175 123.113  1.00  0.00    -0.393 OA
ATOM     12  H   UNL     1     118.275 118.418 123.202  1.00  0.00     0.210 HD
ENDBRANCH   7  11
TORSDOF 1
ENDMDL
MODEL 4
REMARK VINA RESULT:    -3.660      1.398      2.391
REMARK INTER + INTRA:          -3.767
REMARK INTER:                  -3.767
REMARK INTRA:                   0.000
REMARK UNBOUND:                 0.000
REMARK SMILES CC1(C)[C@H]2CC[C@]1(C)[C@@H](O)C2
REMARK SMILES IDX 1 1 2 2 4 3 5 4 6 5 7 6 9 7 11 8 8 9 3 10 10 11
REMARK H PARENT 10 12
REMARK Flexibility Score: inf
ROOT
ATOM      1  C   UNL     1     116.874 116.619 118.623  1.00  0.00     0.012 C 
ATOM      2  C   UNL     1     116.435 117.389 119.907  1.00  0.00    -0.025 C 
ATOM      3  C   UNL     1     114.995 117.923 119.850  1.00  0.00    -0.002 C 
ATOM      4  C   UNL     1     114.142 116.633 119.759  1.00  0.00     0.005 C 
ATOM      5  C   UNL     1     114.925 115.642 120.644  1.00  0.00     0.010 C 
ATOM      6  C   UNL     1     116.123 116.500 121.136  1.00  0.00    -0.001 C 
ATOM      7  C   UNL     1     115.525 117.494 122.177  1.00  0.00     0.121 C 
ATOM      8  C   UNL     1     114.765 118.495 121.274  1.00  0.00     0.036 C 
ATOM      9  C   UNL     1     117.287 115.651 121.666  1.00  0.00     0.015 C 
ATOM     10  C   UNL     1     117.509 118.501 120.119  1.00  0.00     0.012 C 
ENDROOT
BRANCH   7  11
ATOM     11  O   UNL     1     116.524 118.129 122.932  1.00  0.00    -0.393 OA
ATOM     12  H   UNL     1     116.541 117.676 123.815  1.00  0.00     0.210 HD
ENDBRANCH   7  11
TORSDOF 1
ENDMDL
MODEL 5
REMARK VINA RESULT:    -3.622      1.441      2.374
REMARK INTER + INTRA:          -3.728
REMARK INTER:                  -3.728
REMARK INTRA:                   0.000
REMARK UNBOUND:                 0.000
REMARK SMILES CC1(C)[C@H]2CC[C@]1(C)[C@@H](O)C2
REMARK SMILES IDX 1 1 2 2 4 3 5 4 6 5 7 6 9 7 11 8 8 9 3 10 10 11
REMARK H PARENT 10 12
REMARK Flexibility Score: inf
ROOT
ATOM      1  C   UNL     1     116.996 117.365 118.862  1.00  0.00     0.012 C 
ATOM      2  C   UNL     1     117.028 117.204 120.414  1.00  0.00    -0.025 C 
ATOM      3  C   UNL     1     115.670 117.441 121.092  1.00  0.00    -0.002 C 
ATOM      4  C   UNL     1     114.785 116.305 120.520  1.00  0.00     0.005 C 
ATOM      5  C   UNL     1     115.776 115.129 120.396  1.00  0.00     0.010 C 
ATOM      6  C   UNL     1     117.101 115.744 120.925  1.00  0.00    -0.001 C 
ATOM      7  C   UNL     1     116.912 115.876 122.467  1.00  0.00     0.121 C 
ATOM      8  C   UNL     1     115.938 117.074 122.576  1.00  0.00     0.036 C 
ATOM      9  C   UNL     1     118.340 114.943 120.504  1.00  0.00     0.015 C 
ATOM     10  C   UNL     1     118.155 118.162 120.912  1.00  0.00     0.012 C 
ENDROOT
BRANCH   7  11
ATOM     11  O   UNL     1     118.126 116.131 123.124  1.00  0.00    -0.393 OA
ATOM     12  H   UNL     1     118.517 115.246 123.349  1.00  0.00     0.210 HD
ENDBRANCH   7  11
TORSDOF 1
ENDMDL
MODEL 6
REMARK VINA RESULT:    -3.615      1.180      3.026
REMARK INTER + INTRA:          -3.721
REMARK INTER:                  -3.721
REMARK INTRA:                   0.000
REMARK UNBOUND:                 0.000
REMARK SMILES CC1(C)[C@H]2CC[C@]1(C)[C@@H](O)C2
REMARK SMILES IDX 1 1 2 2 4 3 5 4 6 5 7 6 9 7 11 8 8 9 3 10 10 11
REMARK H PARENT 10 12
REMARK Flexibility Score: inf
ROOT
ATOM      1  C   UNL     1     118.405 115.781 119.194  1.00  0.00     0.012 C 
ATOM      2  C   UNL     1     117.756 115.852 120.612  1.00  0.00    -0.025 C 
ATOM      3  C   UNL     1     117.860 117.234 121.275  1.00  0.00    -0.002 C 
ATOM      4  C   UNL     1     117.032 118.143 120.333  1.00  0.00     0.005 C 
ATOM      5  C   UNL     1     115.890 117.212 119.878  1.00  0.00     0.010 C 
ATOM      6  C   UNL     1     116.208 115.890 120.629  1.00  0.00    -0.001 C 
ATOM      7  C   UNL     1     115.856 116.165 122.123  1.00  0.00     0.121 C 
ATOM      8  C   UNL     1     117.023 117.077 122.572  1.00  0.00     0.036 C 
ATOM      9  C   UNL     1     115.497 114.673 120.023  1.00  0.00     0.015 C 
ATOM     10  C   UNL     1     118.423 114.707 121.437  1.00  0.00     0.012 C 
ENDROOT
BRANCH   7  11
ATOM     11  O   UNL     1     115.801 114.981 122.876  1.00  0.00    -0.393 OA
ATOM     12  H   UNL     1     115.042 115.083 123.507  1.00  0.00     0.210 HD
ENDBRANCH   7  11
TORSDOF 1
ENDMDL
MODEL 7
REMARK VINA RESULT:    -3.611      1.324      3.058
REMARK INTER + INTRA:          -3.717
REMARK INTER:                  -3.717
REMARK INTRA:                   0.000
REMARK UNBOUND:                 0.000
REMARK SMILES CC1(C)[C@H]2CC[C@]1(C)[C@@H](O)C2
REMARK SMILES IDX 1 1 2 2 4 3 5 4 6 5 7 6 9 7 11 8 8 9 3 10 10 11
REMARK H PARENT 10 12
REMARK Flexibility Score: inf
ROOT
ATOM      1  C   UNL     1     116.003 114.577 119.769  1.00  0.00     0.012 C 
ATOM      2  C   UNL     1     116.915 115.564 120.563  1.00  0.00    -0.025 C 
ATOM      3  C   UNL     1     117.252 116.852 119.798  1.00  0.00    -0.002 C 
ATOM      4  C   UNL     1     115.870 117.530 119.618  1.00  0.00     0.005 C 
ATOM      5  C   UNL     1     115.142 117.175 120.930  1.00  0.00     0.010 C 
ATOM      6  C   UNL     1     116.210 116.347 121.697  1.00  0.00    -0.001 C 
ATOM      7  C   UNL     1     117.281 117.378 122.165  1.00  0.00     0.121 C 
ATOM      8  C   UNL     1     118.018 117.704 120.843  1.00  0.00     0.036 C 
ATOM      9  C   UNL     1     115.609 115.501 122.828  1.00  0.00     0.015 C 
ATOM     10  C   UNL     1     118.169 114.734 120.980  1.00  0.00     0.012 C 
ENDROOT
BRANCH   7  11
ATOM     11  O   UNL     1     118.149 116.836 123.125  1.00  0.00    -0.393 OA
ATOM     12  H   UNL     1     117.576 116.436 123.830  1.00  0.00     0.210 HD
ENDBRANCH   7  11
TORSDOF 1
ENDMDL
MODEL 8
REMARK VINA RESULT:    -3.597      1.724      3.036
REMARK INTER + INTRA:          -3.702
REMARK INTER:                  -3.702
REMARK INTRA:                   0.000
REMARK UNBOUND:                 0.000
REMARK SMILES CC1(C)[C@H]2CC[C@]1(C)[C@@H](O)C2
REMARK SMILES IDX 1 1 2 2 4 3 5 4 6 5 7 6 9 7 11 8 8 9 3 10 10 11
REMARK H PARENT 10 12
REMARK Flexibility Score: inf
ROOT
ATOM      1  C   UNL     1     117.773 117.786 122.529  1.00  0.00     0.012 C 
ATOM      2  C   UNL     1     117.137 116.459 122.010  1.00  0.00    -0.025 C 
ATOM      3  C   UNL     1     115.602 116.488 121.946  1.00  0.00    -0.002 C 
ATOM      4  C   UNL     1     115.312 117.591 120.897  1.00  0.00     0.005 C 
ATOM      5  C   UNL     1     116.463 117.413 119.886  1.00  0.00     0.010 C 
ATOM      6  C   UNL     1     117.258 116.220 120.485  1.00  0.00    -0.001 C 
ATOM      7  C   UNL     1     116.376 114.961 120.229  1.00  0.00     0.121 C 
ATOM      8  C   UNL     1     115.242 115.141 121.267  1.00  0.00     0.036 C 
ATOM      9  C   UNL     1     118.686 116.117 119.930  1.00  0.00     0.015 C 
ATOM     10  C   UNL     1     117.706 115.332 122.928  1.00  0.00     0.012 C 
ENDROOT
BRANCH   7  11
ATOM     11  O   UNL     1     117.089 113.769 120.439  1.00  0.00    -0.393 OA
ATOM     12  H   UNL     1     118.032 113.957 120.192  1.00  0.00     0.210 HD
ENDBRANCH   7  11
TORSDOF 1
ENDMDL
MODEL 9
REMARK VINA RESULT:    -3.575      1.714      3.189
REMARK INTER + INTRA:          -3.680
REMARK INTER:                  -3.680
REMARK INTRA:                   0.000
REMARK UNBOUND:                 0.000
REMARK SMILES CC1(C)[C@H]2CC[C@]1(C)[C@@H](O)C2
REMARK SMILES IDX 1 1 2 2 4 3 5 4 6 5 7 6 9 7 11 8 8 9 3 10 10 11
REMARK H PARENT 10 12
REMARK Flexibility Score: inf
ROOT
ATOM      1  C   UNL     1     115.355 115.398 122.163  1.00  0.00     0.012 C 
ATOM      2  C   UNL     1     116.027 116.749 121.763  1.00  0.00    -0.025 C 
ATOM      3  C   UNL     1     117.563 116.709 121.782  1.00  0.00    -0.002 C 
ATOM      4  C   UNL     1     117.904 115.671 120.683  1.00  0.00     0.005 C 
ATOM      5  C   UNL     1     116.812 115.923 119.624  1.00  0.00     0.010 C 
ATOM      6  C   UNL     1     115.991 117.083 120.252  1.00  0.00    -0.001 C 
ATOM      7  C   UNL     1     116.893 118.348 120.124  1.00  0.00     0.121 C 
ATOM      8  C   UNL     1     117.967 118.093 121.209  1.00  0.00     0.036 C 
ATOM      9  C   UNL     1     114.597 117.233 119.627  1.00  0.00     0.015 C 
ATOM     10  C   UNL     1     115.414 117.821 122.717  1.00  0.00     0.012 C 
ENDROOT
BRANCH   7  11
ATOM     11  O   UNL     1     116.177 119.530 120.368  1.00  0.00    -0.393 OA
ATOM     12  H   UNL     1     115.635 119.369 121.185  1.00  0.00     0.210 HD
ENDBRANCH   7  11
TORSDOF 1
ENDMDL
