MODEL 1
REMARK VINA RESULT:    -3.086      0.000      0.000
REMARK INTER + INTRA:         -11.513
REMARK INTER:                  -7.055
REMARK INTRA:                  -4.458
REMARK UNBOUND:                -4.458
REMARK SMILES CCCCCCCCCCCCCCCCCCCCCCCC(=O)[O-]
REMARK SMILES IDX 13 1 14 2 15 3 16 4 17 5 18 6 19 7 20 8 21 9 22 10 23 11
REMARK SMILES IDX 24 12 25 13 26 14 12 15 11 16 10 17 9 18 8 19 7 20 6 21 5 22
REMARK SMILES IDX 4 23 3 24 2 25 1 26
REMARK H PARENT
REMARK Flexibility Score: inf
ROOT
ATOM      1  C   UNL     1      11.108   1.529  30.966  1.00  0.00     0.000 C 
ENDROOT
BRANCH   1   2
ATOM      2  C   UNL     1       9.919   2.336  30.403  1.00  0.00     0.000 C 
BRANCH   2   3
ATOM      3  C   UNL     1      10.035   3.851  30.644  1.00  0.00     0.000 C 
BRANCH   3   4
ATOM      4  C   UNL     1       9.736   4.681  29.385  1.00  0.00     0.000 C 
BRANCH   4   5
ATOM      5  C   UNL     1       9.991   6.183  29.590  1.00  0.00     0.000 C 
BRANCH   5   6
ATOM      6  C   UNL     1       9.479   6.688  30.950  1.00  0.00     0.000 C 
BRANCH   6   7
ATOM      7  C   UNL     1      10.329   7.842  31.507  1.00  0.00     0.000 C 
BRANCH   7   8
ATOM      8  C   UNL     1      10.897   7.542  32.905  1.00  0.00     0.000 C 
BRANCH   8   9
ATOM      9  C   UNL     1      11.874   6.355  32.900  1.00  0.00     0.000 C 
BRANCH   9  10
ATOM     10  C   UNL     1      11.457   5.244  33.879  1.00  0.00     0.006 C 
BRANCH  10  11
ATOM     11  C   UNL     1      10.010   5.413  34.361  1.00  0.00     0.053 C 
BRANCH  11  12
ATOM     12  C   UNL     1       9.945   5.652  35.839  1.00  0.00     0.041 C 
ATOM     13  O   UNL     1       9.054   6.400  36.322  1.00  0.00    -0.550 OA
ATOM     14  O   UNL     1      10.888   5.072  36.678  1.00  0.00    -0.550 OA
ENDBRANCH  11  12
ENDBRANCH  10  11
ENDBRANCH   9  10
ENDBRANCH   8   9
ENDBRANCH   7   8
ENDBRANCH   6   7
ENDBRANCH   5   6
ENDBRANCH   4   5
ENDBRANCH   3   4
ENDBRANCH   2   3
ENDBRANCH   1   2
BRANCH   1  15
ATOM     15  C   UNL     1      12.159   1.214  29.887  1.00  0.00     0.000 C 
BRANCH  15  16
ATOM     16  C   UNL     1      11.562   1.170  28.472  1.00  0.00     0.000 C 
BRANCH  16  17
ATOM     17  C   UNL     1      12.278   2.118  27.498  1.00  0.00     0.000 C 
BRANCH  17  18
ATOM     18  C   UNL     1      13.406   2.882  28.202  1.00  0.00    -0.000 C 
BRANCH  18  19
ATOM     19  C   UNL     1      13.303   4.391  27.931  1.00  0.00    -0.000 C 
BRANCH  19  20
ATOM     20  C   UNL     1      13.513   5.232  29.200  1.00  0.00    -0.000 C 
BRANCH  20  21
ATOM     21  C   UNL     1      13.743   4.370  30.454  1.00  0.00    -0.000 C 
BRANCH  21  22
ATOM     22  C   UNL     1      15.194   4.473  30.973  1.00  0.00    -0.000 C 
BRANCH  22  23
ATOM     23  C   UNL     1      15.918   3.116  31.063  1.00  0.00    -0.000 C 
BRANCH  23  24
ATOM     24  C   UNL     1      16.924   2.841  29.932  1.00  0.00    -0.000 C 
BRANCH  24  25
ATOM     25  C   UNL     1      17.190   4.077  29.061  1.00  0.00    -0.003 C 
ATOM     26  C   UNL     1      17.005   3.752  27.582  1.00  0.00     0.004 C 
ENDBRANCH  24  25
ENDBRANCH  23  24
ENDBRANCH  22  23
ENDBRANCH  21  22
ENDBRANCH  20  21
ENDBRANCH  19  20
ENDBRANCH  18  19
ENDBRANCH  17  18
ENDBRANCH  16  17
ENDBRANCH  15  16
ENDBRANCH   1  15
TORSDOF 22
ENDMDL
MODEL 2
REMARK VINA RESULT:    -2.958      3.108      6.466
REMARK INTER + INTRA:         -11.222
REMARK INTER:                  -6.451
REMARK INTRA:                  -4.771
REMARK UNBOUND:                -4.458
REMARK SMILES CCCCCCCCCCCCCCCCCCCCCCCC(=O)[O-]
REMARK SMILES IDX 13 1 14 2 15 3 16 4 17 5 18 6 19 7 20 8 21 9 22 10 23 11
REMARK SMILES IDX 24 12 25 13 26 14 12 15 11 16 10 17 9 18 8 19 7 20 6 21 5 22
REMARK SMILES IDX 4 23 3 24 2 25 1 26
REMARK H PARENT
REMARK Flexibility Score: inf
ROOT
ATOM      1  C   UNL     1      10.401   6.415  34.359  1.00  0.00     0.000 C 
ENDROOT
BRANCH   1   2
ATOM      2  C   UNL     1       9.323   5.520  33.712  1.00  0.00     0.000 C 
BRANCH   2   3
ATOM      3  C   UNL     1       9.518   4.020  33.994  1.00  0.00     0.000 C 
BRANCH   3   4
ATOM      4  C   UNL     1       9.343   3.148  32.740  1.00  0.00     0.000 C 
BRANCH   4   5
ATOM      5  C   UNL     1       9.971   1.754  32.895  1.00  0.00     0.000 C 
BRANCH   5   6
ATOM      6  C   UNL     1      10.675   1.279  31.612  1.00  0.00     0.000 C 
BRANCH   6   7
ATOM      7  C   UNL     1       9.981   1.788  30.338  1.00  0.00     0.000 C 
BRANCH   7   8
ATOM      8  C   UNL     1      10.860   1.643  29.083  1.00  0.00     0.000 C 
BRANCH   8   9
ATOM      9  C   UNL     1      12.323   1.316  29.426  1.00  0.00     0.000 C 
BRANCH   9  10
ATOM     10  C   UNL     1      13.318   2.005  28.476  1.00  0.00     0.006 C 
BRANCH  10  11
ATOM     11  C   UNL     1      14.557   2.526  29.216  1.00  0.00     0.053 C 
BRANCH  11  12
ATOM     12  C   UNL     1      15.153   3.715  28.526  1.00  0.00     0.041 C 
ATOM     13  O   UNL     1      15.671   3.593  27.384  1.00  0.00    -0.550 OA
ATOM     14  O   UNL     1      15.162   4.952  29.158  1.00  0.00    -0.550 OA
ENDBRANCH  11  12
ENDBRANCH  10  11
ENDBRANCH   9  10
ENDBRANCH   8   9
ENDBRANCH   7   8
ENDBRANCH   6   7
ENDBRANCH   5   6
ENDBRANCH   4   5
ENDBRANCH   3   4
ENDBRANCH   2   3
ENDBRANCH   1   2
BRANCH   1  15
ATOM     15  C   UNL     1      10.890   7.518  33.404  1.00  0.00     0.000 C 
BRANCH  15  16
ATOM     16  C   UNL     1       9.833   7.915  32.363  1.00  0.00     0.000 C 
BRANCH  16  17
ATOM     17  C   UNL     1      10.317   7.711  30.920  1.00  0.00     0.000 C 
BRANCH  17  18
ATOM     18  C   UNL     1       9.382   6.767  30.154  1.00  0.00    -0.000 C 
BRANCH  18  19
ATOM     19  C   UNL     1      10.056   5.410  29.900  1.00  0.00    -0.000 C 
BRANCH  19  20
ATOM     20  C   UNL     1      11.589   5.496  29.949  1.00  0.00    -0.000 C 
BRANCH  20  21
ATOM     21  C   UNL     1      12.204   4.555  31.001  1.00  0.00    -0.000 C 
BRANCH  21  22
ATOM     22  C   UNL     1      13.048   5.321  32.044  1.00  0.00    -0.000 C 
BRANCH  22  23
ATOM     23  C   UNL     1      13.815   4.403  33.016  1.00  0.00    -0.000 C 
BRANCH  23  24
ATOM     24  C   UNL     1      12.948   3.735  34.096  1.00  0.00    -0.000 C 
BRANCH  24  25
ATOM     25  C   UNL     1      13.539   3.880  35.506  1.00  0.00    -0.003 C 
ATOM     26  C   UNL     1      12.440   4.114  36.537  1.00  0.00     0.004 C 
ENDBRANCH  24  25
ENDBRANCH  23  24
ENDBRANCH  22  23
ENDBRANCH  21  22
ENDBRANCH  20  21
ENDBRANCH  19  20
ENDBRANCH  18  19
ENDBRANCH  17  18
ENDBRANCH  16  17
ENDBRANCH  15  16
ENDBRANCH   1  15
TORSDOF 22
ENDMDL
MODEL 3
REMARK VINA RESULT:    -2.931      9.140     11.925
REMARK INTER + INTRA:         -11.160
REMARK INTER:                  -7.380
REMARK INTRA:                  -3.780
REMARK UNBOUND:                -4.458
REMARK SMILES CCCCCCCCCCCCCCCCCCCCCCCC(=O)[O-]
REMARK SMILES IDX 13 1 14 2 15 3 16 4 17 5 18 6 19 7 20 8 21 9 22 10 23 11
REMARK SMILES IDX 24 12 25 13 26 14 12 15 11 16 10 17 9 18 8 19 7 20 6 21 5 22
REMARK SMILES IDX 4 23 3 24 2 25 1 26
REMARK H PARENT
REMARK Flexibility Score: inf
ROOT
ATOM      1  C   UNL     1      20.085   8.652  35.619  1.00  0.00     0.000 C 
ENDROOT
BRANCH   1   2
ATOM      2  C   UNL     1      21.478   9.133  35.158  1.00  0.00     0.000 C 
BRANCH   2   3
ATOM      3  C   UNL     1      22.363   9.645  36.307  1.00  0.00     0.000 C 
BRANCH   3   4
ATOM      4  C   UNL     1      21.628   9.687  37.656  1.00  0.00     0.000 C 
BRANCH   4   5
ATOM      5  C   UNL     1      22.353   8.889  38.752  1.00  0.00     0.000 C 
BRANCH   5   6
ATOM      6  C   UNL     1      21.469   8.649  39.988  1.00  0.00     0.000 C 
BRANCH   6   7
ATOM      7  C   UNL     1      20.031   8.253  39.614  1.00  0.00     0.000 C 
BRANCH   7   8
ATOM      8  C   UNL     1      19.489   7.098  40.475  1.00  0.00     0.000 C 
BRANCH   8   9
ATOM      9  C   UNL     1      19.721   5.723  39.825  1.00  0.00     0.000 C 
BRANCH   9  10
ATOM     10  C   UNL     1      20.835   4.924  40.523  1.00  0.00     0.006 C 
BRANCH  10  11
ATOM     11  C   UNL     1      22.172   5.024  39.777  1.00  0.00     0.053 C 
BRANCH  11  12
ATOM     12  C   UNL     1      22.942   3.741  39.850  1.00  0.00     0.041 C 
ATOM     13  O   UNL     1      23.907   3.625  40.651  1.00  0.00    -0.550 OA
ATOM     14  O   UNL     1      22.613   2.684  39.011  1.00  0.00    -0.550 OA
ENDBRANCH  11  12
ENDBRANCH  10  11
ENDBRANCH   9  10
ENDBRANCH   8   9
ENDBRANCH   7   8
ENDBRANCH   6   7
ENDBRANCH   5   6
ENDBRANCH   4   5
ENDBRANCH   3   4
ENDBRANCH   2   3
ENDBRANCH   1   2
BRANCH   1  15
ATOM     15  C   UNL     1      19.916   7.131  35.461  1.00  0.00     0.000 C 
BRANCH  15  16
ATOM     16  C   UNL     1      20.603   6.337  36.583  1.00  0.00     0.000 C 
BRANCH  16  17
ATOM     17  C   UNL     1      21.787   5.501  36.077  1.00  0.00     0.000 C 
BRANCH  17  18
ATOM     18  C   UNL     1      21.427   4.011  36.026  1.00  0.00    -0.000 C 
BRANCH  18  19
ATOM     19  C   UNL     1      22.571   3.188  35.412  1.00  0.00    -0.000 C 
BRANCH  19  20
ATOM     20  C   UNL     1      22.063   2.074  34.484  1.00  0.00    -0.000 C 
BRANCH  20  21
ATOM     21  C   UNL     1      22.247   2.411  32.994  1.00  0.00    -0.000 C 
BRANCH  21  22
ATOM     22  C   UNL     1      22.956   3.767  32.788  1.00  0.00    -0.000 C 
BRANCH  22  23
ATOM     23  C   UNL     1      22.235   4.700  31.795  1.00  0.00    -0.000 C 
BRANCH  23  24
ATOM     24  C   UNL     1      21.215   5.659  32.431  1.00  0.00    -0.000 C 
BRANCH  24  25
ATOM     25  C   UNL     1      19.854   4.996  32.686  1.00  0.00    -0.003 C 
ATOM     26  C   UNL     1      19.282   4.410  31.399  1.00  0.00     0.004 C 
ENDBRANCH  24  25
ENDBRANCH  23  24
ENDBRANCH  22  23
ENDBRANCH  21  22
ENDBRANCH  20  21
ENDBRANCH  19  20
ENDBRANCH  18  19
ENDBRANCH  17  18
ENDBRANCH  16  17
ENDBRANCH  15  16
ENDBRANCH   1  15
TORSDOF 22
ENDMDL
MODEL 4
REMARK VINA RESULT:    -2.920      3.413      7.197
REMARK INTER + INTRA:         -11.133
REMARK INTER:                  -5.985
REMARK INTRA:                  -5.148
REMARK UNBOUND:                -4.458
REMARK SMILES CCCCCCCCCCCCCCCCCCCCCCCC(=O)[O-]
REMARK SMILES IDX 13 1 14 2 15 3 16 4 17 5 18 6 19 7 20 8 21 9 22 10 23 11
REMARK SMILES IDX 24 12 25 13 26 14 12 15 11 16 10 17 9 18 8 19 7 20 6 21 5 22
REMARK SMILES IDX 4 23 3 24 2 25 1 26
REMARK H PARENT
REMARK Flexibility Score: inf
ROOT
ATOM      1  C   UNL     1      12.334   4.499  30.470  1.00  0.00     0.000 C 
ENDROOT
BRANCH   1   2
ATOM      2  C   UNL     1      13.473   4.915  31.426  1.00  0.00     0.000 C 
BRANCH   2   3
ATOM      3  C   UNL     1      14.099   3.735  32.188  1.00  0.00     0.000 C 
BRANCH   3   4
ATOM      4  C   UNL     1      13.845   2.380  31.507  1.00  0.00     0.000 C 
BRANCH   4   5
ATOM      5  C   UNL     1      15.139   1.587  31.263  1.00  0.00     0.000 C 
BRANCH   5   6
ATOM      6  C   UNL     1      16.304   2.484  30.811  1.00  0.00     0.000 C 
BRANCH   6   7
ATOM      7  C   UNL     1      16.382   2.619  29.281  1.00  0.00     0.000 C 
BRANCH   7   8
ATOM      8  C   UNL     1      15.923   4.000  28.782  1.00  0.00     0.000 C 
BRANCH   8   9
ATOM      9  C   UNL     1      14.741   3.907  27.802  1.00  0.00     0.000 C 
BRANCH   9  10
ATOM     10  C   UNL     1      14.093   2.512  27.793  1.00  0.00     0.006 C 
BRANCH  10  11
ATOM     11  C   UNL     1      12.616   2.563  27.379  1.00  0.00     0.053 C 
BRANCH  11  12
ATOM     12  C   UNL     1      12.232   1.372  26.555  1.00  0.00     0.041 C 
ATOM     13  O   UNL     1      12.249   1.439  25.297  1.00  0.00    -0.550 OA
ATOM     14  O   UNL     1      11.825   0.199  27.178  1.00  0.00    -0.550 OA
ENDBRANCH  11  12
ENDBRANCH  10  11
ENDBRANCH   9  10
ENDBRANCH   8   9
ENDBRANCH   7   8
ENDBRANCH   6   7
ENDBRANCH   5   6
ENDBRANCH   4   5
ENDBRANCH   3   4
ENDBRANCH   2   3
ENDBRANCH   1   2
BRANCH   1  15
ATOM     15  C   UNL     1      11.493   5.703  30.011  1.00  0.00     0.000 C 
BRANCH  15  16
ATOM     16  C   UNL     1       9.991   5.512  30.272  1.00  0.00     0.000 C 
BRANCH  16  17
ATOM     17  C   UNL     1       9.453   6.456  31.357  1.00  0.00     0.000 C 
BRANCH  17  18
ATOM     18  C   UNL     1      10.543   7.426  31.833  1.00  0.00    -0.000 C 
BRANCH  18  19
ATOM     19  C   UNL     1      10.858   7.213  33.321  1.00  0.00    -0.000 C 
BRANCH  19  20
ATOM     20  C   UNL     1      10.195   5.948  33.889  1.00  0.00    -0.000 C 
BRANCH  20  21
ATOM     21  C   UNL     1      11.210   4.836  34.205  1.00  0.00    -0.000 C 
BRANCH  21  22
ATOM     22  C   UNL     1      10.704   3.444  33.766  1.00  0.00    -0.000 C 
BRANCH  22  23
ATOM     23  C   UNL     1       9.218   3.425  33.359  1.00  0.00    -0.000 C 
BRANCH  23  24
ATOM     24  C   UNL     1       8.875   2.469  32.204  1.00  0.00    -0.000 C 
BRANCH  24  25
ATOM     25  C   UNL     1      10.112   1.761  31.631  1.00  0.00    -0.003 C 
ATOM     26  C   UNL     1      10.091   1.776  30.106  1.00  0.00     0.004 C 
ENDBRANCH  24  25
ENDBRANCH  23  24
ENDBRANCH  22  23
ENDBRANCH  21  22
ENDBRANCH  20  21
ENDBRANCH  19  20
ENDBRANCH  18  19
ENDBRANCH  17  18
ENDBRANCH  16  17
ENDBRANCH  15  16
ENDBRANCH   1  15
TORSDOF 22
ENDMDL
MODEL 5
REMARK VINA RESULT:    -2.886      2.321      4.280
REMARK INTER + INTRA:         -11.055
REMARK INTER:                  -6.652
REMARK INTRA:                  -4.403
REMARK UNBOUND:                -4.458
REMARK SMILES CCCCCCCCCCCCCCCCCCCCCCCC(=O)[O-]
REMARK SMILES IDX 13 1 14 2 15 3 16 4 17 5 18 6 19 7 20 8 21 9 22 10 23 11
REMARK SMILES IDX 24 12 25 13 26 14 12 15 11 16 10 17 9 18 8 19 7 20 6 21 5 22
REMARK SMILES IDX 4 23 3 24 2 25 1 26
REMARK H PARENT
REMARK Flexibility Score: inf
ROOT
ATOM      1  C   UNL     1      10.281   6.132  29.665  1.00  0.00     0.000 C 
ENDROOT
BRANCH   1   2
ATOM      2  C   UNL     1      11.053   6.397  30.975  1.00  0.00     0.000 C 
BRANCH   2   3
ATOM      3  C   UNL     1      10.302   7.310  31.958  1.00  0.00     0.000 C 
BRANCH   3   4
ATOM      4  C   UNL     1      11.058   7.514  33.281  1.00  0.00     0.000 C 
BRANCH   4   5
ATOM      5  C   UNL     1      10.322   6.904  34.485  1.00  0.00     0.000 C 
BRANCH   5   6
ATOM      6  C   UNL     1       9.506   5.656  34.106  1.00  0.00     0.000 C 
BRANCH   6   7
ATOM      7  C   UNL     1      10.218   4.349  34.491  1.00  0.00     0.000 C 
BRANCH   7   8
ATOM      8  C   UNL     1      11.345   4.565  35.517  1.00  0.00     0.000 C 
BRANCH   8   9
ATOM      9  C   UNL     1      12.726   4.178  34.961  1.00  0.00     0.000 C 
BRANCH   9  10
ATOM     10  C   UNL     1      12.683   3.840  33.461  1.00  0.00     0.006 C 
BRANCH  10  11
ATOM     11  C   UNL     1      13.800   4.543  32.678  1.00  0.00     0.053 C 
BRANCH  11  12
ATOM     12  C   UNL     1      14.933   3.611  32.375  1.00  0.00     0.041 C 
ATOM     13  O   UNL     1      14.707   2.481  31.866  1.00  0.00    -0.550 OA
ATOM     14  O   UNL     1      16.237   3.979  32.683  1.00  0.00    -0.550 OA
ENDBRANCH  11  12
ENDBRANCH  10  11
ENDBRANCH   9  10
ENDBRANCH   8   9
ENDBRANCH   7   8
ENDBRANCH   6   7
ENDBRANCH   5   6
ENDBRANCH   4   5
ENDBRANCH   3   4
ENDBRANCH   2   3
ENDBRANCH   1   2
BRANCH   1  15
ATOM     15  C   UNL     1       9.724   4.699  29.599  1.00  0.00     0.000 C 
BRANCH  15  16
ATOM     16  C   UNL     1      10.064   3.872  30.848  1.00  0.00     0.000 C 
BRANCH  16  17
ATOM     17  C   UNL     1       9.865   2.364  30.631  1.00  0.00     0.000 C 
BRANCH  17  18
ATOM     18  C   UNL     1      11.209   1.657  30.414  1.00  0.00    -0.000 C 
BRANCH  18  19
ATOM     19  C   UNL     1      11.498   1.472  28.917  1.00  0.00    -0.000 C 
BRANCH  19  20
ATOM     20  C   UNL     1      12.958   1.788  28.556  1.00  0.00    -0.000 C 
BRANCH  20  21
ATOM     21  C   UNL     1      13.083   2.663  27.296  1.00  0.00    -0.000 C 
BRANCH  21  22
ATOM     22  C   UNL     1      12.994   4.170  27.623  1.00  0.00    -0.000 C 
BRANCH  22  23
ATOM     23  C   UNL     1      13.651   4.554  28.963  1.00  0.00    -0.000 C 
BRANCH  23  24
ATOM     24  C   UNL     1      15.055   5.172  28.842  1.00  0.00    -0.000 C 
BRANCH  24  25
ATOM     25  C   UNL     1      16.176   4.130  28.968  1.00  0.00    -0.003 C 
ATOM     26  C   UNL     1      16.671   3.693  27.593  1.00  0.00     0.004 C 
ENDBRANCH  24  25
ENDBRANCH  23  24
ENDBRANCH  22  23
ENDBRANCH  21  22
ENDBRANCH  20  21
ENDBRANCH  19  20
ENDBRANCH  18  19
ENDBRANCH  17  18
ENDBRANCH  16  17
ENDBRANCH  15  16
ENDBRANCH   1  15
TORSDOF 22
ENDMDL
MODEL 6
REMARK VINA RESULT:    -2.886      2.908      6.363
REMARK INTER + INTRA:         -11.055
REMARK INTER:                  -6.539
REMARK INTRA:                  -4.516
REMARK UNBOUND:                -4.458
REMARK SMILES CCCCCCCCCCCCCCCCCCCCCCCC(=O)[O-]
REMARK SMILES IDX 13 1 14 2 15 3 16 4 17 5 18 6 19 7 20 8 21 9 22 10 23 11
REMARK SMILES IDX 24 12 25 13 26 14 12 15 11 16 10 17 9 18 8 19 7 20 6 21 5 22
REMARK SMILES IDX 4 23 3 24 2 25 1 26
REMARK H PARENT
REMARK Flexibility Score: inf
ROOT
ATOM      1  C   UNL     1      10.483   1.969  33.617  1.00  0.00     0.000 C 
ENDROOT
BRANCH   1   2
ATOM      2  C   UNL     1      10.243   1.247  32.274  1.00  0.00     0.000 C 
BRANCH   2   3
ATOM      3  C   UNL     1       9.257   1.979  31.349  1.00  0.00     0.000 C 
BRANCH   3   4
ATOM      4  C   UNL     1       9.759   2.081  29.899  1.00  0.00     0.000 C 
BRANCH   4   5
ATOM      5  C   UNL     1      11.177   1.515  29.722  1.00  0.00     0.000 C 
BRANCH   5   6
ATOM      6  C   UNL     1      11.887   2.081  28.480  1.00  0.00     0.000 C 
BRANCH   6   7
ATOM      7  C   UNL     1      13.234   1.391  28.208  1.00  0.00     0.000 C 
BRANCH   7   8
ATOM      8  C   UNL     1      14.282   1.679  29.297  1.00  0.00     0.000 C 
BRANCH   8   9
ATOM      9  C   UNL     1      15.378   2.645  28.816  1.00  0.00     0.000 C 
BRANCH   9  10
ATOM     10  C   UNL     1      15.046   4.114  29.128  1.00  0.00     0.006 C 
BRANCH  10  11
ATOM     11  C   UNL     1      16.309   4.974  29.271  1.00  0.00     0.053 C 
BRANCH  11  12
ATOM     12  C   UNL     1      17.206   4.462  30.357  1.00  0.00     0.041 C 
ATOM     13  O   UNL     1      18.422   4.234  30.121  1.00  0.00    -0.550 OA
ATOM     14  O   UNL     1      16.690   4.206  31.621  1.00  0.00    -0.550 OA
ENDBRANCH  11  12
ENDBRANCH  10  11
ENDBRANCH   9  10
ENDBRANCH   8   9
ENDBRANCH   7   8
ENDBRANCH   6   7
ENDBRANCH   5   6
ENDBRANCH   4   5
ENDBRANCH   3   4
ENDBRANCH   2   3
ENDBRANCH   1   2
BRANCH   1  15
ATOM     15  C   UNL     1       9.428   3.056  33.888  1.00  0.00     0.000 C 
BRANCH  15  16
ATOM     16  C   UNL     1      10.029   4.324  34.515  1.00  0.00     0.000 C 
BRANCH  16  17
ATOM     17  C   UNL     1       9.578   5.607  33.802  1.00  0.00     0.000 C 
BRANCH  17  18
ATOM     18  C   UNL     1      10.518   6.776  34.127  1.00  0.00    -0.000 C 
BRANCH  18  19
ATOM     19  C   UNL     1      10.762   7.648  32.885  1.00  0.00    -0.000 C 
BRANCH  19  20
ATOM     20  C   UNL     1       9.645   7.507  31.838  1.00  0.00    -0.000 C 
BRANCH  20  21
ATOM     21  C   UNL     1      10.187   7.229  30.425  1.00  0.00    -0.000 C 
BRANCH  21  22
ATOM     22  C   UNL     1      10.394   5.721  30.167  1.00  0.00    -0.000 C 
BRANCH  22  23
ATOM     23  C   UNL     1      11.866   5.272  30.259  1.00  0.00    -0.000 C 
BRANCH  23  24
ATOM     24  C   UNL     1      12.216   4.451  31.511  1.00  0.00    -0.000 C 
BRANCH  24  25
ATOM     25  C   UNL     1      13.361   5.070  32.326  1.00  0.00    -0.003 C 
ATOM     26  C   UNL     1      13.574   4.310  33.631  1.00  0.00     0.004 C 
ENDBRANCH  24  25
ENDBRANCH  23  24
ENDBRANCH  22  23
ENDBRANCH  21  22
ENDBRANCH  20  21
ENDBRANCH  19  20
ENDBRANCH  18  19
ENDBRANCH  17  18
ENDBRANCH  16  17
ENDBRANCH  15  16
ENDBRANCH   1  15
TORSDOF 22
ENDMDL
MODEL 7
REMARK VINA RESULT:    -2.855      3.165      6.558
REMARK INTER + INTRA:         -10.985
REMARK INTER:                  -6.511
REMARK INTRA:                  -4.474
REMARK UNBOUND:                -4.458
REMARK SMILES CCCCCCCCCCCCCCCCCCCCCCCC(=O)[O-]
REMARK SMILES IDX 13 1 14 2 15 3 16 4 17 5 18 6 19 7 20 8 21 9 22 10 23 11
REMARK SMILES IDX 24 12 25 13 26 14 12 15 11 16 10 17 9 18 8 19 7 20 6 21 5 22
REMARK SMILES IDX 4 23 3 24 2 25 1 26
REMARK H PARENT
REMARK Flexibility Score: inf
ROOT
ATOM      1  C   UNL     1      11.083   5.897  30.161  1.00  0.00     0.000 C 
ENDROOT
BRANCH   1   2
ATOM      2  C   UNL     1      10.919   4.409  30.535  1.00  0.00     0.000 C 
BRANCH   2   3
ATOM      3  C   UNL     1       9.723   3.729  29.845  1.00  0.00     0.000 C 
BRANCH   3   4
ATOM      4  C   UNL     1       9.492   2.289  30.331  1.00  0.00     0.000 C 
BRANCH   4   5
ATOM      5  C   UNL     1       9.604   2.153  31.858  1.00  0.00     0.000 C 
BRANCH   5   6
ATOM      6  C   UNL     1      10.701   1.163  32.283  1.00  0.00     0.000 C 
BRANCH   6   7
ATOM      7  C   UNL     1      11.731   0.913  31.169  1.00  0.00     0.000 C 
BRANCH   7   8
ATOM      8  C   UNL     1      13.128   1.455  31.517  1.00  0.00     0.000 C 
BRANCH   8   9
ATOM      9  C   UNL     1      14.048   1.541  30.287  1.00  0.00     0.000 C 
BRANCH   9  10
ATOM     10  C   UNL     1      13.971   2.910  29.589  1.00  0.00     0.006 C 
BRANCH  10  11
ATOM     11  C   UNL     1      13.201   2.840  28.264  1.00  0.00     0.053 C 
BRANCH  11  12
ATOM     12  C   UNL     1      13.466   4.040  27.407  1.00  0.00     0.041 C 
ATOM     13  O   UNL     1      13.532   3.924  26.155  1.00  0.00    -0.550 OA
ATOM     14  O   UNL     1      13.670   5.282  27.995  1.00  0.00    -0.550 OA
ENDBRANCH  11  12
ENDBRANCH  10  11
ENDBRANCH   9  10
ENDBRANCH   8   9
ENDBRANCH   7   8
ENDBRANCH   6   7
ENDBRANCH   5   6
ENDBRANCH   4   5
ENDBRANCH   3   4
ENDBRANCH   2   3
ENDBRANCH   1   2
BRANCH   1  15
ATOM     15  C   UNL     1       9.737   6.640  30.131  1.00  0.00     0.000 C 
BRANCH  15  16
ATOM     16  C   UNL     1       9.299   7.133  31.519  1.00  0.00     0.000 C 
BRANCH  16  17
ATOM     17  C   UNL     1      10.485   7.551  32.401  1.00  0.00     0.000 C 
BRANCH  17  18
ATOM     18  C   UNL     1      10.466   6.804  33.740  1.00  0.00    -0.000 C 
BRANCH  18  19
ATOM     19  C   UNL     1       9.563   5.563  33.666  1.00  0.00    -0.000 C 
BRANCH  19  20
ATOM     20  C   UNL     1       9.876   4.540  34.768  1.00  0.00    -0.000 C 
BRANCH  20  21
ATOM     21  C   UNL     1      10.635   5.159  35.956  1.00  0.00    -0.000 C 
BRANCH  21  22
ATOM     22  C   UNL     1      11.886   4.339  36.338  1.00  0.00    -0.000 C 
BRANCH  22  23
ATOM     23  C   UNL     1      12.121   3.109  35.439  1.00  0.00    -0.000 C 
BRANCH  23  24
ATOM     24  C   UNL     1      13.453   3.113  34.670  1.00  0.00    -0.000 C 
BRANCH  24  25
ATOM     25  C   UNL     1      13.926   4.529  34.310  1.00  0.00    -0.003 C 
ATOM     26  C   UNL     1      13.492   4.906  32.897  1.00  0.00     0.004 C 
ENDBRANCH  24  25
ENDBRANCH  23  24
ENDBRANCH  22  23
ENDBRANCH  21  22
ENDBRANCH  20  21
ENDBRANCH  19  20
ENDBRANCH  18  19
ENDBRANCH  17  18
ENDBRANCH  16  17
ENDBRANCH  15  16
ENDBRANCH   1  15
TORSDOF 22
ENDMDL
MODEL 8
REMARK VINA RESULT:    -2.812      8.701     11.641
REMARK INTER + INTRA:         -10.888
REMARK INTER:                  -7.175
REMARK INTRA:                  -3.713
REMARK UNBOUND:                -4.458
REMARK SMILES CCCCCCCCCCCCCCCCCCCCCCCC(=O)[O-]
REMARK SMILES IDX 13 1 14 2 15 3 16 4 17 5 18 6 19 7 20 8 21 9 22 10 23 11
REMARK SMILES IDX 24 12 25 13 26 14 12 15 11 16 10 17 9 18 8 19 7 20 6 21 5 22
REMARK SMILES IDX 4 23 3 24 2 25 1 26
REMARK H PARENT
REMARK Flexibility Score: inf
ROOT
ATOM      1  C   UNL     1      19.812   8.113  35.739  1.00  0.00     0.000 C 
ENDROOT
BRANCH   1   2
ATOM      2  C   UNL     1      20.886   9.107  35.248  1.00  0.00     0.000 C 
BRANCH   2   3
ATOM      3  C   UNL     1      22.114   9.192  36.171  1.00  0.00     0.000 C 
BRANCH   3   4
ATOM      4  C   UNL     1      21.808   9.881  37.511  1.00  0.00     0.000 C 
BRANCH   4   5
ATOM      5  C   UNL     1      22.737   9.414  38.644  1.00  0.00     0.000 C 
BRANCH   5   6
ATOM      6  C   UNL     1      21.983   8.661  39.752  1.00  0.00     0.000 C 
BRANCH   6   7
ATOM      7  C   UNL     1      21.198   7.453  39.213  1.00  0.00     0.000 C 
BRANCH   7   8
ATOM      8  C   UNL     1      22.088   6.219  38.984  1.00  0.00     0.000 C 
BRANCH   8   9
ATOM      9  C   UNL     1      22.029   5.716  37.532  1.00  0.00     0.000 C 
BRANCH   9  10
ATOM     10  C   UNL     1      21.478   4.283  37.428  1.00  0.00     0.006 C 
BRANCH  10  11
ATOM     11  C   UNL     1      22.589   3.252  37.191  1.00  0.00     0.053 C 
BRANCH  11  12
ATOM     12  C   UNL     1      22.806   2.388  38.396  1.00  0.00     0.041 C 
ATOM     13  O   UNL     1      22.456   1.178  38.381  1.00  0.00    -0.550 OA
ATOM     14  O   UNL     1      23.368   2.929  39.546  1.00  0.00    -0.550 OA
ENDBRANCH  11  12
ENDBRANCH  10  11
ENDBRANCH   9  10
ENDBRANCH   8   9
ENDBRANCH   7   8
ENDBRANCH   6   7
ENDBRANCH   5   6
ENDBRANCH   4   5
ENDBRANCH   3   4
ENDBRANCH   2   3
ENDBRANCH   1   2
BRANCH   1  15
ATOM     15  C   UNL     1      19.748   6.849  34.864  1.00  0.00     0.000 C 
BRANCH  15  16
ATOM     16  C   UNL     1      20.958   6.711  33.929  1.00  0.00     0.000 C 
BRANCH  16  17
ATOM     17  C   UNL     1      20.846   5.501  32.989  1.00  0.00     0.000 C 
BRANCH  17  18
ATOM     18  C   UNL     1      21.688   4.326  33.503  1.00  0.00    -0.000 C 
BRANCH  18  19
ATOM     19  C   UNL     1      20.792   3.165  33.960  1.00  0.00    -0.000 C 
BRANCH  19  20
ATOM     20  C   UNL     1      21.422   1.791  33.686  1.00  0.00    -0.000 C 
BRANCH  20  21
ATOM     21  C   UNL     1      22.782   1.893  32.973  1.00  0.00    -0.000 C 
BRANCH  21  22
ATOM     22  C   UNL     1      22.926   0.851  31.842  1.00  0.00    -0.000 C 
BRANCH  22  23
ATOM     23  C   UNL     1      22.384   1.333  30.482  1.00  0.00    -0.000 C 
BRANCH  23  24
ATOM     24  C   UNL     1      22.403   2.858  30.281  1.00  0.00    -0.000 C 
BRANCH  24  25
ATOM     25  C   UNL     1      21.077   3.401  29.731  1.00  0.00    -0.003 C 
ATOM     26  C   UNL     1      19.888   2.722  30.403  1.00  0.00     0.004 C 
ENDBRANCH  24  25
ENDBRANCH  23  24
ENDBRANCH  22  23
ENDBRANCH  21  22
ENDBRANCH  20  21
ENDBRANCH  19  20
ENDBRANCH  18  19
ENDBRANCH  17  18
ENDBRANCH  16  17
ENDBRANCH  15  16
ENDBRANCH   1  15
TORSDOF 22
ENDMDL
MODEL 9
REMARK VINA RESULT:    -2.807      1.455      3.038
REMARK INTER + INTRA:         -10.877
REMARK INTER:                  -6.029
REMARK INTRA:                  -4.847
REMARK UNBOUND:                -4.458
REMARK SMILES CCCCCCCCCCCCCCCCCCCCCCCC(=O)[O-]
REMARK SMILES IDX 13 1 14 2 15 3 16 4 17 5 18 6 19 7 20 8 21 9 22 10 23 11
REMARK SMILES IDX 24 12 25 13 26 14 12 15 11 16 10 17 9 18 8 19 7 20 6 21 5 22
REMARK SMILES IDX 4 23 3 24 2 25 1 26
REMARK H PARENT
REMARK Flexibility Score: inf
ROOT
ATOM      1  C   UNL     1      12.614   3.780  32.966  1.00  0.00     0.000 C 
ENDROOT
BRANCH   1   2
ATOM      2  C   UNL     1      12.236   2.558  32.101  1.00  0.00     0.000 C 
BRANCH   2   3
ATOM      3  C   UNL     1      10.721   2.398  31.890  1.00  0.00     0.000 C 
BRANCH   3   4
ATOM      4  C   UNL     1      10.324   2.367  30.406  1.00  0.00     0.000 C 
BRANCH   4   5
ATOM      5  C   UNL     1       9.588   3.642  29.961  1.00  0.00     0.000 C 
BRANCH   5   6
ATOM      6  C   UNL     1      10.454   4.539  29.061  1.00  0.00     0.000 C 
BRANCH   6   7
ATOM      7  C   UNL     1      10.679   5.935  29.664  1.00  0.00     0.000 C 
BRANCH   7   8
ATOM      8  C   UNL     1       9.405   6.523  30.295  1.00  0.00     0.000 C 
BRANCH   8   9
ATOM      9  C   UNL     1       9.646   7.052  31.719  1.00  0.00     0.000 C 
BRANCH   9  10
ATOM     10  C   UNL     1       9.684   5.926  32.767  1.00  0.00     0.006 C 
BRANCH  10  11
ATOM     11  C   UNL     1      10.274   6.398  34.102  1.00  0.00     0.053 C 
BRANCH  11  12
ATOM     12  C   UNL     1       9.676   5.661  35.261  1.00  0.00     0.041 C 
ATOM     13  O   UNL     1       9.283   6.290  36.279  1.00  0.00    -0.550 OA
ATOM     14  O   UNL     1       9.581   4.275  35.229  1.00  0.00    -0.550 OA
ENDBRANCH  11  12
ENDBRANCH  10  11
ENDBRANCH   9  10
ENDBRANCH   8   9
ENDBRANCH   7   8
ENDBRANCH   6   7
ENDBRANCH   5   6
ENDBRANCH   4   5
ENDBRANCH   3   4
ENDBRANCH   2   3
ENDBRANCH   1   2
BRANCH   1  15
ATOM     15  C   UNL     1      13.325   4.872  32.148  1.00  0.00     0.000 C 
BRANCH  15  16
ATOM     16  C   UNL     1      13.732   4.395  30.746  1.00  0.00     0.000 C 
BRANCH  16  17
ATOM     17  C   UNL     1      15.194   4.725  30.409  1.00  0.00     0.000 C 
BRANCH  17  18
ATOM     18  C   UNL     1      15.375   4.945  28.902  1.00  0.00    -0.000 C 
BRANCH  18  19
ATOM     19  C   UNL     1      14.033   4.830  28.163  1.00  0.00    -0.000 C 
BRANCH  19  20
ATOM     20  C   UNL     1      14.063   3.773  27.048  1.00  0.00    -0.000 C 
BRANCH  20  21
ATOM     21  C   UNL     1      12.884   2.788  27.131  1.00  0.00    -0.000 C 
BRANCH  21  22
ATOM     22  C   UNL     1      13.343   1.360  27.501  1.00  0.00    -0.000 C 
BRANCH  22  23
ATOM     23  C   UNL     1      13.477   1.125  29.018  1.00  0.00    -0.000 C 
BRANCH  23  24
ATOM     24  C   UNL     1      14.923   1.062  29.538  1.00  0.00    -0.000 C 
BRANCH  24  25
ATOM     25  C   UNL     1      15.944   0.786  28.425  1.00  0.00    -0.003 C 
ATOM     26  C   UNL     1      17.076   1.807  28.457  1.00  0.00     0.004 C 
ENDBRANCH  24  25
ENDBRANCH  23  24
ENDBRANCH  22  23
ENDBRANCH  21  22
ENDBRANCH  20  21
ENDBRANCH  19  20
ENDBRANCH  18  19
ENDBRANCH  17  18
ENDBRANCH  16  17
ENDBRANCH  15  16
ENDBRANCH   1  15
TORSDOF 22
ENDMDL
