MODEL 1
REMARK VINA RESULT:    -2.541      0.000      0.000
REMARK INTER + INTRA:          -3.983
REMARK INTER:                  -3.433
REMARK INTRA:                  -0.551
REMARK UNBOUND:                -0.551
REMARK SMILES CCCCCCCC(=O)[O-]
REMARK SMILES IDX 5 1 6 2 7 3 8 4 9 5 10 6 4 7 3 8 2 9 1 10
REMARK H PARENT
REMARK Flexibility Score: inf
ROOT
ATOM      1  C   UNL     1     -18.464  12.977 -24.401  1.00  0.00     0.000 C 
ENDROOT
BRANCH   1   2
ATOM      2  C   UNL     1     -17.842  13.492 -23.091  1.00  0.00     0.006 C 
BRANCH   2   3
ATOM      3  C   UNL     1     -18.698  14.584 -22.435  1.00  0.00     0.053 C 
BRANCH   3   4
ATOM      4  C   UNL     1     -19.116  14.201 -21.048  1.00  0.00     0.041 C 
ATOM      5  O   UNL     1     -18.335  13.548 -20.307  1.00  0.00    -0.550 OA
ATOM      6  O   UNL     1     -20.381  14.539 -20.586  1.00  0.00    -0.550 OA
ENDBRANCH   3   4
ENDBRANCH   2   3
ENDBRANCH   1   2
BRANCH   1   7
ATOM      7  C   UNL     1     -19.749  13.728 -24.780  1.00  0.00     0.000 C 
BRANCH   7   8
ATOM      8  C   UNL     1     -20.988  12.818 -24.775  1.00  0.00    -0.000 C 
BRANCH   8   9
ATOM      9  C   UNL     1     -21.925  13.176 -23.614  1.00  0.00    -0.003 C 
ATOM     10  C   UNL     1     -22.258  14.665 -23.613  1.00  0.00     0.004 C 
ENDBRANCH   8   9
ENDBRANCH   7   8
ENDBRANCH   1   7
TORSDOF 6
ENDMDL
MODEL 2
REMARK VINA RESULT:    -2.538     14.549     15.762
REMARK INTER + INTRA:          -3.979
REMARK INTER:                  -3.288
REMARK INTRA:                  -0.692
REMARK UNBOUND:                -0.551
REMARK SMILES CCCCCCCC(=O)[O-]
REMARK SMILES IDX 5 1 6 2 7 3 8 4 9 5 10 6 4 7 3 8 2 9 1 10
REMARK H PARENT
REMARK Flexibility Score: inf
ROOT
ATOM      1  C   UNL     1     -24.082  28.427 -21.739  1.00  0.00     0.000 C 
ENDROOT
BRANCH   1   2
ATOM      2  C   UNL     1     -22.741  29.171 -21.607  1.00  0.00     0.006 C 
BRANCH   2   3
ATOM      3  C   UNL     1     -21.594  28.229 -21.222  1.00  0.00     0.053 C 
BRANCH   3   4
ATOM      4  C   UNL     1     -21.611  27.905 -19.758  1.00  0.00     0.041 C 
ATOM      5  O   UNL     1     -22.019  26.781 -19.362  1.00  0.00    -0.550 OA
ATOM      6  O   UNL     1     -21.208  28.857 -18.831  1.00  0.00    -0.550 OA
ENDBRANCH   3   4
ENDBRANCH   2   3
ENDBRANCH   1   2
BRANCH   1   7
ATOM      7  C   UNL     1     -25.096  28.840 -20.661  1.00  0.00     0.000 C 
BRANCH   7   8
ATOM      8  C   UNL     1     -24.650  30.084 -19.876  1.00  0.00    -0.000 C 
BRANCH   8   9
ATOM      9  C   UNL     1     -24.579  29.787 -18.374  1.00  0.00    -0.003 C 
ATOM     10  C   UNL     1     -24.971  28.342 -18.078  1.00  0.00     0.004 C 
ENDBRANCH   8   9
ENDBRANCH   7   8
ENDBRANCH   1   7
TORSDOF 6
ENDMDL
MODEL 3
REMARK VINA RESULT:    -2.537     14.843     16.085
REMARK INTER + INTRA:          -3.977
REMARK INTER:                  -3.493
REMARK INTRA:                  -0.484
REMARK UNBOUND:                -0.551
REMARK SMILES CCCCCCCC(=O)[O-]
REMARK SMILES IDX 5 1 6 2 7 3 8 4 9 5 10 6 4 7 3 8 2 9 1 10
REMARK H PARENT
REMARK Flexibility Score: inf
ROOT
ATOM      1  C   UNL     1     -24.834  29.959 -21.083  1.00  0.00     0.000 C 
ENDROOT
BRANCH   1   2
ATOM      2  C   UNL     1     -24.957  29.216 -19.741  1.00  0.00     0.006 C 
BRANCH   2   3
ATOM      3  C   UNL     1     -24.253  29.963 -18.601  1.00  0.00     0.053 C 
BRANCH   3   4
ATOM      4  C   UNL     1     -23.389  29.046 -17.790  1.00  0.00     0.041 C 
ATOM      5  O   UNL     1     -22.135  29.155 -17.829  1.00  0.00    -0.550 OA
ATOM      6  O   UNL     1     -23.968  28.048 -17.016  1.00  0.00    -0.550 OA
ENDBRANCH   3   4
ENDBRANCH   2   3
ENDBRANCH   1   2
BRANCH   1   7
ATOM      7  C   UNL     1     -23.524  29.638 -21.819  1.00  0.00     0.000 C 
BRANCH   7   8
ATOM      8  C   UNL     1     -23.425  28.161 -22.232  1.00  0.00    -0.000 C 
BRANCH   8   9
ATOM      9  C   UNL     1     -22.140  27.525 -21.689  1.00  0.00    -0.003 C 
ATOM     10  C   UNL     1     -21.215  28.579 -21.086  1.00  0.00     0.004 C 
ENDBRANCH   8   9
ENDBRANCH   7   8
ENDBRANCH   1   7
TORSDOF 6
ENDMDL
MODEL 4
REMARK VINA RESULT:    -2.530     15.050     16.392
REMARK INTER + INTRA:          -3.968
REMARK INTER:                  -3.644
REMARK INTRA:                  -0.323
REMARK UNBOUND:                -0.551
REMARK SMILES CCCCCCCC(=O)[O-]
REMARK SMILES IDX 5 1 6 2 7 3 8 4 9 5 10 6 4 7 3 8 2 9 1 10
REMARK H PARENT
REMARK Flexibility Score: inf
ROOT
ATOM      1  C   UNL     1     -24.982  29.873 -21.001  1.00  0.00     0.000 C 
ENDROOT
BRANCH   1   2
ATOM      2  C   UNL     1     -23.670  29.700 -21.787  1.00  0.00     0.006 C 
BRANCH   2   3
ATOM      3  C   UNL     1     -23.367  28.226 -22.087  1.00  0.00     0.053 C 
BRANCH   3   4
ATOM      4  C   UNL     1     -22.002  27.832 -21.607  1.00  0.00     0.041 C 
ATOM      5  O   UNL     1     -21.369  28.577 -20.814  1.00  0.00    -0.550 OA
ATOM      6  O   UNL     1     -21.417  26.658 -22.064  1.00  0.00    -0.550 OA
ENDBRANCH   3   4
ENDBRANCH   2   3
ENDBRANCH   1   2
BRANCH   1   7
ATOM      7  C   UNL     1     -24.986  29.094 -19.677  1.00  0.00     0.000 C 
BRANCH   7   8
ATOM      8  C   UNL     1     -23.999  29.671 -18.650  1.00  0.00    -0.000 C 
BRANCH   8   9
ATOM      9  C   UNL     1     -24.729  30.112 -17.376  1.00  0.00    -0.003 C 
ATOM     10  C   UNL     1     -23.742  30.527 -16.289  1.00  0.00     0.004 C 
ENDBRANCH   8   9
ENDBRANCH   7   8
ENDBRANCH   1   7
TORSDOF 6
ENDMDL
MODEL 5
REMARK VINA RESULT:    -2.507     14.639     15.882
REMARK INTER + INTRA:          -3.937
REMARK INTER:                  -3.369
REMARK INTRA:                  -0.569
REMARK UNBOUND:                -0.551
REMARK SMILES CCCCCCCC(=O)[O-]
REMARK SMILES IDX 5 1 6 2 7 3 8 4 9 5 10 6 4 7 3 8 2 9 1 10
REMARK H PARENT
REMARK Flexibility Score: inf
ROOT
ATOM      1  C   UNL     1     -24.401  29.980 -18.611  1.00  0.00     0.000 C 
ENDROOT
BRANCH   1   2
ATOM      2  C   UNL     1     -23.191  29.269 -17.980  1.00  0.00     0.006 C 
BRANCH   2   3
ATOM      3  C   UNL     1     -23.051  27.822 -18.472  1.00  0.00     0.053 C 
BRANCH   3   4
ATOM      4  C   UNL     1     -21.775  27.616 -19.230  1.00  0.00     0.041 C 
ATOM      5  O   UNL     1     -21.538  26.512 -19.787  1.00  0.00    -0.550 OA
ATOM      6  O   UNL     1     -20.832  28.634 -19.294  1.00  0.00    -0.550 OA
ENDBRANCH   3   4
ENDBRANCH   2   3
ENDBRANCH   1   2
BRANCH   1   7
ATOM      7  C   UNL     1     -24.987  29.207 -19.802  1.00  0.00     0.000 C 
BRANCH   7   8
ATOM      8  C   UNL     1     -24.883  29.987 -21.122  1.00  0.00    -0.000 C 
BRANCH   8   9
ATOM      9  C   UNL     1     -23.561  29.680 -21.837  1.00  0.00    -0.003 C 
ATOM     10  C   UNL     1     -23.553  28.261 -22.397  1.00  0.00     0.004 C 
ENDBRANCH   8   9
ENDBRANCH   7   8
ENDBRANCH   1   7
TORSDOF 6
ENDMDL
MODEL 6
REMARK VINA RESULT:    -2.505     14.902     16.136
REMARK INTER + INTRA:          -3.935
REMARK INTER:                  -3.437
REMARK INTRA:                  -0.498
REMARK UNBOUND:                -0.551
REMARK SMILES CCCCCCCC(=O)[O-]
REMARK SMILES IDX 5 1 6 2 7 3 8 4 9 5 10 6 4 7 3 8 2 9 1 10
REMARK H PARENT
REMARK Flexibility Score: inf
ROOT
ATOM      1  C   UNL     1     -25.102  28.965 -19.748  1.00  0.00     0.000 C 
ENDROOT
BRANCH   1   2
ATOM      2  C   UNL     1     -25.103  29.537 -21.177  1.00  0.00     0.006 C 
BRANCH   2   3
ATOM      3  C   UNL     1     -23.687  29.639 -21.759  1.00  0.00     0.053 C 
BRANCH   3   4
ATOM      4  C   UNL     1     -23.151  28.296 -22.151  1.00  0.00     0.041 C 
ATOM      5  O   UNL     1     -23.616  27.695 -23.155  1.00  0.00    -0.550 OA
ATOM      6  O   UNL     1     -22.160  27.693 -21.386  1.00  0.00    -0.550 OA
ENDBRANCH   3   4
ENDBRANCH   2   3
ENDBRANCH   1   2
BRANCH   1   7
ATOM      7  C   UNL     1     -24.411  29.896 -18.740  1.00  0.00     0.000 C 
BRANCH   7   8
ATOM      8  C   UNL     1     -23.237  29.218 -18.017  1.00  0.00    -0.000 C 
BRANCH   8   9
ATOM      9  C   UNL     1     -23.362  27.691 -18.083  1.00  0.00    -0.003 C 
ATOM     10  C   UNL     1     -23.817  27.116 -16.745  1.00  0.00     0.004 C 
ENDBRANCH   8   9
ENDBRANCH   7   8
ENDBRANCH   1   7
TORSDOF 6
ENDMDL
MODEL 7
REMARK VINA RESULT:    -2.471      1.697      3.646
REMARK INTER + INTRA:          -3.889
REMARK INTER:                  -3.333
REMARK INTRA:                  -0.556
REMARK UNBOUND:                -0.551
REMARK SMILES CCCCCCCC(=O)[O-]
REMARK SMILES IDX 5 1 6 2 7 3 8 4 9 5 10 6 4 7 3 8 2 9 1 10
REMARK H PARENT
REMARK Flexibility Score: inf
ROOT
ATOM      1  C   UNL     1     -19.382  12.948 -24.391  1.00  0.00     0.000 C 
ENDROOT
BRANCH   1   2
ATOM      2  C   UNL     1     -20.873  13.125 -24.730  1.00  0.00     0.006 C 
BRANCH   2   3
ATOM      3  C   UNL     1     -21.754  13.130 -23.474  1.00  0.00     0.053 C 
BRANCH   3   4
ATOM      4  C   UNL     1     -22.209  14.513 -23.121  1.00  0.00     0.041 C 
ATOM      5  O   UNL     1     -21.525  15.227 -22.342  1.00  0.00    -0.550 OA
ATOM      6  O   UNL     1     -23.407  15.001 -23.628  1.00  0.00    -0.550 OA
ENDBRANCH   3   4
ENDBRANCH   2   3
ENDBRANCH   1   2
BRANCH   1   7
ATOM      7  C   UNL     1     -18.570  14.234 -24.607  1.00  0.00     0.000 C 
BRANCH   7   8
ATOM      8  C   UNL     1     -18.204  14.930 -23.287  1.00  0.00    -0.000 C 
BRANCH   8   9
ATOM      9  C   UNL     1     -17.720  13.913 -22.247  1.00  0.00    -0.003 C 
ATOM     10  C   UNL     1     -18.499  14.044 -20.942  1.00  0.00     0.004 C 
ENDBRANCH   8   9
ENDBRANCH   7   8
ENDBRANCH   1   7
TORSDOF 6
ENDMDL
MODEL 8
REMARK VINA RESULT:    -2.434      1.502      3.467
REMARK INTER + INTRA:          -3.838
REMARK INTER:                  -3.532
REMARK INTRA:                  -0.306
REMARK UNBOUND:                -0.551
REMARK SMILES CCCCCCCC(=O)[O-]
REMARK SMILES IDX 5 1 6 2 7 3 8 4 9 5 10 6 4 7 3 8 2 9 1 10
REMARK H PARENT
REMARK Flexibility Score: inf
ROOT
ATOM      1  C   UNL     1     -21.223  13.139 -25.002  1.00  0.00     0.000 C 
ENDROOT
BRANCH   1   2
ATOM      2  C   UNL     1     -21.883  13.270 -23.617  1.00  0.00     0.006 C 
BRANCH   2   3
ATOM      3  C   UNL     1     -21.966  14.730 -23.153  1.00  0.00     0.053 C 
BRANCH   3   4
ATOM      4  C   UNL     1     -21.304  14.927 -21.823  1.00  0.00     0.041 C 
ATOM      5  O   UNL     1     -20.327  14.207 -21.488  1.00  0.00    -0.550 OA
ATOM      6  O   UNL     1     -21.788  15.885 -20.941  1.00  0.00    -0.550 OA
ENDBRANCH   3   4
ENDBRANCH   2   3
ENDBRANCH   1   2
BRANCH   1   7
ATOM      7  C   UNL     1     -19.821  13.766 -25.049  1.00  0.00     0.000 C 
BRANCH   7   8
ATOM      8  C   UNL     1     -18.763  12.904 -24.343  1.00  0.00    -0.000 C 
BRANCH   8   9
ATOM      9  C   UNL     1     -17.362  13.194 -24.894  1.00  0.00    -0.003 C 
ATOM     10  C   UNL     1     -16.301  12.381 -24.159  1.00  0.00     0.004 C 
ENDBRANCH   8   9
ENDBRANCH   7   8
ENDBRANCH   1   7
TORSDOF 6
ENDMDL
MODEL 9
REMARK VINA RESULT:    -2.317     15.875     17.101
REMARK INTER + INTRA:          -3.681
REMARK INTER:                  -3.373
REMARK INTRA:                  -0.308
REMARK UNBOUND:                -0.551
REMARK SMILES CCCCCCCC(=O)[O-]
REMARK SMILES IDX 5 1 6 2 7 3 8 4 9 5 10 6 4 7 3 8 2 9 1 10
REMARK H PARENT
REMARK Flexibility Score: inf
ROOT
ATOM      1  C   UNL     1     -24.331  28.909 -18.726  1.00  0.00     0.000 C 
ENDROOT
BRANCH   1   2
ATOM      2  C   UNL     1     -24.438  30.307 -18.092  1.00  0.00     0.006 C 
BRANCH   2   3
ATOM      3  C   UNL     1     -24.792  30.240 -16.601  1.00  0.00     0.053 C 
BRANCH   3   4
ATOM      4  C   UNL     1     -23.596  29.906 -15.762  1.00  0.00     0.041 C 
ATOM      5  O   UNL     1     -22.715  30.778 -15.538  1.00  0.00    -0.550 OA
ATOM      6  O   UNL     1     -23.438  28.622 -15.257  1.00  0.00    -0.550 OA
ENDBRANCH   3   4
ENDBRANCH   2   3
ENDBRANCH   1   2
BRANCH   1   7
ATOM      7  C   UNL     1     -25.097  28.800 -20.053  1.00  0.00     0.000 C 
BRANCH   7   8
ATOM      8  C   UNL     1     -24.818  29.982 -20.995  1.00  0.00    -0.000 C 
BRANCH   8   9
ATOM      9  C   UNL     1     -23.624  29.683 -21.909  1.00  0.00    -0.003 C 
ATOM     10  C   UNL     1     -23.582  28.208 -22.297  1.00  0.00     0.004 C 
ENDBRANCH   8   9
ENDBRANCH   7   8
ENDBRANCH   1   7
TORSDOF 6
ENDMDL
