MODEL 1
REMARK VINA RESULT:    -0.061      0.000      0.000
REMARK INTER + INTRA:           0.684
REMARK INTER:                  -0.075
REMARK INTRA:                   0.759
REMARK UNBOUND:                 0.759
REMARK SMILES CC1=CC=CC(C)(C)CC1=O
REMARK SMILES IDX 1 1 2 2 3 3 10 4 11 5 9 6 4 8 5 9 6 10 7 11 8 12
REMARK H PARENT
REMARK Flexibility Score: 80.00
ROOT
ATOM      1  C   UNL     1     120.942 139.627 124.678  1.00  0.00     0.048 C 
ATOM      2  C   UNL     1     120.941 138.159 124.320  1.00  0.00    -0.008 C 
ATOM      3  C   UNL     1     121.022 137.268 125.332  1.00  0.00     0.007 C 
ENDROOT
BRANCH   2   4
ATOM      4  C   UNL     1     120.929 137.817 122.877  1.00  0.00     0.159 C 
ATOM      5  O   UNL     1     121.112 138.734 122.031  1.00  0.00    -0.295 OA
BRANCH   4   6
ATOM      6  C   UNL     1     120.693 136.431 122.358  1.00  0.00     0.091 CG0
ATOM      7  G   UNL     1     121.733 135.407 122.865  1.00  0.00     0.000 G0
ENDBRANCH   4   6
ENDBRANCH   2   4
BRANCH   3   8
ATOM      8  C   UNL     1     121.069 135.787 125.293  1.00  0.00    -0.003 C 
ATOM      9  C   UNL     1     121.375 134.979 124.271  1.00  0.00    -0.020 C 
BRANCH   9  10
ATOM     10  C   UNL     1     121.727 135.403 122.865  1.00  0.00    -0.010 CG0
ATOM     11  C   UNL     1     121.653 134.159 121.950  1.00  0.00     0.016 C 
ATOM     12  C   UNL     1     123.177 135.940 122.823  1.00  0.00     0.016 C 
ATOM     13  G   UNL     1     120.694 136.435 122.358  1.00  0.00     0.000 G0
ENDBRANCH   9  10
ENDBRANCH   3   8
TORSDOF 0
ENDMDL
MODEL 2
REMARK VINA RESULT:    -0.041      3.501      4.906
REMARK INTER + INTRA:           0.709
REMARK INTER:                  -0.046
REMARK INTRA:                   0.755
REMARK UNBOUND:                 0.759
REMARK SMILES CC1=CC=CC(C)(C)CC1=O
REMARK SMILES IDX 1 1 2 2 3 3 10 4 11 5 9 6 4 8 5 9 6 10 7 11 8 12
REMARK H PARENT
REMARK Flexibility Score: 80.00
ROOT
ATOM      1  C   UNL     1     119.878 137.339 124.503  1.00  0.00     0.048 C 
ATOM      2  C   UNL     1     120.902 137.889 125.467  1.00  0.00    -0.008 C 
ATOM      3  C   UNL     1     121.431 139.102 125.194  1.00  0.00     0.007 C 
ENDROOT
BRANCH   2   4
ATOM      4  C   UNL     1     121.302 137.016 126.598  1.00  0.00     0.159 C 
ATOM      5  O   UNL     1     120.943 135.807 126.591  1.00  0.00    -0.295 OA
BRANCH   4   6
ATOM      6  C   UNL     1     122.102 137.497 127.770  1.00  0.00     0.091 CG0
ATOM      7  G   UNL     1     123.490 138.048 127.373  1.00  0.00     0.000 G0
ENDBRANCH   4   6
ENDBRANCH   2   4
BRANCH   3   8
ATOM      8  C   UNL     1     122.460 139.877 125.926  1.00  0.00    -0.003 C 
ATOM      9  C   UNL     1     123.346 139.455 126.837  1.00  0.00    -0.020 C 
BRANCH   9  10
ATOM     10  C   UNL     1     123.486 138.048 127.368  1.00  0.00    -0.010 CG0
ATOM     11  C   UNL     1     124.363 138.096 128.641  1.00  0.00     0.016 C 
ATOM     12  C   UNL     1     124.206 137.161 126.327  1.00  0.00     0.016 C 
ATOM     13  G   UNL     1     122.096 137.500 127.762  1.00  0.00     0.000 G0
ENDBRANCH   9  10
ENDBRANCH   3   8
TORSDOF 0
ENDMDL
MODEL 3
REMARK VINA RESULT:     0.001      3.826      5.362
REMARK INTER + INTRA:           0.760
REMARK INTER:                  -0.004
REMARK INTRA:                   0.763
REMARK UNBOUND:                 0.759
REMARK SMILES CC1=CC=CC(C)(C)CC1=O
REMARK SMILES IDX 1 1 2 2 3 3 10 4 11 5 9 6 4 8 5 9 6 10 7 11 8 12
REMARK H PARENT
REMARK Flexibility Score: 80.00
ROOT
ATOM      1  C   UNL     1     127.888 135.184 125.259  1.00  0.00     0.048 C 
ATOM      2  C   UNL     1     126.667 135.937 124.789  1.00  0.00    -0.008 C 
ATOM      3  C   UNL     1     126.863 137.045 124.042  1.00  0.00     0.007 C 
ENDROOT
BRANCH   2   4
ATOM      4  C   UNL     1     125.347 135.439 125.251  1.00  0.00     0.159 C 
ATOM      5  O   UNL     1     125.311 134.556 126.151  1.00  0.00    -0.295 OA
BRANCH   4   6
ATOM      6  C   UNL     1     124.042 135.918 124.694  1.00  0.00     0.091 CG0
ATOM      7  G   UNL     1     123.827 137.439 124.869  1.00  0.00     0.000 G0
ENDBRANCH   4   6
ENDBRANCH   2   4
BRANCH   3   8
ATOM      8  C   UNL     1     125.878 137.991 123.467  1.00  0.00    -0.003 C 
ATOM      9  C   UNL     1     124.597 138.185 123.804  1.00  0.00    -0.020 C 
BRANCH   9  10
ATOM     10  C   UNL     1     123.826 137.437 124.866  1.00  0.00    -0.010 CG0
ATOM     11  C   UNL     1     122.321 137.734 124.671  1.00  0.00     0.016 C 
ATOM     12  C   UNL     1     124.233 137.943 126.269  1.00  0.00     0.016 C 
ATOM     13  G   UNL     1     124.043 135.917 124.694  1.00  0.00     0.000 G0
ENDBRANCH   9  10
ENDBRANCH   3   8
TORSDOF 0
ENDMDL
MODEL 4
REMARK VINA RESULT:     0.001     11.966     12.879
REMARK INTER + INTRA:           0.761
REMARK INTER:                   0.000
REMARK INTRA:                   0.761
REMARK UNBOUND:                 0.759
REMARK SMILES CC1=CC=CC(C)(C)CC1=O
REMARK SMILES IDX 1 1 2 2 3 3 10 4 11 5 9 6 4 8 5 9 6 10 7 11 8 12
REMARK H PARENT
REMARK Flexibility Score: 80.00
ROOT
ATOM      1  C   UNL     1     127.143 135.204 131.732  1.00  0.00     0.048 C 
ATOM      2  C   UNL     1     128.595 134.817 131.580  1.00  0.00    -0.008 C 
ATOM      3  C   UNL     1     129.107 134.786 130.331  1.00  0.00     0.007 C 
ENDROOT
BRANCH   2   4
ATOM      4  C   UNL     1     129.322 134.426 132.813  1.00  0.00     0.159 C 
ATOM      5  O   UNL     1     128.666 134.242 133.874  1.00  0.00    -0.295 OA
BRANCH   4   6
ATOM      6  C   UNL     1     130.809 134.250 132.876  1.00  0.00     0.091 CG0
ATOM      7  G   UNL     1     131.334 133.167 131.907  1.00  0.00     0.000 G0
ENDBRANCH   4   6
ENDBRANCH   2   4
BRANCH   3   8
ATOM      8  C   UNL     1     130.469 134.423 129.870  1.00  0.00    -0.003 C 
ATOM      9  C   UNL     1     131.420 133.732 130.509  1.00  0.00    -0.020 C 
BRANCH   9  10
ATOM     10  C   UNL     1     131.333 133.167 131.907  1.00  0.00    -0.010 CG0
ATOM     11  C   UNL     1     132.758 132.773 132.360  1.00  0.00     0.016 C 
ATOM     12  C   UNL     1     130.462 131.889 131.907  1.00  0.00     0.016 C 
ATOM     13  G   UNL     1     130.804 134.250 132.874  1.00  0.00     0.000 G0
ENDBRANCH   9  10
ENDBRANCH   3   8
TORSDOF 0
ENDMDL
MODEL 5
REMARK VINA RESULT:     0.001     11.335     12.322
REMARK INTER + INTRA:           0.761
REMARK INTER:                   0.000
REMARK INTRA:                   0.761
REMARK UNBOUND:                 0.759
REMARK SMILES CC1=CC=CC(C)(C)CC1=O
REMARK SMILES IDX 1 1 2 2 3 3 10 4 11 5 9 6 4 8 5 9 6 10 7 11 8 12
REMARK H PARENT
REMARK Flexibility Score: 80.00
ROOT
ATOM      1  C   UNL     1     125.702 136.505 131.986  1.00  0.00     0.048 C 
ATOM      2  C   UNL     1     127.087 135.927 132.153  1.00  0.00    -0.008 C 
ATOM      3  C   UNL     1     127.752 135.561 131.035  1.00  0.00     0.007 C 
ENDROOT
BRANCH   2   4
ATOM      4  C   UNL     1     127.577 135.736 133.541  1.00  0.00     0.159 C 
ATOM      5  O   UNL     1     126.764 135.869 134.497  1.00  0.00    -0.295 OA
BRANCH   4   6
ATOM      6  C   UNL     1     128.999 135.406 133.878  1.00  0.00     0.091 CG0
ATOM      7  G   UNL     1     129.482 134.082 133.245  1.00  0.00     0.000 G0
ENDBRANCH   4   6
ENDBRANCH   2   4
BRANCH   3   8
ATOM      8  C   UNL     1     129.094 134.950 130.884  1.00  0.00    -0.003 C 
ATOM      9  C   UNL     1     129.838 134.310 131.795  1.00  0.00    -0.020 C 
BRANCH   9  10
ATOM     10  C   UNL     1     129.481 134.083 133.245  1.00  0.00    -0.010 CG0
ATOM     11  C   UNL     1     130.758 133.634 133.992  1.00  0.00     0.016 C 
ATOM     12  C   UNL     1     128.438 132.947 133.360  1.00  0.00     0.016 C 
ATOM     13  G   UNL     1     128.995 135.407 133.875  1.00  0.00     0.000 G0
ENDBRANCH   9  10
ENDBRANCH   3   8
TORSDOF 0
ENDMDL
MODEL 6
REMARK VINA RESULT:     0.001     11.780     12.950
REMARK INTER + INTRA:           0.761
REMARK INTER:                   0.000
REMARK INTRA:                   0.761
REMARK UNBOUND:                 0.759
REMARK SMILES CC1=CC=CC(C)(C)CC1=O
REMARK SMILES IDX 1 1 2 2 3 3 10 4 11 5 9 6 4 8 5 9 6 10 7 11 8 12
REMARK H PARENT
REMARK Flexibility Score: 80.00
ROOT
ATOM      1  C   UNL     1     124.806 135.881 132.911  1.00  0.00     0.048 C 
ATOM      2  C   UNL     1     125.992 135.073 133.384  1.00  0.00    -0.008 C 
ATOM      3  C   UNL     1     126.851 134.616 132.447  1.00  0.00     0.007 C 
ENDROOT
BRANCH   2   4
ATOM      4  C   UNL     1     126.075 134.782 134.836  1.00  0.00     0.159 C 
ATOM      5  O   UNL     1     125.079 135.037 135.567  1.00  0.00    -0.295 OA
BRANCH   4   6
ATOM      6  C   UNL     1     127.293 134.211 135.496  1.00  0.00     0.091 CG0
ATOM      7  G   UNL     1     127.702 132.832 134.929  1.00  0.00     0.000 G0
ENDBRANCH   4   6
ENDBRANCH   2   4
BRANCH   3   8
ATOM      8  C   UNL     1     128.071 133.787 132.599  1.00  0.00    -0.003 C 
ATOM      9  C   UNL     1     128.446 133.018 133.628  1.00  0.00    -0.020 C 
BRANCH   9  10
ATOM     10  C   UNL     1     127.701 132.833 134.929  1.00  0.00    -0.010 CG0
ATOM     11  C   UNL     1     128.656 132.163 135.943  1.00  0.00     0.016 C 
ATOM     12  C   UNL     1     126.494 131.890 134.717  1.00  0.00     0.016 C 
ATOM     13  G   UNL     1     127.289 134.211 135.493  1.00  0.00     0.000 G0
ENDBRANCH   9  10
ENDBRANCH   3   8
TORSDOF 0
ENDMDL
MODEL 7
REMARK VINA RESULT:     0.003      8.352      9.653
REMARK INTER + INTRA:           0.763
REMARK INTER:                   0.000
REMARK INTRA:                   0.763
REMARK UNBOUND:                 0.759
REMARK SMILES CC1=CC=CC(C)(C)CC1=O
REMARK SMILES IDX 1 1 2 2 3 3 10 4 11 5 9 6 4 8 5 9 6 10 7 11 8 12
REMARK H PARENT
REMARK Flexibility Score: 80.00
ROOT
ATOM      1  C   UNL     1     129.707 128.898 127.537  1.00  0.00     0.048 C 
ATOM      2  C   UNL     1     128.560 129.851 127.776  1.00  0.00    -0.008 C 
ATOM      3  C   UNL     1     127.468 129.369 128.408  1.00  0.00     0.007 C 
ENDROOT
BRANCH   2   4
ATOM      4  C   UNL     1     128.696 131.223 127.228  1.00  0.00     0.159 C 
ATOM      5  O   UNL     1     129.646 131.471 126.436  1.00  0.00    -0.295 OA
BRANCH   4   6
ATOM      6  C   UNL     1     127.769 132.348 127.576  1.00  0.00     0.091 CG0
ATOM      7  G   UNL     1     126.298 132.061 127.202  1.00  0.00     0.000 G0
ENDBRANCH   4   6
ENDBRANCH   2   4
BRANCH   3   8
ATOM      8  C   UNL     1     126.195 130.045 128.756  1.00  0.00    -0.003 C 
ATOM      9  C   UNL     1     125.673 131.171 128.255  1.00  0.00    -0.020 C 
BRANCH   9  10
ATOM     10  C   UNL     1     126.297 132.060 127.205  1.00  0.00    -0.010 CG0
ATOM     11  C   UNL     1     125.533 133.405 127.194  1.00  0.00     0.016 C 
ATOM     12  C   UNL     1     126.145 131.414 125.809  1.00  0.00     0.016 C 
ATOM     13  G   UNL     1     127.770 132.346 127.574  1.00  0.00     0.000 G0
ENDBRANCH   9  10
ENDBRANCH   3   8
TORSDOF 0
ENDMDL
MODEL 8
REMARK VINA RESULT:     0.003      5.696      7.082
REMARK INTER + INTRA:           0.763
REMARK INTER:                   0.000
REMARK INTRA:                   0.763
REMARK UNBOUND:                 0.759
REMARK SMILES CC1=CC=CC(C)(C)CC1=O
REMARK SMILES IDX 1 1 2 2 3 3 10 4 11 5 9 6 4 8 5 9 6 10 7 11 8 12
REMARK H PARENT
REMARK Flexibility Score: 80.00
ROOT
ATOM      1  C   UNL     1     128.425 130.869 125.626  1.00  0.00     0.048 C 
ATOM      2  C   UNL     1     127.396 131.925 125.953  1.00  0.00    -0.008 C 
ATOM      3  C   UNL     1     126.699 131.786 127.102  1.00  0.00     0.007 C 
ENDROOT
BRANCH   2   4
ATOM      4  C   UNL     1     127.180 132.992 124.945  1.00  0.00     0.159 C 
ATOM      5  O   UNL     1     127.703 132.867 123.804  1.00  0.00    -0.295 OA
BRANCH   4   6
ATOM      6  C   UNL     1     126.381 134.231 125.212  1.00  0.00     0.091 CG0
ATOM      7  G   UNL     1     124.915 133.937 125.601  1.00  0.00     0.000 G0
ENDBRANCH   4   6
ENDBRANCH   2   4
BRANCH   3   8
ATOM      8  C   UNL     1     125.624 132.632 127.670  1.00  0.00    -0.003 C 
ATOM      9  C   UNL     1     124.849 133.537 127.059  1.00  0.00    -0.020 C 
BRANCH   9  10
ATOM     10  C   UNL     1     124.915 133.938 125.604  1.00  0.00    -0.010 CG0
ATOM     11  C   UNL     1     124.101 135.239 125.423  1.00  0.00     0.016 C 
ATOM     12  C   UNL     1     124.267 132.844 124.725  1.00  0.00     0.016 C 
ATOM     13  G   UNL     1     126.381 134.229 125.211  1.00  0.00     0.000 G0
ENDBRANCH   9  10
ENDBRANCH   3   8
TORSDOF 0
ENDMDL
MODEL 9
REMARK VINA RESULT:     0.003      7.789      9.123
REMARK INTER + INTRA:           0.763
REMARK INTER:                   0.000
REMARK INTRA:                   0.763
REMARK UNBOUND:                 0.759
REMARK SMILES CC1=CC=CC(C)(C)CC1=O
REMARK SMILES IDX 1 1 2 2 3 3 10 4 11 5 9 6 4 8 5 9 6 10 7 11 8 12
REMARK H PARENT
REMARK Flexibility Score: 80.00
ROOT
ATOM      1  C   UNL     1     131.321 131.471 127.254  1.00  0.00     0.048 C 
ATOM      2  C   UNL     1     130.008 132.180 127.016  1.00  0.00    -0.008 C 
ATOM      3  C   UNL     1     128.902 131.656 127.586  1.00  0.00     0.007 C 
ENDROOT
BRANCH   2   4
ATOM      4  C   UNL     1     130.030 133.355 126.110  1.00  0.00     0.159 C 
ATOM      5  O   UNL     1     131.071 133.587 125.438  1.00  0.00    -0.295 OA
BRANCH   4   6
ATOM      6  C   UNL     1     128.879 134.302 125.958  1.00  0.00     0.091 CG0
ATOM      7  G   UNL     1     127.587 133.614 125.464  1.00  0.00     0.000 G0
ENDBRANCH   4   6
ENDBRANCH   2   4
BRANCH   3   8
ATOM      8  C   UNL     1     127.491 132.105 127.514  1.00  0.00    -0.003 C 
ATOM      9  C   UNL     1     126.909 132.919 126.625  1.00  0.00    -0.020 C 
BRANCH   9  10
ATOM     10  C   UNL     1     127.585 133.614 125.467  1.00  0.00    -0.010 CG0
ATOM     11  C   UNL     1     126.631 134.708 124.935  1.00  0.00     0.016 C 
ATOM     12  C   UNL     1     127.839 132.606 124.322  1.00  0.00     0.016 C 
ATOM     13  G   UNL     1     128.880 134.300 125.956  1.00  0.00     0.000 G0
ENDBRANCH   9  10
ENDBRANCH   3   8
TORSDOF 0
ENDMDL
