MODEL 1
REMARK VINA RESULT:    -4.399      0.000      0.000
REMARK INTER + INTRA:          -6.653
REMARK INTER:                  -6.457
REMARK INTRA:                  -0.197
REMARK UNBOUND:                -0.197
REMARK SMILES O=C([O-])CCCCCCCC(=O)[O-]
REMARK SMILES IDX 7 1 6 2 5 3 4 4 2 5 1 6 3 7 8 8 9 9 10 10 11 11 12 12 13 13
REMARK H PARENT
REMARK Flexibility Score: inf
ROOT
ATOM      1  C   UNL     1     -12.491   1.514 -21.890  1.00  0.00     0.000 C 
ENDROOT
BRANCH   1   2
ATOM      2  C   UNL     1     -11.397   1.395 -20.818  1.00  0.00     0.000 C 
BRANCH   2   3
ATOM      3  C   UNL     1     -10.076   2.060 -21.242  1.00  0.00     0.006 C 
BRANCH   3   4
ATOM      4  C   UNL     1      -9.122   2.263 -20.057  1.00  0.00     0.053 C 
BRANCH   4   5
ATOM      5  C   UNL     1      -8.052   1.215 -20.024  1.00  0.00     0.041 C 
ATOM      6  O   UNL     1      -8.350  -0.001 -20.151  1.00  0.00    -0.550 OA
ATOM      7  O   UNL     1      -6.720   1.587 -19.887  1.00  0.00    -0.550 OA
ENDBRANCH   4   5
ENDBRANCH   3   4
ENDBRANCH   2   3
ENDBRANCH   1   2
BRANCH   1   8
ATOM      8  C   UNL     1     -13.408   2.727 -21.666  1.00  0.00     0.000 C 
BRANCH   8   9
ATOM      9  C   UNL     1     -14.426   2.861 -22.804  1.00  0.00     0.006 C 
BRANCH   9  10
ATOM     10  C   UNL     1     -15.128   4.222 -22.755  1.00  0.00     0.053 C 
BRANCH  10  11
ATOM     11  C   UNL     1     -14.506   5.169 -23.732  1.00  0.00     0.041 C 
ATOM     12  O   UNL     1     -13.418   5.740 -23.455  1.00  0.00    -0.550 OA
ATOM     13  O   UNL     1     -15.100   5.382 -24.969  1.00  0.00    -0.550 OA
ENDBRANCH  10  11
ENDBRANCH   9  10
ENDBRANCH   8   9
ENDBRANCH   1   8
TORSDOF 8
ENDMDL
MODEL 2
REMARK VINA RESULT:    -4.318      1.749      2.525
REMARK INTER + INTRA:          -6.534
REMARK INTER:                  -6.138
REMARK INTRA:                  -0.396
REMARK UNBOUND:                -0.197
REMARK SMILES O=C([O-])CCCCCCCC(=O)[O-]
REMARK SMILES IDX 7 1 6 2 5 3 4 4 2 5 1 6 3 7 8 8 9 9 10 10 11 11 12 12 13 13
REMARK H PARENT
REMARK Flexibility Score: inf
ROOT
ATOM      1  C   UNL     1     -14.678   2.523 -22.516  1.00  0.00     0.000 C 
ENDROOT
BRANCH   1   2
ATOM      2  C   UNL     1     -13.202   2.850 -22.241  1.00  0.00     0.000 C 
BRANCH   2   3
ATOM      3  C   UNL     1     -12.495   1.756 -21.421  1.00  0.00     0.006 C 
BRANCH   3   4
ATOM      4  C   UNL     1     -11.300   1.151 -22.170  1.00  0.00     0.053 C 
BRANCH   4   5
ATOM      5  C   UNL     1      -9.997   1.666 -21.641  1.00  0.00     0.041 C 
ATOM      6  O   UNL     1      -8.954   1.589 -22.339  1.00  0.00    -0.550 OA
ATOM      7  O   UNL     1      -9.944   2.264 -20.388  1.00  0.00    -0.550 OA
ENDBRANCH   4   5
ENDBRANCH   3   4
ENDBRANCH   2   3
ENDBRANCH   1   2
BRANCH   1   8
ATOM      8  C   UNL     1     -15.634   3.567 -21.919  1.00  0.00     0.000 C 
BRANCH   8   9
ATOM      9  C   UNL     1     -15.126   4.989 -22.182  1.00  0.00     0.006 C 
BRANCH   9  10
ATOM     10  C   UNL     1     -16.127   5.783 -23.027  1.00  0.00     0.053 C 
BRANCH  10  11
ATOM     11  C   UNL     1     -15.588   6.011 -24.403  1.00  0.00     0.041 C 
ATOM     12  O   UNL     1     -15.881   7.062 -25.033  1.00  0.00    -0.550 OA
ATOM     13  O   UNL     1     -14.722   5.086 -24.973  1.00  0.00    -0.550 OA
ENDBRANCH  10  11
ENDBRANCH   9  10
ENDBRANCH   8   9
ENDBRANCH   1   8
TORSDOF 8
ENDMDL
MODEL 3
REMARK VINA RESULT:    -4.313      1.234      6.944
REMARK INTER + INTRA:          -6.526
REMARK INTER:                  -6.247
REMARK INTRA:                  -0.279
REMARK UNBOUND:                -0.197
REMARK SMILES O=C([O-])CCCCCCCC(=O)[O-]
REMARK SMILES IDX 7 1 6 2 5 3 4 4 2 5 1 6 3 7 8 8 9 9 10 10 11 11 12 12 13 13
REMARK H PARENT
REMARK Flexibility Score: inf
ROOT
ATOM      1  C   UNL     1     -11.792   1.913 -21.719  1.00  0.00     0.000 C 
ENDROOT
BRANCH   1   2
ATOM      2  C   UNL     1     -13.267   2.063 -22.125  1.00  0.00     0.000 C 
BRANCH   2   3
ATOM      3  C   UNL     1     -13.684   3.532 -22.314  1.00  0.00     0.006 C 
BRANCH   3   4
ATOM      4  C   UNL     1     -14.700   3.704 -23.451  1.00  0.00     0.053 C 
BRANCH   4   5
ATOM      5  C   UNL     1     -14.614   5.066 -24.068  1.00  0.00     0.041 C 
ATOM      6  O   UNL     1     -13.643   5.822 -23.804  1.00  0.00    -0.550 OA
ATOM      7  O   UNL     1     -15.590   5.486 -24.963  1.00  0.00    -0.550 OA
ENDBRANCH   4   5
ENDBRANCH   3   4
ENDBRANCH   2   3
ENDBRANCH   1   2
BRANCH   1   8
ATOM      8  C   UNL     1     -11.162   0.617 -22.251  1.00  0.00     0.000 C 
BRANCH   8   9
ATOM      9  C   UNL     1      -9.838   0.319 -21.537  1.00  0.00     0.006 C 
BRANCH   9  10
ATOM     10  C   UNL     1      -8.892   1.522 -21.607  1.00  0.00     0.053 C 
BRANCH  10  11
ATOM     11  C   UNL     1      -8.377   1.864 -20.246  1.00  0.00     0.041 C 
ATOM     12  O   UNL     1      -7.207   1.538 -19.910  1.00  0.00    -0.550 OA
ATOM     13  O   UNL     1      -9.169   2.589 -19.364  1.00  0.00    -0.550 OA
ENDBRANCH  10  11
ENDBRANCH   9  10
ENDBRANCH   8   9
ENDBRANCH   1   8
TORSDOF 8
ENDMDL
MODEL 4
REMARK VINA RESULT:    -4.209     12.813     14.050
REMARK INTER + INTRA:          -6.374
REMARK INTER:                  -6.032
REMARK INTRA:                  -0.342
REMARK UNBOUND:                -0.197
REMARK SMILES O=C([O-])CCCCCCCC(=O)[O-]
REMARK SMILES IDX 7 1 6 2 5 3 4 4 2 5 1 6 3 7 8 8 9 9 10 10 11 11 12 12 13 13
REMARK H PARENT
REMARK Flexibility Score: inf
ROOT
ATOM      1  C   UNL     1      -7.558   3.526 -35.681  1.00  0.00     0.000 C 
ENDROOT
BRANCH   1   2
ATOM      2  C   UNL     1      -7.902   3.406 -34.188  1.00  0.00     0.000 C 
BRANCH   2   3
ATOM      3  C   UNL     1      -7.865   4.761 -33.461  1.00  0.00     0.006 C 
BRANCH   3   4
ATOM      4  C   UNL     1      -6.942   5.769 -34.160  1.00  0.00     0.053 C 
BRANCH   4   5
ATOM      5  C   UNL     1      -6.534   6.877 -33.238  1.00  0.00     0.041 C 
ATOM      6  O   UNL     1      -6.814   6.819 -32.013  1.00  0.00    -0.550 OA
ATOM      7  O   UNL     1      -5.814   7.959 -33.728  1.00  0.00    -0.550 OA
ENDBRANCH   4   5
ENDBRANCH   3   4
ENDBRANCH   2   3
ENDBRANCH   1   2
BRANCH   1   8
ATOM      8  C   UNL     1      -8.727   3.118 -36.591  1.00  0.00     0.000 C 
BRANCH   8   9
ATOM      9  C   UNL     1      -9.802   2.366 -35.797  1.00  0.00     0.006 C 
BRANCH   9  10
ATOM     10  C   UNL     1     -10.827   1.722 -36.735  1.00  0.00     0.053 C 
BRANCH  10  11
ATOM     11  C   UNL     1     -12.219   2.012 -36.270  1.00  0.00     0.041 C 
ATOM     12  O   UNL     1     -13.066   2.492 -37.069  1.00  0.00    -0.550 OA
ATOM     13  O   UNL     1     -12.595   1.706 -34.968  1.00  0.00    -0.550 OA
ENDBRANCH  10  11
ENDBRANCH   9  10
ENDBRANCH   8   9
ENDBRANCH   1   8
TORSDOF 8
ENDMDL
MODEL 5
REMARK VINA RESULT:    -4.190     14.481     15.640
REMARK INTER + INTRA:          -6.346
REMARK INTER:                  -5.868
REMARK INTRA:                  -0.478
REMARK UNBOUND:                -0.197
REMARK SMILES O=C([O-])CCCCCCCC(=O)[O-]
REMARK SMILES IDX 7 1 6 2 5 3 4 4 2 5 1 6 3 7 8 8 9 9 10 10 11 11 12 12 13 13
REMARK H PARENT
REMARK Flexibility Score: inf
ROOT
ATOM      1  C   UNL     1      -7.054   3.643 -35.247  1.00  0.00     0.000 C 
ENDROOT
BRANCH   1   2
ATOM      2  C   UNL     1      -8.412   4.030 -34.641  1.00  0.00     0.000 C 
BRANCH   2   3
ATOM      3  C   UNL     1      -8.426   5.464 -34.085  1.00  0.00     0.006 C 
BRANCH   3   4
ATOM      4  C   UNL     1      -7.662   5.578 -32.758  1.00  0.00     0.053 C 
BRANCH   4   5
ATOM      5  C   UNL     1      -6.737   6.756 -32.752  1.00  0.00     0.041 C 
ATOM      6  O   UNL     1      -5.702   6.754 -33.468  1.00  0.00    -0.550 OA
ATOM      7  O   UNL     1      -7.037   7.871 -31.981  1.00  0.00    -0.550 OA
ENDBRANCH   4   5
ENDBRANCH   3   4
ENDBRANCH   2   3
ENDBRANCH   1   2
BRANCH   1   8
ATOM      8  C   UNL     1      -6.466   4.751 -36.134  1.00  0.00     0.000 C 
BRANCH   8   9
ATOM      9  C   UNL     1      -6.188   4.230 -37.549  1.00  0.00     0.006 C 
BRANCH   9  10
ATOM     10  C   UNL     1      -5.632   2.804 -37.511  1.00  0.00     0.053 C 
BRANCH  10  11
ATOM     11  C   UNL     1      -4.161   2.807 -37.781  1.00  0.00     0.041 C 
ATOM     12  O   UNL     1      -3.539   1.720 -37.917  1.00  0.00    -0.550 OA
ATOM     13  O   UNL     1      -3.484   4.011 -37.935  1.00  0.00    -0.550 OA
ENDBRANCH  10  11
ENDBRANCH   9  10
ENDBRANCH   8   9
ENDBRANCH   1   8
TORSDOF 8
ENDMDL
MODEL 6
REMARK VINA RESULT:    -4.137     12.785     14.713
REMARK INTER + INTRA:          -6.268
REMARK INTER:                  -5.926
REMARK INTRA:                  -0.343
REMARK UNBOUND:                -0.197
REMARK SMILES O=C([O-])CCCCCCCC(=O)[O-]
REMARK SMILES IDX 7 1 6 2 5 3 4 4 2 5 1 6 3 7 8 8 9 9 10 10 11 11 12 12 13 13
REMARK H PARENT
REMARK Flexibility Score: inf
ROOT
ATOM      1  C   UNL     1      -7.451   3.495 -35.461  1.00  0.00     0.000 C 
ENDROOT
BRANCH   1   2
ATOM      2  C   UNL     1      -8.722   3.151 -36.254  1.00  0.00     0.000 C 
BRANCH   2   3
ATOM      3  C   UNL     1      -9.806   2.495 -35.382  1.00  0.00     0.006 C 
BRANCH   3   4
ATOM      4  C   UNL     1     -10.708   1.552 -36.191  1.00  0.00     0.053 C 
BRANCH   4   5
ATOM      5  C   UNL     1     -12.157   1.888 -36.017  1.00  0.00     0.041 C 
ATOM      6  O   UNL     1     -12.799   2.429 -36.954  1.00  0.00    -0.550 OA
ATOM      7  O   UNL     1     -12.806   1.573 -34.830  1.00  0.00    -0.550 OA
ENDBRANCH   4   5
ENDBRANCH   3   4
ENDBRANCH   2   3
ENDBRANCH   1   2
BRANCH   1   8
ATOM      8  C   UNL     1      -6.693   4.693 -36.051  1.00  0.00     0.000 C 
BRANCH   8   9
ATOM      9  C   UNL     1      -7.169   6.007 -35.421  1.00  0.00     0.006 C 
BRANCH   9  10
ATOM     10  C   UNL     1      -6.399   6.310 -34.132  1.00  0.00     0.053 C 
BRANCH  10  11
ATOM     11  C   UNL     1      -7.318   6.284 -32.953  1.00  0.00     0.041 C 
ATOM     12  O   UNL     1      -6.926   6.708 -31.834  1.00  0.00    -0.550 OA
ATOM     13  O   UNL     1      -8.626   5.839 -33.100  1.00  0.00    -0.550 OA
ENDBRANCH  10  11
ENDBRANCH   9  10
ENDBRANCH   8   9
ENDBRANCH   1   8
TORSDOF 8
ENDMDL
MODEL 7
REMARK VINA RESULT:    -4.115      1.648      6.986
REMARK INTER + INTRA:          -6.237
REMARK INTER:                  -5.918
REMARK INTRA:                  -0.318
REMARK UNBOUND:                -0.197
REMARK SMILES O=C([O-])CCCCCCCC(=O)[O-]
REMARK SMILES IDX 7 1 6 2 5 3 4 4 2 5 1 6 3 7 8 8 9 9 10 10 11 11 12 12 13 13
REMARK H PARENT
REMARK Flexibility Score: inf
ROOT
ATOM      1  C   UNL     1     -14.660   2.677 -22.396  1.00  0.00     0.000 C 
ENDROOT
BRANCH   1   2
ATOM      2  C   UNL     1     -15.722   3.654 -21.869  1.00  0.00     0.000 C 
BRANCH   2   3
ATOM      3  C   UNL     1     -15.342   5.126 -22.104  1.00  0.00     0.006 C 
BRANCH   3   4
ATOM      4  C   UNL     1     -16.286   5.818 -23.097  1.00  0.00     0.053 C 
BRANCH   4   5
ATOM      5  C   UNL     1     -15.592   6.147 -24.383  1.00  0.00     0.041 C 
ATOM      6  O   UNL     1     -14.808   5.317 -24.911  1.00  0.00    -0.550 OA
ATOM      7  O   UNL     1     -15.840   7.359 -25.015  1.00  0.00    -0.550 OA
ENDBRANCH   4   5
ENDBRANCH   3   4
ENDBRANCH   2   3
ENDBRANCH   1   2
BRANCH   1   8
ATOM      8  C   UNL     1     -13.417   2.614 -21.495  1.00  0.00     0.000 C 
BRANCH   8   9
ATOM      9  C   UNL     1     -12.458   1.512 -21.961  1.00  0.00     0.006 C 
BRANCH   9  10
ATOM     10  C   UNL     1     -11.410   1.205 -20.887  1.00  0.00     0.053 C 
BRANCH  10  11
ATOM     11  C   UNL     1     -10.105   1.851 -21.228  1.00  0.00     0.041 C 
ATOM     12  O   UNL     1      -9.590   2.692 -20.444  1.00  0.00    -0.550 OA
ATOM     13  O   UNL     1      -9.431   1.488 -22.387  1.00  0.00    -0.550 OA
ENDBRANCH  10  11
ENDBRANCH   9  10
ENDBRANCH   8   9
ENDBRANCH   1   8
TORSDOF 8
ENDMDL
MODEL 8
REMARK VINA RESULT:    -4.046     13.745     15.084
REMARK INTER + INTRA:          -6.135
REMARK INTER:                  -5.430
REMARK INTRA:                  -0.705
REMARK UNBOUND:                -0.197
REMARK SMILES O=C([O-])CCCCCCCC(=O)[O-]
REMARK SMILES IDX 7 1 6 2 5 3 4 4 2 5 1 6 3 7 8 8 9 9 10 10 11 11 12 12 13 13
REMARK H PARENT
REMARK Flexibility Score: inf
ROOT
ATOM      1  C   UNL     1      -8.030   3.244 -35.841  1.00  0.00     0.000 C 
ENDROOT
BRANCH   1   2
ATOM      2  C   UNL     1      -6.497   3.303 -35.749  1.00  0.00     0.000 C 
BRANCH   2   3
ATOM      3  C   UNL     1      -5.830   3.537 -37.116  1.00  0.00     0.006 C 
BRANCH   3   4
ATOM      4  C   UNL     1      -6.437   4.734 -37.859  1.00  0.00     0.053 C 
BRANCH   4   5
ATOM      5  C   UNL     1      -6.261   6.009 -37.092  1.00  0.00     0.041 C 
ATOM      6  O   UNL     1      -5.122   6.531 -36.982  1.00  0.00    -0.550 OA
ATOM      7  O   UNL     1      -7.364   6.638 -36.528  1.00  0.00    -0.550 OA
ENDBRANCH   4   5
ENDBRANCH   3   4
ENDBRANCH   2   3
ENDBRANCH   1   2
BRANCH   1   8
ATOM      8  C   UNL     1      -8.720   3.928 -34.652  1.00  0.00     0.000 C 
BRANCH   8   9
ATOM      9  C   UNL     1      -7.687   4.448 -33.645  1.00  0.00     0.006 C 
BRANCH   9  10
ATOM     10  C   UNL     1      -8.129   5.786 -33.045  1.00  0.00     0.053 C 
BRANCH  10  11
ATOM     11  C   UNL     1      -6.942   6.649 -32.754  1.00  0.00     0.041 C 
ATOM     12  O   UNL     1      -6.905   7.341 -31.702  1.00  0.00    -0.550 OA
ATOM     13  O   UNL     1      -5.855   6.650 -33.618  1.00  0.00    -0.550 OA
ENDBRANCH  10  11
ENDBRANCH   9  10
ENDBRANCH   8   9
ENDBRANCH   1   8
TORSDOF 8
ENDMDL
MODEL 9
REMARK VINA RESULT:    -4.012      1.650      2.117
REMARK INTER + INTRA:          -6.085
REMARK INTER:                  -5.668
REMARK INTRA:                  -0.416
REMARK UNBOUND:                -0.197
REMARK SMILES O=C([O-])CCCCCCCC(=O)[O-]
REMARK SMILES IDX 7 1 6 2 5 3 4 4 2 5 1 6 3 7 8 8 9 9 10 10 11 11 12 12 13 13
REMARK H PARENT
REMARK Flexibility Score: inf
ROOT
ATOM      1  C   UNL     1     -12.712   2.439 -21.911  1.00  0.00     0.000 C 
ENDROOT
BRANCH   1   2
ATOM      2  C   UNL     1     -12.226   1.061 -21.436  1.00  0.00     0.000 C 
BRANCH   2   3
ATOM      3  C   UNL     1     -10.724   0.842 -21.690  1.00  0.00     0.006 C 
BRANCH   3   4
ATOM      4  C   UNL     1      -9.902   2.112 -21.431  1.00  0.00     0.053 C 
BRANCH   4   5
ATOM      5  C   UNL     1      -9.179   2.046 -20.121  1.00  0.00     0.041 C 
ATOM      6  O   UNL     1      -7.938   1.847 -20.090  1.00  0.00    -0.550 OA
ATOM      7  O   UNL     1      -9.875   2.237 -18.933  1.00  0.00    -0.550 OA
ENDBRANCH   4   5
ENDBRANCH   3   4
ENDBRANCH   2   3
ENDBRANCH   1   2
BRANCH   1   8
ATOM      8  C   UNL     1     -14.209   2.450 -22.257  1.00  0.00     0.000 C 
BRANCH   8   9
ATOM      9  C   UNL     1     -14.508   3.471 -23.361  1.00  0.00     0.006 C 
BRANCH   9  10
ATOM     10  C   UNL     1     -14.074   4.878 -22.941  1.00  0.00     0.053 C 
BRANCH  10  11
ATOM     11  C   UNL     1     -15.051   5.462 -21.971  1.00  0.00     0.041 C 
ATOM     12  O   UNL     1     -16.182   5.850 -22.367  1.00  0.00    -0.550 OA
ATOM     13  O   UNL     1     -14.734   5.532 -20.620  1.00  0.00    -0.550 OA
ENDBRANCH  10  11
ENDBRANCH   9  10
ENDBRANCH   8   9
ENDBRANCH   1   8
TORSDOF 8
ENDMDL
