MODEL 1
REMARK VINA RESULT:    -3.554      0.000      0.000
REMARK INTER + INTRA:          -3.975
REMARK INTER:                  -3.970
REMARK INTRA:                  -0.006
REMARK UNBOUND:                -0.006
REMARK SMILES CCCC(=O)[O-]
REMARK SMILES IDX 3 1 4 2 5 3 6 4 2 5 1 6
REMARK H PARENT
REMARK Flexibility Score: inf
ROOT
ATOM      1  C   UNL     1     -21.774  29.349  88.196  1.00  0.00     0.052 C 
ENDROOT
BRANCH   1   2
ATOM      2  C   UNL     1     -21.411  28.682  89.485  1.00  0.00     0.041 C 
ATOM      3  O   UNL     1     -20.209  28.641  89.861  1.00  0.00    -0.550 OA
ATOM      4  O   UNL     1     -22.392  28.062  90.247  1.00  0.00    -0.550 OA
ENDBRANCH   1   2
BRANCH   1   5
ATOM      5  C   UNL     1     -21.788  28.331  87.052  1.00  0.00     0.003 C 
ATOM      6  C   UNL     1     -21.865  29.028  85.696  1.00  0.00     0.004 C 
ENDBRANCH   1   5
TORSDOF 2
ENDMDL
MODEL 2
REMARK VINA RESULT:    -3.419      9.504      9.985
REMARK INTER + INTRA:          -3.824
REMARK INTER:                  -3.781
REMARK INTRA:                  -0.043
REMARK UNBOUND:                -0.006
REMARK SMILES CCCC(=O)[O-]
REMARK SMILES IDX 3 1 4 2 5 3 6 4 2 5 1 6
REMARK H PARENT
REMARK Flexibility Score: inf
ROOT
ATOM      1  C   UNL     1     -17.342  37.155  83.491  1.00  0.00     0.052 C 
ENDROOT
BRANCH   1   2
ATOM      2  C   UNL     1     -16.920  35.784  83.914  1.00  0.00     0.041 C 
ATOM      3  O   UNL     1     -16.850  34.852  83.068  1.00  0.00    -0.550 OA
ATOM      4  O   UNL     1     -16.654  35.520  85.251  1.00  0.00    -0.550 OA
ENDBRANCH   1   2
BRANCH   1   5
ATOM      5  C   UNL     1     -18.865  37.230  83.357  1.00  0.00     0.003 C 
ATOM      6  C   UNL     1     -19.504  37.764  84.636  1.00  0.00     0.004 C 
ENDBRANCH   1   5
TORSDOF 2
ENDMDL
MODEL 3
REMARK VINA RESULT:    -3.407     16.153     16.680
REMARK INTER + INTRA:          -3.811
REMARK INTER:                  -3.752
REMARK INTRA:                  -0.059
REMARK UNBOUND:                -0.006
REMARK SMILES CCCC(=O)[O-]
REMARK SMILES IDX 3 1 4 2 5 3 6 4 2 5 1 6
REMARK H PARENT
REMARK Flexibility Score: inf
ROOT
ATOM      1  C   UNL     1     -27.002  43.692  91.235  1.00  0.00     0.052 C 
ENDROOT
BRANCH   1   2
ATOM      2  C   UNL     1     -28.160  43.005  90.586  1.00  0.00     0.041 C 
ATOM      3  O   UNL     1     -29.173  42.689  91.266  1.00  0.00    -0.550 OA
ATOM      4  O   UNL     1     -28.104  42.668  89.240  1.00  0.00    -0.550 OA
ENDBRANCH   1   2
BRANCH   1   5
ATOM      5  C   UNL     1     -26.484  44.826  90.347  1.00  0.00     0.003 C 
ATOM      6  C   UNL     1     -27.356  46.071  90.480  1.00  0.00     0.004 C 
ENDBRANCH   1   5
TORSDOF 2
ENDMDL
MODEL 4
REMARK VINA RESULT:    -3.387      2.637      3.424
REMARK INTER + INTRA:          -3.788
REMARK INTER:                  -3.752
REMARK INTRA:                  -0.036
REMARK UNBOUND:                -0.006
REMARK SMILES CCCC(=O)[O-]
REMARK SMILES IDX 3 1 4 2 5 3 6 4 2 5 1 6
REMARK H PARENT
REMARK Flexibility Score: inf
ROOT
ATOM      1  C   UNL     1     -21.649  29.279  87.792  1.00  0.00     0.052 C 
ENDROOT
BRANCH   1   2
ATOM      2  C   UNL     1     -21.833  28.767  86.399  1.00  0.00     0.041 C 
ATOM      3  O   UNL     1     -21.406  29.431  85.417  1.00  0.00    -0.550 OA
ATOM      4  O   UNL     1     -22.522  27.582  86.179  1.00  0.00    -0.550 OA
ENDBRANCH   1   2
BRANCH   1   5
ATOM      5  C   UNL     1     -21.403  28.119  88.761  1.00  0.00     0.003 C 
ATOM      6  C   UNL     1     -22.430  28.118  89.889  1.00  0.00     0.004 C 
ENDBRANCH   1   5
TORSDOF 2
ENDMDL
MODEL 5
REMARK VINA RESULT:    -3.295     15.776     16.307
REMARK INTER + INTRA:          -3.685
REMARK INTER:                  -3.623
REMARK INTRA:                  -0.062
REMARK UNBOUND:                -0.006
REMARK SMILES CCCC(=O)[O-]
REMARK SMILES IDX 3 1 4 2 5 3 6 4 2 5 1 6
REMARK H PARENT
REMARK Flexibility Score: inf
ROOT
ATOM      1  C   UNL     1     -27.648  44.514  90.549  1.00  0.00     0.052 C 
ENDROOT
BRANCH   1   2
ATOM      2  C   UNL     1     -28.372  43.230  90.299  1.00  0.00     0.041 C 
ATOM      3  O   UNL     1     -28.309  42.676  89.169  1.00  0.00    -0.550 OA
ATOM      4  O   UNL     1     -29.156  42.668  91.298  1.00  0.00    -0.550 OA
ENDBRANCH   1   2
BRANCH   1   5
ATOM      5  C   UNL     1     -26.135  44.281  90.575  1.00  0.00     0.003 C 
ATOM      6  C   UNL     1     -25.743  43.336  91.707  1.00  0.00     0.004 C 
ENDBRANCH   1   5
TORSDOF 2
ENDMDL
MODEL 6
REMARK VINA RESULT:    -3.287      2.125      3.243
REMARK INTER + INTRA:          -3.677
REMARK INTER:                  -3.670
REMARK INTRA:                  -0.008
REMARK UNBOUND:                -0.006
REMARK SMILES CCCC(=O)[O-]
REMARK SMILES IDX 3 1 4 2 5 3 6 4 2 5 1 6
REMARK H PARENT
REMARK Flexibility Score: inf
ROOT
ATOM      1  C   UNL     1     -20.912  29.573  88.803  1.00  0.00     0.052 C 
ENDROOT
BRANCH   1   2
ATOM      2  C   UNL     1     -21.718  28.453  88.226  1.00  0.00     0.041 C 
ATOM      3  O   UNL     1     -22.215  27.576  88.981  1.00  0.00    -0.550 OA
ATOM      4  O   UNL     1     -21.880  28.349  86.851  1.00  0.00    -0.550 OA
ENDBRANCH   1   2
BRANCH   1   5
ATOM      5  C   UNL     1     -19.892  29.036  89.811  1.00  0.00     0.003 C 
ATOM      6  C   UNL     1     -18.941  30.137  90.271  1.00  0.00     0.004 C 
ENDBRANCH   1   5
TORSDOF 2
ENDMDL
MODEL 7
REMARK VINA RESULT:    -3.163     16.283     16.697
REMARK INTER + INTRA:          -3.538
REMARK INTER:                  -3.505
REMARK INTRA:                  -0.033
REMARK UNBOUND:                -0.006
REMARK SMILES CCCC(=O)[O-]
REMARK SMILES IDX 3 1 4 2 5 3 6 4 2 5 1 6
REMARK H PARENT
REMARK Flexibility Score: inf
ROOT
ATOM      1  C   UNL     1     -18.253  44.603  85.331  1.00  0.00     0.052 C 
ENDROOT
BRANCH   1   2
ATOM      2  C   UNL     1     -19.575  43.903  85.327  1.00  0.00     0.041 C 
ATOM      3  O   UNL     1     -19.671  42.727  85.769  1.00  0.00    -0.550 OA
ATOM      4  O   UNL     1     -20.692  44.528  84.789  1.00  0.00    -0.550 OA
ENDBRANCH   1   2
BRANCH   1   5
ATOM      5  C   UNL     1     -18.028  45.331  84.003  1.00  0.00     0.003 C 
ATOM      6  C   UNL     1     -17.696  46.803  84.232  1.00  0.00     0.004 C 
ENDBRANCH   1   5
TORSDOF 2
ENDMDL
MODEL 8
REMARK VINA RESULT:    -3.143      9.745     10.263
REMARK INTER + INTRA:          -3.516
REMARK INTER:                  -3.505
REMARK INTRA:                  -0.011
REMARK UNBOUND:                -0.006
REMARK SMILES CCCC(=O)[O-]
REMARK SMILES IDX 3 1 4 2 5 3 6 4 2 5 1 6
REMARK H PARENT
REMARK Flexibility Score: inf
ROOT
ATOM      1  C   UNL     1     -18.024  36.398  84.718  1.00  0.00     0.052 C 
ENDROOT
BRANCH   1   2
ATOM      2  C   UNL     1     -19.147  37.296  84.307  1.00  0.00     0.041 C 
ATOM      3  O   UNL     1     -19.530  37.325  83.107  1.00  0.00    -0.550 OA
ATOM      4  O   UNL     1     -19.738  38.140  85.238  1.00  0.00    -0.550 OA
ENDBRANCH   1   2
BRANCH   1   5
ATOM      5  C   UNL     1     -17.206  35.969  83.497  1.00  0.00     0.003 C 
ATOM      6  C   UNL     1     -16.127  36.998  83.169  1.00  0.00     0.004 C 
ENDBRANCH   1   5
TORSDOF 2
ENDMDL
MODEL 9
REMARK VINA RESULT:    -3.129     15.932     16.308
REMARK INTER + INTRA:          -3.500
REMARK INTER:                  -3.451
REMARK INTRA:                  -0.049
REMARK UNBOUND:                -0.006
REMARK SMILES CCCC(=O)[O-]
REMARK SMILES IDX 3 1 4 2 5 3 6 4 2 5 1 6
REMARK H PARENT
REMARK Flexibility Score: inf
ROOT
ATOM      1  C   UNL     1     -27.449  43.207  91.539  1.00  0.00     0.052 C 
ENDROOT
BRANCH   1   2
ATOM      2  C   UNL     1     -26.468  44.165  90.942  1.00  0.00     0.041 C 
ATOM      3  O   UNL     1     -25.287  43.797  90.702  1.00  0.00    -0.550 OA
ATOM      4  O   UNL     1     -26.841  45.480  90.697  1.00  0.00    -0.550 OA
ENDBRANCH   1   2
BRANCH   1   5
ATOM      5  C   UNL     1     -28.653  43.026  90.612  1.00  0.00     0.003 C 
ATOM      6  C   UNL     1     -28.211  42.627  89.207  1.00  0.00     0.004 C 
ENDBRANCH   1   5
TORSDOF 2
ENDMDL
