MODEL 1
REMARK VINA RESULT:    -4.663      0.000      0.000
REMARK INTER + INTRA:          -7.548
REMARK INTER:                  -7.117
REMARK INTRA:                  -0.431
REMARK UNBOUND:                -0.431
REMARK SMILES CCCCCCCCCC=CC(=O)[O-]
REMARK SMILES IDX 7 1 8 2 9 3 10 4 11 5 12 6 13 7 14 8 6 9 5 10 4 11 3 12 2 13
REMARK SMILES IDX 1 14
REMARK H PARENT
REMARK Flexibility Score: inf
ROOT
ATOM      1  C   UNL     1       2.723  19.901  32.515  1.00  0.00     0.000 C 
ENDROOT
BRANCH   1   2
ATOM      2  C   UNL     1       3.791  19.528  33.558  1.00  0.00     0.004 C 
BRANCH   2   3
ATOM      3  C   UNL     1       3.606  18.094  34.083  1.00  0.00     0.027 C 
BRANCH   3   4
ATOM      4  C   UNL     1       4.731  17.668  34.990  1.00  0.00    -0.025 C 
ATOM      5  C   UNL     1       5.962  17.297  34.602  1.00  0.00     0.020 C 
BRANCH   5   6
ATOM      6  C   UNL     1       6.448  17.177  33.211  1.00  0.00     0.064 C 
ATOM      7  O   UNL     1       6.190  16.128  32.565  1.00  0.00    -0.545 OA
ATOM      8  O   UNL     1       7.151  18.195  32.582  1.00  0.00    -0.545 OA
ENDBRANCH   5   6
ENDBRANCH   3   4
ENDBRANCH   2   3
ENDBRANCH   1   2
BRANCH   1   9
ATOM      9  C   UNL     1       1.492  20.572  33.144  1.00  0.00     0.000 C 
BRANCH   9  10
ATOM     10  C   UNL     1       0.365  20.815  32.124  1.00  0.00     0.000 C 
BRANCH  10  11
ATOM     11  C   UNL     1      -0.568  21.963  32.540  1.00  0.00    -0.000 C 
BRANCH  11  12
ATOM     12  C   UNL     1       0.113  22.960  33.493  1.00  0.00    -0.000 C 
BRANCH  12  13
ATOM     13  C   UNL     1      -0.841  23.478  34.582  1.00  0.00    -0.003 C 
ATOM     14  C   UNL     1      -1.902  24.430  34.032  1.00  0.00     0.004 C 
ENDBRANCH  12  13
ENDBRANCH  11  12
ENDBRANCH  10  11
ENDBRANCH   9  10
ENDBRANCH   1   9
TORSDOF 9
ENDMDL
MODEL 2
REMARK VINA RESULT:    -4.596      0.857      1.535
REMARK INTER + INTRA:          -7.445
REMARK INTER:                  -6.779
REMARK INTRA:                  -0.666
REMARK UNBOUND:                -0.431
REMARK SMILES CCCCCCCCCC=CC(=O)[O-]
REMARK SMILES IDX 7 1 8 2 9 3 10 4 11 5 12 6 13 7 14 8 6 9 5 10 4 11 3 12 2 13
REMARK SMILES IDX 1 14
REMARK H PARENT
REMARK Flexibility Score: inf
ROOT
ATOM      1  C   UNL     1       3.648  19.476  33.029  1.00  0.00     0.000 C 
ENDROOT
BRANCH   1   2
ATOM      2  C   UNL     1       3.881  18.908  34.440  1.00  0.00     0.004 C 
BRANCH   2   3
ATOM      3  C   UNL     1       4.114  17.388  34.417  1.00  0.00     0.027 C 
BRANCH   3   4
ATOM      4  C   UNL     1       5.419  17.000  35.063  1.00  0.00    -0.025 C 
ATOM      5  C   UNL     1       6.598  16.853  34.438  1.00  0.00     0.020 C 
BRANCH   5   6
ATOM      6  C   UNL     1       6.848  16.986  32.987  1.00  0.00     0.064 C 
ATOM      7  O   UNL     1       7.127  18.121  32.520  1.00  0.00    -0.545 OA
ATOM      8  O   UNL     1       6.818  15.896  32.127  1.00  0.00    -0.545 OA
ENDBRANCH   5   6
ENDBRANCH   3   4
ENDBRANCH   2   3
ENDBRANCH   1   2
BRANCH   1   9
ATOM      9  C   UNL     1       2.304  20.210  32.902  1.00  0.00     0.000 C 
BRANCH   9  10
ATOM     10  C   UNL     1       1.376  19.955  34.104  1.00  0.00     0.000 C 
BRANCH  10  11
ATOM     11  C   UNL     1       0.434  21.138  34.381  1.00  0.00    -0.000 C 
BRANCH  11  12
ATOM     12  C   UNL     1      -0.125  21.761  33.091  1.00  0.00    -0.000 C 
BRANCH  12  13
ATOM     13  C   UNL     1      -0.591  23.212  33.292  1.00  0.00    -0.003 C 
ATOM     14  C   UNL     1      -0.899  23.535  34.754  1.00  0.00     0.004 C 
ENDBRANCH  12  13
ENDBRANCH  11  12
ENDBRANCH  10  11
ENDBRANCH   9  10
ENDBRANCH   1   9
TORSDOF 9
ENDMDL
MODEL 3
REMARK VINA RESULT:    -4.572      3.798      5.679
REMARK INTER + INTRA:          -7.409
REMARK INTER:                  -6.790
REMARK INTRA:                  -0.619
REMARK UNBOUND:                -0.431
REMARK SMILES CCCCCCCCCC=CC(=O)[O-]
REMARK SMILES IDX 7 1 8 2 9 3 10 4 11 5 12 6 13 7 14 8 6 9 5 10 4 11 3 12 2 13
REMARK SMILES IDX 1 14
REMARK H PARENT
REMARK Flexibility Score: inf
ROOT
ATOM      1  C   UNL     1      -0.346  20.676  31.255  1.00  0.00     0.000 C 
ENDROOT
BRANCH   1   2
ATOM      2  C   UNL     1      -0.677  21.872  32.164  1.00  0.00     0.004 C 
BRANCH   2   3
ATOM      3  C   UNL     1       0.310  21.994  33.337  1.00  0.00     0.027 C 
BRANCH   3   4
ATOM      4  C   UNL     1       0.321  20.764  34.206  1.00  0.00    -0.025 C 
ATOM      5  C   UNL     1       1.379  19.971  34.442  1.00  0.00     0.020 C 
BRANCH   5   6
ATOM      6  C   UNL     1       2.730  20.108  33.856  1.00  0.00     0.064 C 
ATOM      7  O   UNL     1       3.686  20.440  34.604  1.00  0.00    -0.545 OA
ATOM      8  O   UNL     1       2.985  19.851  32.516  1.00  0.00    -0.545 OA
ENDBRANCH   5   6
ENDBRANCH   3   4
ENDBRANCH   2   3
ENDBRANCH   1   2
BRANCH   1   9
ATOM      9  C   UNL     1      -1.374  20.488  30.129  1.00  0.00     0.000 C 
BRANCH   9  10
ATOM     10  C   UNL     1      -1.215  19.142  29.400  1.00  0.00     0.000 C 
BRANCH  10  11
ATOM     11  C   UNL     1      -2.250  18.952  28.280  1.00  0.00    -0.000 C 
BRANCH  11  12
ATOM     12  C   UNL     1      -3.085  20.219  28.029  1.00  0.00    -0.000 C 
BRANCH  12  13
ATOM     13  C   UNL     1      -2.848  20.813  26.631  1.00  0.00    -0.003 C 
ATOM     14  C   UNL     1      -1.372  20.821  26.236  1.00  0.00     0.004 C 
ENDBRANCH  12  13
ENDBRANCH  11  12
ENDBRANCH  10  11
ENDBRANCH   9  10
ENDBRANCH   1   9
TORSDOF 9
ENDMDL
MODEL 4
REMARK VINA RESULT:    -4.527     18.214     20.145
REMARK INTER + INTRA:          -7.340
REMARK INTER:                  -6.979
REMARK INTRA:                  -0.361
REMARK UNBOUND:                -0.431
REMARK SMILES CCCCCCCCCC=CC(=O)[O-]
REMARK SMILES IDX 7 1 8 2 9 3 10 4 11 5 12 6 13 7 14 8 6 9 5 10 4 11 3 12 2 13
REMARK SMILES IDX 1 14
REMARK H PARENT
REMARK Flexibility Score: inf
ROOT
ATOM      1  C   UNL     1       0.611   8.480  15.886  1.00  0.00     0.000 C 
ENDROOT
BRANCH   1   2
ATOM      2  C   UNL     1       0.531   9.344  17.156  1.00  0.00     0.004 C 
BRANCH   2   3
ATOM      3  C   UNL     1      -0.918   9.534  17.633  1.00  0.00     0.027 C 
BRANCH   3   4
ATOM      4  C   UNL     1      -1.078  10.749  18.509  1.00  0.00    -0.025 C 
ATOM      5  C   UNL     1      -1.637  10.776  19.730  1.00  0.00     0.020 C 
BRANCH   5   6
ATOM      6  C   UNL     1      -2.259   9.637  20.439  1.00  0.00     0.064 C 
ATOM      7  O   UNL     1      -3.406   9.255  20.087  1.00  0.00    -0.545 OA
ATOM      8  O   UNL     1      -1.608   8.954  21.457  1.00  0.00    -0.545 OA
ENDBRANCH   5   6
ENDBRANCH   3   4
ENDBRANCH   2   3
ENDBRANCH   1   2
BRANCH   1   9
ATOM      9  C   UNL     1       1.987   8.555  15.206  1.00  0.00     0.000 C 
BRANCH   9  10
ATOM     10  C   UNL     1       2.993   9.406  16.001  1.00  0.00     0.000 C 
BRANCH  10  11
ATOM     11  C   UNL     1       4.121   9.962  15.118  1.00  0.00    -0.000 C 
BRANCH  11  12
ATOM     12  C   UNL     1       5.437  10.151  15.892  1.00  0.00    -0.000 C 
BRANCH  12  13
ATOM     13  C   UNL     1       6.352  11.205  15.248  1.00  0.00    -0.003 C 
ATOM     14  C   UNL     1       7.312  11.845  16.250  1.00  0.00     0.004 C 
ENDBRANCH  12  13
ENDBRANCH  11  12
ENDBRANCH  10  11
ENDBRANCH   9  10
ENDBRANCH   1   9
TORSDOF 9
ENDMDL
MODEL 5
REMARK VINA RESULT:    -4.426      5.008      7.788
REMARK INTER + INTRA:          -7.185
REMARK INTER:                  -6.759
REMARK INTRA:                  -0.426
REMARK UNBOUND:                -0.431
REMARK SMILES CCCCCCCCCC=CC(=O)[O-]
REMARK SMILES IDX 7 1 8 2 9 3 10 4 11 5 12 6 13 7 14 8 6 9 5 10 4 11 3 12 2 13
REMARK SMILES IDX 1 14
REMARK H PARENT
REMARK Flexibility Score: inf
ROOT
ATOM      1  C   UNL     1      -0.513  21.782  32.135  1.00  0.00     0.000 C 
ENDROOT
BRANCH   1   2
ATOM      2  C   UNL     1      -0.528  20.498  31.287  1.00  0.00     0.004 C 
BRANCH   2   3
ATOM      3  C   UNL     1      -1.238  20.707  29.939  1.00  0.00     0.027 C 
BRANCH   3   4
ATOM      4  C   UNL     1      -1.558  19.405  29.253  1.00  0.00    -0.025 C 
ATOM      5  C   UNL     1      -1.952  19.259  27.977  1.00  0.00     0.020 C 
BRANCH   5   6
ATOM      6  C   UNL     1      -2.205  20.343  27.004  1.00  0.00     0.064 C 
ATOM      7  O   UNL     1      -3.338  20.892  26.987  1.00  0.00    -0.545 OA
ATOM      8  O   UNL     1      -1.226  20.800  26.133  1.00  0.00    -0.545 OA
ENDBRANCH   5   6
ENDBRANCH   3   4
ENDBRANCH   2   3
ENDBRANCH   1   2
BRANCH   1   9
ATOM      9  C   UNL     1       0.568  21.754  33.228  1.00  0.00     0.000 C 
BRANCH   9  10
ATOM     10  C   UNL     1       1.099  20.335  33.498  1.00  0.00     0.000 C 
BRANCH  10  11
ATOM     11  C   UNL     1       2.551  20.337  34.004  1.00  0.00    -0.000 C 
BRANCH  11  12
ATOM     12  C   UNL     1       3.526  19.705  32.996  1.00  0.00    -0.000 C 
BRANCH  12  13
ATOM     13  C   UNL     1       4.260  18.485  33.574  1.00  0.00    -0.003 C 
ATOM     14  C   UNL     1       5.501  18.106  32.766  1.00  0.00     0.004 C 
ENDBRANCH  12  13
ENDBRANCH  11  12
ENDBRANCH  10  11
ENDBRANCH   9  10
ENDBRANCH   1   9
TORSDOF 9
ENDMDL
MODEL 6
REMARK VINA RESULT:    -4.329     18.185     19.463
REMARK INTER + INTRA:          -7.037
REMARK INTER:                  -6.754
REMARK INTRA:                  -0.283
REMARK UNBOUND:                -0.431
REMARK SMILES CCCCCCCCCC=CC(=O)[O-]
REMARK SMILES IDX 7 1 8 2 9 3 10 4 11 5 12 6 13 7 14 8 6 9 5 10 4 11 3 12 2 13
REMARK SMILES IDX 1 14
REMARK H PARENT
REMARK Flexibility Score: inf
ROOT
ATOM      1  C   UNL     1       2.383   9.204  16.537  1.00  0.00     0.000 C 
ENDROOT
BRANCH   1   2
ATOM      2  C   UNL     1       3.389   9.670  15.470  1.00  0.00     0.004 C 
BRANCH   2   3
ATOM      3  C   UNL     1       4.772   9.966  16.075  1.00  0.00     0.027 C 
BRANCH   3   4
ATOM      4  C   UNL     1       5.893   9.656  15.118  1.00  0.00    -0.025 C 
ATOM      5  C   UNL     1       7.165  10.076  15.225  1.00  0.00     0.020 C 
BRANCH   5   6
ATOM      6  C   UNL     1       7.711  10.971  16.268  1.00  0.00     0.064 C 
ATOM      7  O   UNL     1       7.947  10.499  17.410  1.00  0.00    -0.545 OA
ATOM      8  O   UNL     1       8.004  12.305  16.019  1.00  0.00    -0.545 OA
ENDBRANCH   5   6
ENDBRANCH   3   4
ENDBRANCH   2   3
ENDBRANCH   1   2
BRANCH   1   9
ATOM      9  C   UNL     1       0.972   8.995  15.964  1.00  0.00     0.000 C 
BRANCH   9  10
ATOM     10  C   UNL     1      -0.079   8.744  17.060  1.00  0.00     0.000 C 
BRANCH  10  11
ATOM     11  C   UNL     1      -0.418  10.016  17.853  1.00  0.00    -0.000 C 
BRANCH  11  12
ATOM     12  C   UNL     1      -1.704   9.868  18.684  1.00  0.00    -0.000 C 
BRANCH  12  13
ATOM     13  C   UNL     1      -1.561  10.454  20.098  1.00  0.00    -0.003 C 
ATOM     14  C   UNL     1      -1.497   9.376  21.180  1.00  0.00     0.004 C 
ENDBRANCH  12  13
ENDBRANCH  11  12
ENDBRANCH  10  11
ENDBRANCH   9  10
ENDBRANCH   1   9
TORSDOF 9
ENDMDL
MODEL 7
REMARK VINA RESULT:    -4.277     18.148     19.573
REMARK INTER + INTRA:          -6.959
REMARK INTER:                  -6.583
REMARK INTRA:                  -0.376
REMARK UNBOUND:                -0.431
REMARK SMILES CCCCCCCCCC=CC(=O)[O-]
REMARK SMILES IDX 7 1 8 2 9 3 10 4 11 5 12 6 13 7 14 8 6 9 5 10 4 11 3 12 2 13
REMARK SMILES IDX 1 14
REMARK H PARENT
REMARK Flexibility Score: inf
ROOT
ATOM      1  C   UNL     1       3.643  10.079  15.292  1.00  0.00     0.000 C 
ENDROOT
BRANCH   1   2
ATOM      2  C   UNL     1       5.117   9.670  15.461  1.00  0.00     0.004 C 
BRANCH   2   3
ATOM      3  C   UNL     1       5.869  10.610  16.419  1.00  0.00     0.027 C 
BRANCH   3   4
ATOM      4  C   UNL     1       6.762  11.577  15.687  1.00  0.00    -0.025 C 
ATOM      5  C   UNL     1       7.936  12.059  16.128  1.00  0.00     0.020 C 
BRANCH   5   6
ATOM      6  C   UNL     1       8.563  11.786  17.439  1.00  0.00     0.064 C 
ATOM      7  O   UNL     1       8.548  12.686  18.319  1.00  0.00    -0.545 OA
ATOM      8  O   UNL     1       9.136  10.559  17.745  1.00  0.00    -0.545 OA
ENDBRANCH   5   6
ENDBRANCH   3   4
ENDBRANCH   2   3
ENDBRANCH   1   2
BRANCH   1   9
ATOM      9  C   UNL     1       2.712   9.349  16.273  1.00  0.00     0.000 C 
BRANCH   9  10
ATOM     10  C   UNL     1       1.632   8.519  15.557  1.00  0.00     0.000 C 
BRANCH  10  11
ATOM     11  C   UNL     1       0.302   8.494  16.328  1.00  0.00    -0.000 C 
BRANCH  11  12
ATOM     12  C   UNL     1       0.196   9.630  17.358  1.00  0.00    -0.000 C 
BRANCH  12  13
ATOM     13  C   UNL     1      -1.205   9.730  17.983  1.00  0.00    -0.003 C 
ATOM     14  C   UNL     1      -1.357  10.943  18.899  1.00  0.00     0.004 C 
ENDBRANCH  12  13
ENDBRANCH  11  12
ENDBRANCH  10  11
ENDBRANCH   9  10
ENDBRANCH   1   9
TORSDOF 9
ENDMDL
MODEL 8
REMARK VINA RESULT:    -4.195      1.546      2.378
REMARK INTER + INTRA:          -6.834
REMARK INTER:                  -6.456
REMARK INTRA:                  -0.378
REMARK UNBOUND:                -0.431
REMARK SMILES CCCCCCCCCC=CC(=O)[O-]
REMARK SMILES IDX 7 1 8 2 9 3 10 4 11 5 12 6 13 7 14 8 6 9 5 10 4 11 3 12 2 13
REMARK SMILES IDX 1 14
REMARK H PARENT
REMARK Flexibility Score: inf
ROOT
ATOM      1  C   UNL     1       1.877  18.938  34.245  1.00  0.00     0.000 C 
ENDROOT
BRANCH   1   2
ATOM      2  C   UNL     1       2.366  17.733  35.068  1.00  0.00     0.004 C 
BRANCH   2   3
ATOM      3  C   UNL     1       3.819  17.357  34.729  1.00  0.00     0.027 C 
BRANCH   3   4
ATOM      4  C   UNL     1       4.356  18.143  33.561  1.00  0.00    -0.025 C 
ATOM      5  C   UNL     1       5.462  17.855  32.856  1.00  0.00     0.020 C 
BRANCH   5   6
ATOM      6  C   UNL     1       6.407  16.748  33.113  1.00  0.00     0.064 C 
ATOM      7  O   UNL     1       6.800  16.047  32.145  1.00  0.00    -0.545 OA
ATOM      8  O   UNL     1       6.902  16.477  34.382  1.00  0.00    -0.545 OA
ENDBRANCH   5   6
ENDBRANCH   3   4
ENDBRANCH   2   3
ENDBRANCH   1   2
BRANCH   1   9
ATOM      9  C   UNL     1       1.695  20.201  35.101  1.00  0.00     0.000 C 
BRANCH   9  10
ATOM     10  C   UNL     1       0.291  20.816  34.957  1.00  0.00     0.000 C 
BRANCH  10  11
ATOM     11  C   UNL     1       0.325  22.226  34.347  1.00  0.00    -0.000 C 
BRANCH  11  12
ATOM     12  C   UNL     1      -0.332  22.282  32.957  1.00  0.00    -0.000 C 
BRANCH  12  13
ATOM     13  C   UNL     1      -0.061  21.017  32.127  1.00  0.00    -0.003 C 
ATOM     14  C   UNL     1      -0.901  20.958  30.851  1.00  0.00     0.004 C 
ENDBRANCH  12  13
ENDBRANCH  11  12
ENDBRANCH  10  11
ENDBRANCH   9  10
ENDBRANCH   1   9
TORSDOF 9
ENDMDL
