MODEL 1
REMARK VINA RESULT:    -4.314      0.000      0.000
REMARK INTER + INTRA:          -7.307
REMARK INTER:                  -5.827
REMARK INTRA:                  -1.480
REMARK UNBOUND:                -1.480
REMARK SMILES CC(=O)CCC=C(C)CCC=C(C)C
REMARK SMILES IDX 7 1 6 2 8 3 9 4 10 5 11 6 13 7 12 8 14 9 5 10 4 11 2 12 3 13
REMARK SMILES IDX 1 14
REMARK H PARENT
REMARK Flexibility Score: inf
ROOT
ATOM      1  C   UNL     1       7.038 -18.075  22.120  1.00  0.00    -0.077 C 
ATOM      2  C   UNL     1       7.157 -16.731  22.039  1.00  0.00    -0.028 C 
ATOM      3  C   UNL     1       7.555 -18.912  20.978  1.00  0.00     0.039 C 
ENDROOT
BRANCH   1   4
ATOM      4  C   UNL     1       6.389 -18.771  23.304  1.00  0.00     0.034 C 
BRANCH   4   5
ATOM      5  C   UNL     1       7.388 -19.648  24.075  1.00  0.00     0.032 C 
BRANCH   5   6
ATOM      6  C   UNL     1       8.148 -18.858  25.114  1.00  0.00    -0.028 C 
ATOM      7  C   UNL     1      10.075 -17.733  26.140  1.00  0.00     0.039 C 
ATOM      8  C   UNL     1       9.438 -18.474  24.994  1.00  0.00    -0.080 C 
ATOM      9  C   UNL     1      10.244 -18.750  23.746  1.00  0.00     0.039 C 
ENDBRANCH   5   6
ENDBRANCH   4   5
ENDBRANCH   1   4
BRANCH   2  10
ATOM     10  C   UNL     1       6.714 -15.780  23.125  1.00  0.00     0.035 C 
BRANCH  10  11
ATOM     11  C   UNL     1       7.658 -14.575  23.227  1.00  0.00     0.079 C 
BRANCH  11  12
ATOM     12  C   UNL     1       8.856 -14.761  24.136  1.00  0.00     0.130 C 
ATOM     13  O   UNL     1       8.652 -14.811  25.340  1.00  0.00    -0.300 OA
ATOM     14  C   UNL     1      10.281 -14.888  23.662  1.00  0.00     0.087 C 
ENDBRANCH  11  12
ENDBRANCH  10  11
ENDBRANCH   2  10
TORSDOF 6
ENDMDL
MODEL 2
REMARK VINA RESULT:    -4.260      1.360      3.543
REMARK INTER + INTRA:          -7.234
REMARK INTER:                  -5.638
REMARK INTRA:                  -1.596
REMARK UNBOUND:                -1.480
REMARK SMILES CC(=O)CCC=C(C)CCC=C(C)C
REMARK SMILES IDX 7 1 6 2 8 3 9 4 10 5 11 6 13 7 12 8 14 9 5 10 4 11 2 12 3 13
REMARK SMILES IDX 1 14
REMARK H PARENT
REMARK Flexibility Score: inf
ROOT
ATOM      1  C   UNL     1       7.678 -18.605  25.728  1.00  0.00    -0.077 C 
ATOM      2  C   UNL     1       9.017 -18.520  25.885  1.00  0.00    -0.028 C 
ATOM      3  C   UNL     1       7.039 -19.971  25.745  1.00  0.00     0.039 C 
ENDROOT
BRANCH   1   4
ATOM      4  C   UNL     1       6.796 -17.386  25.517  1.00  0.00     0.034 C 
BRANCH   4   5
ATOM      5  C   UNL     1       6.091 -17.414  24.152  1.00  0.00     0.032 C 
BRANCH   5   6
ATOM      6  C   UNL     1       6.919 -16.750  23.077  1.00  0.00    -0.028 C 
ATOM      7  C   UNL     1       8.446 -16.611  21.158  1.00  0.00     0.039 C 
ATOM      8  C   UNL     1       7.625 -17.413  22.135  1.00  0.00    -0.080 C 
ATOM      9  C   UNL     1       7.599 -18.920  22.025  1.00  0.00     0.039 C 
ENDBRANCH   5   6
ENDBRANCH   4   5
ENDBRANCH   1   4
BRANCH   2  10
ATOM     10  C   UNL     1       9.778 -17.215  25.922  1.00  0.00     0.035 C 
BRANCH  10  11
ATOM     11  C   UNL     1      10.527 -16.972  24.606  1.00  0.00     0.079 C 
BRANCH  11  12
ATOM     12  C   UNL     1      10.444 -15.560  24.061  1.00  0.00     0.130 C 
ATOM     13  O   UNL     1       9.578 -14.827  24.515  1.00  0.00    -0.300 OA
ATOM     14  C   UNL     1      11.353 -14.996  22.998  1.00  0.00     0.087 C 
ENDBRANCH  11  12
ENDBRANCH  10  11
ENDBRANCH   2  10
TORSDOF 6
ENDMDL
MODEL 3
REMARK VINA RESULT:    -4.256      1.689      3.936
REMARK INTER + INTRA:          -7.228
REMARK INTER:                  -6.114
REMARK INTRA:                  -1.114
REMARK UNBOUND:                -1.480
REMARK SMILES CC(=O)CCC=C(C)CCC=C(C)C
REMARK SMILES IDX 7 1 6 2 8 3 9 4 10 5 11 6 13 7 12 8 14 9 5 10 4 11 2 12 3 13
REMARK SMILES IDX 1 14
REMARK H PARENT
REMARK Flexibility Score: inf
ROOT
ATOM      1  C   UNL     1       7.427 -16.840  21.914  1.00  0.00    -0.077 C 
ATOM      2  C   UNL     1       7.297 -18.148  22.228  1.00  0.00    -0.028 C 
ATOM      3  C   UNL     1       8.358 -16.461  20.790  1.00  0.00     0.039 C 
ENDROOT
BRANCH   1   4
ATOM      4  C   UNL     1       6.689 -15.741  22.657  1.00  0.00     0.034 C 
BRANCH   4   5
ATOM      5  C   UNL     1       7.653 -14.777  23.366  1.00  0.00     0.032 C 
BRANCH   5   6
ATOM      6  C   UNL     1       8.338 -15.430  24.543  1.00  0.00    -0.028 C 
ATOM      7  C   UNL     1      10.200 -16.352  25.853  1.00  0.00     0.039 C 
ATOM      8  C   UNL     1       9.669 -15.640  24.636  1.00  0.00    -0.080 C 
ATOM      9  C   UNL     1      10.632 -15.169  23.570  1.00  0.00     0.039 C 
ENDBRANCH   5   6
ENDBRANCH   4   5
ENDBRANCH   1   4
BRANCH   2  10
ATOM     10  C   UNL     1       6.374 -18.666  23.305  1.00  0.00     0.035 C 
BRANCH  10  11
ATOM     11  C   UNL     1       7.040 -19.786  24.115  1.00  0.00     0.079 C 
BRANCH  11  12
ATOM     12  C   UNL     1       7.022 -19.601  25.620  1.00  0.00     0.130 C 
ATOM     13  O   UNL     1       7.332 -18.504  26.060  1.00  0.00    -0.300 OA
ATOM     14  C   UNL     1       6.650 -20.674  26.611  1.00  0.00     0.087 C 
ENDBRANCH  11  12
ENDBRANCH  10  11
ENDBRANCH   2  10
TORSDOF 6
ENDMDL
MODEL 4
REMARK VINA RESULT:    -4.199      1.647      3.037
REMARK INTER + INTRA:          -7.152
REMARK INTER:                  -5.421
REMARK INTRA:                  -1.731
REMARK UNBOUND:                -1.480
REMARK SMILES CC(=O)CCC=C(C)CCC=C(C)C
REMARK SMILES IDX 7 1 6 2 8 3 9 4 10 5 11 6 13 7 12 8 14 9 5 10 4 11 2 12 3 13
REMARK SMILES IDX 1 14
REMARK H PARENT
REMARK Flexibility Score: inf
ROOT
ATOM      1  C   UNL     1       7.119 -15.493  23.197  1.00  0.00    -0.077 C 
ATOM      2  C   UNL     1       8.123 -14.678  23.586  1.00  0.00    -0.028 C 
ATOM      3  C   UNL     1       6.321 -15.116  21.975  1.00  0.00     0.039 C 
ENDROOT
BRANCH   1   4
ATOM      4  C   UNL     1       6.752 -16.760  23.951  1.00  0.00     0.034 C 
BRANCH   4   5
ATOM      5  C   UNL     1       6.881 -18.012  23.070  1.00  0.00     0.032 C 
BRANCH   5   6
ATOM      6  C   UNL     1       8.192 -18.728  23.297  1.00  0.00    -0.028 C 
ATOM      7  C   UNL     1      10.493 -19.443  22.821  1.00  0.00     0.039 C 
ATOM      8  C   UNL     1       9.271 -18.627  22.490  1.00  0.00    -0.080 C 
ATOM      9  C   UNL     1       9.290 -17.712  21.288  1.00  0.00     0.039 C 
ENDBRANCH   5   6
ENDBRANCH   4   5
ENDBRANCH   1   4
BRANCH   2  10
ATOM     10  C   UNL     1       9.021 -14.955  24.769  1.00  0.00     0.035 C 
BRANCH  10  11
ATOM     11  C   UNL     1      10.380 -15.505  24.317  1.00  0.00     0.079 C 
BRANCH  11  12
ATOM     12  C   UNL     1      10.929 -16.647  25.150  1.00  0.00     0.130 C 
ATOM     13  O   UNL     1      12.076 -17.007  24.932  1.00  0.00    -0.300 OA
ATOM     14  C   UNL     1      10.161 -17.370  26.227  1.00  0.00     0.087 C 
ENDBRANCH  11  12
ENDBRANCH  10  11
ENDBRANCH   2  10
TORSDOF 6
ENDMDL
MODEL 5
REMARK VINA RESULT:    -4.160      1.878      3.923
REMARK INTER + INTRA:          -7.099
REMARK INTER:                  -5.373
REMARK INTRA:                  -1.726
REMARK UNBOUND:                -1.480
REMARK SMILES CC(=O)CCC=C(C)CCC=C(C)C
REMARK SMILES IDX 7 1 6 2 8 3 9 4 10 5 11 6 13 7 12 8 14 9 5 10 4 11 2 12 3 13
REMARK SMILES IDX 1 14
REMARK H PARENT
REMARK Flexibility Score: inf
ROOT
ATOM      1  C   UNL     1      10.938 -15.475  23.735  1.00  0.00    -0.077 C 
ATOM      2  C   UNL     1       9.825 -14.711  23.677  1.00  0.00    -0.028 C 
ATOM      3  C   UNL     1      12.105 -15.110  22.854  1.00  0.00     0.039 C 
ENDROOT
BRANCH   1   4
ATOM      4  C   UNL     1      11.052 -16.693  24.636  1.00  0.00     0.034 C 
BRANCH   4   5
ATOM      5  C   UNL     1      11.418 -17.960  23.848  1.00  0.00     0.032 C 
BRANCH   5   6
ATOM      6  C   UNL     1      10.223 -18.863  23.646  1.00  0.00    -0.028 C 
ATOM      7  C   UNL     1       8.254 -19.790  22.509  1.00  0.00     0.039 C 
ATOM      8  C   UNL     1       9.443 -18.866  22.543  1.00  0.00    -0.080 C 
ATOM      9  C   UNL     1       9.739 -17.990  21.348  1.00  0.00     0.039 C 
ENDBRANCH   5   6
ENDBRANCH   4   5
ENDBRANCH   1   4
BRANCH   2  10
ATOM     10  C   UNL     1       8.600 -14.945  24.530  1.00  0.00     0.035 C 
BRANCH  10  11
ATOM     11  C   UNL     1       7.507 -15.679  23.741  1.00  0.00     0.079 C 
BRANCH  11  12
ATOM     12  C   UNL     1       6.920 -16.899  24.424  1.00  0.00     0.130 C 
ATOM     13  O   UNL     1       5.953 -17.431  23.901  1.00  0.00    -0.300 OA
ATOM     14  C   UNL     1       7.444 -17.501  25.703  1.00  0.00     0.087 C 
ENDBRANCH  11  12
ENDBRANCH  10  11
ENDBRANCH   2  10
TORSDOF 6
ENDMDL
MODEL 6
REMARK VINA RESULT:    -4.139      1.490      3.277
REMARK INTER + INTRA:          -7.071
REMARK INTER:                  -5.437
REMARK INTRA:                  -1.633
REMARK UNBOUND:                -1.480
REMARK SMILES CC(=O)CCC=C(C)CCC=C(C)C
REMARK SMILES IDX 7 1 6 2 8 3 9 4 10 5 11 6 13 7 12 8 14 9 5 10 4 11 2 12 3 13
REMARK SMILES IDX 1 14
REMARK H PARENT
REMARK Flexibility Score: inf
ROOT
ATOM      1  C   UNL     1       7.886 -19.759  22.604  1.00  0.00    -0.077 C 
ATOM      2  C   UNL     1       9.203 -19.499  22.451  1.00  0.00    -0.028 C 
ATOM      3  C   UNL     1       7.155 -20.448  21.480  1.00  0.00     0.039 C 
ENDROOT
BRANCH   1   4
ATOM      4  C   UNL     1       7.113 -19.371  23.853  1.00  0.00     0.034 C 
BRANCH   4   5
ATOM      5  C   UNL     1       6.145 -18.206  23.592  1.00  0.00     0.032 C 
BRANCH   5   6
ATOM      6  C   UNL     1       6.758 -16.874  23.953  1.00  0.00    -0.028 C 
ATOM      7  C   UNL     1       7.889 -14.726  23.578  1.00  0.00     0.039 C 
ATOM      8  C   UNL     1       7.263 -15.995  23.060  1.00  0.00    -0.080 C 
ATOM      9  C   UNL     1       7.202 -16.240  21.571  1.00  0.00     0.039 C 
ENDBRANCH   5   6
ENDBRANCH   4   5
ENDBRANCH   1   4
BRANCH   2  10
ATOM     10  C   UNL     1      10.060 -18.848  23.510  1.00  0.00     0.035 C 
BRANCH  10  11
ATOM     11  C   UNL     1      10.699 -17.553  22.989  1.00  0.00     0.079 C 
BRANCH  11  12
ATOM     12  C   UNL     1      10.965 -16.491  24.037  1.00  0.00     0.130 C 
ATOM     13  O   UNL     1      11.536 -15.472  23.679  1.00  0.00    -0.300 OA
ATOM     14  C   UNL     1      10.576 -16.602  25.489  1.00  0.00     0.087 C 
ENDBRANCH  11  12
ENDBRANCH  10  11
ENDBRANCH   2  10
TORSDOF 6
ENDMDL
MODEL 7
REMARK VINA RESULT:    -4.133      1.630      3.618
REMARK INTER + INTRA:          -7.063
REMARK INTER:                  -5.601
REMARK INTRA:                  -1.462
REMARK UNBOUND:                -1.480
REMARK SMILES CC(=O)CCC=C(C)CCC=C(C)C
REMARK SMILES IDX 7 1 6 2 8 3 9 4 10 5 11 6 13 7 12 8 14 9 5 10 4 11 2 12 3 13
REMARK SMILES IDX 1 14
REMARK H PARENT
REMARK Flexibility Score: inf
ROOT
ATOM      1  C   UNL     1       7.501 -19.816  22.974  1.00  0.00    -0.077 C 
ATOM      2  C   UNL     1       6.837 -19.773  24.150  1.00  0.00    -0.028 C 
ATOM      3  C   UNL     1       6.762 -20.293  21.750  1.00  0.00     0.039 C 
ENDROOT
BRANCH   1   4
ATOM      4  C   UNL     1       8.962 -19.423  22.841  1.00  0.00     0.034 C 
BRANCH   4   5
ATOM      5  C   UNL     1       9.156 -18.247  21.871  1.00  0.00     0.032 C 
BRANCH   5   6
ATOM      6  C   UNL     1       8.442 -17.003  22.344  1.00  0.00    -0.028 C 
ATOM      7  C   UNL     1       6.938 -15.066  22.208  1.00  0.00     0.039 C 
ATOM      8  C   UNL     1       7.528 -16.321  21.620  1.00  0.00    -0.080 C 
ATOM      9  C   UNL     1       7.074 -16.790  20.257  1.00  0.00     0.039 C 
ENDBRANCH   5   6
ENDBRANCH   4   5
ENDBRANCH   1   4
BRANCH   2  10
ATOM     10  C   UNL     1       7.447 -19.283  25.442  1.00  0.00     0.035 C 
BRANCH  10  11
ATOM     11  C   UNL     1       7.089 -17.814  25.703  1.00  0.00     0.079 C 
BRANCH  11  12
ATOM     12  C   UNL     1       8.268 -16.877  25.876  1.00  0.00     0.130 C 
ATOM     13  O   UNL     1       8.031 -15.685  25.998  1.00  0.00    -0.300 OA
ATOM     14  C   UNL     1       9.711 -17.311  25.905  1.00  0.00     0.087 C 
ENDBRANCH  11  12
ENDBRANCH  10  11
ENDBRANCH   2  10
TORSDOF 6
ENDMDL
MODEL 8
REMARK VINA RESULT:    -4.132      2.801      4.900
REMARK INTER + INTRA:          -7.061
REMARK INTER:                  -5.404
REMARK INTRA:                  -1.657
REMARK UNBOUND:                -1.480
REMARK SMILES CC(=O)CCC=C(C)CCC=C(C)C
REMARK SMILES IDX 7 1 6 2 8 3 9 4 10 5 11 6 13 7 12 8 14 9 5 10 4 11 2 12 3 13
REMARK SMILES IDX 1 14
REMARK H PARENT
REMARK Flexibility Score: inf
ROOT
ATOM      1  C   UNL     1       6.869 -18.624  24.496  1.00  0.00    -0.077 C 
ATOM      2  C   UNL     1       6.867 -19.823  23.873  1.00  0.00    -0.028 C 
ATOM      3  C   UNL     1       7.708 -18.462  25.738  1.00  0.00     0.039 C 
ENDROOT
BRANCH   1   4
ATOM      4  C   UNL     1       6.049 -17.443  24.006  1.00  0.00     0.034 C 
BRANCH   4   5
ATOM      5  C   UNL     1       6.936 -16.269  23.565  1.00  0.00     0.032 C 
BRANCH   5   6
ATOM      6  C   UNL     1       7.419 -16.430  22.143  1.00  0.00    -0.028 C 
ATOM      7  C   UNL     1       9.026 -16.833  20.330  1.00  0.00     0.039 C 
ATOM      8  C   UNL     1       8.682 -16.760  21.795  1.00  0.00    -0.080 C 
ATOM      9  C   UNL     1       9.743 -17.070  22.825  1.00  0.00     0.039 C 
ENDBRANCH   5   6
ENDBRANCH   4   5
ENDBRANCH   1   4
BRANCH   2  10
ATOM     10  C   UNL     1       6.101 -20.110  22.603  1.00  0.00     0.035 C 
BRANCH  10  11
ATOM     11  C   UNL     1       7.021 -20.057  21.377  1.00  0.00     0.079 C 
BRANCH  11  12
ATOM     12  C   UNL     1       8.173 -21.042  21.384  1.00  0.00     0.130 C 
ATOM     13  O   UNL     1       7.911 -22.222  21.205  1.00  0.00    -0.300 OA
ATOM     14  C   UNL     1       9.618 -20.670  21.597  1.00  0.00     0.087 C 
ENDBRANCH  11  12
ENDBRANCH  10  11
ENDBRANCH   2  10
TORSDOF 6
ENDMDL
MODEL 9
REMARK VINA RESULT:    -4.115      1.521      3.204
REMARK INTER + INTRA:          -7.039
REMARK INTER:                  -5.344
REMARK INTRA:                  -1.695
REMARK UNBOUND:                -1.480
REMARK SMILES CC(=O)CCC=C(C)CCC=C(C)C
REMARK SMILES IDX 7 1 6 2 8 3 9 4 10 5 11 6 13 7 12 8 14 9 5 10 4 11 2 12 3 13
REMARK SMILES IDX 1 14
REMARK H PARENT
REMARK Flexibility Score: inf
ROOT
ATOM      1  C   UNL     1       6.888 -19.140  23.229  1.00  0.00    -0.077 C 
ATOM      2  C   UNL     1       7.261 -19.642  24.427  1.00  0.00    -0.028 C 
ATOM      3  C   UNL     1       6.656 -20.099  22.089  1.00  0.00     0.039 C 
ENDROOT
BRANCH   1   4
ATOM      4  C   UNL     1       6.712 -17.652  22.982  1.00  0.00     0.034 C 
BRANCH   4   5
ATOM      5  C   UNL     1       7.518 -17.170  21.766  1.00  0.00     0.032 C 
BRANCH   5   6
ATOM      6  C   UNL     1       8.611 -16.204  22.160  1.00  0.00    -0.028 C 
ATOM      7  C   UNL     1      10.846 -15.487  22.883  1.00  0.00     0.039 C 
ATOM      8  C   UNL     1       9.880 -16.562  22.455  1.00  0.00    -0.080 C 
ATOM      9  C   UNL     1      10.355 -17.992  22.352  1.00  0.00     0.039 C 
ENDBRANCH   5   6
ENDBRANCH   4   5
ENDBRANCH   1   4
BRANCH   2  10
ATOM     10  C   UNL     1       7.491 -18.797  25.658  1.00  0.00     0.035 C 
BRANCH  10  11
ATOM     11  C   UNL     1       8.977 -18.458  25.828  1.00  0.00     0.079 C 
BRANCH  11  12
ATOM     12  C   UNL     1       9.295 -16.983  25.981  1.00  0.00     0.130 C 
ATOM     13  O   UNL     1      10.457 -16.672  26.192  1.00  0.00    -0.300 OA
ATOM     14  C   UNL     1       8.278 -15.874  25.893  1.00  0.00     0.087 C 
ENDBRANCH  11  12
ENDBRANCH  10  11
ENDBRANCH   2  10
TORSDOF 6
ENDMDL
