MODEL 1
REMARK VINA RESULT:    -7.205      0.000      0.000
REMARK INTER + INTRA:         -13.920
REMARK INTER:                 -11.838
REMARK INTRA:                  -2.082
REMARK UNBOUND:                -2.082
REMARK SMILES C[C@H]1O[C@H](OC[C@@H]2O[C@@H](Oc3c(-c4ccc(O)c(O)c4)oc4cc(O)cc(O)c4c3=O)[C@H](O)[C@H](O)[C@H]2O)[C@@H](O)[C@H](O)[C@H]1O
REMARK SMILES IDX 7 1 36 2 34 3 32 4 9 5 8 6 6 7 5 8 4 9 1 10 2 11 42 12 3 13
REMARK SMILES IDX 40 14 38 15 43 16 41 18 39 20 37 22 35 24 10 26 11 27 12 28
REMARK SMILES IDX 30 29 21 30 29 31 31 32 22 33 27 34 23 35 26 36 24 37 13 38
REMARK SMILES IDX 20 39 14 40 18 41 15 42 16 43 19 44 17 46 28 48 25 50 33 52
REMARK H PARENT 43 17 41 19 39 21 37 23 35 25 19 45 17 47 28 49 25 51 33 53
REMARK Flexibility Score: inf
ROOT
ATOM      1  C   UNL     1     -21.431 -23.455   6.205  1.00  0.00     0.180 C 
ATOM      2  C   UNL     1     -21.002 -22.076   5.546  1.00  0.00     0.177 C 
ATOM      3  C   UNL     1     -19.471 -22.046   5.270  1.00  0.00     0.180 C 
ATOM      4  C   UNL     1     -18.670 -22.725   6.404  1.00  0.00     0.214 C 
ATOM      5  C   UNL     1     -19.145 -24.160   6.536  1.00  0.00     0.339 C 
ATOM      6  O   UNL     1     -20.472 -24.125   7.048  1.00  0.00    -0.332 OA
ENDROOT
BRANCH   1   7
ATOM      7  C   UNL     1     -22.739 -23.256   7.042  1.00  0.00     0.198 C 
BRANCH   7   8
ATOM      8  O   UNL     1     -23.607 -24.373   6.916  1.00  0.00    -0.347 OA
BRANCH   8   9
ATOM      9  C   UNL     1     -23.462 -25.297   8.015  1.00  0.00     0.281 C 
ATOM     10  C   UNL     1     -26.976 -24.969   9.117  1.00  0.00     0.041 C 
ATOM     11  C   UNL     1     -25.801 -25.354   8.188  1.00  0.00     0.150 C 
ATOM     12  C   UNL     1     -25.872 -26.784   7.592  1.00  0.00     0.174 C 
ATOM     13  O   UNL     1     -24.595 -25.168   8.905  1.00  0.00    -0.344 OA
ATOM     14  C   UNL     1     -24.598 -27.089   6.709  1.00  0.00     0.179 C 
ATOM     15  C   UNL     1     -23.327 -26.724   7.465  1.00  0.00     0.202 C 
BRANCH  12  16
ATOM     16  O   UNL     1     -25.923 -27.765   8.616  1.00  0.00    -0.388 OA
ATOM     17  H   UNL     1     -25.601 -27.374   9.479  1.00  0.00     0.211 HD
ENDBRANCH  12  16
BRANCH  14  18
ATOM     18  O   UNL     1     -24.550 -26.369   5.482  1.00  0.00    -0.387 OA
ATOM     19  H   UNL     1     -25.146 -25.570   5.592  1.00  0.00     0.211 HD
ENDBRANCH  14  18
BRANCH  15  20
ATOM     20  O   UNL     1     -23.019 -27.711   8.433  1.00  0.00    -0.385 OA
ATOM     21  H   UNL     1     -22.029 -27.849   8.457  1.00  0.00     0.211 HD
ENDBRANCH  15  20
ENDBRANCH   8   9
ENDBRANCH   7   8
ENDBRANCH   1   7
BRANCH   2  22
ATOM     22  O   UNL     1     -21.731 -21.844   4.340  1.00  0.00    -0.387 OA
ATOM     23  H   UNL     1     -21.081 -21.819   3.568  1.00  0.00     0.211 HD
ENDBRANCH   2  22
BRANCH   3  24
ATOM     24  O   UNL     1     -18.947 -20.743   5.021  1.00  0.00    -0.387 OA
ATOM     25  H   UNL     1     -19.657 -20.161   4.611  1.00  0.00     0.211 HD
ENDBRANCH   3  24
BRANCH   5  26
ATOM     26  O   UNL     1     -19.067 -24.913   5.315  1.00  0.00    -0.454 OA
BRANCH  26  27
ATOM     27  C   UNL     1     -18.684 -26.263   5.090  1.00  0.00     0.214 A 
ATOM     28  C   UNL     1     -17.376 -26.822   5.182  1.00  0.00     0.180 A 
ATOM     29  C   UNL     1     -19.733 -27.123   4.739  1.00  0.00     0.239 A 
ATOM     30  O   UNL     1     -17.195 -28.125   4.985  1.00  0.00    -0.452 OA
ATOM     31  C   UNL     1     -19.503 -28.496   4.566  1.00  0.00     0.111 A 
ATOM     32  O   UNL     1     -20.904 -26.636   4.627  1.00  0.00    -0.285 OA
ATOM     33  C   UNL     1     -18.177 -28.967   4.698  1.00  0.00     0.146 A 
ATOM     34  C   UNL     1     -20.539 -29.431   4.357  1.00  0.00     0.134 A 
ATOM     35  C   UNL     1     -17.893 -30.309   4.532  1.00  0.00     0.094 A 
ATOM     36  C   UNL     1     -20.247 -30.806   4.285  1.00  0.00     0.093 A 
ATOM     37  C   UNL     1     -18.926 -31.233   4.376  1.00  0.00     0.123 A 
BRANCH  28  38
ATOM     38  C   UNL     1     -16.130 -26.090   5.438  1.00  0.00     0.025 A 
ATOM     39  C   UNL     1     -15.923 -24.858   4.803  1.00  0.00     0.062 A 
ATOM     40  C   UNL     1     -15.464 -26.287   6.670  1.00  0.00     0.016 A 
ATOM     41  C   UNL     1     -14.845 -24.033   5.148  1.00  0.00     0.158 A 
ATOM     42  C   UNL     1     -14.398 -25.449   7.056  1.00  0.00     0.051 A 
ATOM     43  C   UNL     1     -14.037 -24.373   6.233  1.00  0.00     0.157 A 
BRANCH  41  44
ATOM     44  O   UNL     1     -14.703 -22.837   4.472  1.00  0.00    -0.504 OA
ATOM     45  H   UNL     1     -15.514 -22.281   4.166  1.00  0.00     0.293 HD
ENDBRANCH  41  44
BRANCH  43  46
ATOM     46  O   UNL     1     -12.888 -23.652   6.554  1.00  0.00    -0.504 OA
ATOM     47  H   UNL     1     -12.885 -22.878   7.222  1.00  0.00     0.293 HD
ENDBRANCH  43  46
ENDBRANCH  28  38
BRANCH  34  48
ATOM     48  O   UNL     1     -21.876 -29.010   4.289  1.00  0.00    -0.507 OA
ATOM     49  H   UNL     1     -22.524 -29.375   3.600  1.00  0.00     0.293 HD
ENDBRANCH  34  48
BRANCH  37  50
ATOM     50  O   UNL     1     -18.644 -32.599   4.309  1.00  0.00    -0.508 OA
ATOM     51  H   UNL     1     -19.382 -33.278   4.143  1.00  0.00     0.293 HD
ENDBRANCH  37  50
ENDBRANCH  26  27
ENDBRANCH   5  26
BRANCH   4  52
ATOM     52  O   UNL     1     -18.819 -22.110   7.651  1.00  0.00    -0.384 OA
ATOM     53  H   UNL     1     -18.470 -22.757   8.327  1.00  0.00     0.211 HD
ENDBRANCH   4  52
TORSDOF 16
ENDMDL
MODEL 2
REMARK VINA RESULT:    -7.100      1.405      1.776
REMARK INTER + INTRA:         -13.749
REMARK INTER:                 -11.085
REMARK INTRA:                  -2.664
REMARK UNBOUND:                -2.082
REMARK SMILES C[C@H]1O[C@H](OC[C@@H]2O[C@@H](Oc3c(-c4ccc(O)c(O)c4)oc4cc(O)cc(O)c4c3=O)[C@H](O)[C@H](O)[C@H]2O)[C@@H](O)[C@H](O)[C@H]1O
REMARK SMILES IDX 7 1 36 2 34 3 32 4 9 5 8 6 6 7 5 8 4 9 1 10 2 11 42 12 3 13
REMARK SMILES IDX 40 14 38 15 43 16 41 18 39 20 37 22 35 24 10 26 11 27 12 28
REMARK SMILES IDX 30 29 21 30 29 31 31 32 22 33 27 34 23 35 26 36 24 37 13 38
REMARK SMILES IDX 20 39 14 40 18 41 15 42 16 43 19 44 17 46 28 48 25 50 33 52
REMARK H PARENT 43 17 41 19 39 21 37 23 35 25 19 45 17 47 28 49 25 51 33 53
REMARK Flexibility Score: inf
ROOT
ATOM      1  C   UNL     1     -20.494 -23.668   6.345  1.00  0.00     0.180 C 
ATOM      2  C   UNL     1     -20.299 -22.350   5.483  1.00  0.00     0.177 C 
ATOM      3  C   UNL     1     -18.838 -22.240   4.959  1.00  0.00     0.180 C 
ATOM      4  C   UNL     1     -17.814 -22.719   6.012  1.00  0.00     0.214 C 
ATOM      5  C   UNL     1     -18.130 -24.159   6.372  1.00  0.00     0.339 C 
ATOM      6  O   UNL     1     -19.359 -24.160   7.087  1.00  0.00    -0.332 OA
ENDROOT
BRANCH   1   7
ATOM      7  C   UNL     1     -21.670 -23.468   7.359  1.00  0.00     0.198 C 
BRANCH   7   8
ATOM      8  O   UNL     1     -22.880 -24.022   6.862  1.00  0.00    -0.347 OA
BRANCH   8   9
ATOM      9  C   UNL     1     -22.752 -25.431   6.578  1.00  0.00     0.281 C 
ATOM     10  C   UNL     1     -25.520 -26.419   8.822  1.00  0.00     0.041 C 
ATOM     11  C   UNL     1     -24.837 -25.759   7.600  1.00  0.00     0.150 C 
ATOM     12  C   UNL     1     -25.534 -26.013   6.237  1.00  0.00     0.174 C 
ATOM     13  O   UNL     1     -23.489 -26.190   7.563  1.00  0.00    -0.344 OA
ATOM     14  C   UNL     1     -24.724 -25.343   5.058  1.00  0.00     0.179 C 
ATOM     15  C   UNL     1     -23.248 -25.709   5.152  1.00  0.00     0.202 C 
BRANCH  12  16
ATOM     16  O   UNL     1     -25.623 -27.400   5.957  1.00  0.00    -0.388 OA
ATOM     17  H   UNL     1     -25.457 -27.929   6.791  1.00  0.00     0.211 HD
ENDBRANCH  12  16
BRANCH  14  18
ATOM     18  O   UNL     1     -24.779 -23.921   5.043  1.00  0.00    -0.387 OA
ATOM     19  H   UNL     1     -25.513 -23.653   5.672  1.00  0.00     0.211 HD
ENDBRANCH  14  18
BRANCH  15  20
ATOM     20  O   UNL     1     -23.029 -27.029   4.689  1.00  0.00    -0.385 OA
ATOM     21  H   UNL     1     -23.530 -27.668   5.272  1.00  0.00     0.211 HD
ENDBRANCH  15  20
ENDBRANCH   8   9
ENDBRANCH   7   8
ENDBRANCH   1   7
BRANCH   2  22
ATOM     22  O   UNL     1     -21.224 -22.318   4.394  1.00  0.00    -0.387 OA
ATOM     23  H   UNL     1     -21.754 -21.460   4.444  1.00  0.00     0.211 HD
ENDBRANCH   2  22
BRANCH   3  24
ATOM     24  O   UNL     1     -18.481 -20.941   4.491  1.00  0.00    -0.387 OA
ATOM     25  H   UNL     1     -17.520 -20.935   4.196  1.00  0.00     0.211 HD
ENDBRANCH   3  24
BRANCH   5  26
ATOM     26  O   UNL     1     -18.172 -25.044   5.241  1.00  0.00    -0.454 OA
BRANCH  26  27
ATOM     27  C   UNL     1     -17.838 -26.422   5.139  1.00  0.00     0.214 A 
ATOM     28  C   UNL     1     -16.556 -27.021   5.305  1.00  0.00     0.180 A 
ATOM     29  C   UNL     1     -18.915 -27.269   4.841  1.00  0.00     0.239 A 
ATOM     30  O   UNL     1     -16.424 -28.342   5.223  1.00  0.00    -0.452 OA
ATOM     31  C   UNL     1     -18.737 -28.659   4.789  1.00  0.00     0.111 A 
ATOM     32  O   UNL     1     -20.063 -26.748   4.663  1.00  0.00    -0.285 OA
ATOM     33  C   UNL     1     -17.433 -29.167   4.988  1.00  0.00     0.146 A 
ATOM     34  C   UNL     1     -19.806 -29.568   4.638  1.00  0.00     0.134 A 
ATOM     35  C   UNL     1     -17.200 -30.529   4.942  1.00  0.00     0.094 A 
ATOM     36  C   UNL     1     -19.567 -30.954   4.689  1.00  0.00     0.093 A 
ATOM     37  C   UNL     1     -18.266 -31.422   4.843  1.00  0.00     0.123 A 
BRANCH  28  38
ATOM     38  C   UNL     1     -15.286 -26.318   5.525  1.00  0.00     0.025 A 
ATOM     39  C   UNL     1     -14.824 -26.145   6.837  1.00  0.00     0.062 A 
ATOM     40  C   UNL     1     -14.306 -26.346   4.507  1.00  0.00     0.016 A 
ATOM     41  C   UNL     1     -13.539 -25.651   7.097  1.00  0.00     0.158 A 
ATOM     42  C   UNL     1     -12.996 -25.886   4.753  1.00  0.00     0.051 A 
ATOM     43  C   UNL     1     -12.652 -25.450   6.040  1.00  0.00     0.157 A 
BRANCH  41  44
ATOM     44  O   UNL     1     -13.158 -25.501   8.416  1.00  0.00    -0.504 OA
ATOM     45  H   UNL     1     -12.185 -25.641   8.725  1.00  0.00     0.293 HD
ENDBRANCH  41  44
BRANCH  43  46
ATOM     46  O   UNL     1     -11.403 -24.858   6.225  1.00  0.00    -0.504 OA
ATOM     47  H   UNL     1     -11.127 -23.987   5.769  1.00  0.00     0.293 HD
ENDBRANCH  43  46
ENDBRANCH  28  38
BRANCH  34  48
ATOM     48  O   UNL     1     -21.123 -29.104   4.507  1.00  0.00    -0.507 OA
ATOM     49  H   UNL     1     -21.438 -28.594   3.689  1.00  0.00     0.293 HD
ENDBRANCH  34  48
BRANCH  37  50
ATOM     50  O   UNL     1     -18.038 -32.799   4.898  1.00  0.00    -0.508 OA
ATOM     51  H   UNL     1     -17.977 -33.284   5.789  1.00  0.00     0.293 HD
ENDBRANCH  37  50
ENDBRANCH  26  27
ENDBRANCH   5  26
BRANCH   4  52
ATOM     52  O   UNL     1     -17.824 -21.972   7.195  1.00  0.00    -0.384 OA
ATOM     53  H   UNL     1     -17.230 -21.186   7.037  1.00  0.00     0.211 HD
ENDBRANCH   4  52
TORSDOF 16
ENDMDL
MODEL 3
REMARK VINA RESULT:    -6.899      2.480      9.299
REMARK INTER + INTRA:         -13.417
REMARK INTER:                 -10.237
REMARK INTRA:                  -3.180
REMARK UNBOUND:                -2.082
REMARK SMILES C[C@H]1O[C@H](OC[C@@H]2O[C@@H](Oc3c(-c4ccc(O)c(O)c4)oc4cc(O)cc(O)c4c3=O)[C@H](O)[C@H](O)[C@H]2O)[C@@H](O)[C@H](O)[C@H]1O
REMARK SMILES IDX 7 1 36 2 34 3 32 4 9 5 8 6 6 7 5 8 4 9 1 10 2 11 42 12 3 13
REMARK SMILES IDX 40 14 38 15 43 16 41 18 39 20 37 22 35 24 10 26 11 27 12 28
REMARK SMILES IDX 30 29 21 30 29 31 31 32 22 33 27 34 23 35 26 36 24 37 13 38
REMARK SMILES IDX 20 39 14 40 18 41 15 42 16 43 19 44 17 46 28 48 25 50 33 52
REMARK H PARENT 43 17 41 19 39 21 37 23 35 25 19 45 17 47 28 49 25 51 33 53
REMARK Flexibility Score: inf
ROOT
ATOM      1  C   UNL     1     -15.927 -29.845   6.171  1.00  0.00     0.180 C 
ATOM      2  C   UNL     1     -16.155 -30.978   5.082  1.00  0.00     0.177 C 
ATOM      3  C   UNL     1     -17.627 -30.974   4.578  1.00  0.00     0.180 C 
ATOM      4  C   UNL     1     -18.625 -30.691   5.724  1.00  0.00     0.214 C 
ATOM      5  C   UNL     1     -18.284 -29.347   6.339  1.00  0.00     0.339 C 
ATOM      6  O   UNL     1     -17.041 -29.490   7.016  1.00  0.00    -0.332 OA
ENDROOT
BRANCH   1   7
ATOM      7  C   UNL     1     -14.735 -30.242   7.105  1.00  0.00     0.198 C 
BRANCH   7   8
ATOM      8  O   UNL     1     -13.693 -29.278   7.050  1.00  0.00    -0.347 OA
BRANCH   8   9
ATOM      9  C   UNL     1     -13.936 -28.278   6.038  1.00  0.00     0.281 C 
ATOM     10  C   UNL     1     -13.238 -25.429   8.289  1.00  0.00     0.041 C 
ATOM     11  C   UNL     1     -12.938 -26.697   7.454  1.00  0.00     0.150 C 
ATOM     12  C   UNL     1     -11.662 -26.623   6.575  1.00  0.00     0.174 C 
ATOM     13  O   UNL     1     -14.078 -26.983   6.664  1.00  0.00    -0.344 OA
ATOM     14  C   UNL     1     -11.486 -27.944   5.727  1.00  0.00     0.179 C 
ATOM     15  C   UNL     1     -12.787 -28.298   5.018  1.00  0.00     0.202 C 
BRANCH  12  16
ATOM     16  O   UNL     1     -11.731 -25.539   5.663  1.00  0.00    -0.388 OA
ATOM     17  H   UNL     1     -12.050 -25.862   4.771  1.00  0.00     0.211 HD
ENDBRANCH  12  16
BRANCH  14  18
ATOM     18  O   UNL     1     -11.128 -29.088   6.494  1.00  0.00    -0.387 OA
ATOM     19  H   UNL     1     -10.338 -28.826   7.054  1.00  0.00     0.211 HD
ENDBRANCH  14  18
BRANCH  15  20
ATOM     20  O   UNL     1     -12.980 -27.474   3.883  1.00  0.00    -0.385 OA
ATOM     21  H   UNL     1     -13.946 -27.226   3.819  1.00  0.00     0.211 HD
ENDBRANCH  15  20
ENDBRANCH   8   9
ENDBRANCH   7   8
ENDBRANCH   1   7
BRANCH   2  22
ATOM     22  O   UNL     1     -15.252 -30.814   3.987  1.00  0.00    -0.387 OA
ATOM     23  H   UNL     1     -15.786 -30.619   3.153  1.00  0.00     0.211 HD
ENDBRANCH   2  22
BRANCH   3  24
ATOM     24  O   UNL     1     -18.010 -32.159   3.884  1.00  0.00    -0.387 OA
ATOM     25  H   UNL     1     -17.196 -32.710   3.671  1.00  0.00     0.211 HD
ENDBRANCH   3  24
BRANCH   5  26
ATOM     26  O   UNL     1     -18.252 -28.266   5.393  1.00  0.00    -0.454 OA
BRANCH  26  27
ATOM     27  C   UNL     1     -18.072 -26.871   5.596  1.00  0.00     0.214 A 
ATOM     28  C   UNL     1     -18.915 -25.983   6.325  1.00  0.00     0.180 A 
ATOM     29  C   UNL     1     -16.923 -26.332   5.001  1.00  0.00     0.239 A 
ATOM     30  O   UNL     1     -18.574 -24.704   6.460  1.00  0.00    -0.452 OA
ATOM     31  C   UNL     1     -16.587 -24.984   5.191  1.00  0.00     0.111 A 
ATOM     32  O   UNL     1     -16.172 -27.106   4.325  1.00  0.00    -0.285 OA
ATOM     33  C   UNL     1     -17.471 -24.181   5.947  1.00  0.00     0.146 A 
ATOM     34  C   UNL     1     -15.373 -24.422   4.741  1.00  0.00     0.134 A 
ATOM     35  C   UNL     1     -17.191 -22.844   6.160  1.00  0.00     0.094 A 
ATOM     36  C   UNL     1     -15.057 -23.085   5.048  1.00  0.00     0.093 A 
ATOM     37  C   UNL     1     -15.968 -22.309   5.756  1.00  0.00     0.123 A 
BRANCH  28  38
ATOM     38  C   UNL     1     -20.206 -26.313   6.941  1.00  0.00     0.025 A 
ATOM     39  C   UNL     1     -21.287 -26.649   6.115  1.00  0.00     0.062 A 
ATOM     40  C   UNL     1     -20.220 -26.846   8.251  1.00  0.00     0.016 A 
ATOM     41  C   UNL     1     -22.482 -27.149   6.648  1.00  0.00     0.158 A 
ATOM     42  C   UNL     1     -21.402 -27.387   8.797  1.00  0.00     0.051 A 
ATOM     43  C   UNL     1     -22.559 -27.446   8.007  1.00  0.00     0.157 A 
BRANCH  41  44
ATOM     44  O   UNL     1     -23.506 -27.449   5.770  1.00  0.00    -0.504 OA
ATOM     45  H   UNL     1     -23.413 -28.181   5.050  1.00  0.00     0.293 HD
ENDBRANCH  41  44
BRANCH  43  46
ATOM     46  O   UNL     1     -23.752 -27.840   8.612  1.00  0.00    -0.504 OA
ATOM     47  H   UNL     1     -24.631 -27.936   8.100  1.00  0.00     0.293 HD
ENDBRANCH  43  46
ENDBRANCH  28  38
BRANCH  34  48
ATOM     48  O   UNL     1     -14.438 -25.205   4.046  1.00  0.00    -0.507 OA
ATOM     49  H   UNL     1     -14.554 -25.444   3.068  1.00  0.00     0.293 HD
ENDBRANCH  34  48
BRANCH  37  50
ATOM     50  O   UNL     1     -15.645 -20.985   6.061  1.00  0.00    -0.508 OA
ATOM     51  H   UNL     1     -15.422 -20.318   5.327  1.00  0.00     0.293 HD
ENDBRANCH  37  50
ENDBRANCH  26  27
ENDBRANCH   5  26
BRANCH   4  52
ATOM     52  O   UNL     1     -18.601 -31.646   6.746  1.00  0.00    -0.384 OA
ATOM     53  H   UNL     1     -17.669 -31.652   7.104  1.00  0.00     0.211 HD
ENDBRANCH   4  52
TORSDOF 16
ENDMDL
MODEL 4
REMARK VINA RESULT:    -6.843      2.189      9.216
REMARK INTER + INTRA:         -13.325
REMARK INTER:                 -10.729
REMARK INTRA:                  -2.596
REMARK UNBOUND:                -2.082
REMARK SMILES C[C@H]1O[C@H](OC[C@@H]2O[C@@H](Oc3c(-c4ccc(O)c(O)c4)oc4cc(O)cc(O)c4c3=O)[C@H](O)[C@H](O)[C@H]2O)[C@@H](O)[C@H](O)[C@H]1O
REMARK SMILES IDX 7 1 36 2 34 3 32 4 9 5 8 6 6 7 5 8 4 9 1 10 2 11 42 12 3 13
REMARK SMILES IDX 40 14 38 15 43 16 41 18 39 20 37 22 35 24 10 26 11 27 12 28
REMARK SMILES IDX 30 29 21 30 29 31 31 32 22 33 27 34 23 35 26 36 24 37 13 38
REMARK SMILES IDX 20 39 14 40 18 41 15 42 16 43 19 44 17 46 28 48 25 50 33 52
REMARK H PARENT 43 17 41 19 39 21 37 23 35 25 19 45 17 47 28 49 25 51 33 53
REMARK Flexibility Score: inf
ROOT
ATOM      1  C   UNL     1     -17.253 -27.334   6.168  1.00  0.00     0.180 C 
ATOM      2  C   UNL     1     -18.226 -28.184   5.244  1.00  0.00     0.177 C 
ATOM      3  C   UNL     1     -19.700 -27.715   5.412  1.00  0.00     0.180 C 
ATOM      4  C   UNL     1     -20.026 -27.362   6.881  1.00  0.00     0.214 C 
ATOM      5  C   UNL     1     -19.079 -26.267   7.335  1.00  0.00     0.339 C 
ATOM      6  O   UNL     1     -17.777 -26.835   7.415  1.00  0.00    -0.332 OA
ENDROOT
BRANCH   1   7
ATOM      7  C   UNL     1     -15.971 -28.170   6.494  1.00  0.00     0.198 C 
BRANCH   7   8
ATOM      8  O   UNL     1     -14.799 -27.526   6.016  1.00  0.00    -0.347 OA
BRANCH   8   9
ATOM      9  C   UNL     1     -14.922 -26.088   6.050  1.00  0.00     0.281 C 
ATOM     10  C   UNL     1     -13.212 -25.741   9.309  1.00  0.00     0.041 C 
ATOM     11  C   UNL     1     -13.365 -26.063   7.804  1.00  0.00     0.150 C 
ATOM     12  C   UNL     1     -12.250 -25.491   6.889  1.00  0.00     0.174 C 
ATOM     13  O   UNL     1     -14.640 -25.612   7.385  1.00  0.00    -0.344 OA
ATOM     14  C   UNL     1     -12.537 -25.832   5.373  1.00  0.00     0.179 C 
ATOM     15  C   UNL     1     -13.973 -25.473   5.010  1.00  0.00     0.202 C 
BRANCH  12  16
ATOM     16  O   UNL     1     -12.170 -24.079   6.999  1.00  0.00    -0.388 OA
ATOM     17  H   UNL     1     -11.365 -23.743   6.508  1.00  0.00     0.211 HD
ENDBRANCH  12  16
BRANCH  14  18
ATOM     18  O   UNL     1     -12.376 -27.206   5.041  1.00  0.00    -0.387 OA
ATOM     19  H   UNL     1     -13.135 -27.448   4.431  1.00  0.00     0.211 HD
ENDBRANCH  14  18
BRANCH  15  20
ATOM     20  O   UNL     1     -14.110 -24.076   4.829  1.00  0.00    -0.385 OA
ATOM     21  H   UNL     1     -14.557 -23.902   3.952  1.00  0.00     0.211 HD
ENDBRANCH  15  20
ENDBRANCH   8   9
ENDBRANCH   7   8
ENDBRANCH   1   7
BRANCH   2  22
ATOM     22  O   UNL     1     -17.827 -28.094   3.875  1.00  0.00    -0.387 OA
ATOM     23  H   UNL     1     -18.638 -27.877   3.314  1.00  0.00     0.211 HD
ENDBRANCH   2  22
BRANCH   3  24
ATOM     24  O   UNL     1     -20.667 -28.636   4.909  1.00  0.00    -0.387 OA
ATOM     25  H   UNL     1     -20.597 -29.509   5.401  1.00  0.00     0.211 HD
ENDBRANCH   3  24
BRANCH   5  26
ATOM     26  O   UNL     1     -19.098 -25.100   6.498  1.00  0.00    -0.454 OA
BRANCH  26  27
ATOM     27  C   UNL     1     -19.027 -23.721   6.841  1.00  0.00     0.214 A 
ATOM     28  C   UNL     1     -19.978 -22.959   7.578  1.00  0.00     0.180 A 
ATOM     29  C   UNL     1     -17.876 -23.061   6.390  1.00  0.00     0.239 A 
ATOM     30  O   UNL     1     -19.735 -21.681   7.855  1.00  0.00    -0.452 OA
ATOM     31  C   UNL     1     -17.646 -21.718   6.726  1.00  0.00     0.111 A 
ATOM     32  O   UNL     1     -17.027 -23.720   5.707  1.00  0.00    -0.285 OA
ATOM     33  C   UNL     1     -18.634 -21.046   7.480  1.00  0.00     0.146 A 
ATOM     34  C   UNL     1     -16.443 -21.045   6.426  1.00  0.00     0.134 A 
ATOM     35  C   UNL     1     -18.461 -19.722   7.834  1.00  0.00     0.094 A 
ATOM     36  C   UNL     1     -16.240 -19.726   6.877  1.00  0.00     0.093 A 
ATOM     37  C   UNL     1     -17.250 -19.078   7.579  1.00  0.00     0.123 A 
BRANCH  28  38
ATOM     38  C   UNL     1     -21.286 -23.423   8.058  1.00  0.00     0.025 A 
ATOM     39  C   UNL     1     -22.277 -23.746   7.122  1.00  0.00     0.062 A 
ATOM     40  C   UNL     1     -21.361 -24.076   9.310  1.00  0.00     0.016 A 
ATOM     41  C   UNL     1     -23.472 -24.365   7.511  1.00  0.00     0.158 A 
ATOM     42  C   UNL     1     -22.539 -24.736   9.711  1.00  0.00     0.051 A 
ATOM     43  C   UNL     1     -23.629 -24.792   8.829  1.00  0.00     0.157 A 
BRANCH  41  44
ATOM     44  O   UNL     1     -24.405 -24.644   6.532  1.00  0.00    -0.504 OA
ATOM     45  H   UNL     1     -24.353 -24.229   5.590  1.00  0.00     0.293 HD
ENDBRANCH  41  44
BRANCH  43  46
ATOM     46  O   UNL     1     -24.833 -25.313   9.300  1.00  0.00    -0.504 OA
ATOM     47  H   UNL     1     -25.106 -25.284  10.284  1.00  0.00     0.293 HD
ENDBRANCH  43  46
ENDBRANCH  28  38
BRANCH  34  48
ATOM     48  O   UNL     1     -15.410 -21.700   5.740  1.00  0.00    -0.507 OA
ATOM     49  H   UNL     1     -14.585 -21.212   5.410  1.00  0.00     0.293 HD
ENDBRANCH  34  48
BRANCH  37  50
ATOM     50  O   UNL     1     -17.040 -17.772   8.027  1.00  0.00    -0.508 OA
ATOM     51  H   UNL     1     -17.801 -17.225   8.420  1.00  0.00     0.293 HD
ENDBRANCH  37  50
ENDBRANCH  26  27
ENDBRANCH   5  26
BRANCH   4  52
ATOM     52  O   UNL     1     -19.891 -28.437   7.767  1.00  0.00    -0.384 OA
ATOM     53  H   UNL     1     -18.983 -28.821   7.606  1.00  0.00     0.211 HD
ENDBRANCH   4  52
TORSDOF 16
ENDMDL
MODEL 5
REMARK VINA RESULT:    -6.822      2.324      4.756
REMARK INTER + INTRA:         -13.291
REMARK INTER:                 -11.399
REMARK INTRA:                  -1.891
REMARK UNBOUND:                -2.082
REMARK SMILES C[C@H]1O[C@H](OC[C@@H]2O[C@@H](Oc3c(-c4ccc(O)c(O)c4)oc4cc(O)cc(O)c4c3=O)[C@H](O)[C@H](O)[C@H]2O)[C@@H](O)[C@H](O)[C@H]1O
REMARK SMILES IDX 7 1 36 2 34 3 32 4 9 5 8 6 6 7 5 8 4 9 1 10 2 11 42 12 3 13
REMARK SMILES IDX 40 14 38 15 43 16 41 18 39 20 37 22 35 24 10 26 11 27 12 28
REMARK SMILES IDX 30 29 21 30 29 31 31 32 22 33 27 34 23 35 26 36 24 37 13 38
REMARK SMILES IDX 20 39 14 40 18 41 15 42 16 43 19 44 17 46 28 48 25 50 33 52
REMARK H PARENT 43 17 41 19 39 21 37 23 35 25 19 45 17 47 28 49 25 51 33 53
REMARK Flexibility Score: inf
ROOT
ATOM      1  C   UNL     1     -21.390 -24.656   5.377  1.00  0.00     0.180 C 
ATOM      2  C   UNL     1     -21.316 -24.562   6.960  1.00  0.00     0.177 C 
ATOM      3  C   UNL     1     -19.999 -25.198   7.492  1.00  0.00     0.180 C 
ATOM      4  C   UNL     1     -19.618 -26.471   6.704  1.00  0.00     0.214 C 
ATOM      5  C   UNL     1     -19.460 -26.102   5.241  1.00  0.00     0.339 C 
ATOM      6  O   UNL     1     -20.753 -25.783   4.740  1.00  0.00    -0.332 OA
ENDROOT
BRANCH   1   7
ATOM      7  C   UNL     1     -22.886 -24.637   4.915  1.00  0.00     0.198 C 
BRANCH   7   8
ATOM      8  O   UNL     1     -23.761 -24.956   5.988  1.00  0.00    -0.347 OA
BRANCH   8   9
ATOM      9  C   UNL     1     -24.325 -26.277   5.849  1.00  0.00     0.281 C 
ATOM     10  C   UNL     1     -23.048 -27.468   9.108  1.00  0.00     0.041 C 
ATOM     11  C   UNL     1     -23.900 -26.626   8.129  1.00  0.00     0.150 C 
ATOM     12  C   UNL     1     -25.405 -26.516   8.490  1.00  0.00     0.174 C 
ATOM     13  O   UNL     1     -23.732 -27.160   6.829  1.00  0.00    -0.344 OA
ATOM     14  C   UNL     1     -26.186 -25.686   7.396  1.00  0.00     0.179 C 
ATOM     15  C   UNL     1     -25.851 -26.196   6.001  1.00  0.00     0.202 C 
BRANCH  12  16
ATOM     16  O   UNL     1     -26.010 -27.798   8.561  1.00  0.00    -0.388 OA
ATOM     17  H   UNL     1     -25.308 -28.510   8.508  1.00  0.00     0.211 HD
ENDBRANCH  12  16
BRANCH  14  18
ATOM     18  O   UNL     1     -25.886 -24.295   7.393  1.00  0.00    -0.387 OA
ATOM     19  H   UNL     1     -26.574 -23.848   7.970  1.00  0.00     0.211 HD
ENDBRANCH  14  18
BRANCH  15  20
ATOM     20  O   UNL     1     -26.544 -27.400   5.728  1.00  0.00    -0.385 OA
ATOM     21  H   UNL     1     -26.181 -28.126   6.311  1.00  0.00     0.211 HD
ENDBRANCH  15  20
ENDBRANCH   8   9
ENDBRANCH   7   8
ENDBRANCH   1   7
BRANCH   2  22
ATOM     22  O   UNL     1     -21.424 -23.203   7.389  1.00  0.00    -0.387 OA
ATOM     23  H   UNL     1     -22.109 -22.735   6.815  1.00  0.00     0.211 HD
ENDBRANCH   2  22
BRANCH   3  24
ATOM     24  O   UNL     1     -20.010 -25.478   8.890  1.00  0.00    -0.387 OA
ATOM     25  H   UNL     1     -19.173 -25.122   9.318  1.00  0.00     0.211 HD
ENDBRANCH   3  24
BRANCH   5  26
ATOM     26  O   UNL     1     -18.523 -25.039   5.006  1.00  0.00    -0.454 OA
BRANCH  26  27
ATOM     27  C   UNL     1     -17.127 -24.970   5.268  1.00  0.00     0.214 A 
ATOM     28  C   UNL     1     -16.396 -23.866   5.793  1.00  0.00     0.180 A 
ATOM     29  C   UNL     1     -16.412 -26.137   4.967  1.00  0.00     0.239 A 
ATOM     30  O   UNL     1     -15.090 -23.983   6.025  1.00  0.00    -0.452 OA
ATOM     31  C   UNL     1     -15.041 -26.228   5.251  1.00  0.00     0.111 A 
ATOM     32  O   UNL     1     -17.046 -27.125   4.473  1.00  0.00    -0.285 OA
ATOM     33  C   UNL     1     -14.401 -25.090   5.792  1.00  0.00     0.146 A 
ATOM     34  C   UNL     1     -14.302 -27.421   5.107  1.00  0.00     0.134 A 
ATOM     35  C   UNL     1     -13.051 -25.123   6.086  1.00  0.00     0.094 A 
ATOM     36  C   UNL     1     -12.951 -27.467   5.500  1.00  0.00     0.093 A 
ATOM     37  C   UNL     1     -12.338 -26.318   5.988  1.00  0.00     0.123 A 
BRANCH  28  38
ATOM     38  C   UNL     1     -16.924 -22.528   6.085  1.00  0.00     0.025 A 
ATOM     39  C   UNL     1     -18.072 -22.410   6.880  1.00  0.00     0.062 A 
ATOM     40  C   UNL     1     -16.033 -21.429   6.093  1.00  0.00     0.016 A 
ATOM     41  C   UNL     1     -18.512 -21.162   7.343  1.00  0.00     0.158 A 
ATOM     42  C   UNL     1     -16.441 -20.173   6.585  1.00  0.00     0.051 A 
ATOM     43  C   UNL     1     -17.727 -20.031   7.126  1.00  0.00     0.157 A 
BRANCH  41  44
ATOM     44  O   UNL     1     -19.657 -21.126   8.114  1.00  0.00    -0.504 OA
ATOM     45  H   UNL     1     -20.019 -20.250   8.518  1.00  0.00     0.293 HD
ENDBRANCH  41  44
BRANCH  43  46
ATOM     46  O   UNL     1     -18.163 -18.752   7.464  1.00  0.00    -0.504 OA
ATOM     47  H   UNL     1     -17.612 -18.108   8.035  1.00  0.00     0.293 HD
ENDBRANCH  43  46
ENDBRANCH  28  38
BRANCH  34  48
ATOM     48  O   UNL     1     -14.919 -28.591   4.638  1.00  0.00    -0.507 OA
ATOM     49  H   UNL     1     -15.544 -28.590   3.840  1.00  0.00     0.293 HD
ENDBRANCH  34  48
BRANCH  37  50
ATOM     50  O   UNL     1     -10.999 -26.372   6.381  1.00  0.00    -0.508 OA
ATOM     51  H   UNL     1     -10.717 -26.093   7.316  1.00  0.00     0.293 HD
ENDBRANCH  37  50
ENDBRANCH  26  27
ENDBRANCH   5  26
BRANCH   4  52
ATOM     52  O   UNL     1     -20.567 -27.495   6.786  1.00  0.00    -0.384 OA
ATOM     53  H   UNL     1     -20.357 -28.007   7.617  1.00  0.00     0.211 HD
ENDBRANCH   4  52
TORSDOF 16
ENDMDL
MODEL 6
REMARK VINA RESULT:    -6.811      1.992      5.963
REMARK INTER + INTRA:         -13.274
REMARK INTER:                 -10.511
REMARK INTRA:                  -2.762
REMARK UNBOUND:                -2.082
REMARK SMILES C[C@H]1O[C@H](OC[C@@H]2O[C@@H](Oc3c(-c4ccc(O)c(O)c4)oc4cc(O)cc(O)c4c3=O)[C@H](O)[C@H](O)[C@H]2O)[C@@H](O)[C@H](O)[C@H]1O
REMARK SMILES IDX 7 1 36 2 34 3 32 4 9 5 8 6 6 7 5 8 4 9 1 10 2 11 42 12 3 13
REMARK SMILES IDX 40 14 38 15 43 16 41 18 39 20 37 22 35 24 10 26 11 27 12 28
REMARK SMILES IDX 30 29 21 30 29 31 31 32 22 33 27 34 23 35 26 36 24 37 13 38
REMARK SMILES IDX 20 39 14 40 18 41 15 42 16 43 19 44 17 46 28 48 25 50 33 52
REMARK H PARENT 43 17 41 19 39 21 37 23 35 25 19 45 17 47 28 49 25 51 33 53
REMARK Flexibility Score: inf
ROOT
ATOM      1  C   UNL     1     -19.728 -27.532   5.728  1.00  0.00     0.180 C 
ATOM      2  C   UNL     1     -19.181 -28.811   6.492  1.00  0.00     0.177 C 
ATOM      3  C   UNL     1     -17.631 -28.763   6.616  1.00  0.00     0.180 C 
ATOM      4  C   UNL     1     -16.971 -28.196   5.339  1.00  0.00     0.214 C 
ATOM      5  C   UNL     1     -17.515 -26.801   5.093  1.00  0.00     0.339 C 
ATOM      6  O   UNL     1     -18.882 -26.936   4.723  1.00  0.00    -0.332 OA
ENDROOT
BRANCH   1   7
ATOM      7  C   UNL     1     -21.100 -27.866   5.053  1.00  0.00     0.198 C 
BRANCH   7   8
ATOM      8  O   UNL     1     -22.178 -27.698   5.963  1.00  0.00    -0.347 OA
BRANCH   8   9
ATOM      9  C   UNL     1     -22.550 -26.311   6.108  1.00  0.00     0.281 C 
ATOM     10  C   UNL     1     -26.173 -27.019   6.324  1.00  0.00     0.041 C 
ATOM     11  C   UNL     1     -24.688 -27.023   6.759  1.00  0.00     0.150 C 
ATOM     12  C   UNL     1     -24.433 -26.638   8.240  1.00  0.00     0.174 C 
ATOM     13  O   UNL     1     -23.972 -26.169   5.887  1.00  0.00    -0.344 OA
ATOM     14  C   UNL     1     -22.886 -26.619   8.558  1.00  0.00     0.179 C 
ATOM     15  C   UNL     1     -22.136 -25.817   7.502  1.00  0.00     0.202 C 
BRANCH  12  16
ATOM     16  O   UNL     1     -24.941 -25.345   8.528  1.00  0.00    -0.388 OA
ATOM     17  H   UNL     1     -25.080 -25.245   9.515  1.00  0.00     0.211 HD
ENDBRANCH  12  16
BRANCH  14  18
ATOM     18  O   UNL     1     -22.279 -27.906   8.584  1.00  0.00    -0.387 OA
ATOM     19  H   UNL     1     -21.297 -27.766   8.430  1.00  0.00     0.211 HD
ENDBRANCH  14  18
BRANCH  15  20
ATOM     20  O   UNL     1     -22.301 -24.428   7.718  1.00  0.00    -0.385 OA
ATOM     21  H   UNL     1     -21.820 -24.167   8.554  1.00  0.00     0.211 HD
ENDBRANCH  15  20
ENDBRANCH   8   9
ENDBRANCH   7   8
ENDBRANCH   1   7
BRANCH   2  22
ATOM     22  O   UNL     1     -19.782 -28.923   7.783  1.00  0.00    -0.387 OA
ATOM     23  H   UNL     1     -19.053 -28.918   8.482  1.00  0.00     0.211 HD
ENDBRANCH   2  22
BRANCH   3  24
ATOM     24  O   UNL     1     -17.032 -30.011   6.957  1.00  0.00    -0.387 OA
ATOM     25  H   UNL     1     -17.629 -30.768   6.670  1.00  0.00     0.211 HD
ENDBRANCH   3  24
BRANCH   5  26
ATOM     26  O   UNL     1     -17.353 -25.910   6.208  1.00  0.00    -0.454 OA
BRANCH  26  27
ATOM     27  C   UNL     1     -17.056 -24.519   6.238  1.00  0.00     0.214 A 
ATOM     28  C   UNL     1     -15.814 -23.889   5.938  1.00  0.00     0.180 A 
ATOM     29  C   UNL     1     -18.129 -23.696   6.606  1.00  0.00     0.239 A 
ATOM     30  O   UNL     1     -15.718 -22.562   5.968  1.00  0.00    -0.452 OA
ATOM     31  C   UNL     1     -17.992 -22.300   6.600  1.00  0.00     0.111 A 
ATOM     32  O   UNL     1     -19.239 -24.244   6.902  1.00  0.00    -0.285 OA
ATOM     33  C   UNL     1     -16.729 -21.761   6.268  1.00  0.00     0.146 A 
ATOM     34  C   UNL     1     -19.072 -21.419   6.819  1.00  0.00     0.134 A 
ATOM     35  C   UNL     1     -16.537 -20.392   6.252  1.00  0.00     0.094 A 
ATOM     36  C   UNL     1     -18.884 -20.029   6.704  1.00  0.00     0.093 A 
ATOM     37  C   UNL     1     -17.618 -19.528   6.419  1.00  0.00     0.123 A 
BRANCH  28  38
ATOM     38  C   UNL     1     -14.547 -24.561   5.626  1.00  0.00     0.025 A 
ATOM     39  C   UNL     1     -13.848 -25.204   6.657  1.00  0.00     0.062 A 
ATOM     40  C   UNL     1     -14.339 -25.054   4.317  1.00  0.00     0.016 A 
ATOM     41  C   UNL     1     -12.736 -26.013   6.388  1.00  0.00     0.158 A 
ATOM     42  C   UNL     1     -13.248 -25.897   4.028  1.00  0.00     0.051 A 
ATOM     43  C   UNL     1     -12.394 -26.296   5.066  1.00  0.00     0.157 A 
BRANCH  41  44
ATOM     44  O   UNL     1     -12.094 -26.607   7.457  1.00  0.00    -0.504 OA
ATOM     45  H   UNL     1     -11.166 -26.297   7.780  1.00  0.00     0.293 HD
ENDBRANCH  41  44
BRANCH  43  46
ATOM     46  O   UNL     1     -11.238 -27.002   4.736  1.00  0.00    -0.504 OA
ATOM     47  H   UNL     1     -11.185 -28.022   4.750  1.00  0.00     0.293 HD
ENDBRANCH  43  46
ENDBRANCH  28  38
BRANCH  34  48
ATOM     48  O   UNL     1     -20.357 -21.917   7.082  1.00  0.00    -0.507 OA
ATOM     49  H   UNL     1     -21.094 -21.337   7.465  1.00  0.00     0.293 HD
ENDBRANCH  34  48
BRANCH  37  50
ATOM     50  O   UNL     1     -17.441 -18.148   6.303  1.00  0.00    -0.508 OA
ATOM     51  H   UNL     1     -18.056 -17.589   5.719  1.00  0.00     0.293 HD
ENDBRANCH  37  50
ENDBRANCH  26  27
ENDBRANCH   5  26
BRANCH   4  52
ATOM     52  O   UNL     1     -17.212 -28.957   4.189  1.00  0.00    -0.384 OA
ATOM     53  H   UNL     1     -16.792 -29.848   4.349  1.00  0.00     0.211 HD
ENDBRANCH   4  52
TORSDOF 16
ENDMDL
MODEL 7
REMARK VINA RESULT:    -6.781      2.459      6.699
REMARK INTER + INTRA:         -13.224
REMARK INTER:                 -10.249
REMARK INTRA:                  -2.975
REMARK UNBOUND:                -2.082
REMARK SMILES C[C@H]1O[C@H](OC[C@@H]2O[C@@H](Oc3c(-c4ccc(O)c(O)c4)oc4cc(O)cc(O)c4c3=O)[C@H](O)[C@H](O)[C@H]2O)[C@@H](O)[C@H](O)[C@H]1O
REMARK SMILES IDX 7 1 36 2 34 3 32 4 9 5 8 6 6 7 5 8 4 9 1 10 2 11 42 12 3 13
REMARK SMILES IDX 40 14 38 15 43 16 41 18 39 20 37 22 35 24 10 26 11 27 12 28
REMARK SMILES IDX 30 29 21 30 29 31 31 32 22 33 27 34 23 35 26 36 24 37 13 38
REMARK SMILES IDX 20 39 14 40 18 41 15 42 16 43 19 44 17 46 28 48 25 50 33 52
REMARK H PARENT 43 17 41 19 39 21 37 23 35 25 19 45 17 47 28 49 25 51 33 53
REMARK Flexibility Score: inf
ROOT
ATOM      1  C   UNL     1     -20.307 -27.257   6.642  1.00  0.00     0.180 C 
ATOM      2  C   UNL     1     -21.505 -27.520   5.634  1.00  0.00     0.177 C 
ATOM      3  C   UNL     1     -21.957 -26.196   4.952  1.00  0.00     0.180 C 
ATOM      4  C   UNL     1     -21.927 -25.005   5.935  1.00  0.00     0.214 C 
ATOM      5  C   UNL     1     -20.515 -24.857   6.470  1.00  0.00     0.339 C 
ATOM      6  O   UNL     1     -20.256 -25.978   7.307  1.00  0.00    -0.332 OA
ENDROOT
BRANCH   1   7
ATOM      7  C   UNL     1     -20.293 -28.365   7.747  1.00  0.00     0.198 C 
BRANCH   7   8
ATOM      8  O   UNL     1     -19.121 -29.163   7.663  1.00  0.00    -0.347 OA
BRANCH   8   9
ATOM      9  C   UNL     1     -18.290 -28.787   6.545  1.00  0.00     0.281 C 
ATOM     10  C   UNL     1     -15.149 -28.877   8.493  1.00  0.00     0.041 C 
ATOM     11  C   UNL     1     -16.419 -29.430   7.804  1.00  0.00     0.150 C 
ATOM     12  C   UNL     1     -16.205 -30.706   6.949  1.00  0.00     0.174 C 
ATOM     13  O   UNL     1     -16.985 -28.392   7.027  1.00  0.00    -0.344 OA
ATOM     14  C   UNL     1     -17.551 -31.148   6.250  1.00  0.00     0.179 C 
ATOM     15  C   UNL     1     -18.205 -29.959   5.557  1.00  0.00     0.202 C 
BRANCH  12  16
ATOM     16  O   UNL     1     -15.249 -30.481   5.924  1.00  0.00    -0.388 OA
ATOM     17  H   UNL     1     -15.068 -29.501   5.835  1.00  0.00     0.211 HD
ENDBRANCH  12  16
BRANCH  14  18
ATOM     18  O   UNL     1     -18.528 -31.674   7.142  1.00  0.00    -0.387 OA
ATOM     19  H   UNL     1     -19.381 -31.178   6.962  1.00  0.00     0.211 HD
ENDBRANCH  14  18
BRANCH  15  20
ATOM     20  O   UNL     1     -17.549 -29.667   4.337  1.00  0.00    -0.385 OA
ATOM     21  H   UNL     1     -18.187 -29.202   3.725  1.00  0.00     0.211 HD
ENDBRANCH  15  20
ENDBRANCH   8   9
ENDBRANCH   7   8
ENDBRANCH   1   7
BRANCH   2  22
ATOM     22  O   UNL     1     -21.134 -28.487   4.650  1.00  0.00    -0.387 OA
ATOM     23  H   UNL     1     -20.451 -28.075   4.032  1.00  0.00     0.211 HD
ENDBRANCH   2  22
BRANCH   3  24
ATOM     24  O   UNL     1     -23.232 -26.271   4.319  1.00  0.00    -0.387 OA
ATOM     25  H   UNL     1     -23.299 -25.574   3.598  1.00  0.00     0.211 HD
ENDBRANCH   3  24
BRANCH   5  26
ATOM     26  O   UNL     1     -19.517 -24.717   5.447  1.00  0.00    -0.454 OA
BRANCH  26  27
ATOM     27  C   UNL     1     -18.116 -24.499   5.551  1.00  0.00     0.214 A 
ATOM     28  C   UNL     1     -17.451 -23.355   6.078  1.00  0.00     0.180 A 
ATOM     29  C   UNL     1     -17.320 -25.549   5.075  1.00  0.00     0.239 A 
ATOM     30  O   UNL     1     -16.123 -23.331   6.148  1.00  0.00    -0.452 OA
ATOM     31  C   UNL     1     -15.923 -25.496   5.191  1.00  0.00     0.111 A 
ATOM     32  O   UNL     1     -17.897 -26.570   4.577  1.00  0.00    -0.285 OA
ATOM     33  C   UNL     1     -15.350 -24.330   5.747  1.00  0.00     0.146 A 
ATOM     34  C   UNL     1     -15.080 -26.579   4.865  1.00  0.00     0.134 A 
ATOM     35  C   UNL     1     -13.978 -24.221   5.880  1.00  0.00     0.094 A 
ATOM     36  C   UNL     1     -13.694 -26.490   5.095  1.00  0.00     0.093 A 
ATOM     37  C   UNL     1     -13.156 -25.313   5.603  1.00  0.00     0.123 A 
BRANCH  28  38
ATOM     38  C   UNL     1     -18.083 -22.112   6.539  1.00  0.00     0.025 A 
ATOM     39  C   UNL     1     -18.332 -21.093   5.610  1.00  0.00     0.062 A 
ATOM     40  C   UNL     1     -18.927 -22.155   7.672  1.00  0.00     0.016 A 
ATOM     41  C   UNL     1     -19.094 -19.967   5.951  1.00  0.00     0.158 A 
ATOM     42  C   UNL     1     -19.730 -21.049   8.017  1.00  0.00     0.051 A 
ATOM     43  C   UNL     1     -19.731 -19.917   7.190  1.00  0.00     0.157 A 
BRANCH  41  44
ATOM     44  O   UNL     1     -19.288 -19.001   4.983  1.00  0.00    -0.504 OA
ATOM     45  H   UNL     1     -19.237 -19.215   3.977  1.00  0.00     0.293 HD
ENDBRANCH  41  44
BRANCH  43  46
ATOM     46  O   UNL     1     -20.410 -18.781   7.626  1.00  0.00    -0.504 OA
ATOM     47  H   UNL     1     -21.364 -18.808   7.991  1.00  0.00     0.293 HD
ENDBRANCH  43  46
ENDBRANCH  28  38
BRANCH  34  48
ATOM     48  O   UNL     1     -15.618 -27.779   4.375  1.00  0.00    -0.507 OA
ATOM     49  H   UNL     1     -15.172 -28.309   3.634  1.00  0.00     0.293 HD
ENDBRANCH  34  48
BRANCH  37  50
ATOM     50  O   UNL     1     -11.781 -25.234   5.834  1.00  0.00    -0.508 OA
ATOM     51  H   UNL     1     -11.414 -24.743   6.644  1.00  0.00     0.293 HD
ENDBRANCH  37  50
ENDBRANCH  26  27
ENDBRANCH   5  26
BRANCH   4  52
ATOM     52  O   UNL     1     -22.785 -25.151   7.030  1.00  0.00    -0.384 OA
ATOM     53  H   UNL     1     -23.432 -25.872   6.787  1.00  0.00     0.211 HD
ENDBRANCH   4  52
TORSDOF 16
ENDMDL
MODEL 8
REMARK VINA RESULT:    -6.685      1.921      9.384
REMARK INTER + INTRA:         -13.067
REMARK INTER:                 -10.771
REMARK INTRA:                  -2.296
REMARK UNBOUND:                -2.082
REMARK SMILES C[C@H]1O[C@H](OC[C@@H]2O[C@@H](Oc3c(-c4ccc(O)c(O)c4)oc4cc(O)cc(O)c4c3=O)[C@H](O)[C@H](O)[C@H]2O)[C@@H](O)[C@H](O)[C@H]1O
REMARK SMILES IDX 7 1 36 2 34 3 32 4 9 5 8 6 6 7 5 8 4 9 1 10 2 11 42 12 3 13
REMARK SMILES IDX 40 14 38 15 43 16 41 18 39 20 37 22 35 24 10 26 11 27 12 28
REMARK SMILES IDX 30 29 21 30 29 31 31 32 22 33 27 34 23 35 26 36 24 37 13 38
REMARK SMILES IDX 20 39 14 40 18 41 15 42 16 43 19 44 17 46 28 48 25 50 33 52
REMARK H PARENT 43 17 41 19 39 21 37 23 35 25 19 45 17 47 28 49 25 51 33 53
REMARK Flexibility Score: inf
ROOT
ATOM      1  C   UNL     1     -17.525 -26.918   6.460  1.00  0.00     0.180 C 
ATOM      2  C   UNL     1     -17.341 -28.052   5.364  1.00  0.00     0.177 C 
ATOM      3  C   UNL     1     -18.718 -28.616   4.911  1.00  0.00     0.180 C 
ATOM      4  C   UNL     1     -19.704 -28.739   6.094  1.00  0.00     0.214 C 
ATOM      5  C   UNL     1     -19.885 -27.367   6.716  1.00  0.00     0.339 C 
ATOM      6  O   UNL     1     -18.658 -27.019   7.347  1.00  0.00    -0.332 OA
ENDROOT
BRANCH   1   7
ATOM      7  C   UNL     1     -16.239 -26.824   7.345  1.00  0.00     0.198 C 
BRANCH   7   8
ATOM      8  O   UNL     1     -15.065 -26.777   6.547  1.00  0.00    -0.347 OA
BRANCH   8   9
ATOM      9  C   UNL     1     -14.101 -25.832   7.059  1.00  0.00     0.281 C 
ATOM     10  C   UNL     1     -11.227 -28.122   6.660  1.00  0.00     0.041 C 
ATOM     11  C   UNL     1     -12.401 -27.214   6.223  1.00  0.00     0.150 C 
ATOM     12  C   UNL     1     -12.078 -26.226   5.071  1.00  0.00     0.174 C 
ATOM     13  O   UNL     1     -12.867 -26.520   7.365  1.00  0.00    -0.344 OA
ATOM     14  C   UNL     1     -13.327 -25.313   4.748  1.00  0.00     0.179 C 
ATOM     15  C   UNL     1     -13.892 -24.712   6.029  1.00  0.00     0.202 C 
BRANCH  12  16
ATOM     16  O   UNL     1     -11.003 -25.368   5.418  1.00  0.00    -0.388 OA
ATOM     17  H   UNL     1     -10.778 -24.773   4.645  1.00  0.00     0.211 HD
ENDBRANCH  12  16
BRANCH  14  18
ATOM     18  O   UNL     1     -14.405 -25.997   4.121  1.00  0.00    -0.387 OA
ATOM     19  H   UNL     1     -14.063 -26.905   3.866  1.00  0.00     0.211 HD
ENDBRANCH  14  18
BRANCH  15  20
ATOM     20  O   UNL     1     -13.089 -23.633   6.473  1.00  0.00    -0.385 OA
ATOM     21  H   UNL     1     -12.335 -23.991   7.023  1.00  0.00     0.211 HD
ENDBRANCH  15  20
ENDBRANCH   8   9
ENDBRANCH   7   8
ENDBRANCH   1   7
BRANCH   2  22
ATOM     22  O   UNL     1     -16.612 -27.553   4.240  1.00  0.00    -0.387 OA
ATOM     23  H   UNL     1     -16.263 -26.632   4.463  1.00  0.00     0.211 HD
ENDBRANCH   2  22
BRANCH   3  24
ATOM     24  O   UNL     1     -18.640 -29.858   4.214  1.00  0.00    -0.387 OA
ATOM     25  H   UNL     1     -19.063 -29.768   3.306  1.00  0.00     0.211 HD
ENDBRANCH   3  24
BRANCH   5  26
ATOM     26  O   UNL     1     -20.307 -26.358   5.784  1.00  0.00    -0.454 OA
BRANCH  26  27
ATOM     27  C   UNL     1     -20.606 -24.983   5.989  1.00  0.00     0.214 A 
ATOM     28  C   UNL     1     -21.738 -24.430   6.653  1.00  0.00     0.180 A 
ATOM     29  C   UNL     1     -19.658 -24.090   5.471  1.00  0.00     0.239 A 
ATOM     30  O   UNL     1     -21.843 -23.112   6.802  1.00  0.00    -0.452 OA
ATOM     31  C   UNL     1     -19.793 -22.709   5.673  1.00  0.00     0.111 A 
ATOM     32  O   UNL     1     -18.652 -24.567   4.852  1.00  0.00    -0.285 OA
ATOM     33  C   UNL     1     -20.939 -22.250   6.362  1.00  0.00     0.146 A 
ATOM     34  C   UNL     1     -18.802 -21.775   5.303  1.00  0.00     0.134 A 
ATOM     35  C   UNL     1     -21.125 -20.899   6.584  1.00  0.00     0.094 A 
ATOM     36  C   UNL     1     -18.960 -20.413   5.621  1.00  0.00     0.093 A 
ATOM     37  C   UNL     1     -20.120 -19.987   6.261  1.00  0.00     0.123 A 
BRANCH  28  38
ATOM     38  C   UNL     1     -22.889 -25.172   7.182  1.00  0.00     0.025 A 
ATOM     39  C   UNL     1     -23.815 -25.720   6.283  1.00  0.00     0.062 A 
ATOM     40  C   UNL     1     -22.771 -25.811   8.437  1.00  0.00     0.016 A 
ATOM     41  C   UNL     1     -24.824 -26.589   6.718  1.00  0.00     0.158 A 
ATOM     42  C   UNL     1     -23.755 -26.716   8.883  1.00  0.00     0.051 A 
ATOM     43  C   UNL     1     -24.834 -27.026   8.042  1.00  0.00     0.157 A 
BRANCH  41  44
ATOM     44  O   UNL     1     -25.704 -27.083   5.774  1.00  0.00    -0.504 OA
ATOM     45  H   UNL     1     -26.294 -26.465   5.199  1.00  0.00     0.293 HD
ENDBRANCH  41  44
BRANCH  43  46
ATOM     46  O   UNL     1     -25.872 -27.800   8.558  1.00  0.00    -0.504 OA
ATOM     47  H   UNL     1     -26.490 -27.477   9.305  1.00  0.00     0.293 HD
ENDBRANCH  43  46
ENDBRANCH  28  38
BRANCH  34  48
ATOM     48  O   UNL     1     -17.619 -22.200   4.680  1.00  0.00    -0.507 OA
ATOM     49  H   UNL     1     -17.591 -23.006   4.065  1.00  0.00     0.293 HD
ENDBRANCH  34  48
BRANCH  37  50
ATOM     50  O   UNL     1     -20.267 -18.636   6.578  1.00  0.00    -0.508 OA
ATOM     51  H   UNL     1     -19.756 -17.920   6.069  1.00  0.00     0.293 HD
ENDBRANCH  37  50
ENDBRANCH  26  27
ENDBRANCH   5  26
BRANCH   4  52
ATOM     52  O   UNL     1     -19.276 -29.610   7.102  1.00  0.00    -0.384 OA
ATOM     53  H   UNL     1     -20.100 -30.025   7.483  1.00  0.00     0.211 HD
ENDBRANCH   4  52
TORSDOF 16
ENDMDL
MODEL 9
REMARK VINA RESULT:    -6.654      2.072      4.672
REMARK INTER + INTRA:         -13.016
REMARK INTER:                  -9.691
REMARK INTRA:                  -3.325
REMARK UNBOUND:                -2.082
REMARK SMILES C[C@H]1O[C@H](OC[C@@H]2O[C@@H](Oc3c(-c4ccc(O)c(O)c4)oc4cc(O)cc(O)c4c3=O)[C@H](O)[C@H](O)[C@H]2O)[C@@H](O)[C@H](O)[C@H]1O
REMARK SMILES IDX 7 1 36 2 34 3 32 4 9 5 8 6 6 7 5 8 4 9 1 10 2 11 42 12 3 13
REMARK SMILES IDX 40 14 38 15 43 16 41 18 39 20 37 22 35 24 10 26 11 27 12 28
REMARK SMILES IDX 30 29 21 30 29 31 31 32 22 33 27 34 23 35 26 36 24 37 13 38
REMARK SMILES IDX 20 39 14 40 18 41 15 42 16 43 19 44 17 46 28 48 25 50 33 52
REMARK H PARENT 43 17 41 19 39 21 37 23 35 25 19 45 17 47 28 49 25 51 33 53
REMARK Flexibility Score: inf
ROOT
ATOM      1  C   UNL     1     -20.187 -23.049   6.533  1.00  0.00     0.180 C 
ATOM      2  C   UNL     1     -20.275 -21.699   5.701  1.00  0.00     0.177 C 
ATOM      3  C   UNL     1     -18.858 -21.213   5.280  1.00  0.00     0.180 C 
ATOM      4  C   UNL     1     -17.815 -21.452   6.396  1.00  0.00     0.214 C 
ATOM      5  C   UNL     1     -17.782 -22.934   6.715  1.00  0.00     0.339 C 
ATOM      6  O   UNL     1     -19.015 -23.263   7.345  1.00  0.00    -0.332 OA
ENDROOT
BRANCH   1   7
ATOM      7  C   UNL     1     -21.437 -23.177   7.465  1.00  0.00     0.198 C 
BRANCH   7   8
ATOM      8  O   UNL     1     -22.644 -23.156   6.717  1.00  0.00    -0.347 OA
BRANCH   8   9
ATOM      9  C   UNL     1     -23.029 -24.474   6.273  1.00  0.00     0.281 C 
ATOM     10  C   UNL     1     -26.166 -24.521   8.230  1.00  0.00     0.041 C 
ATOM     11  C   UNL     1     -25.172 -24.067   7.134  1.00  0.00     0.150 C 
ATOM     12  C   UNL     1     -25.780 -23.909   5.716  1.00  0.00     0.174 C 
ATOM     13  O   UNL     1     -24.088 -24.977   7.119  1.00  0.00    -0.344 OA
ATOM     14  C   UNL     1     -24.668 -23.499   4.670  1.00  0.00     0.179 C 
ATOM     15  C   UNL     1     -23.455 -24.411   4.799  1.00  0.00     0.202 C 
BRANCH  12  16
ATOM     16  O   UNL     1     -26.356 -25.125   5.267  1.00  0.00    -0.388 OA
ATOM     17  H   UNL     1     -25.885 -25.443   4.443  1.00  0.00     0.211 HD
ENDBRANCH  12  16
BRANCH  14  18
ATOM     18  O   UNL     1     -24.183 -22.170   4.823  1.00  0.00    -0.387 OA
ATOM     19  H   UNL     1     -23.837 -21.883   3.926  1.00  0.00     0.211 HD
ENDBRANCH  14  18
BRANCH  15  20
ATOM     20  O   UNL     1     -23.705 -25.666   4.194  1.00  0.00    -0.385 OA
ATOM     21  H   UNL     1     -23.741 -26.370   4.903  1.00  0.00     0.211 HD
ENDBRANCH  15  20
ENDBRANCH   8   9
ENDBRANCH   7   8
ENDBRANCH   1   7
BRANCH   2  22
ATOM     22  O   UNL     1     -21.107 -21.868   4.552  1.00  0.00    -0.387 OA
ATOM     23  H   UNL     1     -22.059 -21.649   4.806  1.00  0.00     0.211 HD
ENDBRANCH   2  22
BRANCH   3  24
ATOM     24  O   UNL     1     -18.809 -19.854   4.854  1.00  0.00    -0.387 OA
ATOM     25  H   UNL     1     -19.513 -19.688   4.156  1.00  0.00     0.211 HD
ENDBRANCH   3  24
BRANCH   5  26
ATOM     26  O   UNL     1     -17.529 -23.769   5.574  1.00  0.00    -0.454 OA
BRANCH  26  27
ATOM     27  C   UNL     1     -16.941 -25.061   5.492  1.00  0.00     0.214 A 
ATOM     28  C   UNL     1     -17.573 -26.319   5.713  1.00  0.00     0.180 A 
ATOM     29  C   UNL     1     -15.582 -25.070   5.151  1.00  0.00     0.239 A 
ATOM     30  O   UNL     1     -16.886 -27.446   5.546  1.00  0.00    -0.452 OA
ATOM     31  C   UNL     1     -14.901 -26.281   4.960  1.00  0.00     0.111 A 
ATOM     32  O   UNL     1     -14.994 -23.954   4.975  1.00  0.00    -0.285 OA
ATOM     33  C   UNL     1     -15.614 -27.482   5.179  1.00  0.00     0.146 A 
ATOM     34  C   UNL     1     -13.578 -26.354   4.476  1.00  0.00     0.134 A 
ATOM     35  C   UNL     1     -14.990 -28.704   5.011  1.00  0.00     0.094 A 
ATOM     36  C   UNL     1     -12.988 -27.606   4.217  1.00  0.00     0.093 A 
ATOM     37  C   UNL     1     -13.700 -28.770   4.485  1.00  0.00     0.123 A 
BRANCH  28  38
ATOM     38  C   UNL     1     -18.951 -26.536   6.168  1.00  0.00     0.025 A 
ATOM     39  C   UNL     1     -19.876 -27.109   5.285  1.00  0.00     0.062 A 
ATOM     40  C   UNL     1     -19.192 -26.727   7.548  1.00  0.00     0.016 A 
ATOM     41  C   UNL     1     -21.147 -27.508   5.719  1.00  0.00     0.158 A 
ATOM     42  C   UNL     1     -20.452 -27.161   8.008  1.00  0.00     0.051 A 
ATOM     43  C   UNL     1     -21.457 -27.460   7.077  1.00  0.00     0.157 A 
BRANCH  41  44
ATOM     44  O   UNL     1     -22.006 -28.058   4.787  1.00  0.00    -0.504 OA
ATOM     45  H   UNL     1     -22.912 -27.626   4.556  1.00  0.00     0.293 HD
ENDBRANCH  41  44
BRANCH  43  46
ATOM     46  O   UNL     1     -22.737 -27.738   7.554  1.00  0.00    -0.504 OA
ATOM     47  H   UNL     1     -23.526 -27.099   7.438  1.00  0.00     0.293 HD
ENDBRANCH  43  46
ENDBRANCH  28  38
BRANCH  34  48
ATOM     48  O   UNL     1     -12.861 -25.184   4.180  1.00  0.00    -0.507 OA
ATOM     49  H   UNL     1     -12.791 -24.413   4.834  1.00  0.00     0.293 HD
ENDBRANCH  34  48
BRANCH  37  50
ATOM     50  O   UNL     1     -13.110 -30.007   4.222  1.00  0.00    -0.508 OA
ATOM     51  H   UNL     1     -12.633 -30.526   4.954  1.00  0.00     0.293 HD
ENDBRANCH  37  50
ENDBRANCH  26  27
ENDBRANCH   5  26
BRANCH   4  52
ATOM     52  O   UNL     1     -18.088 -20.765   7.584  1.00  0.00    -0.384 OA
ATOM     53  H   UNL     1     -17.634 -19.880   7.508  1.00  0.00     0.211 HD
ENDBRANCH   4  52
TORSDOF 16
ENDMDL
