MODEL 1
REMARK VINA RESULT:    -1.206      0.000      0.000
REMARK INTER + INTRA:          -1.648
REMARK INTER:                  -1.417
REMARK INTRA:                  -0.231
REMARK UNBOUND:                -0.231
REMARK SMILES O=c1c(O)c(-c2ccc(O)cc2)oc2cc(O)cc(O)c12
REMARK SMILES IDX 5 1 3 2 2 3 1 4 21 5 19 6 18 7 16 8 15 9 14 10 13 11 6 12
REMARK SMILES IDX 7 13 8 14 9 15 12 16 11 17 10 18 4 20 20 22 17 24
REMARK H PARENT 10 19 4 21 20 23 17 25
REMARK Flexibility Score: inf
ROOT
ATOM      1  C   UNL     1      16.257  -0.434  26.907  1.00  0.00     0.180 A 
ATOM      2  C   UNL     1      15.604  -0.922  28.055  1.00  0.00     0.208 A 
ATOM      3  C   UNL     1      16.296  -1.794  28.910  1.00  0.00     0.238 A 
ATOM      4  O   UNL     1      15.725  -2.228  29.948  1.00  0.00    -0.285 OA
ATOM      5  C   UNL     1      17.615  -2.178  28.595  1.00  0.00     0.111 A 
ATOM      6  C   UNL     1      18.380  -3.056  29.401  1.00  0.00     0.134 A 
ATOM      7  C   UNL     1      19.684  -3.398  29.012  1.00  0.00     0.093 A 
ATOM      8  C   UNL     1      20.236  -2.880  27.836  1.00  0.00     0.123 A 
ATOM      9  C   UNL     1      19.486  -2.015  27.039  1.00  0.00     0.094 A 
ATOM     10  C   UNL     1      18.185  -1.660  27.409  1.00  0.00     0.146 A 
ATOM     11  O   UNL     1      17.497  -0.830  26.634  1.00  0.00    -0.452 OA
ENDROOT
BRANCH   1  12
ATOM     12  C   UNL     1      15.601   0.504  25.967  1.00  0.00     0.021 A 
ATOM     13  C   UNL     1      15.385   1.851  26.308  1.00  0.00     0.016 A 
ATOM     14  C   UNL     1      14.786   2.724  25.394  1.00  0.00     0.047 A 
ATOM     15  C   UNL     1      14.407   2.265  24.126  1.00  0.00     0.115 A 
ATOM     16  C   UNL     1      15.238   0.057  24.685  1.00  0.00     0.016 A 
ATOM     17  C   UNL     1      14.638   0.932  23.775  1.00  0.00     0.047 A 
BRANCH  15  18
ATOM     18  O   UNL     1      13.809   3.125  23.208  1.00  0.00    -0.508 OA
ATOM     19  H   UNL     1      14.023   3.074  22.218  1.00  0.00     0.293 HD
ENDBRANCH  15  18
ENDBRANCH   1  12
BRANCH   2  20
ATOM     20  O   UNL     1      14.279  -0.565  28.320  1.00  0.00    -0.502 OA
ATOM     21  H   UNL     1      13.672  -0.168  27.613  1.00  0.00     0.293 HD
ENDBRANCH   2  20
BRANCH   6  22
ATOM     22  O   UNL     1      17.856  -3.589  30.579  1.00  0.00    -0.507 OA
ATOM     23  H   UNL     1      17.929  -4.576  30.796  1.00  0.00     0.293 HD
ENDBRANCH   6  22
BRANCH   8  24
ATOM     24  O   UNL     1      21.531  -3.221  27.450  1.00  0.00    -0.508 OA
ATOM     25  H   UNL     1      22.323  -3.079  28.067  1.00  0.00     0.293 HD
ENDBRANCH   8  24
TORSDOF 5
ENDMDL
MODEL 2
REMARK VINA RESULT:    -0.533      1.194      2.903
REMARK INTER + INTRA:          -0.857
REMARK INTER:                  -0.786
REMARK INTRA:                  -0.071
REMARK UNBOUND:                -0.231
REMARK SMILES O=c1c(O)c(-c2ccc(O)cc2)oc2cc(O)cc(O)c12
REMARK SMILES IDX 5 1 3 2 2 3 1 4 21 5 19 6 18 7 16 8 15 9 14 10 13 11 6 12
REMARK SMILES IDX 7 13 8 14 9 15 12 16 11 17 10 18 4 20 20 22 17 24
REMARK H PARENT 10 19 4 21 20 23 17 25
REMARK Flexibility Score: inf
ROOT
ATOM      1  C   UNL     1      16.694  -0.427  26.574  1.00  0.00     0.180 A 
ATOM      2  C   UNL     1      17.940  -0.895  26.113  1.00  0.00     0.208 A 
ATOM      3  C   UNL     1      18.666  -1.791  26.912  1.00  0.00     0.238 A 
ATOM      4  O   UNL     1      19.777  -2.227  26.504  1.00  0.00    -0.285 OA
ATOM      5  C   UNL     1      18.148  -2.186  28.162  1.00  0.00     0.111 A 
ATOM      6  C   UNL     1      18.818  -3.083  29.030  1.00  0.00     0.134 A 
ATOM      7  C   UNL     1      18.240  -3.420  30.263  1.00  0.00     0.093 A 
ATOM      8  C   UNL     1      17.008  -2.879  30.644  1.00  0.00     0.123 A 
ATOM      9  C   UNL     1      16.344  -1.995  29.792  1.00  0.00     0.094 A 
ATOM     10  C   UNL     1      16.902  -1.648  28.559  1.00  0.00     0.146 A 
ATOM     11  O   UNL     1      16.245  -0.809  27.766  1.00  0.00    -0.452 OA
ENDROOT
BRANCH   1  12
ATOM     12  C   UNL     1      15.861   0.505  25.780  1.00  0.00     0.021 A 
ATOM     13  C   UNL     1      15.533   1.785  26.261  1.00  0.00     0.016 A 
ATOM     14  C   UNL     1      14.765   2.657  25.483  1.00  0.00     0.047 A 
ATOM     15  C   UNL     1      14.326   2.266  24.212  1.00  0.00     0.115 A 
ATOM     16  C   UNL     1      15.434   0.128  24.495  1.00  0.00     0.016 A 
ATOM     17  C   UNL     1      14.666   1.002  23.720  1.00  0.00     0.047 A 
BRANCH  15  18
ATOM     18  O   UNL     1      13.559   3.125  23.428  1.00  0.00    -0.508 OA
ATOM     19  H   UNL     1      12.623   3.400  23.705  1.00  0.00     0.293 HD
ENDBRANCH  15  18
ENDBRANCH   1  12
BRANCH   2  20
ATOM     20  O   UNL     1      18.454  -0.450  24.892  1.00  0.00    -0.502 OA
ATOM     21  H   UNL     1      17.860  -0.208  24.108  1.00  0.00     0.293 HD
ENDBRANCH   2  20
BRANCH   6  22
ATOM     22  O   UNL     1      20.049  -3.638  28.678  1.00  0.00    -0.507 OA
ATOM     23  H   UNL     1      20.905  -3.384  29.158  1.00  0.00     0.293 HD
ENDBRANCH   6  22
BRANCH   8  24
ATOM     24  O   UNL     1      16.434  -3.212  31.870  1.00  0.00    -0.508 OA
ATOM     25  H   UNL     1      15.503  -3.608  31.929  1.00  0.00     0.293 HD
ENDBRANCH   8  24
TORSDOF 5
ENDMDL
MODEL 3
REMARK VINA RESULT:    -0.203      2.912      6.163
REMARK INTER + INTRA:          -0.470
REMARK INTER:                  -0.445
REMARK INTRA:                  -0.025
REMARK UNBOUND:                -0.231
REMARK SMILES O=c1c(O)c(-c2ccc(O)cc2)oc2cc(O)cc(O)c12
REMARK SMILES IDX 5 1 3 2 2 3 1 4 21 5 19 6 18 7 16 8 15 9 14 10 13 11 6 12
REMARK SMILES IDX 7 13 8 14 9 15 12 16 11 17 10 18 4 20 20 22 17 24
REMARK H PARENT 10 19 4 21 20 23 17 25
REMARK Flexibility Score: inf
ROOT
ATOM      1  C   UNL     1      15.894  -2.114  26.999  1.00  0.00     0.180 A 
ATOM      2  C   UNL     1      16.122  -1.676  28.318  1.00  0.00     0.208 A 
ATOM      3  C   UNL     1      15.938  -0.318  28.623  1.00  0.00     0.238 A 
ATOM      4  O   UNL     1      16.127   0.084  29.803  1.00  0.00    -0.285 OA
ATOM      5  C   UNL     1      15.552   0.578  27.605  1.00  0.00     0.111 A 
ATOM      6  C   UNL     1      15.349   1.963  27.828  1.00  0.00     0.134 A 
ATOM      7  C   UNL     1      14.974   2.791  26.759  1.00  0.00     0.093 A 
ATOM      8  C   UNL     1      14.798   2.263  25.476  1.00  0.00     0.123 A 
ATOM      9  C   UNL     1      14.997   0.900  25.252  1.00  0.00     0.094 A 
ATOM     10  C   UNL     1      15.369   0.057  26.303  1.00  0.00     0.146 A 
ATOM     11  O   UNL     1      15.546  -1.237  26.062  1.00  0.00    -0.452 OA
ENDROOT
BRANCH   1  12
ATOM     12  C   UNL     1      16.048  -3.533  26.604  1.00  0.00     0.021 A 
ATOM     13  C   UNL     1      17.246  -4.232  26.834  1.00  0.00     0.016 A 
ATOM     14  C   UNL     1      17.360  -5.578  26.474  1.00  0.00     0.047 A 
ATOM     15  C   UNL     1      16.275  -6.245  25.892  1.00  0.00     0.115 A 
ATOM     16  C   UNL     1      14.957  -4.216  26.039  1.00  0.00     0.016 A 
ATOM     17  C   UNL     1      15.075  -5.561  25.679  1.00  0.00     0.047 A 
BRANCH  15  18
ATOM     18  O   UNL     1      16.377  -7.586  25.528  1.00  0.00    -0.508 OA
ATOM     19  H   UNL     1      16.420  -7.869  24.555  1.00  0.00     0.293 HD
ENDBRANCH  15  18
ENDBRANCH   1  12
BRANCH   2  20
ATOM     20  O   UNL     1      16.551  -2.575  29.297  1.00  0.00    -0.502 OA
ATOM     21  H   UNL     1      16.175  -3.512  29.377  1.00  0.00     0.293 HD
ENDBRANCH   2  20
BRANCH   6  22
ATOM     22  O   UNL     1      15.517   2.518  29.097  1.00  0.00    -0.507 OA
ATOM     23  H   UNL     1      14.813   3.113  29.515  1.00  0.00     0.293 HD
ENDBRANCH   6  22
BRANCH   8  24
ATOM     24  O   UNL     1      14.427   3.086  24.414  1.00  0.00    -0.508 OA
ATOM     25  H   UNL     1      13.560   2.942  23.910  1.00  0.00     0.293 HD
ENDBRANCH   8  24
TORSDOF 5
ENDMDL
MODEL 4
REMARK VINA RESULT:    -0.203     11.035     13.567
REMARK INTER + INTRA:          -0.469
REMARK INTER:                  -0.247
REMARK INTRA:                  -0.222
REMARK UNBOUND:                -0.231
REMARK SMILES O=c1c(O)c(-c2ccc(O)cc2)oc2cc(O)cc(O)c12
REMARK SMILES IDX 5 1 3 2 2 3 1 4 21 5 19 6 18 7 16 8 15 9 14 10 13 11 6 12
REMARK SMILES IDX 7 13 8 14 9 15 12 16 11 17 10 18 4 20 20 22 17 24
REMARK H PARENT 10 19 4 21 20 23 17 25
REMARK Flexibility Score: inf
ROOT
ATOM      1  C   UNL     1      13.601 -13.039  28.635  1.00  0.00     0.180 A 
ATOM      2  C   UNL     1      12.294 -12.707  28.230  1.00  0.00     0.208 A 
ATOM      3  C   UNL     1      11.621 -11.669  28.892  1.00  0.00     0.238 A 
ATOM      4  O   UNL     1      10.455 -11.355  28.530  1.00  0.00    -0.285 OA
ATOM      5  C   UNL     1      12.255 -10.996  29.956  1.00  0.00     0.111 A 
ATOM      6  C   UNL     1      11.645  -9.941  30.679  1.00  0.00     0.134 A 
ATOM      7  C   UNL     1      12.339  -9.328  31.732  1.00  0.00     0.093 A 
ATOM      8  C   UNL     1      13.628  -9.748  32.077  1.00  0.00     0.123 A 
ATOM      9  C   UNL     1      14.233 -10.787  31.369  1.00  0.00     0.094 A 
ATOM     10  C   UNL     1      13.559 -11.410  30.314  1.00  0.00     0.146 A 
ATOM     11  O   UNL     1      14.161 -12.392  29.654  1.00  0.00    -0.452 OA
ENDROOT
BRANCH   1  12
ATOM     12  C   UNL     1      14.383 -14.109  27.974  1.00  0.00     0.021 A 
ATOM     13  C   UNL     1      14.559 -15.367  28.577  1.00  0.00     0.016 A 
ATOM     14  C   UNL     1      15.280 -16.370  27.922  1.00  0.00     0.047 A 
ATOM     15  C   UNL     1      15.823 -16.133  26.653  1.00  0.00     0.115 A 
ATOM     16  C   UNL     1      14.912 -13.887  26.691  1.00  0.00     0.016 A 
ATOM     17  C   UNL     1      15.634 -14.891  26.040  1.00  0.00     0.047 A 
BRANCH  15  18
ATOM     18  O   UNL     1      16.545 -17.124  25.992  1.00  0.00    -0.508 OA
ATOM     19  H   UNL     1      16.413 -17.305  25.003  1.00  0.00     0.293 HD
ENDBRANCH  15  18
ENDBRANCH   1  12
BRANCH   2  20
ATOM     20  O   UNL     1      11.669 -13.422  27.205  1.00  0.00    -0.502 OA
ATOM     21  H   UNL     1      11.123 -12.970  26.482  1.00  0.00     0.293 HD
ENDBRANCH   2  20
BRANCH   6  22
ATOM     22  O   UNL     1      10.360  -9.500  30.358  1.00  0.00    -0.507 OA
ATOM     23  H   UNL     1       9.874  -8.818  30.928  1.00  0.00     0.293 HD
ENDBRANCH   6  22
BRANCH   8  24
ATOM     24  O   UNL     1      14.317  -9.140  33.125  1.00  0.00    -0.508 OA
ATOM     25  H   UNL     1      14.067  -9.310  34.093  1.00  0.00     0.293 HD
ENDBRANCH   8  24
TORSDOF 5
ENDMDL
MODEL 5
REMARK VINA RESULT:     0.032      4.532      5.759
REMARK INTER + INTRA:          -0.193
REMARK INTER:                   0.079
REMARK INTRA:                  -0.273
REMARK UNBOUND:                -0.231
REMARK SMILES O=c1c(O)c(-c2ccc(O)cc2)oc2cc(O)cc(O)c12
REMARK SMILES IDX 5 1 3 2 2 3 1 4 21 5 19 6 18 7 16 8 15 9 14 10 13 11 6 12
REMARK SMILES IDX 7 13 8 14 9 15 12 16 11 17 10 18 4 20 20 22 17 24
REMARK H PARENT 10 19 4 21 20 23 17 25
REMARK Flexibility Score: inf
ROOT
ATOM      1  C   UNL     1      16.189  -4.644  26.141  1.00  0.00     0.180 A 
ATOM      2  C   UNL     1      15.294  -3.601  26.447  1.00  0.00     0.208 A 
ATOM      3  C   UNL     1      15.766  -2.491  27.164  1.00  0.00     0.238 A 
ATOM      4  O   UNL     1      14.976  -1.545  27.433  1.00  0.00    -0.285 OA
ATOM      5  C   UNL     1      17.113  -2.450  27.579  1.00  0.00     0.111 A 
ATOM      6  C   UNL     1      17.667  -1.370  28.308  1.00  0.00     0.134 A 
ATOM      7  C   UNL     1      19.015  -1.410  28.693  1.00  0.00     0.093 A 
ATOM      8  C   UNL     1      19.819  -2.507  28.363  1.00  0.00     0.123 A 
ATOM      9  C   UNL     1      19.277  -3.573  27.644  1.00  0.00     0.094 A 
ATOM     10  C   UNL     1      17.936  -3.552  27.250  1.00  0.00     0.146 A 
ATOM     11  O   UNL     1      17.449  -4.579  26.562  1.00  0.00    -0.452 OA
ENDROOT
BRANCH   1  12
ATOM     12  C   UNL     1      15.772  -5.840  25.372  1.00  0.00     0.021 A 
ATOM     13  C   UNL     1      15.388  -7.028  26.018  1.00  0.00     0.016 A 
ATOM     14  C   UNL     1      14.974  -8.136  25.272  1.00  0.00     0.047 A 
ATOM     15  C   UNL     1      14.927  -8.066  23.874  1.00  0.00     0.115 A 
ATOM     16  C   UNL     1      15.702  -5.770  23.970  1.00  0.00     0.016 A 
ATOM     17  C   UNL     1      15.289  -6.880  23.228  1.00  0.00     0.047 A 
BRANCH  15  18
ATOM     18  O   UNL     1      14.518  -9.164  23.120  1.00  0.00    -0.508 OA
ATOM     19  H   UNL     1      13.537  -9.387  23.000  1.00  0.00     0.293 HD
ENDBRANCH  15  18
ENDBRANCH   1  12
BRANCH   2  20
ATOM     20  O   UNL     1      13.952  -3.688  26.067  1.00  0.00    -0.502 OA
ATOM     21  H   UNL     1      13.563  -3.128  25.318  1.00  0.00     0.293 HD
ENDBRANCH   2  20
BRANCH   6  22
ATOM     22  O   UNL     1      16.890  -0.263  28.652  1.00  0.00    -0.507 OA
ATOM     23  H   UNL     1      17.276   0.674  28.670  1.00  0.00     0.293 HD
ENDBRANCH   6  22
BRANCH   8  24
ATOM     24  O   UNL     1      21.158  -2.547  28.746  1.00  0.00    -0.508 OA
ATOM     25  H   UNL     1      21.873  -2.928  28.137  1.00  0.00     0.293 HD
ENDBRANCH   8  24
TORSDOF 5
ENDMDL
MODEL 6
REMARK VINA RESULT:     0.210     12.267     14.157
REMARK INTER + INTRA:           0.016
REMARK INTER:                   0.019
REMARK INTRA:                  -0.003
REMARK UNBOUND:                -0.231
REMARK SMILES O=c1c(O)c(-c2ccc(O)cc2)oc2cc(O)cc(O)c12
REMARK SMILES IDX 5 1 3 2 2 3 1 4 21 5 19 6 18 7 16 8 15 9 14 10 13 11 6 12
REMARK SMILES IDX 7 13 8 14 9 15 12 16 11 17 10 18 4 20 20 22 17 24
REMARK H PARENT 10 19 4 21 20 23 17 25
REMARK Flexibility Score: inf
ROOT
ATOM      1  C   UNL     1      13.123 -13.545  29.155  1.00  0.00     0.180 A 
ATOM      2  C   UNL     1      13.762 -13.963  27.972  1.00  0.00     0.208 A 
ATOM      3  C   UNL     1      14.715 -14.991  28.042  1.00  0.00     0.238 A 
ATOM      4  O   UNL     1      15.285 -15.382  26.988  1.00  0.00    -0.285 OA
ATOM      5  C   UNL     1      15.028 -15.567  29.291  1.00  0.00     0.111 A 
ATOM      6  C   UNL     1      15.979 -16.604  29.450  1.00  0.00     0.134 A 
ATOM      7  C   UNL     1      16.240 -17.117  30.728  1.00  0.00     0.093 A 
ATOM      8  C   UNL     1      15.571 -16.615  31.849  1.00  0.00     0.123 A 
ATOM      9  C   UNL     1      14.633 -15.593  31.698  1.00  0.00     0.094 A 
ATOM     10  C   UNL     1      14.356 -15.068  30.432  1.00  0.00     0.146 A 
ATOM     11  O   UNL     1      13.455 -14.100  30.317  1.00  0.00    -0.452 OA
ENDROOT
BRANCH   1  12
ATOM     12  C   UNL     1      12.093 -12.480  29.159  1.00  0.00     0.021 A 
ATOM     13  C   UNL     1      10.994 -12.521  28.283  1.00  0.00     0.016 A 
ATOM     14  C   UNL     1      10.021 -11.517  28.323  1.00  0.00     0.047 A 
ATOM     15  C   UNL     1      10.129 -10.468  29.245  1.00  0.00     0.115 A 
ATOM     16  C   UNL     1      12.182 -11.436  30.096  1.00  0.00     0.016 A 
ATOM     17  C   UNL     1      11.209 -10.434  30.132  1.00  0.00     0.047 A 
BRANCH  15  18
ATOM     18  O   UNL     1       9.167  -9.462  29.293  1.00  0.00    -0.508 OA
ATOM     19  H   UNL     1       9.129  -8.802  30.062  1.00  0.00     0.293 HD
ENDBRANCH  15  18
ENDBRANCH   1  12
BRANCH   2  20
ATOM     20  O   UNL     1      13.470 -13.343  26.754  1.00  0.00    -0.502 OA
ATOM     21  H   UNL     1      12.791 -13.717  26.103  1.00  0.00     0.293 HD
ENDBRANCH   2  20
BRANCH   6  22
ATOM     22  O   UNL     1      16.663 -17.125  28.351  1.00  0.00    -0.507 OA
ATOM     23  H   UNL     1      16.246 -17.821  27.745  1.00  0.00     0.293 HD
ENDBRANCH   6  22
BRANCH   8  24
ATOM     24  O   UNL     1      15.832 -17.124  33.120  1.00  0.00    -0.508 OA
ATOM     25  H   UNL     1      16.299 -18.015  33.248  1.00  0.00     0.293 HD
ENDBRANCH   8  24
TORSDOF 5
ENDMDL
MODEL 7
REMARK VINA RESULT:     0.458     11.306     13.776
REMARK INTER + INTRA:           0.308
REMARK INTER:                   0.597
REMARK INTRA:                  -0.289
REMARK UNBOUND:                -0.231
REMARK SMILES O=c1c(O)c(-c2ccc(O)cc2)oc2cc(O)cc(O)c12
REMARK SMILES IDX 5 1 3 2 2 3 1 4 21 5 19 6 18 7 16 8 15 9 14 10 13 11 6 12
REMARK SMILES IDX 7 13 8 14 9 15 12 16 11 17 10 18 4 20 20 22 17 24
REMARK H PARENT 10 19 4 21 20 23 17 25
REMARK Flexibility Score: inf
ROOT
ATOM      1  C   UNL     1      13.978 -12.973  28.781  1.00  0.00     0.180 A 
ATOM      2  C   UNL     1      14.630 -12.221  29.777  1.00  0.00     0.208 A 
ATOM      3  C   UNL     1      13.914 -11.215  30.445  1.00  0.00     0.238 A 
ATOM      4  O   UNL     1      14.483 -10.543  31.348  1.00  0.00    -0.285 OA
ATOM      5  C   UNL     1      12.572 -10.965  30.094  1.00  0.00     0.111 A 
ATOM      6  C   UNL     1      11.781  -9.968  30.715  1.00  0.00     0.134 A 
ATOM      7  C   UNL     1      10.454  -9.774  30.301  1.00  0.00     0.093 A 
ATOM      8  C   UNL     1       9.905 -10.557  29.280  1.00  0.00     0.123 A 
ATOM      9  C   UNL     1      10.680 -11.541  28.665  1.00  0.00     0.094 A 
ATOM     10  C   UNL     1      12.003 -11.751  29.064  1.00  0.00     0.146 A 
ATOM     11  O   UNL     1      12.716 -12.698  28.466  1.00  0.00    -0.452 OA
ENDROOT
BRANCH   1  12
ATOM     12  C   UNL     1      14.660 -14.063  28.046  1.00  0.00     0.021 A 
ATOM     13  C   UNL     1      14.765 -15.357  28.585  1.00  0.00     0.016 A 
ATOM     14  C   UNL     1      15.391 -16.376  27.861  1.00  0.00     0.047 A 
ATOM     15  C   UNL     1      15.909 -16.118  26.586  1.00  0.00     0.115 A 
ATOM     16  C   UNL     1      15.163 -13.817  26.757  1.00  0.00     0.016 A 
ATOM     17  C   UNL     1      15.790 -14.838  26.036  1.00  0.00     0.047 A 
BRANCH  15  18
ATOM     18  O   UNL     1      16.537 -17.125  25.856  1.00  0.00    -0.508 OA
ATOM     19  H   UNL     1      16.139 -17.479  24.993  1.00  0.00     0.293 HD
ENDBRANCH  15  18
ENDBRANCH   1  12
BRANCH   2  20
ATOM     20  O   UNL     1      15.975 -12.455  30.073  1.00  0.00    -0.502 OA
ATOM     21  H   UNL     1      16.721 -12.219  29.430  1.00  0.00     0.293 HD
ENDBRANCH   2  20
BRANCH   6  22
ATOM     22  O   UNL     1      12.302  -9.171  31.735  1.00  0.00    -0.507 OA
ATOM     23  H   UNL     1      13.240  -9.307  32.091  1.00  0.00     0.293 HD
ENDBRANCH   6  22
BRANCH   8  24
ATOM     24  O   UNL     1       8.588 -10.363  28.868  1.00  0.00    -0.508 OA
ATOM     25  H   UNL     1       7.814 -10.424  29.520  1.00  0.00     0.293 HD
ENDBRANCH   8  24
TORSDOF 5
ENDMDL
MODEL 8
REMARK VINA RESULT:     0.554      8.899     10.402
REMARK INTER + INTRA:           0.420
REMARK INTER:                   0.702
REMARK INTRA:                  -0.282
REMARK UNBOUND:                -0.231
REMARK SMILES O=c1c(O)c(-c2ccc(O)cc2)oc2cc(O)cc(O)c12
REMARK SMILES IDX 5 1 3 2 2 3 1 4 21 5 19 6 18 7 16 8 15 9 14 10 13 11 6 12
REMARK SMILES IDX 7 13 8 14 9 15 12 16 11 17 10 18 4 20 20 22 17 24
REMARK H PARENT 10 19 4 21 20 23 17 25
REMARK Flexibility Score: inf
ROOT
ATOM      1  C   UNL     1      14.200  -9.578  26.930  1.00  0.00     0.180 A 
ATOM      2  C   UNL     1      15.079 -10.502  27.526  1.00  0.00     0.208 A 
ATOM      3  C   UNL     1      14.592 -11.348  28.535  1.00  0.00     0.238 A 
ATOM      4  O   UNL     1      15.367 -12.189  29.068  1.00  0.00    -0.285 OA
ATOM      5  C   UNL     1      13.247 -11.243  28.943  1.00  0.00     0.111 A 
ATOM      6  C   UNL     1      12.678 -12.055  29.955  1.00  0.00     0.134 A 
ATOM      7  C   UNL     1      11.332 -11.882  30.310  1.00  0.00     0.093 A 
ATOM      8  C   UNL     1      10.546 -10.914  29.676  1.00  0.00     0.123 A 
ATOM      9  C   UNL     1      11.102 -10.112  28.679  1.00  0.00     0.094 A 
ATOM     10  C   UNL     1      12.441 -10.270  28.308  1.00  0.00     0.146 A 
ATOM     11  O   UNL     1      12.942  -9.496  27.352  1.00  0.00    -0.452 OA
ENDROOT
BRANCH   1  12
ATOM     12  C   UNL     1      14.634  -8.664  25.848  1.00  0.00     0.021 A 
ATOM     13  C   UNL     1      15.271  -7.443  26.131  1.00  0.00     0.016 A 
ATOM     14  C   UNL     1      15.694  -6.609  25.091  1.00  0.00     0.047 A 
ATOM     15  C   UNL     1      15.496  -6.990  23.758  1.00  0.00     0.115 A 
ATOM     16  C   UNL     1      14.458  -9.049  24.507  1.00  0.00     0.016 A 
ATOM     17  C   UNL     1      14.881  -8.212  23.471  1.00  0.00     0.047 A 
BRANCH  15  18
ATOM     18  O   UNL     1      15.911  -6.166  22.714  1.00  0.00    -0.508 OA
ATOM     19  H   UNL     1      16.536  -6.504  21.990  1.00  0.00     0.293 HD
ENDBRANCH  15  18
ENDBRANCH   1  12
BRANCH   2  20
ATOM     20  O   UNL     1      16.420 -10.553  27.139  1.00  0.00    -0.502 OA
ATOM     21  H   UNL     1      17.178 -10.606  27.809  1.00  0.00     0.293 HD
ENDBRANCH   2  20
BRANCH   6  22
ATOM     22  O   UNL     1      13.438 -13.028  30.606  1.00  0.00    -0.507 OA
ATOM     23  H   UNL     1      14.133 -12.783  31.301  1.00  0.00     0.293 HD
ENDBRANCH   6  22
BRANCH   8  24
ATOM     24  O   UNL     1       9.209 -10.741  30.031  1.00  0.00    -0.508 OA
ATOM     25  H   UNL     1       8.690  -9.916  29.754  1.00  0.00     0.293 HD
ENDBRANCH   8  24
TORSDOF 5
ENDMDL
MODEL 9
REMARK VINA RESULT:     0.854     10.274     11.719
REMARK INTER + INTRA:           0.774
REMARK INTER:                   0.739
REMARK INTRA:                   0.035
REMARK UNBOUND:                -0.231
REMARK SMILES O=c1c(O)c(-c2ccc(O)cc2)oc2cc(O)cc(O)c12
REMARK SMILES IDX 5 1 3 2 2 3 1 4 21 5 19 6 18 7 16 8 15 9 14 10 13 11 6 12
REMARK SMILES IDX 7 13 8 14 9 15 12 16 11 17 10 18 4 20 20 22 17 24
REMARK H PARENT 10 19 4 21 20 23 17 25
REMARK Flexibility Score: inf
ROOT
ATOM      1  C   UNL     1      14.352 -11.381  28.243  1.00  0.00     0.180 A 
ATOM      2  C   UNL     1      13.989 -11.414  29.602  1.00  0.00     0.208 A 
ATOM      3  C   UNL     1      14.096 -12.624  30.305  1.00  0.00     0.238 A 
ATOM      4  O   UNL     1      13.785 -12.663  31.526  1.00  0.00    -0.285 OA
ATOM      5  C   UNL     1      14.542 -13.781  29.634  1.00  0.00     0.111 A 
ATOM      6  C   UNL     1      14.675 -15.042  30.267  1.00  0.00     0.134 A 
ATOM      7  C   UNL     1      15.116 -16.148  29.527  1.00  0.00     0.093 A 
ATOM      8  C   UNL     1      15.428 -16.020  28.170  1.00  0.00     0.123 A 
ATOM      9  C   UNL     1      15.299 -14.781  27.541  1.00  0.00     0.094 A 
ATOM     10  C   UNL     1      14.862 -13.665  28.261  1.00  0.00     0.146 A 
ATOM     11  O   UNL     1      14.754 -12.497  27.639  1.00  0.00    -0.452 OA
ENDROOT
BRANCH   1  12
ATOM     12  C   UNL     1      14.285 -10.139  27.439  1.00  0.00     0.021 A 
ATOM     13  C   UNL     1      13.127  -9.342  27.417  1.00  0.00     0.016 A 
ATOM     14  C   UNL     1      13.096  -8.160  26.671  1.00  0.00     0.047 A 
ATOM     15  C   UNL     1      14.224  -7.754  25.947  1.00  0.00     0.115 A 
ATOM     16  C   UNL     1      15.420  -9.714  26.728  1.00  0.00     0.016 A 
ATOM     17  C   UNL     1      15.385  -8.532  25.982  1.00  0.00     0.047 A 
BRANCH  15  18
ATOM     18  O   UNL     1      14.204  -6.579  25.199  1.00  0.00    -0.508 OA
ATOM     19  H   UNL     1      13.682  -6.513  24.332  1.00  0.00     0.293 HD
ENDBRANCH  15  18
ENDBRANCH   1  12
BRANCH   2  20
ATOM     20  O   UNL     1      13.503 -10.265  30.231  1.00  0.00    -0.502 OA
ATOM     21  H   UNL     1      13.003  -9.541  29.729  1.00  0.00     0.293 HD
ENDBRANCH   2  20
BRANCH   6  22
ATOM     22  O   UNL     1      14.371 -15.201  31.620  1.00  0.00    -0.507 OA
ATOM     23  H   UNL     1      13.713 -14.592  32.093  1.00  0.00     0.293 HD
ENDBRANCH   6  22
BRANCH   8  24
ATOM     24  O   UNL     1      15.865 -17.120  27.434  1.00  0.00    -0.508 OA
ATOM     25  H   UNL     1      16.047 -17.054  26.439  1.00  0.00     0.293 HD
ENDBRANCH   8  24
TORSDOF 5
ENDMDL
