MODEL 1
REMARK VINA RESULT:    -4.080      0.000      0.000
REMARK INTER + INTRA:          -5.610
REMARK INTER:                  -5.273
REMARK INTRA:                  -0.337
REMARK UNBOUND:                -0.337
REMARK SMILES C=CC(=O)CCCCC
REMARK SMILES IDX 6 1 7 2 8 3 9 4 5 5 3 6 4 7 2 8 1 9
REMARK H PARENT
REMARK Flexibility Score: inf
ROOT
ATOM      1  C   UNL     1     -24.157  19.418 -34.421  1.00  0.00     0.008 C 
ENDROOT
BRANCH   1   2
ATOM      2  C   UNL     1     -23.372  20.384 -33.516  1.00  0.00     0.000 C 
BRANCH   2   3
ATOM      3  C   UNL     1     -22.619  19.657 -32.391  1.00  0.00    -0.003 C 
ATOM      4  C   UNL     1     -23.321  18.376 -31.941  1.00  0.00     0.004 C 
ENDBRANCH   2   3
ENDBRANCH   1   2
BRANCH   1   5
ATOM      5  C   UNL     1     -25.540  19.975 -34.799  1.00  0.00     0.080 C 
BRANCH   5   6
ATOM      6  C   UNL     1     -26.637  19.590 -33.832  1.00  0.00     0.155 C 
ATOM      7  O   UNL     1     -26.612  18.461 -33.271  1.00  0.00    -0.295 OA
BRANCH   6   8
ATOM      8  C   UNL     1     -27.727  20.519 -33.469  1.00  0.00     0.039 C 
ATOM      9  C   UNL     1     -27.575  21.840 -33.388  1.00  0.00     0.012 C 
ENDBRANCH   6   8
ENDBRANCH   5   6
ENDBRANCH   1   5
TORSDOF 5
ENDMDL
MODEL 2
REMARK VINA RESULT:    -3.976      1.548      4.275
REMARK INTER + INTRA:          -5.476
REMARK INTER:                  -5.218
REMARK INTRA:                  -0.258
REMARK UNBOUND:                -0.337
REMARK SMILES C=CC(=O)CCCCC
REMARK SMILES IDX 6 1 7 2 8 3 9 4 5 5 3 6 4 7 2 8 1 9
REMARK H PARENT
REMARK Flexibility Score: inf
ROOT
ATOM      1  C   UNL     1     -26.077  19.008 -33.593  1.00  0.00     0.008 C 
ENDROOT
BRANCH   1   2
ATOM      2  C   UNL     1     -27.525  19.519 -33.696  1.00  0.00     0.000 C 
BRANCH   2   3
ATOM      3  C   UNL     1     -27.604  20.966 -34.207  1.00  0.00    -0.003 C 
ATOM      4  C   UNL     1     -27.636  21.992 -33.076  1.00  0.00     0.004 C 
ENDBRANCH   2   3
ENDBRANCH   1   2
BRANCH   1   5
ATOM      5  C   UNL     1     -25.172  19.612 -34.680  1.00  0.00     0.080 C 
BRANCH   5   6
ATOM      6  C   UNL     1     -23.695  19.493 -34.378  1.00  0.00     0.155 C 
ATOM      7  O   UNL     1     -22.974  18.720 -35.066  1.00  0.00    -0.295 OA
BRANCH   6   8
ATOM      8  C   UNL     1     -23.039  20.301 -33.330  1.00  0.00     0.039 C 
ATOM      9  C   UNL     1     -22.508  19.785 -32.222  1.00  0.00     0.012 C 
ENDBRANCH   6   8
ENDBRANCH   5   6
ENDBRANCH   1   5
TORSDOF 5
ENDMDL
MODEL 3
REMARK VINA RESULT:    -3.967      1.472      2.165
REMARK INTER + INTRA:          -5.463
REMARK INTER:                  -5.163
REMARK INTRA:                  -0.300
REMARK UNBOUND:                -0.337
REMARK SMILES C=CC(=O)CCCCC
REMARK SMILES IDX 6 1 7 2 8 3 9 4 5 5 3 6 4 7 2 8 1 9
REMARK H PARENT
REMARK Flexibility Score: inf
ROOT
ATOM      1  C   UNL     1     -25.175  19.736 -34.857  1.00  0.00     0.008 C 
ENDROOT
BRANCH   1   2
ATOM      2  C   UNL     1     -23.903  19.182 -34.193  1.00  0.00     0.000 C 
BRANCH   2   3
ATOM      3  C   UNL     1     -23.071  20.276 -33.506  1.00  0.00    -0.003 C 
ATOM      4  C   UNL     1     -22.481  19.821 -32.172  1.00  0.00     0.004 C 
ENDBRANCH   2   3
ENDBRANCH   1   2
BRANCH   1   5
ATOM      5  C   UNL     1     -26.191  20.248 -33.821  1.00  0.00     0.080 C 
BRANCH   5   6
ATOM      6  C   UNL     1     -27.564  19.628 -33.956  1.00  0.00     0.155 C 
ATOM      7  O   UNL     1     -28.462  20.226 -34.608  1.00  0.00    -0.295 OA
BRANCH   6   8
ATOM      8  C   UNL     1     -27.885  18.300 -33.393  1.00  0.00     0.039 C 
ATOM      9  C   UNL     1     -27.124  17.672 -32.498  1.00  0.00     0.012 C 
ENDBRANCH   6   8
ENDBRANCH   5   6
ENDBRANCH   1   5
TORSDOF 5
ENDMDL
MODEL 4
REMARK VINA RESULT:    -3.862      6.181      7.614
REMARK INTER + INTRA:          -5.329
REMARK INTER:                  -5.122
REMARK INTRA:                  -0.206
REMARK UNBOUND:                -0.337
REMARK SMILES C=CC(=O)CCCCC
REMARK SMILES IDX 6 1 7 2 8 3 9 4 5 5 3 6 4 7 2 8 1 9
REMARK H PARENT
REMARK Flexibility Score: inf
ROOT
ATOM      1  C   UNL     1     -27.015  12.926 -30.771  1.00  0.00     0.008 C 
ENDROOT
BRANCH   1   2
ATOM      2  C   UNL     1     -28.407  13.579 -30.818  1.00  0.00     0.000 C 
BRANCH   2   3
ATOM      3  C   UNL     1     -29.515  12.642 -30.313  1.00  0.00    -0.003 C 
ATOM      4  C   UNL     1     -29.241  12.104 -28.909  1.00  0.00     0.004 C 
ENDBRANCH   2   3
ENDBRANCH   1   2
BRANCH   1   5
ATOM      5  C   UNL     1     -26.064  13.662 -29.811  1.00  0.00     0.080 C 
BRANCH   5   6
ATOM      6  C   UNL     1     -25.228  14.730 -30.481  1.00  0.00     0.155 C 
ATOM      7  O   UNL     1     -24.155  14.414 -31.063  1.00  0.00    -0.295 OA
BRANCH   6   8
ATOM      8  C   UNL     1     -25.652  16.144 -30.530  1.00  0.00     0.039 C 
ATOM      9  C   UNL     1     -25.080  17.061 -31.310  1.00  0.00     0.012 C 
ENDBRANCH   6   8
ENDBRANCH   5   6
ENDBRANCH   1   5
TORSDOF 5
ENDMDL
MODEL 5
REMARK VINA RESULT:    -3.835      7.796      9.489
REMARK INTER + INTRA:          -5.293
REMARK INTER:                  -4.794
REMARK INTRA:                  -0.499
REMARK UNBOUND:                -0.337
REMARK SMILES C=CC(=O)CCCCC
REMARK SMILES IDX 6 1 7 2 8 3 9 4 5 5 3 6 4 7 2 8 1 9
REMARK H PARENT
REMARK Flexibility Score: inf
ROOT
ATOM      1  C   UNL     1     -27.931  12.248 -28.320  1.00  0.00     0.008 C 
ENDROOT
BRANCH   1   2
ATOM      2  C   UNL     1     -29.322  11.740 -28.739  1.00  0.00     0.000 C 
BRANCH   2   3
ATOM      3  C   UNL     1     -29.626  12.010 -30.221  1.00  0.00    -0.003 C 
ATOM      4  C   UNL     1     -29.223  13.417 -30.661  1.00  0.00     0.004 C 
ENDBRANCH   2   3
ENDBRANCH   1   2
BRANCH   1   5
ATOM      5  C   UNL     1     -26.815  11.266 -28.713  1.00  0.00     0.080 C 
BRANCH   5   6
ATOM      6  C   UNL     1     -25.947  11.754 -29.852  1.00  0.00     0.155 C 
ATOM      7  O   UNL     1     -25.891  11.096 -30.926  1.00  0.00    -0.295 OA
BRANCH   6   8
ATOM      8  C   UNL     1     -25.193  13.023 -29.778  1.00  0.00     0.039 C 
ATOM      9  C   UNL     1     -25.505  14.111 -30.481  1.00  0.00     0.012 C 
ENDBRANCH   6   8
ENDBRANCH   5   6
ENDBRANCH   1   5
TORSDOF 5
ENDMDL
MODEL 6
REMARK VINA RESULT:    -3.806      1.992      4.416
REMARK INTER + INTRA:          -5.255
REMARK INTER:                  -5.095
REMARK INTRA:                  -0.160
REMARK UNBOUND:                -0.337
REMARK SMILES C=CC(=O)CCCCC
REMARK SMILES IDX 6 1 7 2 8 3 9 4 5 5 3 6 4 7 2 8 1 9
REMARK H PARENT
REMARK Flexibility Score: inf
ROOT
ATOM      1  C   UNL     1     -27.180  19.935 -33.927  1.00  0.00     0.008 C 
ENDROOT
BRANCH   1   2
ATOM      2  C   UNL     1     -28.483  19.128 -33.787  1.00  0.00     0.000 C 
BRANCH   2   3
ATOM      3  C   UNL     1     -28.250  17.731 -33.192  1.00  0.00    -0.003 C 
ATOM      4  C   UNL     1     -29.145  16.664 -33.822  1.00  0.00     0.004 C 
ENDBRANCH   2   3
ENDBRANCH   1   2
BRANCH   1   5
ATOM      5  C   UNL     1     -25.946  19.112 -33.523  1.00  0.00     0.080 C 
BRANCH   5   6
ATOM      6  C   UNL     1     -24.661  19.583 -34.169  1.00  0.00     0.155 C 
ATOM      7  O   UNL     1     -24.438  19.324 -35.383  1.00  0.00    -0.295 OA
BRANCH   6   8
ATOM      8  C   UNL     1     -23.666  20.395 -33.439  1.00  0.00     0.039 C 
ATOM      9  C   UNL     1     -22.632  19.878 -32.776  1.00  0.00     0.012 C 
ENDBRANCH   6   8
ENDBRANCH   5   6
ENDBRANCH   1   5
TORSDOF 5
ENDMDL
MODEL 7
REMARK VINA RESULT:    -3.804      1.586      4.326
REMARK INTER + INTRA:          -5.253
REMARK INTER:                  -4.944
REMARK INTRA:                  -0.309
REMARK UNBOUND:                -0.337
REMARK SMILES C=CC(=O)CCCCC
REMARK SMILES IDX 6 1 7 2 8 3 9 4 5 5 3 6 4 7 2 8 1 9
REMARK H PARENT
REMARK Flexibility Score: inf
ROOT
ATOM      1  C   UNL     1     -25.614  20.091 -34.335  1.00  0.00     0.008 C 
ENDROOT
BRANCH   1   2
ATOM      2  C   UNL     1     -26.830  19.298 -33.826  1.00  0.00     0.000 C 
BRANCH   2   3
ATOM      3  C   UNL     1     -28.018  20.205 -33.470  1.00  0.00    -0.003 C 
ATOM      4  C   UNL     1     -27.636  21.684 -33.407  1.00  0.00     0.004 C 
ENDBRANCH   2   3
ENDBRANCH   1   2
BRANCH   1   5
ATOM      5  C   UNL     1     -24.334  19.239 -34.350  1.00  0.00     0.080 C 
BRANCH   5   6
ATOM      6  C   UNL     1     -23.419  19.491 -33.172  1.00  0.00     0.155 C 
ATOM      7  O   UNL     1     -22.697  20.524 -33.148  1.00  0.00    -0.295 OA
BRANCH   6   8
ATOM      8  C   UNL     1     -23.378  18.589 -32.002  1.00  0.00     0.039 C 
ATOM      9  C   UNL     1     -24.142  17.504 -31.878  1.00  0.00     0.012 C 
ENDBRANCH   6   8
ENDBRANCH   5   6
ENDBRANCH   1   5
TORSDOF 5
ENDMDL
MODEL 8
REMARK VINA RESULT:    -3.749      2.078      2.677
REMARK INTER + INTRA:          -5.182
REMARK INTER:                  -5.020
REMARK INTRA:                  -0.161
REMARK UNBOUND:                -0.337
REMARK SMILES C=CC(=O)CCCCC
REMARK SMILES IDX 6 1 7 2 8 3 9 4 5 5 3 6 4 7 2 8 1 9
REMARK H PARENT
REMARK Flexibility Score: inf
ROOT
ATOM      1  C   UNL     1     -24.268  18.379 -32.836  1.00  0.00     0.008 C 
ENDROOT
BRANCH   1   2
ATOM      2  C   UNL     1     -24.218  17.471 -31.595  1.00  0.00     0.000 C 
BRANCH   2   3
ATOM      3  C   UNL     1     -25.607  16.960 -31.182  1.00  0.00    -0.003 C 
ATOM      4  C   UNL     1     -25.566  15.557 -30.577  1.00  0.00     0.004 C 
ENDBRANCH   2   3
ENDBRANCH   1   2
BRANCH   1   5
ATOM      5  C   UNL     1     -25.709  18.765 -33.211  1.00  0.00     0.080 C 
BRANCH   5   6
ATOM      6  C   UNL     1     -25.796  19.793 -34.318  1.00  0.00     0.155 C 
ATOM      7  O   UNL     1     -24.862  19.892 -35.159  1.00  0.00    -0.295 OA
BRANCH   6   8
ATOM      8  C   UNL     1     -26.977  20.664 -34.490  1.00  0.00     0.039 C 
ATOM      9  C   UNL     1     -27.507  21.394 -33.509  1.00  0.00     0.012 C 
ENDBRANCH   6   8
ENDBRANCH   5   6
ENDBRANCH   1   5
TORSDOF 5
ENDMDL
MODEL 9
REMARK VINA RESULT:    -3.621      6.292      7.445
REMARK INTER + INTRA:          -5.017
REMARK INTER:                  -4.791
REMARK INTRA:                  -0.225
REMARK UNBOUND:                -0.337
REMARK SMILES C=CC(=O)CCCCC
REMARK SMILES IDX 6 1 7 2 8 3 9 4 5 5 3 6 4 7 2 8 1 9
REMARK H PARENT
REMARK Flexibility Score: inf
ROOT
ATOM      1  C   UNL     1     -24.963  13.079 -30.237  1.00  0.00     0.008 C 
ENDROOT
BRANCH   1   2
ATOM      2  C   UNL     1     -24.569  14.454 -30.805  1.00  0.00     0.000 C 
BRANCH   2   3
ATOM      3  C   UNL     1     -25.634  15.529 -30.538  1.00  0.00    -0.003 C 
ATOM      4  C   UNL     1     -25.180  16.928 -30.954  1.00  0.00     0.004 C 
ENDBRANCH   2   3
ENDBRANCH   1   2
BRANCH   1   5
ATOM      5  C   UNL     1     -26.311  13.124 -29.498  1.00  0.00     0.080 C 
BRANCH   5   6
ATOM      6  C   UNL     1     -27.438  12.442 -30.242  1.00  0.00     0.155 C 
ATOM      7  O   UNL     1     -27.388  11.201 -30.456  1.00  0.00    -0.295 OA
BRANCH   6   8
ATOM      8  C   UNL     1     -28.641  13.175 -30.688  1.00  0.00     0.039 C 
ATOM      9  C   UNL     1     -29.886  12.742 -30.488  1.00  0.00     0.012 C 
ENDBRANCH   6   8
ENDBRANCH   5   6
ENDBRANCH   1   5
TORSDOF 5
ENDMDL
