MODEL 1
REMARK VINA RESULT:    -5.478      0.000      0.000
REMARK INTER + INTRA:          -9.932
REMARK INTER:                  -8.040
REMARK INTRA:                  -1.892
REMARK UNBOUND:                -1.892
REMARK SMILES O=c1c(O[C@@H]2O[C@H](CO)[C@@H](O)[C@@H](O)[C@@H]2O)c(-c2ccc(O)c(O)c2)oc2cc(O)cc(O)c12
REMARK SMILES IDX 4 1 3 2 16 3 25 4 2 5 26 6 1 7 33 8 27 9 31 10 28 11 30 12
REMARK SMILES IDX 17 13 18 14 19 15 20 16 24 17 22 18 21 19 23 21 32 23 29 25
REMARK SMILES IDX 5 27 14 28 6 29 12 30 7 31 10 32 15 33 13 35 8 37 9 38 11 40
REMARK H PARENT 21 20 23 22 32 24 29 26 15 34 13 36 9 39 11 41
REMARK Flexibility Score: inf
ROOT
ATOM      1  O   UNL     1       4.579   1.538   5.669  1.00  0.00    -0.454 OA
ENDROOT
BRANCH   1   2
ATOM      2  C   UNL     1       4.930   0.397   6.432  1.00  0.00     0.214 A 
ATOM      3  C   UNL     1       6.153  -0.282   6.177  1.00  0.00     0.180 A 
ATOM      4  O   UNL     1       6.147  -1.608   6.083  1.00  0.00    -0.452 OA
ATOM      5  C   UNL     1       3.891  -0.328   7.023  1.00  0.00     0.239 A 
ATOM      6  C   UNL     1       5.059  -2.350   6.300  1.00  0.00     0.146 A 
ATOM      7  O   UNL     1       2.933   0.281   7.558  1.00  0.00    -0.285 OA
ATOM      8  C   UNL     1       3.901  -1.738   6.862  1.00  0.00     0.111 A 
ATOM      9  C   UNL     1       5.050  -3.649   5.882  1.00  0.00     0.094 A 
ATOM     10  C   UNL     1       2.714  -2.530   6.990  1.00  0.00     0.134 A 
ATOM     11  C   UNL     1       3.927  -4.444   6.088  1.00  0.00     0.123 A 
ATOM     12  C   UNL     1       2.784  -3.891   6.636  1.00  0.00     0.093 A 
BRANCH   3  13
ATOM     13  C   UNL     1       7.445   0.379   5.868  1.00  0.00     0.025 A 
ATOM     14  C   UNL     1       7.798   0.592   4.488  1.00  0.00     0.016 A 
ATOM     15  C   UNL     1       8.717   1.567   4.113  1.00  0.00     0.051 A 
ATOM     16  C   UNL     1       9.285   2.440   5.126  1.00  0.00     0.157 A 
ATOM     17  C   UNL     1       8.076   1.223   6.814  1.00  0.00     0.062 A 
ATOM     18  C   UNL     1       8.955   2.233   6.488  1.00  0.00     0.158 A 
BRANCH  16  19
ATOM     19  O   UNL     1      10.125   3.460   4.759  1.00  0.00    -0.504 OA
ATOM     20  H   UNL     1      11.121   3.400   4.904  1.00  0.00     0.293 HD
ENDBRANCH  16  19
BRANCH  18  21
ATOM     21  O   UNL     1       9.546   2.948   7.552  1.00  0.00    -0.504 OA
ATOM     22  H   UNL     1       9.796   2.543   8.468  1.00  0.00     0.293 HD
ENDBRANCH  18  21
ENDBRANCH   3  13
BRANCH  10  23
ATOM     23  O   UNL     1       1.493  -1.937   7.364  1.00  0.00    -0.507 OA
ATOM     24  H   UNL     1       1.454  -0.962   7.628  1.00  0.00     0.293 HD
ENDBRANCH  10  23
BRANCH  11  25
ATOM     25  O   UNL     1       4.000  -5.759   5.686  1.00  0.00    -0.508 OA
ATOM     26  H   UNL     1       4.849  -6.228   5.372  1.00  0.00     0.293 HD
ENDBRANCH  11  25
ENDBRANCH   1   2
BRANCH   1  27
ATOM     27  C   UNL     1       5.077   2.814   6.165  1.00  0.00     0.339 C 
ATOM     28  C   UNL     1       5.510   3.789   5.122  1.00  0.00     0.214 C 
ATOM     29  O   UNL     1       4.196   3.448   7.159  1.00  0.00    -0.332 OA
ATOM     30  C   UNL     1       6.332   4.951   5.793  1.00  0.00     0.180 C 
ATOM     31  C   UNL     1       4.746   4.660   7.808  1.00  0.00     0.179 C 
ATOM     32  C   UNL     1       6.227   4.989   7.369  1.00  0.00     0.177 C 
BRANCH  28  33
ATOM     33  O   UNL     1       4.359   4.269   4.491  1.00  0.00    -0.384 OA
ATOM     34  H   UNL     1       4.462   5.233   4.299  1.00  0.00     0.211 HD
ENDBRANCH  28  33
BRANCH  30  35
ATOM     35  O   UNL     1       7.650   5.070   5.354  1.00  0.00    -0.387 OA
ATOM     36  H   UNL     1       8.122   5.820   5.850  1.00  0.00     0.211 HD
ENDBRANCH  30  35
BRANCH  31  37
ATOM     37  C   UNL     1       3.823   5.871   7.546  1.00  0.00     0.191 C 
BRANCH  37  38
ATOM     38  O   UNL     1       3.001   5.668   6.419  1.00  0.00    -0.394 OA
ATOM     39  H   UNL     1       2.059   6.046   6.644  1.00  0.00     0.210 HD
ENDBRANCH  37  38
ENDBRANCH  31  37
BRANCH  32  40
ATOM     40  O   UNL     1       7.445   4.995   8.125  1.00  0.00    -0.387 OA
ATOM     41  H   UNL     1       7.333   4.355   8.841  1.00  0.00     0.211 HD
ENDBRANCH  32  40
ENDBRANCH   1  27
TORSDOF 12
ENDMDL
MODEL 2
REMARK VINA RESULT:    -5.368      4.187      8.488
REMARK INTER + INTRA:          -9.772
REMARK INTER:                  -8.164
REMARK INTRA:                  -1.607
REMARK UNBOUND:                -1.892
REMARK SMILES O=c1c(O[C@@H]2O[C@H](CO)[C@@H](O)[C@@H](O)[C@@H]2O)c(-c2ccc(O)c(O)c2)oc2cc(O)cc(O)c12
REMARK SMILES IDX 4 1 3 2 16 3 25 4 2 5 26 6 1 7 33 8 27 9 31 10 28 11 30 12
REMARK SMILES IDX 17 13 18 14 19 15 20 16 24 17 22 18 21 19 23 21 32 23 29 25
REMARK SMILES IDX 5 27 14 28 6 29 12 30 7 31 10 32 15 33 13 35 8 37 9 38 11 40
REMARK H PARENT 21 20 23 22 32 24 29 26 15 34 13 36 9 39 11 41
REMARK Flexibility Score: inf
ROOT
ATOM      1  O   UNL     1       5.279  -6.410   6.327  1.00  0.00    -0.454 OA
ENDROOT
BRANCH   1   2
ATOM      2  C   UNL     1       4.197  -6.167   5.444  1.00  0.00     0.214 A 
ATOM      3  C   UNL     1       3.355  -5.039   5.642  1.00  0.00     0.180 A 
ATOM      4  O   UNL     1       2.037  -5.200   5.582  1.00  0.00    -0.452 OA
ATOM      5  C   UNL     1       3.671  -7.262   4.752  1.00  0.00     0.239 A 
ATOM      6  C   UNL     1       1.457  -6.358   5.259  1.00  0.00     0.146 A 
ATOM      7  O   UNL     1       4.445  -8.126   4.273  1.00  0.00    -0.285 OA
ATOM      8  C   UNL     1       2.261  -7.418   4.749  1.00  0.00     0.111 A 
ATOM      9  C   UNL     1       0.129  -6.530   5.523  1.00  0.00     0.094 A 
ATOM     10  C   UNL     1       1.633  -8.684   4.506  1.00  0.00     0.134 A 
ATOM     11  C   UNL     1      -0.499  -7.729   5.204  1.00  0.00     0.123 A 
ATOM     12  C   UNL     1       0.243  -8.782   4.702  1.00  0.00     0.093 A 
BRANCH   3  13
ATOM     13  C   UNL     1       3.820  -3.691   6.051  1.00  0.00     0.025 A 
ATOM     14  C   UNL     1       4.733  -2.985   5.190  1.00  0.00     0.016 A 
ATOM     15  C   UNL     1       4.862  -1.601   5.241  1.00  0.00     0.051 A 
ATOM     16  C   UNL     1       4.008  -0.837   6.136  1.00  0.00     0.157 A 
ATOM     17  C   UNL     1       3.057  -2.896   6.941  1.00  0.00     0.062 A 
ATOM     18  C   UNL     1       3.114  -1.520   6.997  1.00  0.00     0.158 A 
BRANCH  16  19
ATOM     19  O   UNL     1       4.064   0.533   6.133  1.00  0.00    -0.504 OA
ATOM     20  H   UNL     1       4.203   1.053   5.280  1.00  0.00     0.293 HD
ENDBRANCH  16  19
BRANCH  18  21
ATOM     21  O   UNL     1       2.334  -0.877   7.981  1.00  0.00    -0.504 OA
ATOM     22  H   UNL     1       2.042  -1.304   8.874  1.00  0.00     0.293 HD
ENDBRANCH  18  21
ENDBRANCH   3  13
BRANCH  10  23
ATOM     23  O   UNL     1       2.404  -9.816   4.179  1.00  0.00    -0.507 OA
ATOM     24  H   UNL     1       2.082 -10.744   4.418  1.00  0.00     0.293 HD
ENDBRANCH  10  23
BRANCH  11  25
ATOM     25  O   UNL     1      -1.851  -7.820   5.452  1.00  0.00    -0.508 OA
ATOM     26  H   UNL     1      -2.272  -8.370   6.201  1.00  0.00     0.293 HD
ENDBRANCH  11  25
ENDBRANCH   1   2
BRANCH   1  27
ATOM     27  C   UNL     1       6.603  -6.077   5.819  1.00  0.00     0.339 C 
ATOM     28  C   UNL     1       7.585  -7.200   5.789  1.00  0.00     0.214 C 
ATOM     29  O   UNL     1       6.581  -5.350   4.539  1.00  0.00    -0.332 OA
ATOM     30  C   UNL     1       9.033  -6.630   5.557  1.00  0.00     0.180 C 
ATOM     31  C   UNL     1       7.894  -4.850   4.076  1.00  0.00     0.179 C 
ATOM     32  C   UNL     1       9.066  -5.118   5.100  1.00  0.00     0.177 C 
BRANCH  28  33
ATOM     33  O   UNL     1       7.201  -8.067   4.762  1.00  0.00    -0.384 OA
ATOM     34  H   UNL     1       6.315  -8.455   4.967  1.00  0.00     0.211 HD
ENDBRANCH  28  33
BRANCH  30  35
ATOM     35  O   UNL     1       9.939  -6.885   6.586  1.00  0.00    -0.387 OA
ATOM     36  H   UNL     1       9.445  -7.079   7.451  1.00  0.00     0.211 HD
ENDBRANCH  30  35
BRANCH  31  37
ATOM     37  C   UNL     1       8.237  -5.452   2.694  1.00  0.00     0.191 C 
BRANCH  37  38
ATOM     38  O   UNL     1       7.218  -6.306   2.228  1.00  0.00    -0.394 OA
ATOM     39  H   UNL     1       7.624  -6.905   1.482  1.00  0.00     0.210 HD
ENDBRANCH  37  38
ENDBRANCH  31  37
BRANCH  32  40
ATOM     40  O   UNL     1       9.873  -4.205   5.855  1.00  0.00    -0.387 OA
ATOM     41  H   UNL     1      10.083  -3.465   5.267  1.00  0.00     0.211 HD
ENDBRANCH  32  40
ENDBRANCH   1  27
TORSDOF 12
ENDMDL
MODEL 3
REMARK VINA RESULT:    -5.309      2.683      8.579
REMARK INTER + INTRA:          -9.684
REMARK INTER:                  -7.828
REMARK INTRA:                  -1.856
REMARK UNBOUND:                -1.892
REMARK SMILES O=c1c(O[C@@H]2O[C@H](CO)[C@@H](O)[C@@H](O)[C@@H]2O)c(-c2ccc(O)c(O)c2)oc2cc(O)cc(O)c12
REMARK SMILES IDX 4 1 3 2 16 3 25 4 2 5 26 6 1 7 33 8 27 9 31 10 28 11 30 12
REMARK SMILES IDX 17 13 18 14 19 15 20 16 24 17 22 18 21 19 23 21 32 23 29 25
REMARK SMILES IDX 5 27 14 28 6 29 12 30 7 31 10 32 15 33 13 35 8 37 9 38 11 40
REMARK H PARENT 21 20 23 22 32 24 29 26 15 34 13 36 9 39 11 41
REMARK Flexibility Score: inf
ROOT
ATOM      1  O   UNL     1       5.978  -2.785   4.279  1.00  0.00    -0.454 OA
ENDROOT
BRANCH   1   2
ATOM      2  C   UNL     1       5.792  -1.964   5.418  1.00  0.00     0.214 A 
ATOM      3  C   UNL     1       4.543  -1.956   6.096  1.00  0.00     0.180 A 
ATOM      4  O   UNL     1       3.998  -0.790   6.430  1.00  0.00    -0.452 OA
ATOM      5  C   UNL     1       6.608  -0.834   5.538  1.00  0.00     0.239 A 
ATOM      6  C   UNL     1       4.606   0.382   6.237  1.00  0.00     0.146 A 
ATOM      7  O   UNL     1       7.826  -0.911   5.244  1.00  0.00    -0.285 OA
ATOM      8  C   UNL     1       5.979   0.398   5.855  1.00  0.00     0.111 A 
ATOM      9  C   UNL     1       3.870   1.529   6.308  1.00  0.00     0.094 A 
ATOM     10  C   UNL     1       6.581   1.663   5.553  1.00  0.00     0.134 A 
ATOM     11  C   UNL     1       4.475   2.764   6.103  1.00  0.00     0.123 A 
ATOM     12  C   UNL     1       5.807   2.825   5.736  1.00  0.00     0.093 A 
BRANCH   3  13
ATOM     13  C   UNL     1       3.708  -3.154   6.354  1.00  0.00     0.025 A 
ATOM     14  C   UNL     1       3.938  -3.909   7.559  1.00  0.00     0.016 A 
ATOM     15  C   UNL     1       2.958  -4.734   8.101  1.00  0.00     0.051 A 
ATOM     16  C   UNL     1       1.644  -4.784   7.481  1.00  0.00     0.157 A 
ATOM     17  C   UNL     1       2.427  -3.290   5.765  1.00  0.00     0.062 A 
ATOM     18  C   UNL     1       1.408  -4.055   6.289  1.00  0.00     0.158 A 
BRANCH  16  19
ATOM     19  O   UNL     1       0.643  -5.525   8.056  1.00  0.00    -0.504 OA
ATOM     20  H   UNL     1      -0.048  -5.999   7.496  1.00  0.00     0.293 HD
ENDBRANCH  16  19
BRANCH  18  21
ATOM     21  O   UNL     1       0.209  -4.134   5.550  1.00  0.00    -0.504 OA
ATOM     22  H   UNL     1      -0.433  -3.344   5.380  1.00  0.00     0.293 HD
ENDBRANCH  18  21
ENDBRANCH   3  13
BRANCH  10  23
ATOM     23  O   UNL     1       7.872   1.728   4.996  1.00  0.00    -0.507 OA
ATOM     24  H   UNL     1       8.029   2.197   4.113  1.00  0.00     0.293 HD
ENDBRANCH  10  23
BRANCH  11  25
ATOM     25  O   UNL     1       3.687   3.886   6.237  1.00  0.00    -0.508 OA
ATOM     26  H   UNL     1       3.803   4.599   6.957  1.00  0.00     0.293 HD
ENDBRANCH  11  25
ENDBRANCH   1   2
BRANCH   1  27
ATOM     27  C   UNL     1       6.719  -4.020   4.498  1.00  0.00     0.339 C 
ATOM     28  C   UNL     1       7.954  -4.188   3.678  1.00  0.00     0.214 C 
ATOM     29  O   UNL     1       6.974  -4.314   5.918  1.00  0.00    -0.332 OA
ATOM     30  C   UNL     1       8.445  -5.681   3.760  1.00  0.00     0.180 C 
ATOM     31  C   UNL     1       7.576  -5.638   6.190  1.00  0.00     0.179 C 
ATOM     32  C   UNL     1       7.746  -6.528   4.897  1.00  0.00     0.177 C 
BRANCH  28  33
ATOM     33  O   UNL     1       8.913  -3.301   4.176  1.00  0.00    -0.384 OA
ATOM     34  H   UNL     1       8.997  -2.525   3.569  1.00  0.00     0.211 HD
ENDBRANCH  28  33
BRANCH  30  35
ATOM     35  O   UNL     1       8.471  -6.360   2.543  1.00  0.00    -0.387 OA
ATOM     36  H   UNL     1       8.737  -7.329   2.684  1.00  0.00     0.211 HD
ENDBRANCH  30  35
BRANCH  31  37
ATOM     37  C   UNL     1       8.932  -5.470   6.912  1.00  0.00     0.191 C 
BRANCH  37  38
ATOM     38  O   UNL     1       9.338  -4.121   6.955  1.00  0.00    -0.394 OA
ATOM     39  H   UNL     1       9.610  -3.904   7.934  1.00  0.00     0.210 HD
ENDBRANCH  37  38
ENDBRANCH  31  37
BRANCH  32  40
ATOM     40  O   UNL     1       7.127  -7.767   4.527  1.00  0.00    -0.387 OA
ATOM     41  H   UNL     1       6.503  -7.567   3.815  1.00  0.00     0.211 HD
ENDBRANCH  32  40
ENDBRANCH   1  27
TORSDOF 12
ENDMDL
MODEL 4
REMARK VINA RESULT:    -5.200      3.821      7.647
REMARK INTER + INTRA:          -9.524
REMARK INTER:                  -7.733
REMARK INTRA:                  -1.791
REMARK UNBOUND:                -1.892
REMARK SMILES O=c1c(O[C@@H]2O[C@H](CO)[C@@H](O)[C@@H](O)[C@@H]2O)c(-c2ccc(O)c(O)c2)oc2cc(O)cc(O)c12
REMARK SMILES IDX 4 1 3 2 16 3 25 4 2 5 26 6 1 7 33 8 27 9 31 10 28 11 30 12
REMARK SMILES IDX 17 13 18 14 19 15 20 16 24 17 22 18 21 19 23 21 32 23 29 25
REMARK SMILES IDX 5 27 14 28 6 29 12 30 7 31 10 32 15 33 13 35 8 37 9 38 11 40
REMARK H PARENT 21 20 23 22 32 24 29 26 15 34 13 36 9 39 11 41
REMARK Flexibility Score: inf
ROOT
ATOM      1  O   UNL     1       4.580  -5.317   6.632  1.00  0.00    -0.454 OA
ENDROOT
BRANCH   1   2
ATOM      2  C   UNL     1       3.431  -5.100   5.831  1.00  0.00     0.214 A 
ATOM      3  C   UNL     1       2.717  -3.874   5.926  1.00  0.00     0.180 A 
ATOM      4  O   UNL     1       1.391  -3.907   6.021  1.00  0.00    -0.452 OA
ATOM      5  C   UNL     1       2.738  -6.227   5.378  1.00  0.00     0.239 A 
ATOM      6  C   UNL     1       0.681  -5.034   5.945  1.00  0.00     0.146 A 
ATOM      7  O   UNL     1       3.377  -7.228   4.970  1.00  0.00    -0.285 OA
ATOM      8  C   UNL     1       1.328  -6.236   5.537  1.00  0.00     0.111 A 
ATOM      9  C   UNL     1      -0.618  -5.027   6.361  1.00  0.00     0.094 A 
ATOM     10  C   UNL     1       0.571  -7.453   5.563  1.00  0.00     0.134 A 
ATOM     11  C   UNL     1      -1.380  -6.189   6.302  1.00  0.00     0.123 A 
ATOM     12  C   UNL     1      -0.792  -7.377   5.906  1.00  0.00     0.093 A 
BRANCH   3  13
ATOM     13  C   UNL     1       3.339  -2.535   6.066  1.00  0.00     0.025 A 
ATOM     14  C   UNL     1       3.361  -1.917   7.367  1.00  0.00     0.016 A 
ATOM     15  C   UNL     1       4.282  -0.925   7.688  1.00  0.00     0.051 A 
ATOM     16  C   UNL     1       5.292  -0.547   6.714  1.00  0.00     0.157 A 
ATOM     17  C   UNL     1       4.313  -2.084   5.142  1.00  0.00     0.062 A 
ATOM     18  C   UNL     1       5.275  -1.139   5.427  1.00  0.00     0.158 A 
BRANCH  16  19
ATOM     19  O   UNL     1       6.259   0.366   7.049  1.00  0.00    -0.504 OA
ATOM     20  H   UNL     1       6.069   1.124   7.687  1.00  0.00     0.293 HD
ENDBRANCH  16  19
BRANCH  18  21
ATOM     21  O   UNL     1       6.137  -0.753   4.378  1.00  0.00    -0.504 OA
ATOM     22  H   UNL     1       6.006  -1.003   3.386  1.00  0.00     0.293 HD
ENDBRANCH  18  21
ENDBRANCH   3  13
BRANCH  10  23
ATOM     23  O   UNL     1       1.199  -8.694   5.349  1.00  0.00    -0.507 OA
ATOM     24  H   UNL     1       0.905  -9.516   5.860  1.00  0.00     0.293 HD
ENDBRANCH  10  23
BRANCH  11  25
ATOM     25  O   UNL     1      -2.698  -6.103   6.692  1.00  0.00    -0.508 OA
ATOM     26  H   UNL     1      -3.301  -5.296   6.538  1.00  0.00     0.293 HD
ENDBRANCH  11  25
ENDBRANCH   1   2
BRANCH   1  27
ATOM     27  C   UNL     1       5.854  -4.945   6.032  1.00  0.00     0.339 C 
ATOM     28  C   UNL     1       7.066  -5.536   6.670  1.00  0.00     0.214 C 
ATOM     29  O   UNL     1       5.888  -5.100   4.569  1.00  0.00    -0.332 OA
ATOM     30  C   UNL     1       8.353  -4.789   6.156  1.00  0.00     0.180 C 
ATOM     31  C   UNL     1       7.104  -4.577   3.907  1.00  0.00     0.179 C 
ATOM     32  C   UNL     1       8.102  -3.862   4.901  1.00  0.00     0.177 C 
BRANCH  28  33
ATOM     33  O   UNL     1       7.093  -6.895   6.343  1.00  0.00    -0.384 OA
ATOM     34  H   UNL     1       6.978  -7.005   5.367  1.00  0.00     0.211 HD
ENDBRANCH  28  33
BRANCH  30  35
ATOM     35  O   UNL     1       9.092  -4.142   7.145  1.00  0.00    -0.387 OA
ATOM     36  H   UNL     1       9.992  -4.595   7.267  1.00  0.00     0.211 HD
ENDBRANCH  30  35
BRANCH  31  37
ATOM     37  C   UNL     1       7.825  -5.710   3.141  1.00  0.00     0.191 C 
BRANCH  37  38
ATOM     38  O   UNL     1       7.141  -6.937   3.257  1.00  0.00    -0.394 OA
ATOM     39  H   UNL     1       6.264  -6.761   3.785  1.00  0.00     0.210 HD
ENDBRANCH  37  38
ENDBRANCH  31  37
BRANCH  32  40
ATOM     40  O   UNL     1       8.517  -2.493   4.983  1.00  0.00    -0.387 OA
ATOM     41  H   UNL     1       9.027  -2.306   4.182  1.00  0.00     0.211 HD
ENDBRANCH  32  40
ENDBRANCH   1  27
TORSDOF 12
ENDMDL
MODEL 5
REMARK VINA RESULT:    -4.999      3.377      6.379
REMARK INTER + INTRA:          -9.229
REMARK INTER:                  -7.955
REMARK INTRA:                  -1.274
REMARK UNBOUND:                -1.892
REMARK SMILES O=c1c(O[C@@H]2O[C@H](CO)[C@@H](O)[C@@H](O)[C@@H]2O)c(-c2ccc(O)c(O)c2)oc2cc(O)cc(O)c12
REMARK SMILES IDX 4 1 3 2 16 3 25 4 2 5 26 6 1 7 33 8 27 9 31 10 28 11 30 12
REMARK SMILES IDX 17 13 18 14 19 15 20 16 24 17 22 18 21 19 23 21 32 23 29 25
REMARK SMILES IDX 5 27 14 28 6 29 12 30 7 31 10 32 15 33 13 35 8 37 9 38 11 40
REMARK H PARENT 21 20 23 22 32 24 29 26 15 34 13 36 9 39 11 41
REMARK Flexibility Score: inf
ROOT
ATOM      1  O   UNL     1       4.094  -3.271   5.429  1.00  0.00    -0.454 OA
ENDROOT
BRANCH   1   2
ATOM      2  C   UNL     1       3.884  -4.602   5.868  1.00  0.00     0.214 A 
ATOM      3  C   UNL     1       4.685  -5.657   5.354  1.00  0.00     0.180 A 
ATOM      4  O   UNL     1       4.094  -6.779   4.952  1.00  0.00    -0.452 OA
ATOM      5  C   UNL     1       2.617  -4.925   6.364  1.00  0.00     0.239 A 
ATOM      6  C   UNL     1       2.786  -7.002   5.086  1.00  0.00     0.146 A 
ATOM      7  O   UNL     1       2.015  -4.115   7.110  1.00  0.00    -0.285 OA
ATOM      8  C   UNL     1       2.005  -6.110   5.877  1.00  0.00     0.111 A 
ATOM      9  C   UNL     1       2.212  -8.018   4.378  1.00  0.00     0.094 A 
ATOM     10  C   UNL     1       0.587  -6.310   5.921  1.00  0.00     0.134 A 
ATOM     11  C   UNL     1       0.848  -8.269   4.491  1.00  0.00     0.123 A 
ATOM     12  C   UNL     1       0.056  -7.430   5.253  1.00  0.00     0.093 A 
BRANCH   3  13
ATOM     13  C   UNL     1       6.143  -5.570   5.094  1.00  0.00     0.025 A 
ATOM     14  C   UNL     1       7.052  -6.103   6.076  1.00  0.00     0.016 A 
ATOM     15  C   UNL     1       8.350  -6.475   5.742  1.00  0.00     0.051 A 
ATOM     16  C   UNL     1       8.783  -6.391   4.357  1.00  0.00     0.157 A 
ATOM     17  C   UNL     1       6.642  -5.459   3.773  1.00  0.00     0.062 A 
ATOM     18  C   UNL     1       7.903  -5.858   3.383  1.00  0.00     0.158 A 
BRANCH  16  19
ATOM     19  O   UNL     1      10.030  -6.836   4.001  1.00  0.00    -0.504 OA
ATOM     20  H   UNL     1      10.351  -7.759   4.251  1.00  0.00     0.293 HD
ENDBRANCH  16  19
BRANCH  18  21
ATOM     21  O   UNL     1       8.271  -5.625   2.042  1.00  0.00    -0.504 OA
ATOM     22  H   UNL     1       7.773  -4.994   1.394  1.00  0.00     0.293 HD
ENDBRANCH  18  21
ENDBRANCH   3  13
BRANCH  10  23
ATOM     23  O   UNL     1      -0.253  -5.360   6.531  1.00  0.00    -0.507 OA
ATOM     24  H   UNL     1      -0.302  -5.287   7.538  1.00  0.00     0.293 HD
ENDBRANCH  10  23
BRANCH  11  25
ATOM     25  O   UNL     1       0.341  -9.338   3.787  1.00  0.00    -0.508 OA
ATOM     26  H   UNL     1       0.815  -9.808   3.016  1.00  0.00     0.293 HD
ENDBRANCH  11  25
ENDBRANCH   1   2
BRANCH   1  27
ATOM     27  C   UNL     1       5.246  -2.586   6.000  1.00  0.00     0.339 C 
ATOM     28  C   UNL     1       6.234  -2.055   5.017  1.00  0.00     0.214 C 
ATOM     29  O   UNL     1       4.892  -1.572   7.006  1.00  0.00    -0.332 OA
ATOM     30  C   UNL     1       7.564  -1.663   5.764  1.00  0.00     0.180 C 
ATOM     31  C   UNL     1       6.038  -0.973   7.727  1.00  0.00     0.179 C 
ATOM     32  C   UNL     1       7.428  -1.612   7.337  1.00  0.00     0.177 C 
BRANCH  28  33
ATOM     33  O   UNL     1       5.651  -0.952   4.387  1.00  0.00    -0.384 OA
ATOM     34  H   UNL     1       5.279  -0.338   5.068  1.00  0.00     0.211 HD
ENDBRANCH  28  33
BRANCH  30  35
ATOM     35  O   UNL     1       8.696  -2.367   5.359  1.00  0.00    -0.387 OA
ATOM     36  H   UNL     1       9.176  -2.758   6.163  1.00  0.00     0.211 HD
ENDBRANCH  30  35
BRANCH  31  37
ATOM     37  C   UNL     1       6.066   0.557   7.508  1.00  0.00     0.191 C 
BRANCH  37  38
ATOM     38  O   UNL     1       5.213   0.951   6.457  1.00  0.00    -0.394 OA
ATOM     39  H   UNL     1       5.696   1.700   5.923  1.00  0.00     0.210 HD
ENDBRANCH  37  38
ENDBRANCH  31  37
BRANCH  32  40
ATOM     40  O   UNL     1       8.357  -2.377   8.117  1.00  0.00    -0.387 OA
ATOM     41  H   UNL     1       9.239  -2.189   7.766  1.00  0.00     0.211 HD
ENDBRANCH  32  40
ENDBRANCH   1  27
TORSDOF 12
ENDMDL
MODEL 6
REMARK VINA RESULT:    -4.988      3.190      8.623
REMARK INTER + INTRA:          -9.214
REMARK INTER:                  -7.158
REMARK INTRA:                  -2.055
REMARK UNBOUND:                -1.892
REMARK SMILES O=c1c(O[C@@H]2O[C@H](CO)[C@@H](O)[C@@H](O)[C@@H]2O)c(-c2ccc(O)c(O)c2)oc2cc(O)cc(O)c12
REMARK SMILES IDX 4 1 3 2 16 3 25 4 2 5 26 6 1 7 33 8 27 9 31 10 28 11 30 12
REMARK SMILES IDX 17 13 18 14 19 15 20 16 24 17 22 18 21 19 23 21 32 23 29 25
REMARK SMILES IDX 5 27 14 28 6 29 12 30 7 31 10 32 15 33 13 35 8 37 9 38 11 40
REMARK H PARENT 21 20 23 22 32 24 29 26 15 34 13 36 9 39 11 41
REMARK Flexibility Score: inf
ROOT
ATOM      1  O   UNL     1       5.544  -4.330   6.684  1.00  0.00    -0.454 OA
ENDROOT
BRANCH   1   2
ATOM      2  C   UNL     1       5.538  -3.222   5.800  1.00  0.00     0.214 A 
ATOM      3  C   UNL     1       6.755  -2.753   5.236  1.00  0.00     0.180 A 
ATOM      4  O   UNL     1       7.007  -1.448   5.241  1.00  0.00    -0.452 OA
ATOM      5  C   UNL     1       4.475  -2.318   5.906  1.00  0.00     0.239 A 
ATOM      6  C   UNL     1       6.134  -0.537   5.675  1.00  0.00     0.146 A 
ATOM      7  O   UNL     1       3.309  -2.747   6.084  1.00  0.00    -0.285 OA
ATOM      8  C   UNL     1       4.793  -0.936   5.950  1.00  0.00     0.111 A 
ATOM      9  C   UNL     1       6.572   0.727   5.942  1.00  0.00     0.094 A 
ATOM     10  C   UNL     1       3.902   0.035   6.512  1.00  0.00     0.134 A 
ATOM     11  C   UNL     1       5.686   1.694   6.404  1.00  0.00     0.123 A 
ATOM     12  C   UNL     1       4.375   1.350   6.678  1.00  0.00     0.093 A 
BRANCH   3  13
ATOM     13  C   UNL     1       7.857  -3.619   4.749  1.00  0.00     0.025 A 
ATOM     14  C   UNL     1       8.896  -3.997   5.672  1.00  0.00     0.016 A 
ATOM     15  C   UNL     1       9.685  -5.123   5.461  1.00  0.00     0.051 A 
ATOM     16  C   UNL     1       9.413  -5.982   4.320  1.00  0.00     0.157 A 
ATOM     17  C   UNL     1       7.678  -4.464   3.627  1.00  0.00     0.062 A 
ATOM     18  C   UNL     1       8.400  -5.616   3.399  1.00  0.00     0.158 A 
BRANCH  16  19
ATOM     19  O   UNL     1      10.125  -7.141   4.149  1.00  0.00    -0.504 OA
ATOM     20  H   UNL     1      10.576  -7.601   4.925  1.00  0.00     0.293 HD
ENDBRANCH  16  19
BRANCH  18  21
ATOM     21  O   UNL     1       8.143  -6.317   2.202  1.00  0.00    -0.504 OA
ATOM     22  H   UNL     1       7.649  -5.927   1.384  1.00  0.00     0.293 HD
ENDBRANCH  18  21
ENDBRANCH   3  13
BRANCH  10  23
ATOM     23  O   UNL     1       2.627  -0.344   6.974  1.00  0.00    -0.507 OA
ATOM     24  H   UNL     1       2.343  -1.315   6.964  1.00  0.00     0.293 HD
ENDBRANCH  10  23
BRANCH  11  25
ATOM     25  O   UNL     1       6.183   2.962   6.609  1.00  0.00    -0.508 OA
ATOM     26  H   UNL     1       6.099   3.489   7.477  1.00  0.00     0.293 HD
ENDBRANCH  11  25
ENDBRANCH   1   2
BRANCH   1  27
ATOM     27  C   UNL     1       5.456  -5.643   6.059  1.00  0.00     0.339 C 
ATOM     28  C   UNL     1       6.166  -6.746   6.771  1.00  0.00     0.214 C 
ATOM     29  O   UNL     1       4.085  -6.036   5.695  1.00  0.00    -0.332 OA
ATOM     30  C   UNL     1       6.280  -7.999   5.825  1.00  0.00     0.180 C 
ATOM     31  C   UNL     1       3.974  -7.286   4.911  1.00  0.00     0.179 C 
ATOM     32  C   UNL     1       5.372  -7.917   4.534  1.00  0.00     0.177 C 
BRANCH  28  33
ATOM     33  O   UNL     1       5.438  -7.038   7.928  1.00  0.00    -0.384 OA
ATOM     34  H   UNL     1       5.768  -7.881   8.325  1.00  0.00     0.211 HD
ENDBRANCH  28  33
BRANCH  30  35
ATOM     35  O   UNL     1       7.583  -8.392   5.523  1.00  0.00    -0.387 OA
ATOM     36  H   UNL     1       8.191  -8.245   6.322  1.00  0.00     0.211 HD
ENDBRANCH  30  35
BRANCH  31  37
ATOM     37  C   UNL     1       3.103  -8.315   5.668  1.00  0.00     0.191 C 
BRANCH  37  38
ATOM     38  O   UNL     1       2.753  -7.858   6.954  1.00  0.00    -0.394 OA
ATOM     39  H   UNL     1       2.995  -8.608   7.632  1.00  0.00     0.210 HD
ENDBRANCH  37  38
ENDBRANCH  31  37
BRANCH  32  40
ATOM     40  O   UNL     1       5.998  -8.106   3.259  1.00  0.00    -0.387 OA
ATOM     41  H   UNL     1       6.102  -9.060   3.137  1.00  0.00     0.211 HD
ENDBRANCH  32  40
ENDBRANCH   1  27
TORSDOF 12
ENDMDL
MODEL 7
REMARK VINA RESULT:    -4.884      3.458      6.799
REMARK INTER + INTRA:          -9.061
REMARK INTER:                  -7.167
REMARK INTRA:                  -1.894
REMARK UNBOUND:                -1.892
REMARK SMILES O=c1c(O[C@@H]2O[C@H](CO)[C@@H](O)[C@@H](O)[C@@H]2O)c(-c2ccc(O)c(O)c2)oc2cc(O)cc(O)c12
REMARK SMILES IDX 4 1 3 2 16 3 25 4 2 5 26 6 1 7 33 8 27 9 31 10 28 11 30 12
REMARK SMILES IDX 17 13 18 14 19 15 20 16 24 17 22 18 21 19 23 21 32 23 29 25
REMARK SMILES IDX 5 27 14 28 6 29 12 30 7 31 10 32 15 33 13 35 8 37 9 38 11 40
REMARK H PARENT 21 20 23 22 32 24 29 26 15 34 13 36 9 39 11 41
REMARK Flexibility Score: inf
ROOT
ATOM      1  O   UNL     1       3.127  -3.408   5.472  1.00  0.00    -0.454 OA
ENDROOT
BRANCH   1   2
ATOM      2  C   UNL     1       2.530  -4.184   6.497  1.00  0.00     0.214 A 
ATOM      3  C   UNL     1       2.694  -5.596   6.510  1.00  0.00     0.180 A 
ATOM      4  O   UNL     1       1.629  -6.367   6.712  1.00  0.00    -0.452 OA
ATOM      5  C   UNL     1       1.408  -3.650   7.139  1.00  0.00     0.239 A 
ATOM      6  C   UNL     1       0.418  -5.880   6.989  1.00  0.00     0.146 A 
ATOM      7  O   UNL     1       1.383  -2.431   7.438  1.00  0.00    -0.285 OA
ATOM      8  C   UNL     1       0.279  -4.495   7.296  1.00  0.00     0.111 A 
ATOM      9  C   UNL     1      -0.667  -6.699   6.871  1.00  0.00     0.094 A 
ATOM     10  C   UNL     1      -1.042  -3.976   7.490  1.00  0.00     0.134 A 
ATOM     11  C   UNL     1      -1.942  -6.217   7.146  1.00  0.00     0.123 A 
ATOM     12  C   UNL     1      -2.121  -4.880   7.453  1.00  0.00     0.093 A 
BRANCH   3  13
ATOM     13  C   UNL     1       3.952  -6.310   6.179  1.00  0.00     0.025 A 
ATOM     14  C   UNL     1       3.995  -7.112   4.984  1.00  0.00     0.016 A 
ATOM     15  C   UNL     1       5.199  -7.432   4.364  1.00  0.00     0.051 A 
ATOM     16  C   UNL     1       6.439  -6.889   4.890  1.00  0.00     0.157 A 
ATOM     17  C   UNL     1       5.198  -5.858   6.676  1.00  0.00     0.062 A 
ATOM     18  C   UNL     1       6.412  -6.107   6.072  1.00  0.00     0.158 A 
BRANCH  16  19
ATOM     19  O   UNL     1       7.623  -7.125   4.237  1.00  0.00    -0.504 OA
ATOM     20  H   UNL     1       8.495  -7.193   4.738  1.00  0.00     0.293 HD
ENDBRANCH  16  19
BRANCH  18  21
ATOM     21  O   UNL     1       7.571  -5.638   6.724  1.00  0.00    -0.504 OA
ATOM     22  H   UNL     1       7.775  -5.764   7.728  1.00  0.00     0.293 HD
ENDBRANCH  18  21
ENDBRANCH   3  13
BRANCH  10  23
ATOM     23  O   UNL     1      -1.258  -2.591   7.612  1.00  0.00    -0.507 OA
ATOM     24  H   UNL     1      -1.890  -2.228   8.314  1.00  0.00     0.293 HD
ENDBRANCH  10  23
BRANCH  11  25
ATOM     25  O   UNL     1      -2.989  -7.107   7.054  1.00  0.00    -0.508 OA
ATOM     26  H   UNL     1      -3.233  -7.638   6.218  1.00  0.00     0.293 HD
ENDBRANCH  11  25
ENDBRANCH   1   2
BRANCH   1  27
ATOM     27  C   UNL     1       4.431  -2.838   5.782  1.00  0.00     0.339 C 
ATOM     28  C   UNL     1       5.350  -2.656   4.621  1.00  0.00     0.214 C 
ATOM     29  O   UNL     1       4.363  -1.621   6.609  1.00  0.00    -0.332 OA
ATOM     30  C   UNL     1       6.808  -2.369   5.141  1.00  0.00     0.180 C 
ATOM     31  C   UNL     1       5.668  -1.107   7.082  1.00  0.00     0.179 C 
ATOM     32  C   UNL     1       6.887  -2.026   6.682  1.00  0.00     0.177 C 
BRANCH  28  33
ATOM     33  O   UNL     1       4.857  -1.595   3.856  1.00  0.00    -0.384 OA
ATOM     34  H   UNL     1       5.283  -1.602   2.964  1.00  0.00     0.211 HD
ENDBRANCH  28  33
BRANCH  30  35
ATOM     35  O   UNL     1       7.763  -3.311   4.765  1.00  0.00    -0.387 OA
ATOM     36  H   UNL     1       7.537  -3.700   3.855  1.00  0.00     0.211 HD
ENDBRANCH  30  35
BRANCH  31  37
ATOM     37  C   UNL     1       5.889   0.336   6.575  1.00  0.00     0.191 C 
BRANCH  37  38
ATOM     38  O   UNL     1       4.876   0.738   5.681  1.00  0.00    -0.394 OA
ATOM     39  H   UNL     1       4.015   0.908   6.237  1.00  0.00     0.210 HD
ENDBRANCH  37  38
ENDBRANCH  31  37
BRANCH  32  40
ATOM     40  O   UNL     1       7.788  -2.790   7.494  1.00  0.00    -0.387 OA
ATOM     41  H   UNL     1       8.197  -3.450   6.916  1.00  0.00     0.211 HD
ENDBRANCH  32  40
ENDBRANCH   1  27
TORSDOF 12
ENDMDL
MODEL 8
REMARK VINA RESULT:    -4.868      4.847      9.819
REMARK INTER + INTRA:          -9.037
REMARK INTER:                  -7.193
REMARK INTRA:                  -1.844
REMARK UNBOUND:                -1.892
REMARK SMILES O=c1c(O[C@@H]2O[C@H](CO)[C@@H](O)[C@@H](O)[C@@H]2O)c(-c2ccc(O)c(O)c2)oc2cc(O)cc(O)c12
REMARK SMILES IDX 4 1 3 2 16 3 25 4 2 5 26 6 1 7 33 8 27 9 31 10 28 11 30 12
REMARK SMILES IDX 17 13 18 14 19 15 20 16 24 17 22 18 21 19 23 21 32 23 29 25
REMARK SMILES IDX 5 27 14 28 6 29 12 30 7 31 10 32 15 33 13 35 8 37 9 38 11 40
REMARK H PARENT 21 20 23 22 32 24 29 26 15 34 13 36 9 39 11 41
REMARK Flexibility Score: inf
ROOT
ATOM      1  O   UNL     1       2.916  -6.811   4.750  1.00  0.00    -0.454 OA
ENDROOT
BRANCH   1   2
ATOM      2  C   UNL     1       3.846  -6.734   5.816  1.00  0.00     0.214 A 
ATOM      3  C   UNL     1       4.387  -5.477   6.201  1.00  0.00     0.180 A 
ATOM      4  O   UNL     1       5.698  -5.373   6.400  1.00  0.00    -0.452 OA
ATOM      5  C   UNL     1       4.589  -7.883   6.107  1.00  0.00     0.239 A 
ATOM      6  C   UNL     1       6.530  -6.415   6.340  1.00  0.00     0.146 A 
ATOM      7  O   UNL     1       4.031  -9.006   6.090  1.00  0.00    -0.285 OA
ATOM      8  C   UNL     1       5.991  -7.732   6.270  1.00  0.00     0.111 A 
ATOM      9  C   UNL     1       7.872  -6.185   6.241  1.00  0.00     0.094 A 
ATOM     10  C   UNL     1       6.901  -8.826   6.102  1.00  0.00     0.134 A 
ATOM     11  C   UNL     1       8.762  -7.251   6.168  1.00  0.00     0.123 A 
ATOM     12  C   UNL     1       8.281  -8.546   6.104  1.00  0.00     0.093 A 
BRANCH   3  13
ATOM     13  C   UNL     1       3.623  -4.208   6.275  1.00  0.00     0.025 A 
ATOM     14  C   UNL     1       2.714  -4.013   7.375  1.00  0.00     0.016 A 
ATOM     15  C   UNL     1       2.317  -2.742   7.776  1.00  0.00     0.051 A 
ATOM     16  C   UNL     1       2.882  -1.576   7.117  1.00  0.00     0.157 A 
ATOM     17  C   UNL     1       4.095  -3.036   5.636  1.00  0.00     0.062 A 
ATOM     18  C   UNL     1       3.769  -1.754   6.026  1.00  0.00     0.158 A 
BRANCH  16  19
ATOM     19  O   UNL     1       2.566  -0.317   7.560  1.00  0.00    -0.504 OA
ATOM     20  H   UNL     1       2.355  -0.139   8.530  1.00  0.00     0.293 HD
ENDBRANCH  16  19
BRANCH  18  21
ATOM     21  O   UNL     1       4.274  -0.691   5.249  1.00  0.00    -0.504 OA
ATOM     22  H   UNL     1       5.276  -0.486   5.111  1.00  0.00     0.293 HD
ENDBRANCH  18  21
ENDBRANCH   3  13
BRANCH  10  23
ATOM     23  O   UNL     1       6.423 -10.124   5.843  1.00  0.00    -0.507 OA
ATOM     24  H   UNL     1       6.189 -10.409   4.901  1.00  0.00     0.293 HD
ENDBRANCH  10  23
BRANCH  11  25
ATOM     25  O   UNL     1      10.105  -6.951   6.118  1.00  0.00    -0.508 OA
ATOM     26  H   UNL     1      10.690  -6.751   6.929  1.00  0.00     0.293 HD
ENDBRANCH  11  25
ENDBRANCH   1   2
BRANCH   1  27
ATOM     27  C   UNL     1       1.523  -6.999   5.133  1.00  0.00     0.339 C 
ATOM     28  C   UNL     1       0.799  -8.093   4.422  1.00  0.00     0.214 C 
ATOM     29  O   UNL     1       1.314  -7.076   6.589  1.00  0.00    -0.332 OA
ATOM     30  C   UNL     1      -0.749  -7.954   4.674  1.00  0.00     0.180 C 
ATOM     31  C   UNL     1      -0.101  -7.101   7.022  1.00  0.00     0.179 C 
ATOM     32  C   UNL     1      -1.126  -6.945   5.830  1.00  0.00     0.177 C 
BRANCH  28  33
ATOM     33  O   UNL     1       1.293  -9.308   4.904  1.00  0.00    -0.384 OA
ATOM     34  H   UNL     1       0.561  -9.821   5.327  1.00  0.00     0.211 HD
ENDBRANCH  28  33
BRANCH  30  35
ATOM     35  O   UNL     1      -1.516  -7.747   3.529  1.00  0.00    -0.387 OA
ATOM     36  H   UNL     1      -1.239  -6.886   3.068  1.00  0.00     0.211 HD
ENDBRANCH  30  35
BRANCH  31  37
ATOM     37  C   UNL     1      -0.393  -8.392   7.820  1.00  0.00     0.191 C 
BRANCH  37  38
ATOM     38  O   UNL     1       0.687  -9.295   7.766  1.00  0.00    -0.394 OA
ATOM     39  H   UNL     1       0.345 -10.217   8.104  1.00  0.00     0.210 HD
ENDBRANCH  37  38
ENDBRANCH  31  37
BRANCH  32  40
ATOM     40  O   UNL     1      -2.060  -5.900   5.532  1.00  0.00    -0.387 OA
ATOM     41  H   UNL     1      -2.823  -6.033   6.112  1.00  0.00     0.211 HD
ENDBRANCH  32  40
ENDBRANCH   1  27
TORSDOF 12
ENDMDL
MODEL 9
REMARK VINA RESULT:    -4.508      2.816      5.815
REMARK INTER + INTRA:          -8.509
REMARK INTER:                  -7.671
REMARK INTRA:                  -0.837
REMARK UNBOUND:                -1.892
REMARK SMILES O=c1c(O[C@@H]2O[C@H](CO)[C@@H](O)[C@@H](O)[C@@H]2O)c(-c2ccc(O)c(O)c2)oc2cc(O)cc(O)c12
REMARK SMILES IDX 4 1 3 2 16 3 25 4 2 5 26 6 1 7 33 8 27 9 31 10 28 11 30 12
REMARK SMILES IDX 17 13 18 14 19 15 20 16 24 17 22 18 21 19 23 21 32 23 29 25
REMARK SMILES IDX 5 27 14 28 6 29 12 30 7 31 10 32 15 33 13 35 8 37 9 38 11 40
REMARK H PARENT 21 20 23 22 32 24 29 26 15 34 13 36 9 39 11 41
REMARK Flexibility Score: inf
ROOT
ATOM      1  O   UNL     1       4.588  -2.316   4.590  1.00  0.00    -0.454 OA
ENDROOT
BRANCH   1   2
ATOM      2  C   UNL     1       4.310  -3.374   5.491  1.00  0.00     0.214 A 
ATOM      3  C   UNL     1       4.973  -4.623   5.352  1.00  0.00     0.180 A 
ATOM      4  O   UNL     1       4.259  -5.743   5.414  1.00  0.00    -0.452 OA
ATOM      5  C   UNL     1       3.068  -3.361   6.136  1.00  0.00     0.239 A 
ATOM      6  C   UNL     1       2.954  -5.762   5.688  1.00  0.00     0.146 A 
ATOM      7  O   UNL     1       2.603  -2.279   6.569  1.00  0.00    -0.285 OA
ATOM      8  C   UNL     1       2.322  -4.568   6.142  1.00  0.00     0.111 A 
ATOM      9  C   UNL     1       2.238  -6.894   5.426  1.00  0.00     0.094 A 
ATOM     10  C   UNL     1       0.901  -4.585   6.330  1.00  0.00     0.134 A 
ATOM     11  C   UNL     1       0.874  -6.940   5.693  1.00  0.00     0.123 A 
ATOM     12  C   UNL     1       0.223  -5.805   6.140  1.00  0.00     0.093 A 
BRANCH   3  13
ATOM     13  C   UNL     1       6.405  -4.791   5.002  1.00  0.00     0.025 A 
ATOM     14  C   UNL     1       7.318  -5.232   6.025  1.00  0.00     0.016 A 
ATOM     15  C   UNL     1       8.529  -5.839   5.709  1.00  0.00     0.051 A 
ATOM     16  C   UNL     1       8.856  -6.099   4.317  1.00  0.00     0.157 A 
ATOM     17  C   UNL     1       6.806  -5.021   3.663  1.00  0.00     0.062 A 
ATOM     18  C   UNL     1       7.972  -5.660   3.300  1.00  0.00     0.158 A 
BRANCH  16  19
ATOM     19  O   UNL     1      10.006  -6.775   3.998  1.00  0.00    -0.504 OA
ATOM     20  H   UNL     1      10.250  -7.642   4.451  1.00  0.00     0.293 HD
ENDBRANCH  16  19
BRANCH  18  21
ATOM     21  O   UNL     1       8.256  -5.759   1.922  1.00  0.00    -0.504 OA
ATOM     22  H   UNL     1       8.248  -4.967   1.260  1.00  0.00     0.293 HD
ENDBRANCH  18  21
ENDBRANCH   3  13
BRANCH  10  23
ATOM     23  O   UNL     1       0.198  -3.396   6.599  1.00  0.00    -0.507 OA
ATOM     24  H   UNL     1      -0.330  -2.934   5.870  1.00  0.00     0.293 HD
ENDBRANCH  10  23
BRANCH  11  25
ATOM     25  O   UNL     1       0.221  -8.128   5.451  1.00  0.00    -0.508 OA
ATOM     26  H   UNL     1       0.668  -9.044   5.416  1.00  0.00     0.293 HD
ENDBRANCH  11  25
ENDBRANCH   1   2
BRANCH   1  27
ATOM     27  C   UNL     1       5.597  -1.359   5.024  1.00  0.00     0.339 C 
ATOM     28  C   UNL     1       5.102  -0.241   5.880  1.00  0.00     0.214 C 
ATOM     29  O   UNL     1       6.798  -1.985   5.601  1.00  0.00    -0.332 OA
ATOM     30  C   UNL     1       6.205   0.878   5.978  1.00  0.00     0.180 C 
ATOM     31  C   UNL     1       7.911  -1.056   5.900  1.00  0.00     0.179 C 
ATOM     32  C   UNL     1       7.626   0.431   5.452  1.00  0.00     0.177 C 
BRANCH  28  33
ATOM     33  O   UNL     1       4.797  -0.776   7.135  1.00  0.00    -0.384 OA
ATOM     34  H   UNL     1       4.021  -0.298   7.520  1.00  0.00     0.211 HD
ENDBRANCH  28  33
BRANCH  30  35
ATOM     35  O   UNL     1       5.828   2.122   5.473  1.00  0.00    -0.387 OA
ATOM     36  H   UNL     1       6.058   2.187   4.487  1.00  0.00     0.211 HD
ENDBRANCH  30  35
BRANCH  31  37
ATOM     37  C   UNL     1       8.261  -1.109   7.405  1.00  0.00     0.191 C 
BRANCH  37  38
ATOM     38  O   UNL     1       7.354  -1.911   8.125  1.00  0.00    -0.394 OA
ATOM     39  H   UNL     1       6.475  -1.966   7.573  1.00  0.00     0.210 HD
ENDBRANCH  37  38
ENDBRANCH  31  37
BRANCH  32  40
ATOM     40  O   UNL     1       8.262   1.245   4.458  1.00  0.00    -0.387 OA
ATOM     41  H   UNL     1       7.913   0.965   3.601  1.00  0.00     0.211 HD
ENDBRANCH  32  40
ENDBRANCH   1  27
TORSDOF 12
ENDMDL
