MODEL 1
REMARK VINA RESULT:    -3.223      0.000      0.000
REMARK INTER + INTRA:          -5.266
REMARK INTER:                  -4.637
REMARK INTRA:                  -0.629
REMARK UNBOUND:                -0.629
REMARK SMILES CCCCCCCCCO
REMARK SMILES IDX 6 1 5 2 4 3 3 4 2 5 1 6 7 7 8 8 9 9 10 10
REMARK H PARENT 10 11
REMARK Flexibility Score: inf
ROOT
ATOM      1  C   UNL     1       8.559 -40.634  45.453  1.00  0.00     0.000 C 
ENDROOT
BRANCH   1   2
ATOM      2  C   UNL     1       9.883 -39.881  45.229  1.00  0.00     0.000 C 
BRANCH   2   3
ATOM      3  C   UNL     1      10.275 -38.993  46.422  1.00  0.00    -0.000 C 
BRANCH   3   4
ATOM      4  C   UNL     1      10.209 -37.490  46.098  1.00  0.00    -0.000 C 
BRANCH   4   5
ATOM      5  C   UNL     1       9.899 -36.577  47.298  1.00  0.00    -0.003 C 
ATOM      6  C   UNL     1       9.092 -37.277  48.390  1.00  0.00     0.004 C 
ENDBRANCH   4   5
ENDBRANCH   3   4
ENDBRANCH   2   3
ENDBRANCH   1   2
BRANCH   1   7
ATOM      7  C   UNL     1       7.593 -39.985  46.466  1.00  0.00     0.002 C 
BRANCH   7   8
ATOM      8  C   UNL     1       6.329 -39.358  45.854  1.00  0.00     0.028 C 
BRANCH   8   9
ATOM      9  C   UNL     1       6.468 -37.852  45.609  1.00  0.00     0.156 C 
BRANCH   9  10
ATOM     10  O   UNL     1       5.415 -37.394  44.805  1.00  0.00    -0.396 OA
ATOM     11  H   UNL     1       4.802 -36.888  45.399  1.00  0.00     0.210 HD
ENDBRANCH   9  10
ENDBRANCH   8   9
ENDBRANCH   7   8
ENDBRANCH   1   7
TORSDOF 8
ENDMDL
MODEL 2
REMARK VINA RESULT:    -3.199      9.769     11.050
REMARK INTER + INTRA:          -5.231
REMARK INTER:                  -4.526
REMARK INTRA:                  -0.705
REMARK UNBOUND:                -0.629
REMARK SMILES CCCCCCCCCO
REMARK SMILES IDX 6 1 5 2 4 3 3 4 2 5 1 6 7 7 8 8 9 9 10 10
REMARK H PARENT 10 11
REMARK Flexibility Score: inf
ROOT
ATOM      1  C   UNL     1       0.282 -32.948  44.998  1.00  0.00     0.000 C 
ENDROOT
BRANCH   1   2
ATOM      2  C   UNL     1       0.315 -32.045  43.752  1.00  0.00     0.000 C 
BRANCH   2   3
ATOM      3  C   UNL     1       1.431 -30.989  43.806  1.00  0.00    -0.000 C 
BRANCH   3   4
ATOM      4  C   UNL     1       0.893 -29.547  43.808  1.00  0.00    -0.000 C 
BRANCH   4   5
ATOM      5  C   UNL     1       1.200 -28.738  45.081  1.00  0.00    -0.003 C 
ATOM      6  C   UNL     1      -0.043 -28.450  45.922  1.00  0.00     0.004 C 
ENDBRANCH   4   5
ENDBRANCH   3   4
ENDBRANCH   2   3
ENDBRANCH   1   2
BRANCH   1   7
ATOM      7  C   UNL     1       0.153 -32.207  46.346  1.00  0.00     0.002 C 
BRANCH   7   8
ATOM      8  C   UNL     1       1.329 -32.409  47.317  1.00  0.00     0.028 C 
BRANCH   8   9
ATOM      9  C   UNL     1       1.752 -31.114  48.020  1.00  0.00     0.156 C 
BRANCH   9  10
ATOM     10  O   UNL     1       2.895 -30.583  47.407  1.00  0.00    -0.396 OA
ATOM     11  H   UNL     1       2.594 -29.815  46.856  1.00  0.00     0.210 HD
ENDBRANCH   9  10
ENDBRANCH   8   9
ENDBRANCH   7   8
ENDBRANCH   1   7
TORSDOF 8
ENDMDL
MODEL 3
REMARK VINA RESULT:    -3.153      1.012      1.695
REMARK INTER + INTRA:          -5.165
REMARK INTER:                  -4.466
REMARK INTRA:                  -0.699
REMARK UNBOUND:                -0.629
REMARK SMILES CCCCCCCCCO
REMARK SMILES IDX 6 1 5 2 4 3 3 4 2 5 1 6 7 7 8 8 9 9 10 10
REMARK H PARENT 10 11
REMARK Flexibility Score: inf
ROOT
ATOM      1  C   UNL     1       9.610 -38.940  45.797  1.00  0.00     0.000 C 
ENDROOT
BRANCH   1   2
ATOM      2  C   UNL     1      10.081 -37.475  45.797  1.00  0.00     0.000 C 
BRANCH   2   3
ATOM      3  C   UNL     1      11.071 -37.163  46.932  1.00  0.00    -0.000 C 
BRANCH   3   4
ATOM      4  C   UNL     1      10.564 -36.066  47.885  1.00  0.00    -0.000 C 
BRANCH   4   5
ATOM      5  C   UNL     1       9.424 -36.495  48.826  1.00  0.00    -0.003 C 
ATOM      6  C   UNL     1       9.660 -37.861  49.469  1.00  0.00     0.004 C 
ENDBRANCH   4   5
ENDBRANCH   3   4
ENDBRANCH   2   3
ENDBRANCH   1   2
BRANCH   1   7
ATOM      7  C   UNL     1       8.166 -39.170  46.289  1.00  0.00     0.002 C 
BRANCH   7   8
ATOM      8  C   UNL     1       7.232 -37.953  46.163  1.00  0.00     0.028 C 
BRANCH   8   9
ATOM      9  C   UNL     1       5.898 -38.292  45.489  1.00  0.00     0.156 C 
BRANCH   9  10
ATOM     10  O   UNL     1       5.419 -37.181  44.780  1.00  0.00    -0.396 OA
ATOM     11  H   UNL     1       5.924 -37.148  43.926  1.00  0.00     0.210 HD
ENDBRANCH   9  10
ENDBRANCH   8   9
ENDBRANCH   7   8
ENDBRANCH   1   7
TORSDOF 8
ENDMDL
MODEL 4
REMARK VINA RESULT:    -3.032     12.678     14.259
REMARK INTER + INTRA:          -4.991
REMARK INTER:                  -4.637
REMARK INTRA:                  -0.354
REMARK UNBOUND:                -0.629
REMARK SMILES CCCCCCCCCO
REMARK SMILES IDX 6 1 5 2 4 3 3 4 2 5 1 6 7 7 8 8 9 9 10 10
REMARK H PARENT 10 11
REMARK Flexibility Score: inf
ROOT
ATOM      1  C   UNL     1       3.987 -38.066  60.712  1.00  0.00     0.000 C 
ENDROOT
BRANCH   1   2
ATOM      2  C   UNL     1       5.265 -38.800  60.269  1.00  0.00     0.000 C 
BRANCH   2   3
ATOM      3  C   UNL     1       5.400 -38.900  58.741  1.00  0.00    -0.000 C 
BRANCH   3   4
ATOM      4  C   UNL     1       6.554 -38.047  58.184  1.00  0.00    -0.000 C 
BRANCH   4   5
ATOM      5  C   UNL     1       6.122 -36.854  57.312  1.00  0.00    -0.003 C 
ATOM      6  C   UNL     1       7.093 -36.566  56.168  1.00  0.00     0.004 C 
ENDBRANCH   4   5
ENDBRANCH   3   4
ENDBRANCH   2   3
ENDBRANCH   1   2
BRANCH   1   7
ATOM      7  C   UNL     1       3.026 -37.667  59.571  1.00  0.00     0.002 C 
BRANCH   7   8
ATOM      8  C   UNL     1       1.559 -37.473  59.991  1.00  0.00     0.028 C 
BRANCH   8   9
ATOM      9  C   UNL     1       1.399 -37.198  61.490  1.00  0.00     0.156 C 
BRANCH   9  10
ATOM     10  O   UNL     1       1.068 -35.852  61.702  1.00  0.00    -0.396 OA
ATOM     11  H   UNL     1       1.877 -35.415  62.076  1.00  0.00     0.210 HD
ENDBRANCH   9  10
ENDBRANCH   8   9
ENDBRANCH   7   8
ENDBRANCH   1   7
TORSDOF 8
ENDMDL
MODEL 5
REMARK VINA RESULT:    -3.013      1.152      2.908
REMARK INTER + INTRA:          -4.964
REMARK INTER:                  -4.358
REMARK INTRA:                  -0.606
REMARK UNBOUND:                -0.629
REMARK SMILES CCCCCCCCCO
REMARK SMILES IDX 6 1 5 2 4 3 3 4 2 5 1 6 7 7 8 8 9 9 10 10
REMARK H PARENT 10 11
REMARK Flexibility Score: inf
ROOT
ATOM      1  C   UNL     1       9.139 -37.403  47.178  1.00  0.00     0.000 C 
ENDROOT
BRANCH   1   2
ATOM      2  C   UNL     1      10.640 -37.376  46.834  1.00  0.00     0.000 C 
BRANCH   2   3
ATOM      3  C   UNL     1      11.331 -38.730  47.061  1.00  0.00    -0.000 C 
BRANCH   3   4
ATOM      4  C   UNL     1      10.341 -39.861  47.395  1.00  0.00    -0.000 C 
BRANCH   4   5
ATOM      5  C   UNL     1      10.192 -40.940  46.307  1.00  0.00    -0.003 C 
ATOM      6  C   UNL     1      10.232 -40.371  44.890  1.00  0.00     0.004 C 
ENDBRANCH   4   5
ENDBRANCH   3   4
ENDBRANCH   2   3
ENDBRANCH   1   2
BRANCH   1   7
ATOM      7  C   UNL     1       8.185 -37.425  45.966  1.00  0.00     0.002 C 
BRANCH   7   8
ATOM      8  C   UNL     1       7.154 -38.567  45.967  1.00  0.00     0.028 C 
BRANCH   8   9
ATOM      9  C   UNL     1       5.711 -38.069  45.833  1.00  0.00     0.156 C 
BRANCH   9  10
ATOM     10  O   UNL     1       5.589 -37.238  44.711  1.00  0.00    -0.396 OA
ATOM     11  H   UNL     1       4.738 -36.739  44.816  1.00  0.00     0.210 HD
ENDBRANCH   9  10
ENDBRANCH   8   9
ENDBRANCH   7   8
ENDBRANCH   1   7
TORSDOF 8
ENDMDL
MODEL 6
REMARK VINA RESULT:    -2.988     10.061     11.390
REMARK INTER + INTRA:          -4.928
REMARK INTER:                  -4.221
REMARK INTRA:                  -0.707
REMARK UNBOUND:                -0.629
REMARK SMILES CCCCCCCCCO
REMARK SMILES IDX 6 1 5 2 4 3 3 4 2 5 1 6 7 7 8 8 9 9 10 10
REMARK H PARENT 10 11
REMARK Flexibility Score: inf
ROOT
ATOM      1  C   UNL     1       1.615 -30.800  43.667  1.00  0.00     0.000 C 
ENDROOT
BRANCH   1   2
ATOM      2  C   UNL     1       0.198 -31.326  43.962  1.00  0.00     0.000 C 
BRANCH   2   3
ATOM      3  C   UNL     1       0.198 -32.564  44.874  1.00  0.00    -0.000 C 
BRANCH   3   4
ATOM      4  C   UNL     1      -0.044 -32.219  46.355  1.00  0.00    -0.000 C 
BRANCH   4   5
ATOM      5  C   UNL     1       1.137 -32.518  47.296  1.00  0.00    -0.003 C 
ATOM      6  C   UNL     1       1.780 -31.256  47.869  1.00  0.00     0.004 C 
ENDBRANCH   4   5
ENDBRANCH   3   4
ENDBRANCH   2   3
ENDBRANCH   1   2
BRANCH   1   7
ATOM      7  C   UNL     1       2.079 -29.622  44.550  1.00  0.00     0.002 C 
BRANCH   7   8
ATOM      8  C   UNL     1       0.947 -28.767  45.145  1.00  0.00     0.028 C 
BRANCH   8   9
ATOM      9  C   UNL     1       1.461 -27.520  45.873  1.00  0.00     0.156 C 
BRANCH   9  10
ATOM     10  O   UNL     1       2.337 -27.888  46.904  1.00  0.00    -0.396 OA
ATOM     11  H   UNL     1       1.857 -28.553  47.462  1.00  0.00     0.210 HD
ENDBRANCH   9  10
ENDBRANCH   8   9
ENDBRANCH   7   8
ENDBRANCH   1   7
TORSDOF 8
ENDMDL
MODEL 7
REMARK VINA RESULT:    -2.954     10.141     11.766
REMARK INTER + INTRA:          -4.878
REMARK INTER:                  -4.697
REMARK INTRA:                  -0.181
REMARK UNBOUND:                -0.629
REMARK SMILES CCCCCCCCCO
REMARK SMILES IDX 6 1 5 2 4 3 3 4 2 5 1 6 7 7 8 8 9 9 10 10
REMARK H PARENT 10 11
REMARK Flexibility Score: inf
ROOT
ATOM      1  C   UNL     1       2.141 -30.405  46.964  1.00  0.00     0.000 C 
ENDROOT
BRANCH   1   2
ATOM      2  C   UNL     1       1.293 -29.143  46.724  1.00  0.00     0.000 C 
BRANCH   2   3
ATOM      3  C   UNL     1       2.129 -27.853  46.712  1.00  0.00    -0.000 C 
BRANCH   3   4
ATOM      4  C   UNL     1       1.877 -26.986  45.466  1.00  0.00    -0.000 C 
BRANCH   4   5
ATOM      5  C   UNL     1       2.107 -25.476  45.663  1.00  0.00    -0.003 C 
ATOM      6  C   UNL     1       3.292 -25.166  46.576  1.00  0.00     0.004 C 
ENDBRANCH   4   5
ENDBRANCH   3   4
ENDBRANCH   2   3
ENDBRANCH   1   2
BRANCH   1   7
ATOM      7  C   UNL     1       1.376 -31.615  47.541  1.00  0.00     0.002 C 
BRANCH   7   8
ATOM      8  C   UNL     1       0.119 -32.027  46.755  1.00  0.00     0.028 C 
BRANCH   8   9
ATOM      9  C   UNL     1       0.434 -32.494  45.329  1.00  0.00     0.156 C 
BRANCH   9  10
ATOM     10  O   UNL     1       0.591 -33.887  45.301  1.00  0.00    -0.396 OA
ATOM     11  H   UNL     1      -0.308 -34.279  45.452  1.00  0.00     0.210 HD
ENDBRANCH   9  10
ENDBRANCH   8   9
ENDBRANCH   7   8
ENDBRANCH   1   7
TORSDOF 8
ENDMDL
MODEL 8
REMARK VINA RESULT:    -2.894     17.292     18.919
REMARK INTER + INTRA:          -4.792
REMARK INTER:                  -4.111
REMARK INTRA:                  -0.681
REMARK UNBOUND:                -0.629
REMARK SMILES CCCCCCCCCO
REMARK SMILES IDX 6 1 5 2 4 3 3 4 2 5 1 6 7 7 8 8 9 9 10 10
REMARK H PARENT 10 11
REMARK Flexibility Score: inf
ROOT
ATOM      1  C   UNL     1      16.624 -31.488  62.455  1.00  0.00     0.000 C 
ENDROOT
BRANCH   1   2
ATOM      2  C   UNL     1      15.330 -31.321  61.638  1.00  0.00     0.000 C 
BRANCH   2   3
ATOM      3  C   UNL     1      14.141 -32.092  62.235  1.00  0.00    -0.000 C 
BRANCH   3   4
ATOM      4  C   UNL     1      13.516 -33.090  61.244  1.00  0.00    -0.000 C 
BRANCH   4   5
ATOM      5  C   UNL     1      13.928 -34.559  61.450  1.00  0.00    -0.003 C 
ATOM      6  C   UNL     1      13.784 -35.023  62.899  1.00  0.00     0.004 C 
ENDBRANCH   4   5
ENDBRANCH   3   4
ENDBRANCH   2   3
ENDBRANCH   1   2
BRANCH   1   7
ATOM      7  C   UNL     1      16.808 -32.866  63.125  1.00  0.00     0.002 C 
BRANCH   7   8
ATOM      8  C   UNL     1      17.579 -33.902  62.288  1.00  0.00     0.028 C 
BRANCH   8   9
ATOM      9  C   UNL     1      18.521 -33.259  61.264  1.00  0.00     0.156 C 
BRANCH   9  10
ATOM     10  O   UNL     1      19.749 -33.937  61.246  1.00  0.00    -0.396 OA
ATOM     11  H   UNL     1      19.608 -34.768  60.723  1.00  0.00     0.210 HD
ENDBRANCH   9  10
ENDBRANCH   8   9
ENDBRANCH   7   8
ENDBRANCH   1   7
TORSDOF 8
ENDMDL
MODEL 9
REMARK VINA RESULT:    -2.884      1.620      3.732
REMARK INTER + INTRA:          -4.778
REMARK INTER:                  -4.029
REMARK INTRA:                  -0.749
REMARK UNBOUND:                -0.629
REMARK SMILES CCCCCCCCCO
REMARK SMILES IDX 6 1 5 2 4 3 3 4 2 5 1 6 7 7 8 8 9 9 10 10
REMARK H PARENT 10 11
REMARK Flexibility Score: inf
ROOT
ATOM      1  C   UNL     1      10.150 -39.383  46.201  1.00  0.00     0.000 C 
ENDROOT
BRANCH   1   2
ATOM      2  C   UNL     1       9.870 -40.308  45.003  1.00  0.00     0.000 C 
BRANCH   2   3
ATOM      3  C   UNL     1       8.503 -41.005  45.091  1.00  0.00    -0.000 C 
BRANCH   3   4
ATOM      4  C   UNL     1       7.682 -40.563  46.316  1.00  0.00    -0.000 C 
BRANCH   4   5
ATOM      5  C   UNL     1       6.271 -40.033  45.999  1.00  0.00    -0.003 C 
ATOM      6  C   UNL     1       6.231 -38.519  45.799  1.00  0.00     0.004 C 
ENDBRANCH   4   5
ENDBRANCH   3   4
ENDBRANCH   2   3
ENDBRANCH   1   2
BRANCH   1   7
ATOM      7  C   UNL     1      10.032 -37.872  45.910  1.00  0.00     0.002 C 
BRANCH   7   8
ATOM      8  C   UNL     1       9.408 -37.036  47.041  1.00  0.00     0.028 C 
BRANCH   8   9
ATOM      9  C   UNL     1       9.386 -37.773  48.385  1.00  0.00     0.156 C 
BRANCH   9  10
ATOM     10  O   UNL     1       8.065 -38.060  48.757  1.00  0.00    -0.396 OA
ATOM     11  H   UNL     1       7.512 -37.292  48.461  1.00  0.00     0.210 HD
ENDBRANCH   9  10
ENDBRANCH   8   9
ENDBRANCH   7   8
ENDBRANCH   1   7
TORSDOF 8
ENDMDL
