MODEL 1
REMARK VINA RESULT:    -4.725      0.000      0.000
REMARK INTER + INTRA:          -7.527
REMARK INTER:                  -6.935
REMARK INTRA:                  -0.592
REMARK UNBOUND:                -0.592
REMARK SMILES O=C([O-])CCCCCCCC(=O)[O-]
REMARK SMILES IDX 7 1 6 2 5 3 4 4 2 5 1 6 3 7 8 8 9 9 10 10 11 11 12 12 13 13
REMARK H PARENT
REMARK Flexibility Score: inf
ROOT
ATOM      1  C   UNL     1      11.246   0.811  33.868  1.00  0.00     0.000 C 
ENDROOT
BRANCH   1   2
ATOM      2  C   UNL     1      12.566   0.373  34.518  1.00  0.00     0.000 C 
BRANCH   2   3
ATOM      3  C   UNL     1      13.234   1.499  35.330  1.00  0.00     0.006 C 
BRANCH   3   4
ATOM      4  C   UNL     1      12.247   2.474  35.989  1.00  0.00     0.053 C 
BRANCH   4   5
ATOM      5  C   UNL     1      12.454   3.882  35.521  1.00  0.00     0.041 C 
ATOM      6  O   UNL     1      12.677   4.120  34.305  1.00  0.00    -0.550 OA
ATOM      7  O   UNL     1      12.367   4.935  36.423  1.00  0.00    -0.550 OA
ENDBRANCH   4   5
ENDBRANCH   3   4
ENDBRANCH   2   3
ENDBRANCH   1   2
BRANCH   1   8
ATOM      8  C   UNL     1      10.279  -0.373  33.735  1.00  0.00     0.000 C 
BRANCH   8   9
ATOM      9  C   UNL     1       8.822   0.087  33.881  1.00  0.00     0.006 C 
BRANCH   9  10
ATOM     10  C   UNL     1       8.708   1.439  34.598  1.00  0.00     0.053 C 
BRANCH  10  11
ATOM     11  C   UNL     1       8.240   1.280  36.012  1.00  0.00     0.041 C 
ATOM     12  O   UNL     1       9.000   1.583  36.969  1.00  0.00    -0.550 OA
ATOM     13  O   UNL     1       6.977   0.765  36.274  1.00  0.00    -0.550 OA
ENDBRANCH  10  11
ENDBRANCH   9  10
ENDBRANCH   8   9
ENDBRANCH   1   8
TORSDOF 8
ENDMDL
MODEL 2
REMARK VINA RESULT:    -4.714      0.225      4.741
REMARK INTER + INTRA:          -7.511
REMARK INTER:                  -6.929
REMARK INTRA:                  -0.582
REMARK UNBOUND:                -0.592
REMARK SMILES O=C([O-])CCCCCCCC(=O)[O-]
REMARK SMILES IDX 7 1 6 2 5 3 4 4 2 5 1 6 3 7 8 8 9 9 10 10 11 11 12 12 13 13
REMARK H PARENT
REMARK Flexibility Score: inf
ROOT
ATOM      1  C   UNL     1      11.442   0.788  33.800  1.00  0.00     0.000 C 
ENDROOT
BRANCH   1   2
ATOM      2  C   UNL     1      10.434  -0.369  33.752  1.00  0.00     0.000 C 
BRANCH   2   3
ATOM      3  C   UNL     1       8.971   0.111  33.792  1.00  0.00     0.006 C 
BRANCH   3   4
ATOM      4  C   UNL     1       8.755   1.413  34.580  1.00  0.00     0.053 C 
BRANCH   4   5
ATOM      5  C   UNL     1       8.178   1.155  35.939  1.00  0.00     0.041 C 
ATOM      6  O   UNL     1       8.741   1.620  36.964  1.00  0.00    -0.550 OA
ATOM      7  O   UNL     1       7.001   0.429  36.068  1.00  0.00    -0.550 OA
ENDBRANCH   4   5
ENDBRANCH   3   4
ENDBRANCH   2   3
ENDBRANCH   1   2
BRANCH   1   8
ATOM      8  C   UNL     1      12.733   0.363  34.511  1.00  0.00     0.000 C 
BRANCH   8   9
ATOM      9  C   UNL     1      13.143   1.393  35.573  1.00  0.00     0.006 C 
BRANCH   9  10
ATOM     10  C   UNL     1      12.051   2.444  35.814  1.00  0.00     0.053 C 
BRANCH  10  11
ATOM     11  C   UNL     1      12.506   3.818  35.425  1.00  0.00     0.041 C 
ATOM     12  O   UNL     1      12.969   4.029  34.273  1.00  0.00    -0.550 OA
ATOM     13  O   UNL     1      12.449   4.856  36.345  1.00  0.00    -0.550 OA
ENDBRANCH  10  11
ENDBRANCH   9  10
ENDBRANCH   8   9
ENDBRANCH   1   8
TORSDOF 8
ENDMDL
MODEL 3
REMARK VINA RESULT:    -4.615     17.498     18.719
REMARK INTER + INTRA:          -7.366
REMARK INTER:                  -6.662
REMARK INTRA:                  -0.705
REMARK UNBOUND:                -0.592
REMARK SMILES O=C([O-])CCCCCCCC(=O)[O-]
REMARK SMILES IDX 7 1 6 2 5 3 4 4 2 5 1 6 3 7 8 8 9 9 10 10 11 11 12 12 13 13
REMARK H PARENT
REMARK Flexibility Score: inf
ROOT
ATOM      1  C   UNL     1      13.142 -11.398  46.926  1.00  0.00     0.000 C 
ENDROOT
BRANCH   1   2
ATOM      2  C   UNL     1      11.682 -11.688  46.548  1.00  0.00     0.000 C 
BRANCH   2   3
ATOM      3  C   UNL     1      10.734 -10.523  46.889  1.00  0.00     0.006 C 
BRANCH   3   4
ATOM      4  C   UNL     1       9.650 -10.873  47.920  1.00  0.00     0.053 C 
BRANCH   4   5
ATOM      5  C   UNL     1       8.270 -10.696  47.363  1.00  0.00     0.041 C 
ATOM      6  O   UNL     1       7.463 -11.662  47.352  1.00  0.00    -0.550 OA
ATOM      7  O   UNL     1       7.866  -9.455  46.887  1.00  0.00    -0.550 OA
ENDBRANCH   4   5
ENDBRANCH   3   4
ENDBRANCH   2   3
ENDBRANCH   1   2
BRANCH   1   8
ATOM      8  C   UNL     1      13.669 -12.440  47.921  1.00  0.00     0.000 C 
BRANCH   8   9
ATOM      9  C   UNL     1      13.022 -12.260  49.302  1.00  0.00     0.006 C 
BRANCH   9  10
ATOM     10  C   UNL     1      13.453 -10.951  49.978  1.00  0.00     0.053 C 
BRANCH  10  11
ATOM     11  C   UNL     1      12.283 -10.058  50.257  1.00  0.00     0.041 C 
ATOM     12  O   UNL     1      12.178  -8.949  49.669  1.00  0.00    -0.550 OA
ATOM     13  O   UNL     1      11.326 -10.435  51.191  1.00  0.00    -0.550 OA
ENDBRANCH  10  11
ENDBRANCH   9  10
ENDBRANCH   8   9
ENDBRANCH   1   8
TORSDOF 8
ENDMDL
MODEL 4
REMARK VINA RESULT:    -4.572     17.608     18.516
REMARK INTER + INTRA:          -7.302
REMARK INTER:                  -6.640
REMARK INTRA:                  -0.663
REMARK UNBOUND:                -0.592
REMARK SMILES O=C([O-])CCCCCCCC(=O)[O-]
REMARK SMILES IDX 7 1 6 2 5 3 4 4 2 5 1 6 3 7 8 8 9 9 10 10 11 11 12 12 13 13
REMARK H PARENT
REMARK Flexibility Score: inf
ROOT
ATOM      1  C   UNL     1      12.352 -12.220  47.001  1.00  0.00     0.000 C 
ENDROOT
BRANCH   1   2
ATOM      2  C   UNL     1      13.562 -12.289  47.943  1.00  0.00     0.000 C 
BRANCH   2   3
ATOM      3  C   UNL     1      13.174 -12.137  49.426  1.00  0.00     0.006 C 
BRANCH   3   4
ATOM      4  C   UNL     1      13.254 -10.697  49.956  1.00  0.00     0.053 C 
BRANCH   4   5
ATOM      5  C   UNL     1      12.026 -10.315  50.725  1.00  0.00     0.041 C 
ATOM      6  O   UNL     1      11.919  -9.162  51.217  1.00  0.00    -0.550 OA
ATOM      7  O   UNL     1      10.985 -11.224  50.869  1.00  0.00    -0.550 OA
ENDBRANCH   4   5
ENDBRANCH   3   4
ENDBRANCH   2   3
ENDBRANCH   1   2
BRANCH   1   8
ATOM      8  C   UNL     1      12.203 -10.817  46.400  1.00  0.00     0.000 C 
BRANCH   8   9
ATOM      9  C   UNL     1      11.039 -10.058  47.053  1.00  0.00     0.006 C 
BRANCH   9  10
ATOM     10  C   UNL     1      10.009 -11.006  47.684  1.00  0.00     0.053 C 
BRANCH  10  11
ATOM     11  C   UNL     1       8.613 -10.674  47.256  1.00  0.00     0.041 C 
ATOM     12  O   UNL     1       8.357  -9.553  46.741  1.00  0.00    -0.550 OA
ATOM     13  O   UNL     1       7.587 -11.589  47.456  1.00  0.00    -0.550 OA
ENDBRANCH  10  11
ENDBRANCH   9  10
ENDBRANCH   8   9
ENDBRANCH   1   8
TORSDOF 8
ENDMDL
MODEL 5
REMARK VINA RESULT:    -4.547      1.254      4.923
REMARK INTER + INTRA:          -7.266
REMARK INTER:                  -6.546
REMARK INTRA:                  -0.719
REMARK UNBOUND:                -0.592
REMARK SMILES O=C([O-])CCCCCCCC(=O)[O-]
REMARK SMILES IDX 7 1 6 2 5 3 4 4 2 5 1 6 3 7 8 8 9 9 10 10 11 11 12 12 13 13
REMARK H PARENT
REMARK Flexibility Score: inf
ROOT
ATOM      1  C   UNL     1      12.430   0.338  34.490  1.00  0.00     0.000 C 
ENDROOT
BRANCH   1   2
ATOM      2  C   UNL     1      11.020  -0.019  33.996  1.00  0.00     0.000 C 
BRANCH   2   3
ATOM      3  C   UNL     1      10.152   1.224  33.725  1.00  0.00     0.006 C 
BRANCH   3   4
ATOM      4  C   UNL     1       8.669   1.051  34.090  1.00  0.00     0.053 C 
BRANCH   4   5
ATOM      5  C   UNL     1       8.491   0.602  35.509  1.00  0.00     0.041 C 
ATOM      6  O   UNL     1       7.995  -0.528  35.758  1.00  0.00    -0.550 OA
ATOM      7  O   UNL     1       8.904   1.419  36.553  1.00  0.00    -0.550 OA
ENDBRANCH   4   5
ENDBRANCH   3   4
ENDBRANCH   2   3
ENDBRANCH   1   2
BRANCH   1   8
ATOM      8  C   UNL     1      12.369   1.136  35.799  1.00  0.00     0.000 C 
BRANCH   8   9
ATOM      9  C   UNL     1      13.256   2.386  35.724  1.00  0.00     0.006 C 
BRANCH   9  10
ATOM     10  C   UNL     1      12.459   3.643  35.350  1.00  0.00     0.053 C 
BRANCH  10  11
ATOM     11  C   UNL     1      12.654   4.018  33.913  1.00  0.00     0.041 C 
ATOM     12  O   UNL     1      11.929   4.902  33.385  1.00  0.00    -0.550 OA
ATOM     13  O   UNL     1      13.613   3.367  33.147  1.00  0.00    -0.550 OA
ENDBRANCH  10  11
ENDBRANCH   9  10
ENDBRANCH   8   9
ENDBRANCH   1   8
TORSDOF 8
ENDMDL
MODEL 6
REMARK VINA RESULT:    -4.536      1.289      2.072
REMARK INTER + INTRA:          -7.250
REMARK INTER:                  -6.395
REMARK INTRA:                  -0.855
REMARK UNBOUND:                -0.592
REMARK SMILES O=C([O-])CCCCCCCC(=O)[O-]
REMARK SMILES IDX 7 1 6 2 5 3 4 4 2 5 1 6 3 7 8 8 9 9 10 10 11 11 12 12 13 13
REMARK H PARENT
REMARK Flexibility Score: inf
ROOT
ATOM      1  C   UNL     1      12.620   0.603  34.324  1.00  0.00     0.000 C 
ENDROOT
BRANCH   1   2
ATOM      2  C   UNL     1      13.024   1.315  35.624  1.00  0.00     0.000 C 
BRANCH   2   3
ATOM      3  C   UNL     1      13.015   2.850  35.491  1.00  0.00     0.006 C 
BRANCH   3   4
ATOM      4  C   UNL     1      13.463   3.368  34.116  1.00  0.00     0.053 C 
BRANCH   4   5
ATOM      5  C   UNL     1      12.388   4.163  33.440  1.00  0.00     0.041 C 
ATOM      6  O   UNL     1      11.961   5.225  33.963  1.00  0.00    -0.550 OA
ATOM      7  O   UNL     1      11.881   3.747  32.215  1.00  0.00    -0.550 OA
ENDBRANCH   4   5
ENDBRANCH   3   4
ENDBRANCH   2   3
ENDBRANCH   1   2
BRANCH   1   8
ATOM      8  C   UNL     1      11.182   0.078  34.410  1.00  0.00     0.000 C 
BRANCH   8   9
ATOM      9  C   UNL     1      10.239   0.906  33.525  1.00  0.00     0.006 C 
BRANCH   9  10
ATOM     10  C   UNL     1       9.523   2.011  34.314  1.00  0.00     0.053 C 
BRANCH  10  11
ATOM     11  C   UNL     1       8.994   1.507  35.621  1.00  0.00     0.041 C 
ATOM     12  O   UNL     1       7.976   0.766  35.650  1.00  0.00    -0.550 OA
ATOM     13  O   UNL     1       9.604   1.883  36.811  1.00  0.00    -0.550 OA
ENDBRANCH  10  11
ENDBRANCH   9  10
ENDBRANCH   8   9
ENDBRANCH   1   8
TORSDOF 8
ENDMDL
MODEL 7
REMARK VINA RESULT:    -4.519      1.456      2.044
REMARK INTER + INTRA:          -7.225
REMARK INTER:                  -6.884
REMARK INTRA:                  -0.341
REMARK UNBOUND:                -0.592
REMARK SMILES O=C([O-])CCCCCCCC(=O)[O-]
REMARK SMILES IDX 7 1 6 2 5 3 4 4 2 5 1 6 3 7 8 8 9 9 10 10 11 11 12 12 13 13
REMARK H PARENT
REMARK Flexibility Score: inf
ROOT
ATOM      1  C   UNL     1      10.416  -0.354  33.621  1.00  0.00     0.000 C 
ENDROOT
BRANCH   1   2
ATOM      2  C   UNL     1      11.165   0.924  34.027  1.00  0.00     0.000 C 
BRANCH   2   3
ATOM      3  C   UNL     1      12.568   0.638  34.595  1.00  0.00     0.006 C 
BRANCH   3   4
ATOM      4  C   UNL     1      12.995   1.582  35.730  1.00  0.00     0.053 C 
BRANCH   4   5
ATOM      5  C   UNL     1      12.867   3.023  35.337  1.00  0.00     0.041 C 
ATOM      6  O   UNL     1      12.083   3.783  35.963  1.00  0.00    -0.550 OA
ATOM      7  O   UNL     1      13.641   3.532  34.302  1.00  0.00    -0.550 OA
ENDBRANCH   4   5
ENDBRANCH   3   4
ENDBRANCH   2   3
ENDBRANCH   1   2
BRANCH   1   8
ATOM      8  C   UNL     1       8.955  -0.305  34.085  1.00  0.00     0.000 C 
BRANCH   8   9
ATOM      9  C   UNL     1       8.863   0.026  35.582  1.00  0.00     0.006 C 
BRANCH   9  10
ATOM     10  C   UNL     1       7.593   0.816  35.925  1.00  0.00     0.053 C 
BRANCH  10  11
ATOM     11  C   UNL     1       6.407  -0.084  36.091  1.00  0.00     0.041 C 
ATOM     12  O   UNL     1       5.270   0.403  36.330  1.00  0.00    -0.550 OA
ATOM     13  O   UNL     1       6.563  -1.463  36.015  1.00  0.00    -0.550 OA
ENDBRANCH  10  11
ENDBRANCH   9  10
ENDBRANCH   8   9
ENDBRANCH   1   8
TORSDOF 8
ENDMDL
MODEL 8
REMARK VINA RESULT:    -4.504      4.405      6.141
REMARK INTER + INTRA:          -7.203
REMARK INTER:                  -6.864
REMARK INTRA:                  -0.338
REMARK UNBOUND:                -0.592
REMARK SMILES O=C([O-])CCCCCCCC(=O)[O-]
REMARK SMILES IDX 7 1 6 2 5 3 4 4 2 5 1 6 3 7 8 8 9 9 10 10 11 11 12 12 13 13
REMARK H PARENT
REMARK Flexibility Score: inf
ROOT
ATOM      1  C   UNL     1       5.279  -1.479  36.431  1.00  0.00     0.000 C 
ENDROOT
BRANCH   1   2
ATOM      2  C   UNL     1       6.733  -1.554  35.944  1.00  0.00     0.000 C 
BRANCH   2   3
ATOM      3  C   UNL     1       7.319  -0.172  35.599  1.00  0.00     0.006 C 
BRANCH   3   4
ATOM      4  C   UNL     1       8.811  -0.016  35.935  1.00  0.00     0.053 C 
BRANCH   4   5
ATOM      5  C   UNL     1       9.195   1.420  36.122  1.00  0.00     0.041 C 
ATOM      6  O   UNL     1       9.176   1.938  37.269  1.00  0.00    -0.550 OA
ATOM      7  O   UNL     1       9.607   2.177  35.032  1.00  0.00    -0.550 OA
ENDBRANCH   4   5
ENDBRANCH   3   4
ENDBRANCH   2   3
ENDBRANCH   1   2
BRANCH   1   8
ATOM      8  C   UNL     1       4.833  -0.022  36.607  1.00  0.00     0.000 C 
BRANCH   8   9
ATOM      9  C   UNL     1       3.676   0.082  37.611  1.00  0.00     0.006 C 
BRANCH   9  10
ATOM     10  C   UNL     1       3.144  -1.295  38.030  1.00  0.00     0.053 C 
BRANCH  10  11
ATOM     11  C   UNL     1       2.281  -1.210  39.251  1.00  0.00     0.041 C 
ATOM     12  O   UNL     1       2.749  -0.752  40.327  1.00  0.00    -0.550 OA
ATOM     13  O   UNL     1       0.970  -1.667  39.210  1.00  0.00    -0.550 OA
ENDBRANCH  10  11
ENDBRANCH   9  10
ENDBRANCH   8   9
ENDBRANCH   1   8
TORSDOF 8
ENDMDL
MODEL 9
REMARK VINA RESULT:    -4.392      4.665      8.290
REMARK INTER + INTRA:          -7.038
REMARK INTER:                  -6.861
REMARK INTRA:                  -0.177
REMARK UNBOUND:                -0.592
REMARK SMILES O=C([O-])CCCCCCCC(=O)[O-]
REMARK SMILES IDX 7 1 6 2 5 3 4 4 2 5 1 6 3 7 8 8 9 9 10 10 11 11 12 12 13 13
REMARK H PARENT
REMARK Flexibility Score: inf
ROOT
ATOM      1  C   UNL     1       5.008   0.398  36.519  1.00  0.00     0.000 C 
ENDROOT
BRANCH   1   2
ATOM      2  C   UNL     1       4.130  -0.663  37.200  1.00  0.00     0.000 C 
BRANCH   2   3
ATOM      3  C   UNL     1       2.967  -0.049  38.001  1.00  0.00     0.006 C 
BRANCH   3   4
ATOM      4  C   UNL     1       2.033  -1.082  38.651  1.00  0.00     0.053 C 
BRANCH   4   5
ATOM      5  C   UNL     1       2.596  -1.617  39.933  1.00  0.00     0.041 C 
ATOM      6  O   UNL     1       2.525  -0.937  40.989  1.00  0.00    -0.550 OA
ATOM      7  O   UNL     1       3.170  -2.882  39.965  1.00  0.00    -0.550 OA
ENDBRANCH   4   5
ENDBRANCH   3   4
ENDBRANCH   2   3
ENDBRANCH   1   2
BRANCH   1   8
ATOM      8  C   UNL     1       6.345  -0.204  36.067  1.00  0.00     0.000 C 
BRANCH   8   9
ATOM      9  C   UNL     1       7.481   0.822  36.191  1.00  0.00     0.006 C 
BRANCH   9  10
ATOM     10  C   UNL     1       8.566   0.618  35.125  1.00  0.00     0.053 C 
BRANCH  10  11
ATOM     11  C   UNL     1       9.393   1.852  34.931  1.00  0.00     0.041 C 
ATOM     12  O   UNL     1      10.200   2.220  35.826  1.00  0.00    -0.550 OA
ATOM     13  O   UNL     1       9.249   2.613  33.778  1.00  0.00    -0.550 OA
ENDBRANCH  10  11
ENDBRANCH   9  10
ENDBRANCH   8   9
ENDBRANCH   1   8
TORSDOF 8
ENDMDL
