MODEL 1
REMARK VINA RESULT:    -4.871      0.000      0.000
REMARK INTER + INTRA:          -7.707
REMARK INTER:                  -7.007
REMARK INTRA:                  -0.700
REMARK UNBOUND:                -0.700
REMARK SMILES O=C(CO)[C@@H](O)[C@@H](O)[C@@H](O)CO
REMARK SMILES IDX 7 1 9 2 11 3 12 4 10 6 5 8 2 9 1 10 3 11 4 12 6 14 8 16
REMARK H PARENT 12 5 10 7 4 13 6 15 8 17
REMARK Flexibility Score: inf
ROOT
ATOM      1  C   UNL     1      23.116  -8.152   3.559  1.00  0.00     0.181 C 
ENDROOT
BRANCH   1   2
ATOM      2  C   UNL     1      23.540  -7.328   4.808  1.00  0.00     0.171 C 
BRANCH   2   3
ATOM      3  C   UNL     1      22.458  -7.343   5.909  1.00  0.00     0.190 C 
BRANCH   3   4
ATOM      4  O   UNL     1      22.142  -6.044   6.331  1.00  0.00    -0.394 OA
ATOM      5  H   UNL     1      22.711  -5.426   5.802  1.00  0.00     0.210 HD
ENDBRANCH   3   4
ENDBRANCH   2   3
BRANCH   2   6
ATOM      6  O   UNL     1      23.835  -5.997   4.465  1.00  0.00    -0.388 OA
ATOM      7  H   UNL     1      23.111  -5.426   4.836  1.00  0.00     0.211 HD
ENDBRANCH   2   6
ENDBRANCH   1   2
BRANCH   1   8
ATOM      8  C   UNL     1      23.453  -7.475   2.200  1.00  0.00     0.214 C 
BRANCH   8   9
ATOM      9  C   UNL     1      23.404  -8.433   1.021  1.00  0.00     0.189 C 
ATOM     10  O   UNL     1      22.599  -9.352   1.007  1.00  0.00    -0.294 OA
BRANCH   9  11
ATOM     11  C   UNL     1      24.360  -8.280  -0.130  1.00  0.00     0.234 C 
BRANCH  11  12
ATOM     12  O   UNL     1      25.058  -7.071  -0.021  1.00  0.00    -0.388 OA
ATOM     13  H   UNL     1      25.777  -7.214   0.649  1.00  0.00     0.211 HD
ENDBRANCH  11  12
ENDBRANCH   9  11
ENDBRANCH   8   9
BRANCH   8  14
ATOM     14  O   UNL     1      22.669  -6.326   1.981  1.00  0.00    -0.382 OA
ATOM     15  H   UNL     1      22.482  -5.905   2.859  1.00  0.00     0.211 HD
ENDBRANCH   8  14
ENDBRANCH   1   8
BRANCH   1  16
ATOM     16  O   UNL     1      23.749  -9.407   3.602  1.00  0.00    -0.387 OA
ATOM     17  H   UNL     1      23.350  -9.909   4.359  1.00  0.00     0.211 HD
ENDBRANCH   1  16
TORSDOF 10
ENDMDL
MODEL 2
REMARK VINA RESULT:    -4.721      1.457      2.191
REMARK INTER + INTRA:          -7.492
REMARK INTER:                  -6.403
REMARK INTRA:                  -1.088
REMARK UNBOUND:                -0.700
REMARK SMILES O=C(CO)[C@@H](O)[C@@H](O)[C@@H](O)CO
REMARK SMILES IDX 7 1 9 2 11 3 12 4 10 6 5 8 2 9 1 10 3 11 4 12 6 14 8 16
REMARK H PARENT 12 5 10 7 4 13 6 15 8 17
REMARK Flexibility Score: inf
ROOT
ATOM      1  C   UNL     1      23.453  -8.984   4.155  1.00  0.00     0.181 C 
ENDROOT
BRANCH   1   2
ATOM      2  C   UNL     1      23.420  -8.311   5.557  1.00  0.00     0.171 C 
BRANCH   2   3
ATOM      3  C   UNL     1      22.201  -7.379   5.725  1.00  0.00     0.190 C 
BRANCH   3   4
ATOM      4  O   UNL     1      22.600  -6.047   5.910  1.00  0.00    -0.394 OA
ATOM      5  H   UNL     1      22.548  -5.867   6.885  1.00  0.00     0.210 HD
ENDBRANCH   3   4
ENDBRANCH   2   3
BRANCH   2   6
ATOM      6  O   UNL     1      24.598  -7.584   5.801  1.00  0.00    -0.388 OA
ATOM      7  H   UNL     1      25.356  -8.112   5.434  1.00  0.00     0.211 HD
ENDBRANCH   2   6
ENDBRANCH   1   2
BRANCH   1   8
ATOM      8  C   UNL     1      22.714  -8.187   3.043  1.00  0.00     0.214 C 
BRANCH   8   9
ATOM      9  C   UNL     1      23.630  -7.271   2.250  1.00  0.00     0.189 C 
ATOM     10  O   UNL     1      24.417  -7.736   1.438  1.00  0.00    -0.294 OA
BRANCH   9  11
ATOM     11  C   UNL     1      23.602  -5.782   2.469  1.00  0.00     0.234 C 
BRANCH  11  12
ATOM     12  O   UNL     1      24.378  -5.444   3.586  1.00  0.00    -0.388 OA
ATOM     13  H   UNL     1      25.022  -6.187   3.723  1.00  0.00     0.211 HD
ENDBRANCH  11  12
ENDBRANCH   9  11
ENDBRANCH   8   9
BRANCH   8  14
ATOM     14  O   UNL     1      21.960  -9.033   2.208  1.00  0.00    -0.382 OA
ATOM     15  H   UNL     1      22.363  -9.939   2.236  1.00  0.00     0.211 HD
ENDBRANCH   8  14
ENDBRANCH   1   8
BRANCH   1  16
ATOM     16  O   UNL     1      24.792  -9.161   3.764  1.00  0.00    -0.387 OA
ATOM     17  H   UNL     1      25.003 -10.124   3.875  1.00  0.00     0.211 HD
ENDBRANCH   1  16
TORSDOF 10
ENDMDL
MODEL 3
REMARK VINA RESULT:    -4.720      0.778      1.608
REMARK INTER + INTRA:          -7.490
REMARK INTER:                  -7.164
REMARK INTRA:                  -0.326
REMARK UNBOUND:                -0.700
REMARK SMILES O=C(CO)[C@@H](O)[C@@H](O)[C@@H](O)CO
REMARK SMILES IDX 7 1 9 2 11 3 12 4 10 6 5 8 2 9 1 10 3 11 4 12 6 14 8 16
REMARK H PARENT 12 5 10 7 4 13 6 15 8 17
REMARK Flexibility Score: inf
ROOT
ATOM      1  C   UNL     1      23.817  -6.815   3.542  1.00  0.00     0.181 C 
ENDROOT
BRANCH   1   2
ATOM      2  C   UNL     1      22.715  -7.567   4.342  1.00  0.00     0.171 C 
BRANCH   2   3
ATOM      3  C   UNL     1      22.802  -7.283   5.857  1.00  0.00     0.190 C 
BRANCH   3   4
ATOM      4  O   UNL     1      22.075  -6.135   6.202  1.00  0.00    -0.394 OA
ATOM      5  H   UNL     1      22.359  -5.883   7.120  1.00  0.00     0.210 HD
ENDBRANCH   3   4
ENDBRANCH   2   3
BRANCH   2   6
ATOM      6  O   UNL     1      22.785  -8.954   4.124  1.00  0.00    -0.388 OA
ATOM      7  H   UNL     1      23.291  -9.099   3.281  1.00  0.00     0.211 HD
ENDBRANCH   2   6
ENDBRANCH   1   2
BRANCH   1   8
ATOM      8  C   UNL     1      23.493  -6.618   2.034  1.00  0.00     0.214 C 
BRANCH   8   9
ATOM      9  C   UNL     1      23.487  -7.917   1.245  1.00  0.00     0.189 C 
ATOM     10  O   UNL     1      22.524  -8.668   1.300  1.00  0.00    -0.294 OA
BRANCH   9  11
ATOM     11  C   UNL     1      24.673  -8.310   0.408  1.00  0.00     0.234 C 
BRANCH  11  12
ATOM     12  O   UNL     1      25.228  -7.179  -0.205  1.00  0.00    -0.388 OA
ATOM     13  H   UNL     1      25.971  -6.873   0.378  1.00  0.00     0.211 HD
ENDBRANCH  11  12
ENDBRANCH   9  11
ENDBRANCH   8   9
BRANCH   8  14
ATOM     14  O   UNL     1      22.309  -5.880   1.847  1.00  0.00    -0.382 OA
ATOM     15  H   UNL     1      22.122  -5.375   2.679  1.00  0.00     0.211 HD
ENDBRANCH   8  14
ENDBRANCH   1   8
BRANCH   1  16
ATOM     16  O   UNL     1      24.022  -5.551   4.124  1.00  0.00    -0.387 OA
ATOM     17  H   UNL     1      24.431  -4.973   3.429  1.00  0.00     0.211 HD
ENDBRANCH   1  16
TORSDOF 10
ENDMDL
MODEL 4
REMARK VINA RESULT:    -4.698      1.878      4.300
REMARK INTER + INTRA:          -7.459
REMARK INTER:                  -6.968
REMARK INTRA:                  -0.491
REMARK UNBOUND:                -0.700
REMARK SMILES O=C(CO)[C@@H](O)[C@@H](O)[C@@H](O)CO
REMARK SMILES IDX 7 1 9 2 11 3 12 4 10 6 5 8 2 9 1 10 3 11 4 12 6 14 8 16
REMARK H PARENT 12 5 10 7 4 13 6 15 8 17
REMARK Flexibility Score: inf
ROOT
ATOM      1  C   UNL     1      22.960  -7.220   4.324  1.00  0.00     0.181 C 
ENDROOT
BRANCH   1   2
ATOM      2  C   UNL     1      23.186  -7.799   2.898  1.00  0.00     0.171 C 
BRANCH   2   3
ATOM      3  C   UNL     1      23.564  -6.703   1.880  1.00  0.00     0.190 C 
BRANCH   3   4
ATOM      4  O   UNL     1      22.548  -5.744   1.762  1.00  0.00    -0.394 OA
ATOM      5  H   UNL     1      21.748  -6.120   2.214  1.00  0.00     0.210 HD
ENDBRANCH   3   4
ENDBRANCH   2   3
BRANCH   2   6
ATOM      6  O   UNL     1      22.047  -8.486   2.441  1.00  0.00    -0.388 OA
ATOM      7  H   UNL     1      21.356  -8.423   3.152  1.00  0.00     0.211 HD
ENDBRANCH   2   6
ENDBRANCH   1   2
BRANCH   1   8
ATOM      8  C   UNL     1      23.327  -8.196   5.478  1.00  0.00     0.214 C 
BRANCH   8   9
ATOM      9  C   UNL     1      23.288  -9.657   5.066  1.00  0.00     0.189 C 
ATOM     10  O   UNL     1      22.221 -10.200   4.816  1.00  0.00    -0.294 OA
BRANCH   9  11
ATOM     11  C   UNL     1      24.555 -10.465   4.985  1.00  0.00     0.234 C 
BRANCH  11  12
ATOM     12  O   UNL     1      24.984 -10.819   6.271  1.00  0.00    -0.388 OA
ATOM     13  H   UNL     1      24.270 -10.536   6.900  1.00  0.00     0.211 HD
ENDBRANCH  11  12
ENDBRANCH   9  11
ENDBRANCH   8   9
BRANCH   8  14
ATOM     14  O   UNL     1      24.549  -7.850   6.086  1.00  0.00    -0.382 OA
ATOM     15  H   UNL     1      25.219  -8.543   5.855  1.00  0.00     0.211 HD
ENDBRANCH   8  14
ENDBRANCH   1   8
BRANCH   1  16
ATOM     16  O   UNL     1      23.726  -6.049   4.469  1.00  0.00    -0.387 OA
ATOM     17  H   UNL     1      24.662  -6.332   4.634  1.00  0.00     0.211 HD
ENDBRANCH   1  16
TORSDOF 10
ENDMDL
MODEL 5
REMARK VINA RESULT:    -4.494      1.110      4.635
REMARK INTER + INTRA:          -7.164
REMARK INTER:                  -6.254
REMARK INTRA:                  -0.910
REMARK UNBOUND:                -0.700
REMARK SMILES O=C(CO)[C@@H](O)[C@@H](O)[C@@H](O)CO
REMARK SMILES IDX 7 1 9 2 11 3 12 4 10 6 5 8 2 9 1 10 3 11 4 12 6 14 8 16
REMARK H PARENT 12 5 10 7 4 13 6 15 8 17
REMARK Flexibility Score: inf
ROOT
ATOM      1  C   UNL     1      23.674  -8.563   2.278  1.00  0.00     0.181 C 
ENDROOT
BRANCH   1   2
ATOM      2  C   UNL     1      23.817  -7.988   0.840  1.00  0.00     0.171 C 
BRANCH   2   3
ATOM      3  C   UNL     1      24.171  -9.082  -0.190  1.00  0.00     0.190 C 
BRANCH   3   4
ATOM      4  O   UNL     1      23.019  -9.714  -0.679  1.00  0.00    -0.394 OA
ATOM      5  H   UNL     1      22.986  -9.533  -1.654  1.00  0.00     0.210 HD
ENDBRANCH   3   4
ENDBRANCH   2   3
BRANCH   2   6
ATOM      6  O   UNL     1      24.787  -6.972   0.792  1.00  0.00    -0.388 OA
ATOM      7  H   UNL     1      24.663  -6.481  -0.063  1.00  0.00     0.211 HD
ENDBRANCH   2   6
ENDBRANCH   1   2
BRANCH   1   8
ATOM      8  C   UNL     1      22.991  -7.598   3.289  1.00  0.00     0.214 C 
BRANCH   8   9
ATOM      9  C   UNL     1      22.878  -8.175   4.690  1.00  0.00     0.189 C 
ATOM     10  O   UNL     1      22.550  -9.341   4.853  1.00  0.00    -0.294 OA
BRANCH   9  11
ATOM     11  C   UNL     1      23.143  -7.315   5.896  1.00  0.00     0.234 C 
BRANCH  11  12
ATOM     12  O   UNL     1      22.281  -6.211   5.901  1.00  0.00    -0.388 OA
ATOM     13  H   UNL     1      21.361  -6.566   6.021  1.00  0.00     0.211 HD
ENDBRANCH  11  12
ENDBRANCH   9  11
ENDBRANCH   8   9
BRANCH   8  14
ATOM     14  O   UNL     1      23.596  -6.327   3.287  1.00  0.00    -0.382 OA
ATOM     15  H   UNL     1      23.018  -5.705   3.799  1.00  0.00     0.211 HD
ENDBRANCH   8  14
ENDBRANCH   1   8
BRANCH   1  16
ATOM     16  O   UNL     1      22.927  -9.753   2.223  1.00  0.00    -0.387 OA
ATOM     17  H   UNL     1      23.567 -10.491   2.049  1.00  0.00     0.211 HD
ENDBRANCH   1  16
TORSDOF 10
ENDMDL
MODEL 6
REMARK VINA RESULT:    -4.492      1.229      4.681
REMARK INTER + INTRA:          -7.162
REMARK INTER:                  -6.284
REMARK INTRA:                  -0.878
REMARK UNBOUND:                -0.700
REMARK SMILES O=C(CO)[C@@H](O)[C@@H](O)[C@@H](O)CO
REMARK SMILES IDX 7 1 9 2 11 3 12 4 10 6 5 8 2 9 1 10 3 11 4 12 6 14 8 16
REMARK H PARENT 12 5 10 7 4 13 6 15 8 17
REMARK Flexibility Score: inf
ROOT
ATOM      1  C   UNL     1      23.039  -9.140   2.532  1.00  0.00     0.181 C 
ENDROOT
BRANCH   1   2
ATOM      2  C   UNL     1      24.185  -9.078   1.482  1.00  0.00     0.171 C 
BRANCH   2   3
ATOM      3  C   UNL     1      24.066  -7.841   0.565  1.00  0.00     0.190 C 
BRANCH   3   4
ATOM      4  O   UNL     1      24.387  -6.663   1.255  1.00  0.00    -0.394 OA
ATOM      5  H   UNL     1      23.570  -6.100   1.252  1.00  0.00     0.210 HD
ENDBRANCH   3   4
ENDBRANCH   2   3
BRANCH   2   6
ATOM      6  O   UNL     1      24.216 -10.241   0.692  1.00  0.00    -0.388 OA
ATOM      7  H   UNL     1      25.147 -10.351   0.361  1.00  0.00     0.211 HD
ENDBRANCH   2   6
ENDBRANCH   1   2
BRANCH   1   8
ATOM      8  C   UNL     1      23.500  -8.912   3.999  1.00  0.00     0.214 C 
BRANCH   8   9
ATOM      9  C   UNL     1      23.124  -7.545   4.544  1.00  0.00     0.189 C 
ATOM     10  O   UNL     1      23.390  -6.534   3.910  1.00  0.00    -0.294 OA
BRANCH   9  11
ATOM     11  C   UNL     1      22.444  -7.412   5.879  1.00  0.00     0.234 C 
BRANCH  11  12
ATOM     12  O   UNL     1      22.282  -6.059   6.206  1.00  0.00    -0.388 OA
ATOM     13  H   UNL     1      22.767  -5.538   5.514  1.00  0.00     0.211 HD
ENDBRANCH  11  12
ENDBRANCH   9  11
ENDBRANCH   8   9
BRANCH   8  14
ATOM     14  O   UNL     1      23.078  -9.954   4.847  1.00  0.00    -0.382 OA
ATOM     15  H   UNL     1      23.877 -10.467   5.133  1.00  0.00     0.211 HD
ENDBRANCH   8  14
ENDBRANCH   1   8
BRANCH   1  16
ATOM     16  O   UNL     1      22.072  -8.170   2.212  1.00  0.00    -0.387 OA
ATOM     17  H   UNL     1      21.185  -8.563   2.418  1.00  0.00     0.211 HD
ENDBRANCH   1  16
TORSDOF 10
ENDMDL
MODEL 7
REMARK VINA RESULT:    -4.492      1.728      2.794
REMARK INTER + INTRA:          -7.161
REMARK INTER:                  -6.311
REMARK INTRA:                  -0.850
REMARK UNBOUND:                -0.700
REMARK SMILES O=C(CO)[C@@H](O)[C@@H](O)[C@@H](O)CO
REMARK SMILES IDX 7 1 9 2 11 3 12 4 10 6 5 8 2 9 1 10 3 11 4 12 6 14 8 16
REMARK H PARENT 12 5 10 7 4 13 6 15 8 17
REMARK Flexibility Score: inf
ROOT
ATOM      1  C   UNL     1      23.270  -7.519   4.749  1.00  0.00     0.181 C 
ENDROOT
BRANCH   1   2
ATOM      2  C   UNL     1      23.881  -8.814   5.356  1.00  0.00     0.171 C 
BRANCH   2   3
ATOM      3  C   UNL     1      24.637  -8.538   6.673  1.00  0.00     0.190 C 
BRANCH   3   4
ATOM      4  O   UNL     1      26.021  -8.462   6.459  1.00  0.00    -0.394 OA
ATOM      5  H   UNL     1      26.176  -8.707   5.510  1.00  0.00     0.210 HD
ENDBRANCH   3   4
ENDBRANCH   2   3
BRANCH   2   6
ATOM      6  O   UNL     1      24.747  -9.445   4.446  1.00  0.00    -0.388 OA
ATOM      7  H   UNL     1      24.225  -9.637   3.622  1.00  0.00     0.211 HD
ENDBRANCH   2   6
ENDBRANCH   1   2
BRANCH   1   8
ATOM      8  C   UNL     1      22.610  -7.714   3.354  1.00  0.00     0.214 C 
BRANCH   8   9
ATOM      9  C   UNL     1      23.289  -6.922   2.250  1.00  0.00     0.189 C 
ATOM     10  O   UNL     1      23.205  -5.703   2.224  1.00  0.00    -0.294 OA
BRANCH   9  11
ATOM     11  C   UNL     1      24.051  -7.625   1.159  1.00  0.00     0.234 C 
BRANCH  11  12
ATOM     12  O   UNL     1      25.044  -8.442   1.715  1.00  0.00    -0.388 OA
ATOM     13  H   UNL     1      25.761  -7.839   2.043  1.00  0.00     0.211 HD
ENDBRANCH  11  12
ENDBRANCH   9  11
ENDBRANCH   8   9
BRANCH   8  14
ATOM     14  O   UNL     1      22.480  -9.077   3.025  1.00  0.00    -0.382 OA
ATOM     15  H   UNL     1      23.163  -9.587   3.532  1.00  0.00     0.211 HD
ENDBRANCH   8  14
ENDBRANCH   1   8
BRANCH   1  16
ATOM     16  O   UNL     1      22.303  -7.010   5.634  1.00  0.00    -0.387 OA
ATOM     17  H   UNL     1      21.850  -7.788   6.050  1.00  0.00     0.211 HD
ENDBRANCH   1  16
TORSDOF 10
ENDMDL
MODEL 8
REMARK VINA RESULT:    -4.477      1.432      1.586
REMARK INTER + INTRA:          -7.140
REMARK INTER:                  -6.438
REMARK INTRA:                  -0.702
REMARK UNBOUND:                -0.700
REMARK SMILES O=C(CO)[C@@H](O)[C@@H](O)[C@@H](O)CO
REMARK SMILES IDX 7 1 9 2 11 3 12 4 10 6 5 8 2 9 1 10 3 11 4 12 6 14 8 16
REMARK H PARENT 12 5 10 7 4 13 6 15 8 17
REMARK Flexibility Score: inf
ROOT
ATOM      1  C   UNL     1      23.571  -8.969   3.764  1.00  0.00     0.181 C 
ENDROOT
BRANCH   1   2
ATOM      2  C   UNL     1      23.231  -7.528   4.240  1.00  0.00     0.171 C 
BRANCH   2   3
ATOM      3  C   UNL     1      22.693  -7.506   5.687  1.00  0.00     0.190 C 
BRANCH   3   4
ATOM      4  O   UNL     1      22.227  -6.230   6.038  1.00  0.00    -0.394 OA
ATOM      5  H   UNL     1      21.566  -6.359   6.767  1.00  0.00     0.210 HD
ENDBRANCH   3   4
ENDBRANCH   2   3
BRANCH   2   6
ATOM      6  O   UNL     1      22.296  -6.916   3.387  1.00  0.00    -0.388 OA
ATOM      7  H   UNL     1      22.025  -7.591   2.709  1.00  0.00     0.211 HD
ENDBRANCH   2   6
ENDBRANCH   1   2
BRANCH   1   8
ATOM      8  C   UNL     1      23.972  -9.071   2.265  1.00  0.00     0.214 C 
BRANCH   8   9
ATOM      9  C   UNL     1      22.816  -9.452   1.357  1.00  0.00     0.189 C 
ATOM     10  O   UNL     1      21.664  -9.369   1.757  1.00  0.00    -0.294 OA
BRANCH   9  11
ATOM     11  C   UNL     1      23.070  -9.960  -0.036  1.00  0.00     0.234 C 
BRANCH  11  12
ATOM     12  O   UNL     1      23.870  -9.052  -0.743  1.00  0.00    -0.388 OA
ATOM     13  H   UNL     1      23.989  -8.259  -0.157  1.00  0.00     0.211 HD
ENDBRANCH  11  12
ENDBRANCH   9  11
ENDBRANCH   8   9
BRANCH   8  14
ATOM     14  O   UNL     1      24.633  -7.910   1.822  1.00  0.00    -0.382 OA
ATOM     15  H   UNL     1      23.956  -7.290   1.446  1.00  0.00     0.211 HD
ENDBRANCH   8  14
ENDBRANCH   1   8
BRANCH   1  16
ATOM     16  O   UNL     1      24.627  -9.471   4.544  1.00  0.00    -0.387 OA
ATOM     17  H   UNL     1      24.514  -9.106   5.460  1.00  0.00     0.211 HD
ENDBRANCH   1  16
TORSDOF 10
ENDMDL
MODEL 9
REMARK VINA RESULT:    -4.382      1.948      4.529
REMARK INTER + INTRA:          -7.003
REMARK INTER:                  -6.485
REMARK INTRA:                  -0.519
REMARK UNBOUND:                -0.700
REMARK SMILES O=C(CO)[C@@H](O)[C@@H](O)[C@@H](O)CO
REMARK SMILES IDX 7 1 9 2 11 3 12 4 10 6 5 8 2 9 1 10 3 11 4 12 6 14 8 16
REMARK H PARENT 12 5 10 7 4 13 6 15 8 17
REMARK Flexibility Score: inf
ROOT
ATOM      1  C   UNL     1      23.406  -7.875   3.649  1.00  0.00     0.181 C 
ENDROOT
BRANCH   1   2
ATOM      2  C   UNL     1      23.243  -6.469   3.005  1.00  0.00     0.171 C 
BRANCH   2   3
ATOM      3  C   UNL     1      23.356  -6.518   1.466  1.00  0.00     0.190 C 
BRANCH   3   4
ATOM      4  O   UNL     1      24.537  -7.158   1.063  1.00  0.00    -0.394 OA
ATOM      5  H   UNL     1      25.281  -6.527   1.248  1.00  0.00     0.210 HD
ENDBRANCH   3   4
ENDBRANCH   2   3
BRANCH   2   6
ATOM      6  O   UNL     1      24.191  -5.563   3.512  1.00  0.00    -0.388 OA
ATOM      7  H   UNL     1      23.998  -4.674   3.113  1.00  0.00     0.211 HD
ENDBRANCH   2   6
ENDBRANCH   1   2
BRANCH   1   8
ATOM      8  C   UNL     1      23.071  -7.928   5.167  1.00  0.00     0.214 C 
BRANCH   8   9
ATOM      9  C   UNL     1      24.136  -8.628   5.994  1.00  0.00     0.189 C 
ATOM     10  O   UNL     1      24.538  -8.127   7.034  1.00  0.00    -0.294 OA
BRANCH   9  11
ATOM     11  C   UNL     1      24.728  -9.933   5.535  1.00  0.00     0.234 C 
BRANCH  11  12
ATOM     12  O   UNL     1      25.064 -10.725   6.640  1.00  0.00    -0.388 OA
ATOM     13  H   UNL     1      25.282 -11.629   6.289  1.00  0.00     0.211 HD
ENDBRANCH  11  12
ENDBRANCH   9  11
ENDBRANCH   8   9
BRANCH   8  14
ATOM     14  O   UNL     1      22.758  -6.654   5.676  1.00  0.00    -0.382 OA
ATOM     15  H   UNL     1      23.586  -6.107   5.681  1.00  0.00     0.211 HD
ENDBRANCH   8  14
ENDBRANCH   1   8
BRANCH   1  16
ATOM     16  O   UNL     1      22.572  -8.786   2.976  1.00  0.00    -0.387 OA
ATOM     17  H   UNL     1      21.663  -8.690   3.362  1.00  0.00     0.211 HD
ENDBRANCH   1  16
TORSDOF 10
ENDMDL
