MODEL 1
REMARK VINA RESULT:     3.113      0.000      0.000
REMARK INTER + INTRA:           8.327
REMARK INTER:                   8.207
REMARK INTRA:                   0.119
REMARK UNBOUND:                 0.119
REMARK SMILES CCCCCCCCCCCCCCCCCCCCCCCCCCCCCC(=O)[O-]
REMARK SMILES IDX 16 1 17 2 18 3 19 4 20 5 21 6 22 7 23 8 24 9 25 10 26 11
REMARK SMILES IDX 27 12 28 13 29 14 30 15 31 16 32 17 15 18 14 19 13 20 12 21
REMARK SMILES IDX 11 22 10 23 9 24 8 25 7 26 6 27 5 28 4 29 3 30 2 31 1 32
REMARK H PARENT
REMARK Flexibility Score: inf
ROOT
ATOM      1  C   UNL     1      20.105  14.303  17.887  1.00  0.00     0.000 C 
ENDROOT
BRANCH   1   2
ATOM      2  C   UNL     1      21.129  13.743  16.878  1.00  0.00     0.000 C 
BRANCH   2   3
ATOM      3  C   UNL     1      21.598  12.304  17.161  1.00  0.00     0.000 C 
BRANCH   3   4
ATOM      4  C   UNL     1      23.122  12.144  17.047  1.00  0.00     0.000 C 
BRANCH   4   5
ATOM      5  C   UNL     1      23.520  10.661  17.013  1.00  0.00     0.000 C 
BRANCH   5   6
ATOM      6  C   UNL     1      22.332   9.712  17.256  1.00  0.00     0.000 C 
BRANCH   6   7
ATOM      7  C   UNL     1      22.708   8.238  17.500  1.00  0.00     0.000 C 
BRANCH   7   8
ATOM      8  C   UNL     1      21.705   7.251  16.880  1.00  0.00     0.000 C 
BRANCH   8   9
ATOM      9  C   UNL     1      21.750   5.866  17.545  1.00  0.00     0.000 C 
BRANCH   9  10
ATOM     10  C   UNL     1      22.884   5.736  18.574  1.00  0.00     0.000 C 
BRANCH  10  11
ATOM     11  C   UNL     1      22.981   4.301  19.107  1.00  0.00     0.000 C 
BRANCH  11  12
ATOM     12  C   UNL     1      22.910   4.278  20.641  1.00  0.00     0.000 C 
BRANCH  12  13
ATOM     13  C   UNL     1      24.297   4.364  21.304  1.00  0.00     0.006 C 
BRANCH  13  14
ATOM     14  C   UNL     1      25.466   4.458  20.311  1.00  0.00     0.053 C 
BRANCH  14  15
ATOM     15  C   UNL     1      25.912   3.107  19.841  1.00  0.00     0.041 C 
ATOM     16  O   UNL     1      26.125   2.900  18.617  1.00  0.00    -0.550 OA
ATOM     17  O   UNL     1      26.058   2.067  20.751  1.00  0.00    -0.550 OA
ENDBRANCH  14  15
ENDBRANCH  13  14
ENDBRANCH  12  13
ENDBRANCH  11  12
ENDBRANCH  10  11
ENDBRANCH   9  10
ENDBRANCH   8   9
ENDBRANCH   7   8
ENDBRANCH   6   7
ENDBRANCH   5   6
ENDBRANCH   4   5
ENDBRANCH   3   4
ENDBRANCH   2   3
ENDBRANCH   1   2
BRANCH   1  18
ATOM     18  C   UNL     1      19.955  15.833  17.877  1.00  0.00     0.000 C 
BRANCH  18  19
ATOM     19  C   UNL     1      18.883  16.317  16.888  1.00  0.00     0.000 C 
BRANCH  19  20
ATOM     20  C   UNL     1      18.105  17.512  17.455  1.00  0.00     0.000 C 
BRANCH  20  21
ATOM     21  C   UNL     1      17.873  17.346  18.965  1.00  0.00     0.000 C 
BRANCH  21  22
ATOM     22  C   UNL     1      17.510  18.667  19.663  1.00  0.00     0.000 C 
BRANCH  22  23
ATOM     23  C   UNL     1      17.205  19.797  18.663  1.00  0.00     0.000 C 
BRANCH  23  24
ATOM     24  C   UNL     1      18.275  19.931  17.563  1.00  0.00    -0.000 C 
BRANCH  24  25
ATOM     25  C   UNL     1      18.616  21.377  17.156  1.00  0.00    -0.000 C 
BRANCH  25  26
ATOM     26  C   UNL     1      20.126  21.610  16.976  1.00  0.00    -0.000 C 
BRANCH  26  27
ATOM     27  C   UNL     1      20.826  22.047  18.284  1.00  0.00    -0.000 C 
BRANCH  27  28
ATOM     28  C   UNL     1      21.326  20.869  19.142  1.00  0.00    -0.000 C 
BRANCH  28  29
ATOM     29  C   UNL     1      22.652  21.141  19.872  1.00  0.00    -0.000 C 
BRANCH  29  30
ATOM     30  C   UNL     1      23.567  19.896  19.964  1.00  0.00    -0.000 C 
BRANCH  30  31
ATOM     31  C   UNL     1      24.753  19.924  18.987  1.00  0.00    -0.003 C 
ATOM     32  C   UNL     1      24.310  20.016  17.527  1.00  0.00     0.004 C 
ENDBRANCH  30  31
ENDBRANCH  29  30
ENDBRANCH  28  29
ENDBRANCH  27  28
ENDBRANCH  26  27
ENDBRANCH  25  26
ENDBRANCH  24  25
ENDBRANCH  23  24
ENDBRANCH  22  23
ENDBRANCH  21  22
ENDBRANCH  20  21
ENDBRANCH  19  20
ENDBRANCH  18  19
ENDBRANCH   1  18
TORSDOF 28
ENDMDL
MODEL 2
REMARK VINA RESULT:     3.924      4.942     14.439
REMARK INTER + INTRA:          10.467
REMARK INTER:                  11.249
REMARK INTRA:                  -0.782
REMARK UNBOUND:                 0.119
REMARK SMILES CCCCCCCCCCCCCCCCCCCCCCCCCCCCCC(=O)[O-]
REMARK SMILES IDX 16 1 17 2 18 3 19 4 20 5 21 6 22 7 23 8 24 9 25 10 26 11
REMARK SMILES IDX 27 12 28 13 29 14 30 15 31 16 32 17 15 18 14 19 13 20 12 21
REMARK SMILES IDX 11 22 10 23 9 24 8 25 7 26 6 27 5 28 4 29 3 30 2 31 1 32
REMARK H PARENT
REMARK Flexibility Score: inf
ROOT
ATOM      1  C   UNL     1      23.036  11.605  17.627  1.00  0.00     0.000 C 
ENDROOT
BRANCH   1   2
ATOM      2  C   UNL     1      21.553  11.564  17.203  1.00  0.00     0.000 C 
BRANCH   2   3
ATOM      3  C   UNL     1      20.773  12.869  17.448  1.00  0.00     0.000 C 
BRANCH   3   4
ATOM      4  C   UNL     1      21.504  14.109  16.911  1.00  0.00     0.000 C 
BRANCH   4   5
ATOM      5  C   UNL     1      20.571  15.328  16.875  1.00  0.00     0.000 C 
BRANCH   5   6
ATOM      6  C   UNL     1      19.710  15.466  18.144  1.00  0.00     0.000 C 
BRANCH   6   7
ATOM      7  C   UNL     1      18.274  15.973  17.911  1.00  0.00     0.000 C 
BRANCH   7   8
ATOM      8  C   UNL     1      18.199  17.111  16.879  1.00  0.00     0.000 C 
BRANCH   8   9
ATOM      9  C   UNL     1      19.034  18.335  17.288  1.00  0.00     0.000 C 
BRANCH   9  10
ATOM     10  C   UNL     1      18.495  19.030  18.548  1.00  0.00     0.000 C 
BRANCH  10  11
ATOM     11  C   UNL     1      19.131  20.415  18.727  1.00  0.00     0.000 C 
BRANCH  11  12
ATOM     12  C   UNL     1      19.197  20.801  20.212  1.00  0.00     0.000 C 
BRANCH  12  13
ATOM     13  C   UNL     1      20.134  21.994  20.477  1.00  0.00     0.006 C 
BRANCH  13  14
ATOM     14  C   UNL     1      21.428  21.976  19.647  1.00  0.00     0.053 C 
BRANCH  14  15
ATOM     15  C   UNL     1      22.516  21.199  20.323  1.00  0.00     0.041 C 
ATOM     16  O   UNL     1      22.294  20.034  20.746  1.00  0.00    -0.550 OA
ATOM     17  O   UNL     1      23.766  21.776  20.516  1.00  0.00    -0.550 OA
ENDBRANCH  14  15
ENDBRANCH  13  14
ENDBRANCH  12  13
ENDBRANCH  11  12
ENDBRANCH  10  11
ENDBRANCH   9  10
ENDBRANCH   8   9
ENDBRANCH   7   8
ENDBRANCH   6   7
ENDBRANCH   5   6
ENDBRANCH   4   5
ENDBRANCH   3   4
ENDBRANCH   2   3
ENDBRANCH   1   2
BRANCH   1  18
ATOM     18  C   UNL     1      23.930  10.547  16.958  1.00  0.00     0.000 C 
BRANCH  18  19
ATOM     19  C   UNL     1      25.349  10.514  17.545  1.00  0.00     0.000 C 
BRANCH  19  20
ATOM     20  C   UNL     1      26.113   9.268  17.078  1.00  0.00     0.000 C 
BRANCH  20  21
ATOM     21  C   UNL     1      25.158   8.077  16.900  1.00  0.00     0.000 C 
BRANCH  21  22
ATOM     22  C   UNL     1      25.888   6.724  16.875  1.00  0.00     0.000 C 
BRANCH  22  23
ATOM     23  C   UNL     1      25.478   5.811  18.044  1.00  0.00     0.000 C 
BRANCH  23  24
ATOM     24  C   UNL     1      24.526   4.678  17.615  1.00  0.00    -0.000 C 
BRANCH  24  25
ATOM     25  C   UNL     1      24.694   3.356  18.389  1.00  0.00    -0.000 C 
BRANCH  25  26
ATOM     26  C   UNL     1      24.021   2.163  17.689  1.00  0.00    -0.000 C 
BRANCH  26  27
ATOM     27  C   UNL     1      22.527   2.416  17.377  1.00  0.00    -0.000 C 
BRANCH  27  28
ATOM     28  C   UNL     1      22.048   3.832  17.750  1.00  0.00    -0.000 C 
BRANCH  28  29
ATOM     29  C   UNL     1      20.977   3.862  18.854  1.00  0.00    -0.000 C 
BRANCH  29  30
ATOM     30  C   UNL     1      21.495   4.441  20.193  1.00  0.00    -0.000 C 
BRANCH  30  31
ATOM     31  C   UNL     1      22.182   3.402  21.093  1.00  0.00    -0.003 C 
ATOM     32  C   UNL     1      21.721   1.974  20.801  1.00  0.00     0.004 C 
ENDBRANCH  30  31
ENDBRANCH  29  30
ENDBRANCH  28  29
ENDBRANCH  27  28
ENDBRANCH  26  27
ENDBRANCH  25  26
ENDBRANCH  24  25
ENDBRANCH  23  24
ENDBRANCH  22  23
ENDBRANCH  21  22
ENDBRANCH  20  21
ENDBRANCH  19  20
ENDBRANCH  18  19
ENDBRANCH   1  18
TORSDOF 28
ENDMDL
MODEL 3
REMARK VINA RESULT:     4.504      3.048      6.730
REMARK INTER + INTRA:          11.997
REMARK INTER:                  13.802
REMARK INTRA:                  -1.805
REMARK UNBOUND:                 0.119
REMARK SMILES CCCCCCCCCCCCCCCCCCCCCCCCCCCCCC(=O)[O-]
REMARK SMILES IDX 16 1 17 2 18 3 19 4 20 5 21 6 22 7 23 8 24 9 25 10 26 11
REMARK SMILES IDX 27 12 28 13 29 14 30 15 31 16 32 17 15 18 14 19 13 20 12 21
REMARK SMILES IDX 11 22 10 23 9 24 8 25 7 26 6 27 5 28 4 29 3 30 2 31 1 32
REMARK H PARENT
REMARK Flexibility Score: inf
ROOT
ATOM      1  C   UNL     1      21.189   6.598  17.179  1.00  0.00     0.000 C 
ENDROOT
BRANCH   1   2
ATOM      2  C   UNL     1      21.918   5.245  17.051  1.00  0.00     0.000 C 
BRANCH   2   3
ATOM      3  C   UNL     1      23.320   5.201  17.686  1.00  0.00     0.000 C 
BRANCH   3   4
ATOM      4  C   UNL     1      24.269   4.231  16.965  1.00  0.00     0.000 C 
BRANCH   4   5
ATOM      5  C   UNL     1      24.201   2.829  17.588  1.00  0.00     0.000 C 
BRANCH   5   6
ATOM      6  C   UNL     1      24.916   2.738  18.949  1.00  0.00     0.000 C 
BRANCH   6   7
ATOM      7  C   UNL     1      26.005   3.800  19.191  1.00  0.00     0.000 C 
BRANCH   7   8
ATOM      8  C   UNL     1      25.708   4.700  20.402  1.00  0.00     0.000 C 
BRANCH   8   9
ATOM      9  C   UNL     1      25.525   3.900  21.702  1.00  0.00     0.000 C 
BRANCH   9  10
ATOM     10  C   UNL     1      24.072   3.902  22.204  1.00  0.00     0.000 C 
BRANCH  10  11
ATOM     11  C   UNL     1      23.227   4.924  21.435  1.00  0.00     0.000 C 
BRANCH  11  12
ATOM     12  C   UNL     1      22.329   4.228  20.402  1.00  0.00     0.000 C 
BRANCH  12  13
ATOM     13  C   UNL     1      21.963   2.787  20.804  1.00  0.00     0.006 C 
BRANCH  13  14
ATOM     14  C   UNL     1      20.992   2.090  19.838  1.00  0.00     0.053 C 
BRANCH  14  15
ATOM     15  C   UNL     1      19.872   2.993  19.421  1.00  0.00     0.041 C 
ATOM     16  O   UNL     1      19.486   3.012  18.222  1.00  0.00    -0.550 OA
ATOM     17  O   UNL     1      19.278   3.839  20.350  1.00  0.00    -0.550 OA
ENDBRANCH  14  15
ENDBRANCH  13  14
ENDBRANCH  12  13
ENDBRANCH  11  12
ENDBRANCH  10  11
ENDBRANCH   9  10
ENDBRANCH   8   9
ENDBRANCH   7   8
ENDBRANCH   6   7
ENDBRANCH   5   6
ENDBRANCH   4   5
ENDBRANCH   3   4
ENDBRANCH   2   3
ENDBRANCH   1   2
BRANCH   1  18
ATOM     18  C   UNL     1      21.986   7.698  17.902  1.00  0.00     0.000 C 
BRANCH  18  19
ATOM     19  C   UNL     1      22.241   8.926  17.015  1.00  0.00     0.000 C 
BRANCH  19  20
ATOM     20  C   UNL     1      22.097  10.227  17.815  1.00  0.00     0.000 C 
BRANCH  20  21
ATOM     21  C   UNL     1      21.858  11.421  16.877  1.00  0.00     0.000 C 
BRANCH  21  22
ATOM     22  C   UNL     1      22.880  12.552  17.078  1.00  0.00     0.000 C 
BRANCH  22  23
ATOM     23  C   UNL     1      22.262  13.947  16.875  1.00  0.00     0.000 C 
BRANCH  23  24
ATOM     24  C   UNL     1      21.095  14.233  17.839  1.00  0.00    -0.000 C 
BRANCH  24  25
ATOM     25  C   UNL     1      19.866  14.902  17.196  1.00  0.00    -0.000 C 
BRANCH  25  26
ATOM     26  C   UNL     1      20.082  16.397  16.902  1.00  0.00    -0.000 C 
BRANCH  26  27
ATOM     27  C   UNL     1      19.079  17.307  17.650  1.00  0.00    -0.000 C 
BRANCH  27  28
ATOM     28  C   UNL     1      17.668  17.312  17.029  1.00  0.00    -0.000 C 
BRANCH  28  29
ATOM     29  C   UNL     1      16.700  18.315  17.678  1.00  0.00    -0.000 C 
BRANCH  29  30
ATOM     30  C   UNL     1      17.414  19.540  18.300  1.00  0.00    -0.000 C 
BRANCH  30  31
ATOM     31  C   UNL     1      17.277  20.826  17.470  1.00  0.00    -0.003 C 
ATOM     32  C   UNL     1      15.842  21.076  17.007  1.00  0.00     0.004 C 
ENDBRANCH  30  31
ENDBRANCH  29  30
ENDBRANCH  28  29
ENDBRANCH  27  28
ENDBRANCH  26  27
ENDBRANCH  25  26
ENDBRANCH  24  25
ENDBRANCH  23  24
ENDBRANCH  22  23
ENDBRANCH  21  22
ENDBRANCH  20  21
ENDBRANCH  19  20
ENDBRANCH  18  19
ENDBRANCH   1  18
TORSDOF 28
ENDMDL
MODEL 4
REMARK VINA RESULT:     4.705      5.485     14.744
REMARK INTER + INTRA:          12.527
REMARK INTER:                  14.152
REMARK INTRA:                  -1.625
REMARK UNBOUND:                 0.119
REMARK SMILES CCCCCCCCCCCCCCCCCCCCCCCCCCCCCC(=O)[O-]
REMARK SMILES IDX 16 1 17 2 18 3 19 4 20 5 21 6 22 7 23 8 24 9 25 10 26 11
REMARK SMILES IDX 27 12 28 13 29 14 30 15 31 16 32 17 15 18 14 19 13 20 12 21
REMARK SMILES IDX 11 22 10 23 9 24 8 25 7 26 6 27 5 28 4 29 3 30 2 31 1 32
REMARK H PARENT
REMARK Flexibility Score: inf
ROOT
ATOM      1  C   UNL     1      22.585   6.304  17.943  1.00  0.00     0.000 C 
ENDROOT
BRANCH   1   2
ATOM      2  C   UNL     1      22.775   7.487  16.972  1.00  0.00     0.000 C 
BRANCH   2   3
ATOM      3  C   UNL     1      24.126   8.216  17.093  1.00  0.00     0.000 C 
BRANCH   3   4
ATOM      4  C   UNL     1      24.004   9.733  16.886  1.00  0.00     0.000 C 
BRANCH   4   5
ATOM      5  C   UNL     1      22.552  10.200  17.070  1.00  0.00     0.000 C 
BRANCH   5   6
ATOM      6  C   UNL     1      22.439  11.695  17.423  1.00  0.00     0.000 C 
BRANCH   6   7
ATOM      7  C   UNL     1      21.070  12.337  17.127  1.00  0.00     0.000 C 
BRANCH   7   8
ATOM      8  C   UNL     1      21.159  13.852  16.876  1.00  0.00     0.000 C 
BRANCH   8   9
ATOM      9  C   UNL     1      20.471  14.675  17.977  1.00  0.00     0.000 C 
BRANCH   9  10
ATOM     10  C   UNL     1      20.475  16.183  17.684  1.00  0.00     0.000 C 
BRANCH  10  11
ATOM     11  C   UNL     1      19.225  16.593  16.895  1.00  0.00     0.000 C 
BRANCH  11  12
ATOM     12  C   UNL     1      18.317  17.501  17.738  1.00  0.00     0.000 C 
BRANCH  12  13
ATOM     13  C   UNL     1      18.970  18.856  18.070  1.00  0.00     0.006 C 
BRANCH  13  14
ATOM     14  C   UNL     1      18.165  20.076  17.597  1.00  0.00     0.053 C 
BRANCH  14  15
ATOM     15  C   UNL     1      17.799  20.980  18.734  1.00  0.00     0.041 C 
ATOM     16  O   UNL     1      16.905  21.854  18.586  1.00  0.00    -0.550 OA
ATOM     17  O   UNL     1      18.472  20.881  19.946  1.00  0.00    -0.550 OA
ENDBRANCH  14  15
ENDBRANCH  13  14
ENDBRANCH  12  13
ENDBRANCH  11  12
ENDBRANCH  10  11
ENDBRANCH   9  10
ENDBRANCH   8   9
ENDBRANCH   7   8
ENDBRANCH   6   7
ENDBRANCH   5   6
ENDBRANCH   4   5
ENDBRANCH   3   4
ENDBRANCH   2   3
ENDBRANCH   1   2
BRANCH   1  18
ATOM     18  C   UNL     1      23.461   5.075  17.646  1.00  0.00     0.000 C 
BRANCH  18  19
ATOM     19  C   UNL     1      24.674   4.970  18.583  1.00  0.00     0.000 C 
BRANCH  19  20
ATOM     20  C   UNL     1      24.240   5.001  20.055  1.00  0.00     0.000 C 
BRANCH  20  21
ATOM     21  C   UNL     1      25.188   4.156  20.921  1.00  0.00     0.000 C 
BRANCH  21  22
ATOM     22  C   UNL     1      24.610   2.773  21.263  1.00  0.00     0.000 C 
BRANCH  22  23
ATOM     23  C   UNL     1      23.910   2.113  20.062  1.00  0.00     0.000 C 
BRANCH  23  24
ATOM     24  C   UNL     1      22.407   1.876  20.299  1.00  0.00    -0.000 C 
BRANCH  24  25
ATOM     25  C   UNL     1      21.839   2.516  21.581  1.00  0.00    -0.000 C 
BRANCH  25  26
ATOM     26  C   UNL     1      20.677   3.485  21.303  1.00  0.00    -0.000 C 
BRANCH  26  27
ATOM     27  C   UNL     1      20.827   4.231  19.956  1.00  0.00    -0.000 C 
BRANCH  27  28
ATOM     28  C   UNL     1      19.517   4.322  19.150  1.00  0.00    -0.000 C 
BRANCH  28  29
ATOM     29  C   UNL     1      18.853   2.961  18.876  1.00  0.00    -0.000 C 
BRANCH  29  30
ATOM     30  C   UNL     1      19.605   2.115  17.820  1.00  0.00    -0.000 C 
BRANCH  30  31
ATOM     31  C   UNL     1      20.665   2.904  17.034  1.00  0.00    -0.003 C 
ATOM     32  C   UNL     1      22.082   2.384  17.274  1.00  0.00     0.004 C 
ENDBRANCH  30  31
ENDBRANCH  29  30
ENDBRANCH  28  29
ENDBRANCH  27  28
ENDBRANCH  26  27
ENDBRANCH  25  26
ENDBRANCH  24  25
ENDBRANCH  23  24
ENDBRANCH  22  23
ENDBRANCH  21  22
ENDBRANCH  20  21
ENDBRANCH  19  20
ENDBRANCH  18  19
ENDBRANCH   1  18
TORSDOF 28
ENDMDL
MODEL 5
REMARK VINA RESULT:     5.909      4.462     14.531
REMARK INTER + INTRA:          15.700
REMARK INTER:                  17.018
REMARK INTRA:                  -1.317
REMARK UNBOUND:                 0.119
REMARK SMILES CCCCCCCCCCCCCCCCCCCCCCCCCCCCCC(=O)[O-]
REMARK SMILES IDX 16 1 17 2 18 3 19 4 20 5 21 6 22 7 23 8 24 9 25 10 26 11
REMARK SMILES IDX 27 12 28 13 29 14 30 15 31 16 32 17 15 18 14 19 13 20 12 21
REMARK SMILES IDX 11 22 10 23 9 24 8 25 7 26 6 27 5 28 4 29 3 30 2 31 1 32
REMARK H PARENT
REMARK Flexibility Score: inf
ROOT
ATOM      1  C   UNL     1      21.815   7.578  18.948  1.00  0.00     0.000 C 
ENDROOT
BRANCH   1   2
ATOM      2  C   UNL     1      21.342   8.882  18.274  1.00  0.00     0.000 C 
BRANCH   2   3
ATOM      3  C   UNL     1      22.458   9.713  17.616  1.00  0.00     0.000 C 
BRANCH   3   4
ATOM      4  C   UNL     1      21.931  10.991  16.946  1.00  0.00     0.000 C 
BRANCH   4   5
ATOM      5  C   UNL     1      22.528  12.245  17.601  1.00  0.00     0.000 C 
BRANCH   5   6
ATOM      6  C   UNL     1      21.458  13.210  18.144  1.00  0.00     0.000 C 
BRANCH   6   7
ATOM      7  C   UNL     1      20.769  14.091  17.084  1.00  0.00     0.000 C 
BRANCH   7   8
ATOM      8  C   UNL     1      19.718  15.040  17.683  1.00  0.00     0.000 C 
BRANCH   8   9
ATOM      9  C   UNL     1      19.570  16.341  16.879  1.00  0.00     0.000 C 
BRANCH   9  10
ATOM     10  C   UNL     1      19.525  17.591  17.771  1.00  0.00     0.000 C 
BRANCH  10  11
ATOM     11  C   UNL     1      19.319  18.859  16.932  1.00  0.00     0.000 C 
BRANCH  11  12
ATOM     12  C   UNL     1      19.869  20.095  17.660  1.00  0.00     0.000 C 
BRANCH  12  13
ATOM     13  C   UNL     1      21.400  20.217  17.556  1.00  0.00     0.006 C 
BRANCH  13  14
ATOM     14  C   UNL     1      22.108  20.440  18.902  1.00  0.00     0.053 C 
BRANCH  14  15
ATOM     15  C   UNL     1      23.314  19.565  19.053  1.00  0.00     0.041 C 
ATOM     16  O   UNL     1      23.899  19.479  20.165  1.00  0.00    -0.550 OA
ATOM     17  O   UNL     1      23.813  18.873  17.956  1.00  0.00    -0.550 OA
ENDBRANCH  14  15
ENDBRANCH  13  14
ENDBRANCH  12  13
ENDBRANCH  11  12
ENDBRANCH  10  11
ENDBRANCH   9  10
ENDBRANCH   8   9
ENDBRANCH   7   8
ENDBRANCH   6   7
ENDBRANCH   5   6
ENDBRANCH   4   5
ENDBRANCH   3   4
ENDBRANCH   2   3
ENDBRANCH   1   2
BRANCH   1  18
ATOM     18  C   UNL     1      21.361   6.285  18.249  1.00  0.00     0.000 C 
BRANCH  18  19
ATOM     19  C   UNL     1      22.414   5.170  18.323  1.00  0.00     0.000 C 
BRANCH  19  20
ATOM     20  C   UNL     1      23.663   5.531  17.507  1.00  0.00     0.000 C 
BRANCH  20  21
ATOM     21  C   UNL     1      24.329   4.268  16.939  1.00  0.00     0.000 C 
BRANCH  21  22
ATOM     22  C   UNL     1      25.485   3.757  17.814  1.00  0.00     0.000 C 
BRANCH  22  23
ATOM     23  C   UNL     1      25.968   4.811  18.826  1.00  0.00     0.000 C 
BRANCH  23  24
ATOM     24  C   UNL     1      25.365   4.615  20.230  1.00  0.00    -0.000 C 
BRANCH  24  25
ATOM     25  C   UNL     1      25.904   3.400  21.009  1.00  0.00    -0.000 C 
BRANCH  25  26
ATOM     26  C   UNL     1      24.841   2.742  21.906  1.00  0.00    -0.000 C 
BRANCH  26  27
ATOM     27  C   UNL     1      23.744   2.011  21.097  1.00  0.00    -0.000 C 
BRANCH  27  28
ATOM     28  C   UNL     1      22.412   2.783  21.022  1.00  0.00    -0.000 C 
BRANCH  28  29
ATOM     29  C   UNL     1      21.163   1.892  21.133  1.00  0.00    -0.000 C 
BRANCH  29  30
ATOM     30  C   UNL     1      20.102   2.186  20.045  1.00  0.00    -0.000 C 
BRANCH  30  31
ATOM     31  C   UNL     1      20.650   2.969  18.841  1.00  0.00    -0.003 C 
ATOM     32  C   UNL     1      21.090   2.055  17.697  1.00  0.00     0.004 C 
ENDBRANCH  30  31
ENDBRANCH  29  30
ENDBRANCH  28  29
ENDBRANCH  27  28
ENDBRANCH  26  27
ENDBRANCH  25  26
ENDBRANCH  24  25
ENDBRANCH  23  24
ENDBRANCH  22  23
ENDBRANCH  21  22
ENDBRANCH  20  21
ENDBRANCH  19  20
ENDBRANCH  18  19
ENDBRANCH   1  18
TORSDOF 28
ENDMDL
