MODEL 1
REMARK VINA RESULT:    -5.102      0.000      0.000
REMARK INTER + INTRA:          -5.499
REMARK INTER:                  -5.400
REMARK INTRA:                  -0.098
REMARK UNBOUND:                -0.098
REMARK SMILES C=C(C)[C@H]1CC=C(C)C(=O)C1
REMARK SMILES IDX 8 1 7 2 6 3 5 4 4 5 11 6 9 7 10 8 2 9 1 10 3 11
REMARK H PARENT
REMARK Flexibility Score: inf
ROOT
ATOM      1  C   UNL     1      99.618 118.055 120.052  1.00  0.00     0.048 C 
ATOM      2  C   UNL     1      99.891 117.843 121.515  1.00  0.00    -0.012 C 
ATOM      3  C   UNL     1     100.580 116.762 121.917  1.00  0.00    -0.019 C 
ATOM      4  C   UNL     1     100.865 116.493 123.372  1.00  0.00     0.036 C 
ATOM      5  C   UNL     1     101.037 117.808 124.156  1.00  0.00     0.025 C 
ATOM      6  C   UNL     1      99.806 118.711 123.960  1.00  0.00     0.089 C 
ATOM      7  C   UNL     1      99.507 118.888 122.497  1.00  0.00     0.158 C 
ATOM      8  O   UNL     1      98.891 119.920 122.117  1.00  0.00    -0.295 OA
ENDROOT
BRANCH   5   9
ATOM      9  C   UNL     1     101.307 117.545 125.631  1.00  0.00    -0.077 C 
ATOM     10  C   UNL     1     100.633 118.227 126.571  1.00  0.00     0.008 C 
ATOM     11  C   UNL     1     102.325 116.523 126.073  1.00  0.00     0.039 C 
ENDBRANCH   5   9
TORSDOF 1
ENDMDL
MODEL 2
REMARK VINA RESULT:    -5.094      2.111      4.566
REMARK INTER + INTRA:          -5.490
REMARK INTER:                  -5.393
REMARK INTRA:                  -0.098
REMARK UNBOUND:                -0.098
REMARK SMILES C=C(C)[C@H]1CC=C(C)C(=O)C1
REMARK SMILES IDX 8 1 7 2 6 3 5 4 4 5 11 6 9 7 10 8 2 9 1 10 3 11
REMARK H PARENT
REMARK Flexibility Score: inf
ROOT
ATOM      1  C   UNL     1     103.091 115.845 126.548  1.00  0.00     0.048 C 
ATOM      2  C   UNL     1     102.090 116.606 125.722  1.00  0.00    -0.012 C 
ATOM      3  C   UNL     1     101.488 117.692 126.234  1.00  0.00    -0.019 C 
ATOM      4  C   UNL     1     100.466 118.479 125.456  1.00  0.00     0.036 C 
ATOM      5  C   UNL     1     100.777 118.454 123.948  1.00  0.00     0.025 C 
ATOM      6  C   UNL     1     100.896 117.002 123.451  1.00  0.00     0.089 C 
ATOM      7  C   UNL     1     101.863 116.229 124.304  1.00  0.00     0.158 C 
ATOM      8  O   UNL     1     102.455 115.230 123.811  1.00  0.00    -0.295 OA
ENDROOT
BRANCH   5   9
ATOM      9  C   UNL     1      99.738 119.232 123.152  1.00  0.00    -0.077 C 
ATOM     10  C   UNL     1      99.027 120.205 123.742  1.00  0.00     0.008 C 
ATOM     11  C   UNL     1      99.483 118.936 121.694  1.00  0.00     0.039 C 
ENDBRANCH   5   9
TORSDOF 1
ENDMDL
MODEL 3
REMARK VINA RESULT:    -5.066      1.556      2.473
REMARK INTER + INTRA:          -5.461
REMARK INTER:                  -5.366
REMARK INTRA:                  -0.095
REMARK UNBOUND:                -0.098
REMARK SMILES C=C(C)[C@H]1CC=C(C)C(=O)C1
REMARK SMILES IDX 8 1 7 2 6 3 5 4 4 5 11 6 9 7 10 8 2 9 1 10 3 11
REMARK H PARENT
REMARK Flexibility Score: inf
ROOT
ATOM      1  C   UNL     1      99.688 118.773 122.303  1.00  0.00     0.048 C 
ATOM      2  C   UNL     1     100.340 117.846 123.292  1.00  0.00    -0.012 C 
ATOM      3  C   UNL     1     100.756 116.631 122.896  1.00  0.00    -0.019 C 
ATOM      4  C   UNL     1     101.398 115.657 123.850  1.00  0.00     0.036 C 
ATOM      5  C   UNL     1     102.206 116.394 124.934  1.00  0.00     0.025 C 
ATOM      6  C   UNL     1     101.316 117.420 125.659  1.00  0.00     0.089 C 
ATOM      7  C   UNL     1     100.631 118.319 124.668  1.00  0.00     0.158 C 
ATOM      8  O   UNL     1     100.271 119.472 125.031  1.00  0.00    -0.295 OA
ENDROOT
BRANCH   5   9
ATOM      9  C   UNL     1     102.843 115.418 125.914  1.00  0.00    -0.077 C 
ATOM     10  C   UNL     1     103.621 115.873 126.908  1.00  0.00     0.008 C 
ATOM     11  C   UNL     1     102.619 113.930 125.798  1.00  0.00     0.039 C 
ENDBRANCH   5   9
TORSDOF 1
ENDMDL
MODEL 4
REMARK VINA RESULT:    -4.910      2.235      4.360
REMARK INTER + INTRA:          -5.296
REMARK INTER:                  -5.199
REMARK INTRA:                  -0.097
REMARK UNBOUND:                -0.098
REMARK SMILES C=C(C)[C@H]1CC=C(C)C(=O)C1
REMARK SMILES IDX 8 1 7 2 6 3 5 4 4 5 11 6 9 7 10 8 2 9 1 10 3 11
REMARK H PARENT
REMARK Flexibility Score: inf
ROOT
ATOM      1  C   UNL     1     100.805 118.558 126.417  1.00  0.00     0.048 C 
ATOM      2  C   UNL     1     101.345 117.445 125.563  1.00  0.00    -0.012 C 
ATOM      3  C   UNL     1     102.266 116.604 126.063  1.00  0.00    -0.019 C 
ATOM      4  C   UNL     1     102.853 115.484 125.245  1.00  0.00     0.036 C 
ATOM      5  C   UNL     1     101.823 114.932 124.241  1.00  0.00     0.025 C 
ATOM      6  C   UNL     1     101.272 116.070 123.363  1.00  0.00     0.089 C 
ATOM      7  C   UNL     1     100.772 117.202 124.216  1.00  0.00     0.158 C 
ATOM      8  O   UNL     1      99.882 117.969 123.758  1.00  0.00    -0.295 OA
ENDROOT
BRANCH   5   9
ATOM      9  C   UNL     1     102.414 113.812 123.397  1.00  0.00    -0.077 C 
ATOM     10  C   UNL     1     103.685 113.886 122.972  1.00  0.00     0.008 C 
ATOM     11  C   UNL     1     101.598 112.600 123.018  1.00  0.00     0.039 C 
ENDBRANCH   5   9
TORSDOF 1
ENDMDL
MODEL 5
REMARK VINA RESULT:    -4.896      1.525      2.134
REMARK INTER + INTRA:          -5.281
REMARK INTER:                  -5.186
REMARK INTRA:                  -0.095
REMARK UNBOUND:                -0.098
REMARK SMILES C=C(C)[C@H]1CC=C(C)C(=O)C1
REMARK SMILES IDX 8 1 7 2 6 3 5 4 4 5 11 6 9 7 10 8 2 9 1 10 3 11
REMARK H PARENT
REMARK Flexibility Score: inf
ROOT
ATOM      1  C   UNL     1      99.537 117.793 119.986  1.00  0.00     0.048 C 
ATOM      2  C   UNL     1     100.097 117.822 121.381  1.00  0.00    -0.012 C 
ATOM      3  C   UNL     1      99.856 118.878 122.176  1.00  0.00    -0.019 C 
ATOM      4  C   UNL     1     100.409 118.966 123.575  1.00  0.00     0.036 C 
ATOM      5  C   UNL     1     100.516 117.570 124.218  1.00  0.00     0.025 C 
ATOM      6  C   UNL     1     101.343 116.631 123.322  1.00  0.00     0.089 C 
ATOM      7  C   UNL     1     100.809 116.635 121.916  1.00  0.00     0.158 C 
ATOM      8  O   UNL     1     101.007 115.629 121.182  1.00  0.00    -0.295 OA
ENDROOT
BRANCH   5   9
ATOM      9  C   UNL     1     101.091 117.648 125.625  1.00  0.00    -0.077 C 
ATOM     10  C   UNL     1     100.639 118.571 126.488  1.00  0.00     0.008 C 
ATOM     11  C   UNL     1     102.171 116.700 126.085  1.00  0.00     0.039 C 
ENDBRANCH   5   9
TORSDOF 1
ENDMDL
MODEL 6
REMARK VINA RESULT:    -4.868      3.209      4.349
REMARK INTER + INTRA:          -5.251
REMARK INTER:                  -5.160
REMARK INTRA:                  -0.091
REMARK UNBOUND:                -0.098
REMARK SMILES C=C(C)[C@H]1CC=C(C)C(=O)C1
REMARK SMILES IDX 8 1 7 2 6 3 5 4 4 5 11 6 9 7 10 8 2 9 1 10 3 11
REMARK H PARENT
REMARK Flexibility Score: inf
ROOT
ATOM      1  C   UNL     1     101.753 112.110 121.909  1.00  0.00     0.048 C 
ATOM      2  C   UNL     1     101.840 113.128 123.013  1.00  0.00    -0.012 C 
ATOM      3  C   UNL     1     102.215 112.747 124.245  1.00  0.00    -0.019 C 
ATOM      4  C   UNL     1     102.301 113.722 125.391  1.00  0.00     0.036 C 
ATOM      5  C   UNL     1     102.712 115.122 124.897  1.00  0.00     0.025 C 
ATOM      6  C   UNL     1     101.753 115.602 123.793  1.00  0.00     0.089 C 
ATOM      7  C   UNL     1     101.632 114.566 122.711  1.00  0.00     0.158 C 
ATOM      8  O   UNL     1     101.314 114.929 121.546  1.00  0.00    -0.295 OA
ENDROOT
BRANCH   5   9
ATOM      9  C   UNL     1     102.783 116.118 126.046  1.00  0.00    -0.077 C 
ATOM     10  C   UNL     1     103.784 116.048 126.938  1.00  0.00     0.008 C 
ATOM     11  C   UNL     1     101.746 117.202 126.211  1.00  0.00     0.039 C 
ENDBRANCH   5   9
TORSDOF 1
ENDMDL
MODEL 7
REMARK VINA RESULT:    -4.822      1.773      3.042
REMARK INTER + INTRA:          -5.202
REMARK INTER:                  -5.111
REMARK INTRA:                  -0.092
REMARK UNBOUND:                -0.098
REMARK SMILES C=C(C)[C@H]1CC=C(C)C(=O)C1
REMARK SMILES IDX 8 1 7 2 6 3 5 4 4 5 11 6 9 7 10 8 2 9 1 10 3 11
REMARK H PARENT
REMARK Flexibility Score: inf
ROOT
ATOM      1  C   UNL     1      99.212 119.956 123.773  1.00  0.00     0.048 C 
ATOM      2  C   UNL     1     100.219 118.952 124.263  1.00  0.00    -0.012 C 
ATOM      3  C   UNL     1     100.384 118.760 125.582  1.00  0.00    -0.019 C 
ATOM      4  C   UNL     1     101.392 117.781 126.126  1.00  0.00     0.036 C 
ATOM      5  C   UNL     1     101.561 116.576 125.180  1.00  0.00     0.025 C 
ATOM      6  C   UNL     1     101.921 117.057 123.763  1.00  0.00     0.089 C 
ATOM      7  C   UNL     1     100.938 118.092 123.290  1.00  0.00     0.158 C 
ATOM      8  O   UNL     1     100.759 118.248 122.052  1.00  0.00    -0.295 OA
ENDROOT
BRANCH   5   9
ATOM      9  C   UNL     1     102.591 115.590 125.713  1.00  0.00    -0.077 C 
ATOM     10  C   UNL     1     102.578 114.313 125.301  1.00  0.00     0.008 C 
ATOM     11  C   UNL     1     103.646 116.016 126.705  1.00  0.00     0.039 C 
ENDBRANCH   5   9
TORSDOF 1
ENDMDL
MODEL 8
REMARK VINA RESULT:    -4.770      1.148      4.256
REMARK INTER + INTRA:          -5.148
REMARK INTER:                  -5.050
REMARK INTRA:                  -0.098
REMARK UNBOUND:                -0.098
REMARK SMILES C=C(C)[C@H]1CC=C(C)C(=O)C1
REMARK SMILES IDX 8 1 7 2 6 3 5 4 4 5 11 6 9 7 10 8 2 9 1 10 3 11
REMARK H PARENT
REMARK Flexibility Score: inf
ROOT
ATOM      1  C   UNL     1     100.617 118.379 126.226  1.00  0.00     0.048 C 
ATOM      2  C   UNL     1     100.599 118.088 124.751  1.00  0.00    -0.012 C 
ATOM      3  C   UNL     1     101.113 116.936 124.289  1.00  0.00    -0.019 C 
ATOM      4  C   UNL     1     101.137 116.604 122.820  1.00  0.00     0.036 C 
ATOM      5  C   UNL     1      99.919 117.207 122.096  1.00  0.00     0.025 C 
ATOM      6  C   UNL     1      99.843 118.724 122.350  1.00  0.00     0.089 C 
ATOM      7  C   UNL     1      99.905 119.017 123.823  1.00  0.00     0.158 C 
ATOM      8  O   UNL     1      99.392 120.082 124.260  1.00  0.00    -0.295 OA
ENDROOT
BRANCH   5   9
ATOM      9  C   UNL     1      99.944 116.893 120.607  1.00  0.00    -0.077 C 
ATOM     10  C   UNL     1     100.612 115.819 120.156  1.00  0.00     0.008 C 
ATOM     11  C   UNL     1      99.227 117.766 119.607  1.00  0.00     0.039 C 
ENDBRANCH   5   9
TORSDOF 1
ENDMDL
MODEL 9
REMARK VINA RESULT:    -4.726      3.074      4.452
REMARK INTER + INTRA:          -5.100
REMARK INTER:                  -5.002
REMARK INTRA:                  -0.098
REMARK UNBOUND:                -0.098
REMARK SMILES C=C(C)[C@H]1CC=C(C)C(=O)C1
REMARK SMILES IDX 8 1 7 2 6 3 5 4 4 5 11 6 9 7 10 8 2 9 1 10 3 11
REMARK H PARENT
REMARK Flexibility Score: inf
ROOT
ATOM      1  C   UNL     1     102.797 113.324 124.331  1.00  0.00     0.048 C 
ATOM      2  C   UNL     1     102.381 114.753 124.543  1.00  0.00    -0.012 C 
ATOM      3  C   UNL     1     101.682 115.395 123.592  1.00  0.00    -0.019 C 
ATOM      4  C   UNL     1     101.256 116.831 123.746  1.00  0.00     0.036 C 
ATOM      5  C   UNL     1     100.970 117.170 125.222  1.00  0.00     0.025 C 
ATOM      6  C   UNL     1     102.191 116.826 126.094  1.00  0.00     0.089 C 
ATOM      7  C   UNL     1     102.635 115.411 125.849  1.00  0.00     0.158 C 
ATOM      8  O   UNL     1     103.260 114.798 126.757  1.00  0.00    -0.295 OA
ENDROOT
BRANCH   5   9
ATOM      9  C   UNL     1     100.557 118.625 125.389  1.00  0.00    -0.077 C 
ATOM     10  C   UNL     1     100.941 119.313 126.476  1.00  0.00     0.008 C 
ATOM     11  C   UNL     1      99.716 119.327 124.352  1.00  0.00     0.039 C 
ENDBRANCH   5   9
TORSDOF 1
ENDMDL
