MODEL 1
REMARK VINA RESULT:    -3.927      0.000      0.000
REMARK INTER + INTRA:          -5.013
REMARK INTER:                  -4.616
REMARK INTRA:                  -0.397
REMARK UNBOUND:                -0.397
REMARK SMILES [NH3+][C@@H](CO)C(=O)[O-]
REMARK SMILES IDX 3 1 2 2 1 3 5 7 6 8 7 9 4 10
REMARK H PARENT 1 4 1 5 1 6 4 11
REMARK Flexibility Score: inf
ROOT
ATOM      1  C   UNL     1     202.619 201.600 242.597  1.00  0.00     0.227 C 
ENDROOT
BRANCH   1   2
ATOM      2  C   UNL     1     202.333 202.932 243.315  1.00  0.00     0.253 C 
BRANCH   2   3
ATOM      3  N   UNL     1     201.613 203.863 242.437  1.00  0.00    -0.348 N 
ATOM      4  H   UNL     1     200.673 203.468 242.197  1.00  0.00     0.345 HD
ATOM      5  H   UNL     1     202.145 203.996 241.546  1.00  0.00     0.345 HD
ATOM      6  H   UNL     1     201.487 204.791 242.903  1.00  0.00     0.345 HD
ENDBRANCH   2   3
BRANCH   2   7
ATOM      7  C   UNL     1     203.620 203.548 243.793  1.00  0.00     0.102 C 
ATOM      8  O   UNL     1     204.084 203.262 244.928  1.00  0.00    -0.544 OA
ATOM      9  O   UNL     1     204.298 204.453 242.984  1.00  0.00    -0.544 OA
ENDBRANCH   2   7
ENDBRANCH   1   2
BRANCH   1  10
ATOM     10  O   UNL     1     203.998 201.344 242.555  1.00  0.00    -0.390 OA
ATOM     11  H   UNL     1     204.204 201.048 241.630  1.00  0.00     0.210 HD
ENDBRANCH   1  10
TORSDOF 4
ENDMDL
MODEL 2
REMARK VINA RESULT:    -3.926      2.114      3.050
REMARK INTER + INTRA:          -5.012
REMARK INTER:                  -4.615
REMARK INTRA:                  -0.396
REMARK UNBOUND:                -0.397
REMARK SMILES [NH3+][C@@H](CO)C(=O)[O-]
REMARK SMILES IDX 3 1 2 2 1 3 5 7 6 8 7 9 4 10
REMARK H PARENT 1 4 1 5 1 6 4 11
REMARK Flexibility Score: inf
ROOT
ATOM      1  C   UNL     1     204.267 204.020 242.700  1.00  0.00     0.227 C 
ENDROOT
BRANCH   1   2
ATOM      2  C   UNL     1     204.599 202.703 243.426  1.00  0.00     0.253 C 
BRANCH   2   3
ATOM      3  N   UNL     1     205.399 201.815 242.573  1.00  0.00    -0.348 N 
ATOM      4  H   UNL     1     204.917 201.680 241.653  1.00  0.00     0.345 HD
ATOM      5  H   UNL     1     205.498 200.879 243.028  1.00  0.00     0.345 HD
ATOM      6  H   UNL     1     206.350 202.218 242.406  1.00  0.00     0.345 HD
ENDBRANCH   2   3
BRANCH   2   7
ATOM      7  C   UNL     1     203.331 202.018 243.857  1.00  0.00     0.102 C 
ATOM      8  O   UNL     1     202.809 201.127 243.136  1.00  0.00    -0.544 OA
ATOM      9  O   UNL     1     202.719 202.378 245.051  1.00  0.00    -0.544 OA
ENDBRANCH   2   7
ENDBRANCH   1   2
BRANCH   1  10
ATOM     10  O   UNL     1     202.889 204.278 242.742  1.00  0.00    -0.390 OA
ATOM     11  H   UNL     1     202.478 203.746 242.012  1.00  0.00     0.210 HD
ENDBRANCH   1  10
TORSDOF 4
ENDMDL
MODEL 3
REMARK VINA RESULT:    -3.918      1.247      2.537
REMARK INTER + INTRA:          -5.002
REMARK INTER:                  -4.757
REMARK INTRA:                  -0.245
REMARK UNBOUND:                -0.397
REMARK SMILES [NH3+][C@@H](CO)C(=O)[O-]
REMARK SMILES IDX 3 1 2 2 1 3 5 7 6 8 7 9 4 10
REMARK H PARENT 1 4 1 5 1 6 4 11
REMARK Flexibility Score: inf
ROOT
ATOM      1  C   UNL     1     203.823 204.107 242.929  1.00  0.00     0.227 C 
ENDROOT
BRANCH   1   2
ATOM      2  C   UNL     1     202.664 203.255 242.380  1.00  0.00     0.253 C 
BRANCH   2   3
ATOM      3  N   UNL     1     201.367 203.888 242.650  1.00  0.00    -0.348 N 
ATOM      4  H   UNL     1     200.594 203.209 242.456  1.00  0.00     0.345 HD
ATOM      5  H   UNL     1     201.237 204.715 242.022  1.00  0.00     0.345 HD
ATOM      6  H   UNL     1     201.308 204.202 243.646  1.00  0.00     0.345 HD
ENDBRANCH   2   3
BRANCH   2   7
ATOM      7  C   UNL     1     202.710 201.875 242.979  1.00  0.00     0.102 C 
ATOM      8  O   UNL     1     202.354 200.873 242.305  1.00  0.00    -0.544 OA
ATOM      9  O   UNL     1     203.134 201.702 244.292  1.00  0.00    -0.544 OA
ENDBRANCH   2   7
ENDBRANCH   1   2
BRANCH   1  10
ATOM     10  O   UNL     1     205.046 203.433 242.792  1.00  0.00    -0.390 OA
ATOM     11  H   UNL     1     205.654 204.045 242.301  1.00  0.00     0.210 HD
ENDBRANCH   1  10
TORSDOF 4
ENDMDL
MODEL 4
REMARK VINA RESULT:    -3.870      2.575      3.034
REMARK INTER + INTRA:          -4.945
REMARK INTER:                  -4.600
REMARK INTRA:                  -0.346
REMARK UNBOUND:                -0.397
REMARK SMILES [NH3+][C@@H](CO)C(=O)[O-]
REMARK SMILES IDX 3 1 2 2 1 3 5 7 6 8 7 9 4 10
REMARK H PARENT 1 4 1 5 1 6 4 11
REMARK Flexibility Score: inf
ROOT
ATOM      1  C   UNL     1     203.790 203.020 240.760  1.00  0.00     0.227 C 
ENDROOT
BRANCH   1   2
ATOM      2  C   UNL     1     204.138 202.594 242.198  1.00  0.00     0.253 C 
BRANCH   2   3
ATOM      3  N   UNL     1     205.235 201.618 242.209  1.00  0.00    -0.348 N 
ATOM      4  H   UNL     1     205.452 201.340 243.195  1.00  0.00     0.345 HD
ATOM      5  H   UNL     1     206.097 202.045 241.797  1.00  0.00     0.345 HD
ATOM      6  H   UNL     1     204.979 200.765 241.660  1.00  0.00     0.345 HD
ENDBRANCH   2   3
BRANCH   2   7
ATOM      7  C   UNL     1     202.922 202.026 242.877  1.00  0.00     0.102 C 
ATOM      8  O   UNL     1     202.561 200.840 242.657  1.00  0.00    -0.544 OA
ATOM      9  O   UNL     1     202.178 202.818 243.744  1.00  0.00    -0.544 OA
ENDBRANCH   2   7
ENDBRANCH   1   2
BRANCH   1  10
ATOM     10  O   UNL     1     202.429 203.347 240.654  1.00  0.00    -0.390 OA
ATOM     11  H   UNL     1     202.048 203.278 241.568  1.00  0.00     0.210 HD
ENDBRANCH   1  10
TORSDOF 4
ENDMDL
MODEL 5
REMARK VINA RESULT:    -3.835      2.221      2.333
REMARK INTER + INTRA:          -4.905
REMARK INTER:                  -4.870
REMARK INTRA:                  -0.034
REMARK UNBOUND:                -0.397
REMARK SMILES [NH3+][C@@H](CO)C(=O)[O-]
REMARK SMILES IDX 3 1 2 2 1 3 5 7 6 8 7 9 4 10
REMARK H PARENT 1 4 1 5 1 6 4 11
REMARK Flexibility Score: inf
ROOT
ATOM      1  C   UNL     1     202.849 201.101 242.944  1.00  0.00     0.227 C 
ENDROOT
BRANCH   1   2
ATOM      2  C   UNL     1     203.758 202.025 242.113  1.00  0.00     0.253 C 
BRANCH   2   3
ATOM      3  N   UNL     1     205.175 201.727 242.352  1.00  0.00    -0.348 N 
ATOM      4  H   UNL     1     205.771 202.482 241.937  1.00  0.00     0.345 HD
ATOM      5  H   UNL     1     205.432 200.823 241.892  1.00  0.00     0.345 HD
ATOM      6  H   UNL     1     205.372 201.658 243.377  1.00  0.00     0.345 HD
ENDBRANCH   2   3
BRANCH   2   7
ATOM      7  C   UNL     1     203.461 203.465 242.434  1.00  0.00     0.102 C 
ATOM      8  O   UNL     1     202.277 203.847 242.626  1.00  0.00    -0.544 OA
ATOM      9  O   UNL     1     204.498 204.388 242.506  1.00  0.00    -0.544 OA
ENDBRANCH   2   7
ENDBRANCH   1   2
BRANCH   1  10
ATOM     10  O   UNL     1     202.048 200.307 242.108  1.00  0.00    -0.390 OA
ATOM     11  H   UNL     1     202.106 200.703 241.200  1.00  0.00     0.210 HD
ENDBRANCH   1  10
TORSDOF 4
ENDMDL
MODEL 6
REMARK VINA RESULT:    -3.829      1.939      2.407
REMARK INTER + INTRA:          -4.897
REMARK INTER:                  -4.496
REMARK INTRA:                  -0.401
REMARK UNBOUND:                -0.397
REMARK SMILES [NH3+][C@@H](CO)C(=O)[O-]
REMARK SMILES IDX 3 1 2 2 1 3 5 7 6 8 7 9 4 10
REMARK H PARENT 1 4 1 5 1 6 4 11
REMARK Flexibility Score: inf
ROOT
ATOM      1  C   UNL     1     202.456 203.736 242.634  1.00  0.00     0.227 C 
ENDROOT
BRANCH   1   2
ATOM      2  C   UNL     1     203.833 204.000 243.272  1.00  0.00     0.253 C 
BRANCH   2   3
ATOM      3  N   UNL     1     204.683 204.800 242.382  1.00  0.00    -0.348 N 
ATOM      4  H   UNL     1     204.109 205.183 241.594  1.00  0.00     0.345 HD
ATOM      5  H   UNL     1     205.435 204.199 241.972  1.00  0.00     0.345 HD
ATOM      6  H   UNL     1     205.124 205.593 242.903  1.00  0.00     0.345 HD
ENDBRANCH   2   3
BRANCH   2   7
ATOM      7  C   UNL     1     204.505 202.696 243.608  1.00  0.00     0.102 C 
ATOM      8  O   UNL     1     205.186 202.085 242.743  1.00  0.00    -0.544 OA
ATOM      9  O   UNL     1     204.362 202.149 244.878  1.00  0.00    -0.544 OA
ENDBRANCH   2   7
ENDBRANCH   1   2
BRANCH   1  10
ATOM     10  O   UNL     1     202.155 202.366 242.651  1.00  0.00    -0.390 OA
ATOM     11  H   UNL     1     202.873 201.923 243.173  1.00  0.00     0.210 HD
ENDBRANCH   1  10
TORSDOF 4
ENDMDL
MODEL 7
REMARK VINA RESULT:    -3.828      1.699      2.069
REMARK INTER + INTRA:          -4.896
REMARK INTER:                  -4.531
REMARK INTRA:                  -0.365
REMARK UNBOUND:                -0.397
REMARK SMILES [NH3+][C@@H](CO)C(=O)[O-]
REMARK SMILES IDX 3 1 2 2 1 3 5 7 6 8 7 9 4 10
REMARK H PARENT 1 4 1 5 1 6 4 11
REMARK Flexibility Score: inf
ROOT
ATOM      1  C   UNL     1     203.218 203.024 240.536  1.00  0.00     0.227 C 
ENDROOT
BRANCH   1   2
ATOM      2  C   UNL     1     202.867 202.996 242.035  1.00  0.00     0.253 C 
BRANCH   2   3
ATOM      3  N   UNL     1     201.724 203.870 242.326  1.00  0.00    -0.348 N 
ATOM      4  H   UNL     1     202.030 204.871 242.304  1.00  0.00     0.345 HD
ATOM      5  H   UNL     1     201.354 203.665 243.284  1.00  0.00     0.345 HD
ATOM      6  H   UNL     1     200.960 203.728 241.626  1.00  0.00     0.345 HD
ENDBRANCH   2   3
BRANCH   2   7
ATOM      7  C   UNL     1     204.063 203.402 242.853  1.00  0.00     0.102 C 
ATOM      8  O   UNL     1     204.145 204.564 243.331  1.00  0.00    -0.544 OA
ATOM      9  O   UNL     1     205.094 202.496 243.072  1.00  0.00    -0.544 OA
ENDBRANCH   2   7
ENDBRANCH   1   2
BRANCH   1  10
ATOM     10  O   UNL     1     204.316 203.864 240.297  1.00  0.00    -0.390 OA
ATOM     11  H   UNL     1     204.344 204.515 241.047  1.00  0.00     0.210 HD
ENDBRANCH   1  10
TORSDOF 4
ENDMDL
MODEL 8
REMARK VINA RESULT:    -3.788      1.936      2.446
REMARK INTER + INTRA:          -4.849
REMARK INTER:                  -4.488
REMARK INTRA:                  -0.361
REMARK UNBOUND:                -0.397
REMARK SMILES [NH3+][C@@H](CO)C(=O)[O-]
REMARK SMILES IDX 3 1 2 2 1 3 5 7 6 8 7 9 4 10
REMARK H PARENT 1 4 1 5 1 6 4 11
REMARK Flexibility Score: inf
ROOT
ATOM      1  C   UNL     1     204.426 201.950 242.260  1.00  0.00     0.227 C 
ENDROOT
BRANCH   1   2
ATOM      2  C   UNL     1     203.174 201.474 243.020  1.00  0.00     0.253 C 
BRANCH   2   3
ATOM      3  N   UNL     1     202.266 200.735 242.134  1.00  0.00    -0.348 N 
ATOM      4  H   UNL     1     201.663 201.408 241.604  1.00  0.00     0.345 HD
ATOM      5  H   UNL     1     201.640 200.117 242.700  1.00  0.00     0.345 HD
ATOM      6  H   UNL     1     202.805 200.149 241.456  1.00  0.00     0.345 HD
ENDBRANCH   2   3
BRANCH   2   7
ATOM      7  C   UNL     1     202.466 202.651 243.636  1.00  0.00     0.102 C 
ATOM      8  O   UNL     1     201.777 203.427 242.923  1.00  0.00    -0.544 OA
ATOM      9  O   UNL     1     202.583 202.895 244.999  1.00  0.00    -0.544 OA
ENDBRANCH   2   7
ENDBRANCH   1   2
BRANCH   1  10
ATOM     10  O   UNL     1     204.848 203.202 242.730  1.00  0.00    -0.390 OA
ATOM     11  H   UNL     1     204.103 203.566 243.278  1.00  0.00     0.210 HD
ENDBRANCH   1  10
TORSDOF 4
ENDMDL
MODEL 9
REMARK VINA RESULT:    -3.638      2.243      2.794
REMARK INTER + INTRA:          -4.673
REMARK INTER:                  -4.425
REMARK INTRA:                  -0.247
REMARK UNBOUND:                -0.397
REMARK SMILES [NH3+][C@@H](CO)C(=O)[O-]
REMARK SMILES IDX 3 1 2 2 1 3 5 7 6 8 7 9 4 10
REMARK H PARENT 1 4 1 5 1 6 4 11
REMARK Flexibility Score: inf
ROOT
ATOM      1  C   UNL     1     203.538 202.774 240.119  1.00  0.00     0.227 C 
ENDROOT
BRANCH   1   2
ATOM      2  C   UNL     1     203.533 203.183 241.604  1.00  0.00     0.253 C 
BRANCH   2   3
ATOM      3  N   UNL     1     204.378 204.362 241.831  1.00  0.00    -0.348 N 
ATOM      4  H   UNL     1     203.776 205.199 242.015  1.00  0.00     0.345 HD
ATOM      5  H   UNL     1     204.953 204.557 240.980  1.00  0.00     0.345 HD
ATOM      6  H   UNL     1     205.015 204.210 242.648  1.00  0.00     0.345 HD
ENDBRANCH   2   3
BRANCH   2   7
ATOM      7  C   UNL     1     203.994 202.032 242.458  1.00  0.00     0.102 C 
ATOM      8  O   UNL     1     205.212 201.899 242.747  1.00  0.00    -0.544 OA
ATOM      9  O   UNL     1     203.074 201.099 242.919  1.00  0.00    -0.544 OA
ENDBRANCH   2   7
ENDBRANCH   1   2
BRANCH   1  10
ATOM     10  O   UNL     1     204.723 202.096 239.794  1.00  0.00    -0.390 OA
ATOM     11  H   UNL     1     205.146 201.835 240.653  1.00  0.00     0.210 HD
ENDBRANCH   1  10
TORSDOF 4
ENDMDL
