MODEL 1
REMARK VINA RESULT:    -3.496      0.000      0.000
REMARK INTER + INTRA:          -6.264
REMARK INTER:                  -5.336
REMARK INTRA:                  -0.928
REMARK UNBOUND:                -0.928
REMARK SMILES CCCCCCCCCCC(=O)[O-]
REMARK SMILES IDX 7 1 8 2 9 3 10 4 11 5 12 6 13 7 6 8 5 9 4 10 3 11 2 12 1 13
REMARK H PARENT
REMARK Flexibility Score: inf
ROOT
ATOM      1  C   UNL     1     118.262  51.682  53.867  1.00  0.00     0.000 C 
ENDROOT
BRANCH   1   2
ATOM      2  C   UNL     1     116.906  52.004  54.528  1.00  0.00     0.000 C 
BRANCH   2   3
ATOM      3  C   UNL     1     115.704  52.062  53.564  1.00  0.00     0.006 C 
BRANCH   3   4
ATOM      4  C   UNL     1     115.321  53.482  53.113  1.00  0.00     0.053 C 
BRANCH   4   5
ATOM      5  C   UNL     1     115.866  53.803  51.755  1.00  0.00     0.041 C 
ATOM      6  O   UNL     1     116.937  54.455  51.640  1.00  0.00    -0.550 OA
ATOM      7  O   UNL     1     115.208  53.354  50.617  1.00  0.00    -0.550 OA
ENDBRANCH   4   5
ENDBRANCH   3   4
ENDBRANCH   2   3
ENDBRANCH   1   2
BRANCH   1   8
ATOM      8  C   UNL     1     119.272  52.844  53.833  1.00  0.00     0.000 C 
BRANCH   8   9
ATOM      9  C   UNL     1     118.853  54.027  54.724  1.00  0.00    -0.000 C 
BRANCH   9  10
ATOM     10  C   UNL     1     119.724  54.165  55.987  1.00  0.00    -0.000 C 
BRANCH  10  11
ATOM     11  C   UNL     1     120.927  53.207  56.061  1.00  0.00    -0.000 C 
BRANCH  11  12
ATOM     12  C   UNL     1     122.277  53.933  55.968  1.00  0.00    -0.003 C 
ATOM     13  C   UNL     1     122.742  54.046  54.518  1.00  0.00     0.004 C 
ENDBRANCH  11  12
ENDBRANCH  10  11
ENDBRANCH   9  10
ENDBRANCH   8   9
ENDBRANCH   1   8
TORSDOF 9
ENDMDL
MODEL 2
REMARK VINA RESULT:    -3.398      3.049      5.908
REMARK INTER + INTRA:          -6.113
REMARK INTER:                  -5.268
REMARK INTRA:                  -0.845
REMARK UNBOUND:                -0.928
REMARK SMILES CCCCCCCCCCC(=O)[O-]
REMARK SMILES IDX 7 1 8 2 9 3 10 4 11 5 12 6 13 7 6 8 5 9 4 10 3 11 2 12 1 13
REMARK H PARENT
REMARK Flexibility Score: inf
ROOT
ATOM      1  C   UNL     1     119.063  53.656  54.159  1.00  0.00     0.000 C 
ENDROOT
BRANCH   1   2
ATOM      2  C   UNL     1     119.522  54.213  55.522  1.00  0.00     0.000 C 
BRANCH   2   3
ATOM      3  C   UNL     1     120.766  53.530  56.125  1.00  0.00     0.006 C 
BRANCH   3   4
ATOM      4  C   UNL     1     122.092  54.249  55.824  1.00  0.00     0.053 C 
BRANCH   4   5
ATOM      5  C   UNL     1     122.739  53.728  54.577  1.00  0.00     0.041 C 
ATOM      6  O   UNL     1     122.762  52.490  54.345  1.00  0.00    -0.550 OA
ATOM      7  O   UNL     1     123.287  54.611  53.656  1.00  0.00    -0.550 OA
ENDBRANCH   4   5
ENDBRANCH   3   4
ENDBRANCH   2   3
ENDBRANCH   1   2
BRANCH   1   8
ATOM      8  C   UNL     1     118.967  52.121  54.073  1.00  0.00     0.000 C 
BRANCH   8   9
ATOM      9  C   UNL     1     117.541  51.627  53.776  1.00  0.00    -0.000 C 
BRANCH   9  10
ATOM     10  C   UNL     1     116.454  52.496  54.436  1.00  0.00    -0.000 C 
BRANCH  10  11
ATOM     11  C   UNL     1     115.381  53.044  53.477  1.00  0.00    -0.000 C 
BRANCH  11  12
ATOM     12  C   UNL     1     115.772  52.907  51.999  1.00  0.00    -0.003 C 
ATOM     13  C   UNL     1     116.336  54.217  51.456  1.00  0.00     0.004 C 
ENDBRANCH  11  12
ENDBRANCH  10  11
ENDBRANCH   9  10
ENDBRANCH   8   9
ENDBRANCH   1   8
TORSDOF 9
ENDMDL
MODEL 3
REMARK VINA RESULT:    -3.329      1.339      2.457
REMARK INTER + INTRA:          -6.008
REMARK INTER:                  -5.195
REMARK INTRA:                  -0.813
REMARK UNBOUND:                -0.928
REMARK SMILES CCCCCCCCCCC(=O)[O-]
REMARK SMILES IDX 7 1 8 2 9 3 10 4 11 5 12 6 13 7 6 8 5 9 4 10 3 11 2 12 1 13
REMARK H PARENT
REMARK Flexibility Score: inf
ROOT
ATOM      1  C   UNL     1     118.946  54.228  54.674  1.00  0.00     0.000 C 
ENDROOT
BRANCH   1   2
ATOM      2  C   UNL     1     119.006  53.061  53.667  1.00  0.00     0.000 C 
BRANCH   2   3
ATOM      3  C   UNL     1     118.046  51.890  53.962  1.00  0.00     0.006 C 
BRANCH   3   4
ATOM      4  C   UNL     1     116.679  52.317  54.522  1.00  0.00     0.053 C 
BRANCH   4   5
ATOM      5  C   UNL     1     115.647  52.438  53.443  1.00  0.00     0.041 C 
ATOM      6  O   UNL     1     115.097  53.548  53.214  1.00  0.00    -0.550 OA
ATOM      7  O   UNL     1     115.316  51.334  52.669  1.00  0.00    -0.550 OA
ENDBRANCH   4   5
ENDBRANCH   3   4
ENDBRANCH   2   3
ENDBRANCH   1   2
BRANCH   1   8
ATOM      8  C   UNL     1     119.584  53.947  56.047  1.00  0.00     0.000 C 
BRANCH   8   9
ATOM      9  C   UNL     1     121.087  54.273  56.087  1.00  0.00    -0.000 C 
BRANCH   9  10
ATOM     10  C   UNL     1     121.976  53.027  55.916  1.00  0.00    -0.000 C 
BRANCH  10  11
ATOM     11  C   UNL     1     122.759  52.957  54.592  1.00  0.00    -0.000 C 
BRANCH  11  12
ATOM     12  C   UNL     1     122.555  54.196  53.708  1.00  0.00    -0.003 C 
ATOM     13  C   UNL     1     123.876  54.662  53.103  1.00  0.00     0.004 C 
ENDBRANCH  11  12
ENDBRANCH  10  11
ENDBRANCH   9  10
ENDBRANCH   8   9
ENDBRANCH   1   8
TORSDOF 9
ENDMDL
MODEL 4
REMARK VINA RESULT:    -3.292     10.381     12.020
REMARK INTER + INTRA:          -5.952
REMARK INTER:                  -4.855
REMARK INTRA:                  -1.097
REMARK UNBOUND:                -0.928
REMARK SMILES CCCCCCCCCCC(=O)[O-]
REMARK SMILES IDX 7 1 8 2 9 3 10 4 11 5 12 6 13 7 6 8 5 9 4 10 3 11 2 12 1 13
REMARK H PARENT
REMARK Flexibility Score: inf
ROOT
ATOM      1  C   UNL     1     126.513  54.388  43.631  1.00  0.00     0.000 C 
ENDROOT
BRANCH   1   2
ATOM      2  C   UNL     1     125.877  55.636  42.986  1.00  0.00     0.000 C 
BRANCH   2   3
ATOM      3  C   UNL     1     124.508  56.047  43.564  1.00  0.00     0.006 C 
BRANCH   3   4
ATOM      4  C   UNL     1     124.590  56.897  44.843  1.00  0.00     0.053 C 
BRANCH   4   5
ATOM      5  C   UNL     1     124.641  58.362  44.539  1.00  0.00     0.041 C 
ATOM      6  O   UNL     1     123.603  59.068  44.645  1.00  0.00    -0.550 OA
ATOM      7  O   UNL     1     125.841  58.955  44.169  1.00  0.00    -0.550 OA
ENDBRANCH   4   5
ENDBRANCH   3   4
ENDBRANCH   2   3
ENDBRANCH   1   2
BRANCH   1   8
ATOM      8  C   UNL     1     125.741  53.072  43.424  1.00  0.00     0.000 C 
BRANCH   8   9
ATOM      9  C   UNL     1     125.318  52.411  44.747  1.00  0.00    -0.000 C 
BRANCH   9  10
ATOM     10  C   UNL     1     124.007  52.987  45.313  1.00  0.00    -0.000 C 
BRANCH  10  11
ATOM     11  C   UNL     1     124.070  53.436  46.785  1.00  0.00    -0.000 C 
BRANCH  11  12
ATOM     12  C   UNL     1     125.452  53.965  47.192  1.00  0.00    -0.003 C 
ATOM     13  C   UNL     1     125.329  55.239  48.024  1.00  0.00     0.004 C 
ENDBRANCH  11  12
ENDBRANCH  10  11
ENDBRANCH   9  10
ENDBRANCH   8   9
ENDBRANCH   1   8
TORSDOF 9
ENDMDL
MODEL 5
REMARK VINA RESULT:    -3.261     10.431     12.307
REMARK INTER + INTRA:          -5.904
REMARK INTER:                  -5.070
REMARK INTRA:                  -0.834
REMARK UNBOUND:                -0.928
REMARK SMILES CCCCCCCCCCC(=O)[O-]
REMARK SMILES IDX 7 1 8 2 9 3 10 4 11 5 12 6 13 7 6 8 5 9 4 10 3 11 2 12 1 13
REMARK H PARENT
REMARK Flexibility Score: inf
ROOT
ATOM      1  C   UNL     1     125.501  53.087  43.338  1.00  0.00     0.000 C 
ENDROOT
BRANCH   1   2
ATOM      2  C   UNL     1     125.262  52.348  44.671  1.00  0.00     0.000 C 
BRANCH   2   3
ATOM      3  C   UNL     1     126.313  52.616  45.767  1.00  0.00     0.006 C 
BRANCH   3   4
ATOM      4  C   UNL     1     126.530  51.442  46.737  1.00  0.00     0.053 C 
BRANCH   4   5
ATOM      5  C   UNL     1     126.905  51.912  48.109  1.00  0.00     0.041 C 
ATOM      6  O   UNL     1     127.908  51.425  48.693  1.00  0.00    -0.550 OA
ATOM      7  O   UNL     1     126.166  52.912  48.728  1.00  0.00    -0.550 OA
ENDBRANCH   4   5
ENDBRANCH   3   4
ENDBRANCH   2   3
ENDBRANCH   1   2
BRANCH   1   8
ATOM      8  C   UNL     1     126.537  54.225  43.392  1.00  0.00     0.000 C 
BRANCH   8   9
ATOM      9  C   UNL     1     125.964  55.578  42.936  1.00  0.00    -0.000 C 
BRANCH   9  10
ATOM     10  C   UNL     1     124.652  55.947  43.654  1.00  0.00    -0.000 C 
BRANCH  10  11
ATOM     11  C   UNL     1     124.660  57.306  44.376  1.00  0.00    -0.000 C 
BRANCH  11  12
ATOM     12  C   UNL     1     124.296  57.197  45.864  1.00  0.00    -0.003 C 
ATOM     13  C   UNL     1     124.481  55.770  46.371  1.00  0.00     0.004 C 
ENDBRANCH  11  12
ENDBRANCH  10  11
ENDBRANCH   9  10
ENDBRANCH   8   9
ENDBRANCH   1   8
TORSDOF 9
ENDMDL
MODEL 6
REMARK VINA RESULT:    -3.256      9.683     11.601
REMARK INTER + INTRA:          -5.897
REMARK INTER:                  -4.804
REMARK INTRA:                  -1.092
REMARK UNBOUND:                -0.928
REMARK SMILES CCCCCCCCCCC(=O)[O-]
REMARK SMILES IDX 7 1 8 2 9 3 10 4 11 5 12 6 13 7 6 8 5 9 4 10 3 11 2 12 1 13
REMARK H PARENT
REMARK Flexibility Score: inf
ROOT
ATOM      1  C   UNL     1     124.528  55.955  43.637  1.00  0.00     0.000 C 
ENDROOT
BRANCH   1   2
ATOM      2  C   UNL     1     124.536  56.700  44.987  1.00  0.00     0.000 C 
BRANCH   2   3
ATOM      3  C   UNL     1     124.192  55.834  46.216  1.00  0.00     0.006 C 
BRANCH   3   4
ATOM      4  C   UNL     1     125.228  55.903  47.351  1.00  0.00     0.053 C 
BRANCH   4   5
ATOM      5  C   UNL     1     124.676  55.386  48.643  1.00  0.00     0.041 C 
ATOM      6  O   UNL     1     124.365  56.187  49.565  1.00  0.00    -0.550 OA
ATOM      7  O   UNL     1     124.474  54.023  48.819  1.00  0.00    -0.550 OA
ENDBRANCH   4   5
ENDBRANCH   3   4
ENDBRANCH   2   3
ENDBRANCH   1   2
BRANCH   1   8
ATOM      8  C   UNL     1     125.915  55.682  43.026  1.00  0.00     0.000 C 
BRANCH   8   9
ATOM      9  C   UNL     1     126.471  54.297  43.401  1.00  0.00    -0.000 C 
BRANCH   9  10
ATOM     10  C   UNL     1     125.396  53.195  43.388  1.00  0.00    -0.000 C 
BRANCH  10  11
ATOM     11  C   UNL     1     125.346  52.315  44.651  1.00  0.00    -0.000 C 
BRANCH  11  12
ATOM     12  C   UNL     1     126.305  52.789  45.751  1.00  0.00    -0.003 C 
ATOM     13  C   UNL     1     126.419  51.752  46.865  1.00  0.00     0.004 C 
ENDBRANCH  11  12
ENDBRANCH  10  11
ENDBRANCH   9  10
ENDBRANCH   8   9
ENDBRANCH   1   8
TORSDOF 9
ENDMDL
MODEL 7
REMARK VINA RESULT:    -3.241      9.872     11.806
REMARK INTER + INTRA:          -5.875
REMARK INTER:                  -4.872
REMARK INTRA:                  -1.002
REMARK UNBOUND:                -0.928
REMARK SMILES CCCCCCCCCCC(=O)[O-]
REMARK SMILES IDX 7 1 8 2 9 3 10 4 11 5 12 6 13 7 6 8 5 9 4 10 3 11 2 12 1 13
REMARK H PARENT
REMARK Flexibility Score: inf
ROOT
ATOM      1  C   UNL     1     125.374  52.418  44.756  1.00  0.00     0.000 C 
ENDROOT
BRANCH   1   2
ATOM      2  C   UNL     1     125.873  53.241  45.961  1.00  0.00     0.000 C 
BRANCH   2   3
ATOM      3  C   UNL     1     124.813  54.144  46.623  1.00  0.00     0.006 C 
BRANCH   3   4
ATOM      4  C   UNL     1     125.347  55.004  47.781  1.00  0.00     0.053 C 
BRANCH   4   5
ATOM      5  C   UNL     1     125.279  54.280  49.091  1.00  0.00     0.041 C 
ATOM      6  O   UNL     1     126.145  53.414  49.382  1.00  0.00    -0.550 OA
ATOM      7  O   UNL     1     124.278  54.586  50.004  1.00  0.00    -0.550 OA
ENDBRANCH   4   5
ENDBRANCH   3   4
ENDBRANCH   2   3
ENDBRANCH   1   2
BRANCH   1   8
ATOM      8  C   UNL     1     125.385  53.155  43.404  1.00  0.00     0.000 C 
BRANCH   8   9
ATOM      9  C   UNL     1     126.448  54.265  43.336  1.00  0.00    -0.000 C 
BRANCH   9  10
ATOM     10  C   UNL     1     125.840  55.670  43.173  1.00  0.00    -0.000 C 
BRANCH  10  11
ATOM     11  C   UNL     1     124.311  55.745  43.335  1.00  0.00    -0.000 C 
BRANCH  11  12
ATOM     12  C   UNL     1     123.866  56.830  44.326  1.00  0.00    -0.003 C 
ATOM     13  C   UNL     1     124.929  57.915  44.467  1.00  0.00     0.004 C 
ENDBRANCH  11  12
ENDBRANCH  10  11
ENDBRANCH   9  10
ENDBRANCH   8   9
ENDBRANCH   1   8
TORSDOF 9
ENDMDL
MODEL 8
REMARK VINA RESULT:    -3.225      2.284      3.947
REMARK INTER + INTRA:          -5.850
REMARK INTER:                  -4.710
REMARK INTRA:                  -1.140
REMARK UNBOUND:                -0.928
REMARK SMILES CCCCCCCCCCC(=O)[O-]
REMARK SMILES IDX 7 1 8 2 9 3 10 4 11 5 12 6 13 7 6 8 5 9 4 10 3 11 2 12 1 13
REMARK H PARENT
REMARK Flexibility Score: inf
ROOT
ATOM      1  C   UNL     1     115.452  52.878  51.120  1.00  0.00     0.000 C 
ENDROOT
BRANCH   1   2
ATOM      2  C   UNL     1     116.121  54.268  51.124  1.00  0.00     0.000 C 
BRANCH   2   3
ATOM      3  C   UNL     1     117.660  54.256  51.219  1.00  0.00     0.006 C 
BRANCH   3   4
ATOM      4  C   UNL     1     118.266  55.518  51.854  1.00  0.00     0.053 C 
BRANCH   4   5
ATOM      5  C   UNL     1     118.895  56.413  50.830  1.00  0.00     0.041 C 
ATOM      6  O   UNL     1     120.132  56.646  50.867  1.00  0.00    -0.550 OA
ATOM      7  O   UNL     1     118.121  56.962  49.817  1.00  0.00    -0.550 OA
ENDBRANCH   4   5
ENDBRANCH   3   4
ENDBRANCH   2   3
ENDBRANCH   1   2
BRANCH   1   8
ATOM      8  C   UNL     1     115.704  52.022  52.375  1.00  0.00     0.000 C 
BRANCH   8   9
ATOM      9  C   UNL     1     115.502  52.804  53.684  1.00  0.00    -0.000 C 
BRANCH   9  10
ATOM     10  C   UNL     1     116.686  52.660  54.658  1.00  0.00    -0.000 C 
BRANCH  10  11
ATOM     11  C   UNL     1     117.914  51.923  54.093  1.00  0.00    -0.000 C 
BRANCH  11  12
ATOM     12  C   UNL     1     119.223  52.701  54.288  1.00  0.00    -0.003 C 
ATOM     13  C   UNL     1     119.024  53.882  55.234  1.00  0.00     0.004 C 
ENDBRANCH  11  12
ENDBRANCH  10  11
ENDBRANCH   9  10
ENDBRANCH   8   9
ENDBRANCH   1   8
TORSDOF 9
ENDMDL
MODEL 9
REMARK VINA RESULT:    -3.200     10.119     11.873
REMARK INTER + INTRA:          -5.812
REMARK INTER:                  -4.901
REMARK INTRA:                  -0.911
REMARK UNBOUND:                -0.928
REMARK SMILES CCCCCCCCCCC(=O)[O-]
REMARK SMILES IDX 7 1 8 2 9 3 10 4 11 5 12 6 13 7 6 8 5 9 4 10 3 11 2 12 1 13
REMARK H PARENT
REMARK Flexibility Score: inf
ROOT
ATOM      1  C   UNL     1     125.753  55.743  43.102  1.00  0.00     0.000 C 
ENDROOT
BRANCH   1   2
ATOM      2  C   UNL     1     126.527  54.440  43.388  1.00  0.00     0.000 C 
BRANCH   2   3
ATOM      3  C   UNL     1     125.690  53.300  44.003  1.00  0.00     0.006 C 
BRANCH   3   4
ATOM      4  C   UNL     1     126.167  52.841  45.391  1.00  0.00     0.053 C 
BRANCH   4   5
ATOM      5  C   UNL     1     125.733  51.441  45.696  1.00  0.00     0.041 C 
ATOM      6  O   UNL     1     124.725  50.951  45.121  1.00  0.00    -0.550 OA
ATOM      7  O   UNL     1     126.460  50.665  46.589  1.00  0.00    -0.550 OA
ENDBRANCH   4   5
ENDBRANCH   3   4
ENDBRANCH   2   3
ENDBRANCH   1   2
BRANCH   1   8
ATOM      8  C   UNL     1     124.232  55.668  43.325  1.00  0.00     0.000 C 
BRANCH   8   9
ATOM      9  C   UNL     1     123.710  56.768  44.266  1.00  0.00    -0.000 C 
BRANCH   9  10
ATOM     10  C   UNL     1     124.523  56.880  45.569  1.00  0.00    -0.000 C 
BRANCH  10  11
ATOM     11  C   UNL     1     124.279  55.755  46.591  1.00  0.00    -0.000 C 
BRANCH  11  12
ATOM     12  C   UNL     1     125.306  55.748  47.733  1.00  0.00    -0.003 C 
ATOM     13  C   UNL     1     124.616  55.798  49.093  1.00  0.00     0.004 C 
ENDBRANCH  11  12
ENDBRANCH  10  11
ENDBRANCH   9  10
ENDBRANCH   8   9
ENDBRANCH   1   8
TORSDOF 9
ENDMDL
