MODEL 1
REMARK VINA RESULT:    -3.570      0.000      0.000
REMARK INTER + INTRA:          -8.639
REMARK INTER:                  -6.283
REMARK INTRA:                  -2.356
REMARK UNBOUND:                -2.356
REMARK SMILES CCCCCCC=CCCCCCCCC(=O)[O-]
REMARK SMILES IDX 10 1 11 2 12 3 13 4 14 5 15 6 16 7 17 8 18 9 9 10 8 11 7 12
REMARK SMILES IDX 6 13 5 14 4 15 3 16 2 17 1 18
REMARK H PARENT
REMARK Flexibility Score: inf
ROOT
ATOM      1  C   UNL     1     217.125 204.642 193.596  1.00  0.00     0.004 C 
ENDROOT
BRANCH   1   2
ATOM      2  C   UNL     1     216.865 205.066 195.049  1.00  0.00     0.000 C 
BRANCH   2   3
ATOM      3  C   UNL     1     215.440 204.701 195.483  1.00  0.00     0.000 C 
BRANCH   3   4
ATOM      4  C   UNL     1     214.514 205.924 195.417  1.00  0.00     0.000 C 
BRANCH   4   5
ATOM      5  C   UNL     1     213.051 205.580 195.739  1.00  0.00     0.006 C 
BRANCH   5   6
ATOM      6  C   UNL     1     212.800 204.068 195.798  1.00  0.00     0.053 C 
BRANCH   6   7
ATOM      7  C   UNL     1     212.388 203.661 197.178  1.00  0.00     0.041 C 
ATOM      8  O   UNL     1     212.583 202.483 197.576  1.00  0.00    -0.550 OA
ATOM      9  O   UNL     1     211.832 204.597 198.041  1.00  0.00    -0.550 OA
ENDBRANCH   6   7
ENDBRANCH   5   6
ENDBRANCH   4   5
ENDBRANCH   3   4
ENDBRANCH   2   3
ENDBRANCH   1   2
BRANCH   1  10
ATOM     10  C   UNL     1     216.883 205.789 192.604  1.00  0.00     0.027 C 
BRANCH  10  11
ATOM     11  C   UNL     1     215.610 205.609 191.820  1.00  0.00    -0.031 C 
ATOM     12  C   UNL     1     214.907 204.467 191.871  1.00  0.00    -0.031 C 
BRANCH  12  13
ATOM     13  C   UNL     1     213.629 204.294 191.099  1.00  0.00     0.027 C 
BRANCH  13  14
ATOM     14  C   UNL     1     212.419 204.221 192.038  1.00  0.00     0.004 C 
BRANCH  14  15
ATOM     15  C   UNL     1     211.773 205.602 192.210  1.00  0.00     0.000 C 
BRANCH  15  16
ATOM     16  C   UNL     1     211.876 206.424 190.920  1.00  0.00    -0.000 C 
BRANCH  16  17
ATOM     17  C   UNL     1     212.452 207.816 191.200  1.00  0.00    -0.003 C 
ATOM     18  C   UNL     1     212.859 207.962 192.664  1.00  0.00     0.004 C 
ENDBRANCH  16  17
ENDBRANCH  15  16
ENDBRANCH  14  15
ENDBRANCH  13  14
ENDBRANCH  12  13
ENDBRANCH  10  11
ENDBRANCH   1  10
TORSDOF 13
ENDMDL
MODEL 2
REMARK VINA RESULT:    -3.546      2.016      4.087
REMARK INTER + INTRA:          -8.597
REMARK INTER:                  -6.330
REMARK INTRA:                  -2.267
REMARK UNBOUND:                -2.356
REMARK SMILES CCCCCCC=CCCCCCCCC(=O)[O-]
REMARK SMILES IDX 10 1 11 2 12 3 13 4 14 5 15 6 16 7 17 8 18 9 9 10 8 11 7 12
REMARK SMILES IDX 6 13 5 14 4 15 3 16 2 17 1 18
REMARK H PARENT
REMARK Flexibility Score: inf
ROOT
ATOM      1  C   UNL     1     215.663 203.870 192.937  1.00  0.00     0.004 C 
ENDROOT
BRANCH   1   2
ATOM      2  C   UNL     1     214.593 204.779 192.315  1.00  0.00     0.000 C 
BRANCH   2   3
ATOM      3  C   UNL     1     213.322 204.801 193.173  1.00  0.00     0.000 C 
BRANCH   3   4
ATOM      4  C   UNL     1     213.278 206.055 194.059  1.00  0.00     0.000 C 
BRANCH   4   5
ATOM      5  C   UNL     1     212.981 205.729 195.532  1.00  0.00     0.006 C 
BRANCH   5   6
ATOM      6  C   UNL     1     213.561 204.378 195.968  1.00  0.00     0.053 C 
BRANCH   6   7
ATOM      7  C   UNL     1     212.489 203.515 196.556  1.00  0.00     0.041 C 
ATOM      8  O   UNL     1     212.787 202.601 197.368  1.00  0.00    -0.550 OA
ATOM      9  O   UNL     1     211.157 203.752 196.242  1.00  0.00    -0.550 OA
ENDBRANCH   6   7
ENDBRANCH   5   6
ENDBRANCH   4   5
ENDBRANCH   3   4
ENDBRANCH   2   3
ENDBRANCH   1   2
BRANCH   1  10
ATOM     10  C   UNL     1     217.048 204.532 192.955  1.00  0.00     0.027 C 
BRANCH  10  11
ATOM     11  C   UNL     1     217.125 205.673 193.934  1.00  0.00    -0.031 C 
ATOM     12  C   UNL     1     216.936 205.486 195.249  1.00  0.00    -0.031 C 
BRANCH  12  13
ATOM     13  C   UNL     1     217.027 206.625 196.227  1.00  0.00     0.027 C 
BRANCH  13  14
ATOM     14  C   UNL     1     216.955 207.979 195.510  1.00  0.00     0.004 C 
BRANCH  14  15
ATOM     15  C   UNL     1     215.539 208.563 195.581  1.00  0.00     0.000 C 
BRANCH  15  16
ATOM     16  C   UNL     1     214.936 208.379 196.979  1.00  0.00    -0.000 C 
BRANCH  16  17
ATOM     17  C   UNL     1     213.723 209.294 197.179  1.00  0.00    -0.003 C 
ATOM     18  C   UNL     1     212.564 208.540 197.825  1.00  0.00     0.004 C 
ENDBRANCH  16  17
ENDBRANCH  15  16
ENDBRANCH  14  15
ENDBRANCH  13  14
ENDBRANCH  12  13
ENDBRANCH  10  11
ENDBRANCH   1  10
TORSDOF 13
ENDMDL
MODEL 3
REMARK VINA RESULT:    -3.537     11.192     13.688
REMARK INTER + INTRA:          -8.580
REMARK INTER:                  -6.135
REMARK INTRA:                  -2.445
REMARK UNBOUND:                -2.356
REMARK SMILES CCCCCCC=CCCCCCCCC(=O)[O-]
REMARK SMILES IDX 10 1 11 2 12 3 13 4 14 5 15 6 16 7 17 8 18 9 9 10 8 11 7 12
REMARK SMILES IDX 6 13 5 14 4 15 3 16 2 17 1 18
REMARK H PARENT
REMARK Flexibility Score: inf
ROOT
ATOM      1  C   UNL     1     199.916 206.898 193.479  1.00  0.00     0.004 C 
ENDROOT
BRANCH   1   2
ATOM      2  C   UNL     1     198.721 207.859 193.563  1.00  0.00     0.000 C 
BRANCH   2   3
ATOM      3  C   UNL     1     198.886 209.030 192.585  1.00  0.00     0.000 C 
BRANCH   3   4
ATOM      4  C   UNL     1     200.333 209.124 192.079  1.00  0.00     0.000 C 
BRANCH   4   5
ATOM      5  C   UNL     1     201.063 210.372 192.600  1.00  0.00     0.006 C 
BRANCH   5   6
ATOM      6  C   UNL     1     202.318 210.028 193.411  1.00  0.00     0.053 C 
BRANCH   6   7
ATOM      7  C   UNL     1     201.953 209.704 194.826  1.00  0.00     0.041 C 
ATOM      8  O   UNL     1     201.002 210.306 195.389  1.00  0.00    -0.550 OA
ATOM      9  O   UNL     1     202.634 208.703 195.507  1.00  0.00    -0.550 OA
ENDBRANCH   6   7
ENDBRANCH   5   6
ENDBRANCH   4   5
ENDBRANCH   3   4
ENDBRANCH   2   3
ENDBRANCH   1   2
BRANCH   1  10
ATOM     10  C   UNL     1     199.532 205.550 192.851  1.00  0.00     0.027 C 
BRANCH  10  11
ATOM     11  C   UNL     1     200.139 205.360 191.486  1.00  0.00    -0.031 C 
ATOM     12  C   UNL     1     199.623 205.950 190.398  1.00  0.00    -0.031 C 
BRANCH  12  13
ATOM     13  C   UNL     1     200.239 205.772 189.038  1.00  0.00     0.027 C 
BRANCH  13  14
ATOM     14  C   UNL     1     201.603 205.077 189.134  1.00  0.00     0.004 C 
BRANCH  14  15
ATOM     15  C   UNL     1     202.745 206.100 189.074  1.00  0.00     0.000 C 
BRANCH  15  16
ATOM     16  C   UNL     1     203.687 205.945 190.273  1.00  0.00    -0.000 C 
BRANCH  16  17
ATOM     17  C   UNL     1     203.470 207.068 191.293  1.00  0.00    -0.003 C 
ATOM     18  C   UNL     1     203.445 206.523 192.718  1.00  0.00     0.004 C 
ENDBRANCH  16  17
ENDBRANCH  15  16
ENDBRANCH  14  15
ENDBRANCH  13  14
ENDBRANCH  12  13
ENDBRANCH  10  11
ENDBRANCH   1  10
TORSDOF 13
ENDMDL
MODEL 4
REMARK VINA RESULT:    -3.533     11.486     13.692
REMARK INTER + INTRA:          -8.573
REMARK INTER:                  -6.130
REMARK INTRA:                  -2.443
REMARK UNBOUND:                -2.356
REMARK SMILES CCCCCCC=CCCCCCCCC(=O)[O-]
REMARK SMILES IDX 10 1 11 2 12 3 13 4 14 5 15 6 16 7 17 8 18 9 9 10 8 11 7 12
REMARK SMILES IDX 6 13 5 14 4 15 3 16 2 17 1 18
REMARK H PARENT
REMARK Flexibility Score: inf
ROOT
ATOM      1  C   UNL     1     202.449 206.248 189.354  1.00  0.00     0.004 C 
ENDROOT
BRANCH   1   2
ATOM      2  C   UNL     1     203.540 205.835 190.352  1.00  0.00     0.000 C 
BRANCH   2   3
ATOM      3  C   UNL     1     203.609 206.814 191.531  1.00  0.00     0.000 C 
BRANCH   3   4
ATOM      4  C   UNL     1     202.753 208.060 191.260  1.00  0.00     0.000 C 
BRANCH   4   5
ATOM      5  C   UNL     1     201.911 208.476 192.477  1.00  0.00     0.006 C 
BRANCH   5   6
ATOM      6  C   UNL     1     202.083 207.526 193.668  1.00  0.00     0.053 C 
BRANCH   6   7
ATOM      7  C   UNL     1     202.408 208.297 194.908  1.00  0.00     0.041 C 
ATOM      8  O   UNL     1     203.021 207.742 195.858  1.00  0.00    -0.550 OA
ATOM      9  O   UNL     1     202.077 209.643 194.996  1.00  0.00    -0.550 OA
ENDBRANCH   6   7
ENDBRANCH   5   6
ENDBRANCH   4   5
ENDBRANCH   3   4
ENDBRANCH   2   3
ENDBRANCH   1   2
BRANCH   1  10
ATOM     10  C   UNL     1     201.332 205.200 189.247  1.00  0.00     0.027 C 
BRANCH  10  11
ATOM     11  C   UNL     1     200.136 205.550 190.092  1.00  0.00    -0.031 C 
ATOM     12  C   UNL     1     200.128 205.348 191.418  1.00  0.00    -0.031 C 
BRANCH  12  13
ATOM     13  C   UNL     1     198.938 205.711 192.262  1.00  0.00     0.027 C 
BRANCH  13  14
ATOM     14  C   UNL     1     197.715 206.026 191.391  1.00  0.00     0.004 C 
BRANCH  14  15
ATOM     15  C   UNL     1     197.080 207.362 191.798  1.00  0.00     0.000 C 
BRANCH  15  16
ATOM     16  C   UNL     1     198.149 208.442 191.999  1.00  0.00    -0.000 C 
BRANCH  16  17
ATOM     17  C   UNL     1     198.186 209.407 190.809  1.00  0.00    -0.003 C 
ATOM     18  C   UNL     1     199.335 209.071 189.862  1.00  0.00     0.004 C 
ENDBRANCH  16  17
ENDBRANCH  15  16
ENDBRANCH  14  15
ENDBRANCH  13  14
ENDBRANCH  12  13
ENDBRANCH  10  11
ENDBRANCH   1  10
TORSDOF 13
ENDMDL
MODEL 5
REMARK VINA RESULT:    -3.499      9.571     12.560
REMARK INTER + INTRA:          -8.514
REMARK INTER:                  -7.145
REMARK INTRA:                  -1.369
REMARK UNBOUND:                -2.356
REMARK SMILES CCCCCCC=CCCCCCCCC(=O)[O-]
REMARK SMILES IDX 10 1 11 2 12 3 13 4 14 5 15 6 16 7 17 8 18 9 9 10 8 11 7 12
REMARK SMILES IDX 6 13 5 14 4 15 3 16 2 17 1 18
REMARK H PARENT
REMARK Flexibility Score: inf
ROOT
ATOM      1  C   UNL     1     200.074 205.741 193.025  1.00  0.00     0.004 C 
ENDROOT
BRANCH   1   2
ATOM      2  C   UNL     1     199.494 205.316 191.668  1.00  0.00     0.000 C 
BRANCH   2   3
ATOM      3  C   UNL     1     199.992 206.232 190.544  1.00  0.00     0.000 C 
BRANCH   3   4
ATOM      4  C   UNL     1     200.867 205.455 189.548  1.00  0.00     0.000 C 
BRANCH   4   5
ATOM      5  C   UNL     1     202.213 206.146 189.277  1.00  0.00     0.006 C 
BRANCH   5   6
ATOM      6  C   UNL     1     203.401 205.378 189.869  1.00  0.00     0.053 C 
BRANCH   6   7
ATOM      7  C   UNL     1     204.681 206.100 189.589  1.00  0.00     0.041 C 
ATOM      8  O   UNL     1     205.706 205.461 189.235  1.00  0.00    -0.550 OA
ATOM      9  O   UNL     1     204.730 207.486 189.674  1.00  0.00    -0.550 OA
ENDBRANCH   6   7
ENDBRANCH   5   6
ENDBRANCH   4   5
ENDBRANCH   3   4
ENDBRANCH   2   3
ENDBRANCH   1   2
BRANCH   1  10
ATOM     10  C   UNL     1     200.372 207.247 193.082  1.00  0.00     0.027 C 
BRANCH  10  11
ATOM     11  C   UNL     1     201.798 207.534 193.469  1.00  0.00    -0.031 C 
ATOM     12  C   UNL     1     202.828 206.922 192.868  1.00  0.00    -0.031 C 
BRANCH  12  13
ATOM     13  C   UNL     1     204.253 207.221 193.246  1.00  0.00     0.027 C 
BRANCH  13  14
ATOM     14  C   UNL     1     204.524 206.859 194.712  1.00  0.00     0.004 C 
BRANCH  14  15
ATOM     15  C   UNL     1     206.030 206.835 195.002  1.00  0.00     0.000 C 
BRANCH  15  16
ATOM     16  C   UNL     1     206.389 205.693 195.960  1.00  0.00    -0.000 C 
BRANCH  16  17
ATOM     17  C   UNL     1     205.285 205.481 197.001  1.00  0.00    -0.003 C 
ATOM     18  C   UNL     1     205.555 204.240 197.847  1.00  0.00     0.004 C 
ENDBRANCH  16  17
ENDBRANCH  15  16
ENDBRANCH  14  15
ENDBRANCH  13  14
ENDBRANCH  12  13
ENDBRANCH  10  11
ENDBRANCH   1  10
TORSDOF 13
ENDMDL
MODEL 6
REMARK VINA RESULT:    -3.496      9.746     11.722
REMARK INTER + INTRA:          -8.509
REMARK INTER:                  -7.030
REMARK INTRA:                  -1.479
REMARK UNBOUND:                -2.356
REMARK SMILES CCCCCCC=CCCCCCCCC(=O)[O-]
REMARK SMILES IDX 10 1 11 2 12 3 13 4 14 5 15 6 16 7 17 8 18 9 9 10 8 11 7 12
REMARK SMILES IDX 6 13 5 14 4 15 3 16 2 17 1 18
REMARK H PARENT
REMARK Flexibility Score: inf
ROOT
ATOM      1  C   UNL     1     202.476 207.904 192.879  1.00  0.00     0.004 C 
ENDROOT
BRANCH   1   2
ATOM      2  C   UNL     1     202.242 208.316 194.339  1.00  0.00     0.000 C 
BRANCH   2   3
ATOM      3  C   UNL     1     203.561 208.705 195.020  1.00  0.00     0.000 C 
BRANCH   3   4
ATOM      4  C   UNL     1     203.703 208.007 196.381  1.00  0.00     0.000 C 
BRANCH   4   5
ATOM      5  C   UNL     1     204.764 206.894 196.369  1.00  0.00     0.006 C 
BRANCH   5   6
ATOM      6  C   UNL     1     204.569 205.879 197.502  1.00  0.00     0.053 C 
BRANCH   6   7
ATOM      7  C   UNL     1     205.575 204.776 197.393  1.00  0.00     0.041 C 
ATOM      8  O   UNL     1     206.706 204.997 196.887  1.00  0.00    -0.550 OA
ATOM      9  O   UNL     1     205.279 203.515 197.897  1.00  0.00    -0.550 OA
ENDBRANCH   6   7
ENDBRANCH   5   6
ENDBRANCH   4   5
ENDBRANCH   3   4
ENDBRANCH   2   3
ENDBRANCH   1   2
BRANCH   1  10
ATOM     10  C   UNL     1     203.386 206.672 192.762  1.00  0.00     0.027 C 
BRANCH  10  11
ATOM     11  C   UNL     1     203.031 205.808 191.581  1.00  0.00    -0.031 C 
ATOM     12  C   UNL     1     202.511 206.328 190.459  1.00  0.00    -0.031 C 
BRANCH  12  13
ATOM     13  C   UNL     1     202.171 205.465 189.276  1.00  0.00     0.027 C 
BRANCH  13  14
ATOM     14  C   UNL     1     200.661 205.462 189.008  1.00  0.00     0.004 C 
BRANCH  14  15
ATOM     15  C   UNL     1     199.919 206.324 190.038  1.00  0.00     0.000 C 
BRANCH  15  16
ATOM     16  C   UNL     1     198.953 205.476 190.873  1.00  0.00    -0.000 C 
BRANCH  16  17
ATOM     17  C   UNL     1     199.446 205.342 192.318  1.00  0.00    -0.003 C 
ATOM     18  C   UNL     1     199.156 206.607 193.119  1.00  0.00     0.004 C 
ENDBRANCH  16  17
ENDBRANCH  15  16
ENDBRANCH  14  15
ENDBRANCH  13  14
ENDBRANCH  12  13
ENDBRANCH  10  11
ENDBRANCH   1  10
TORSDOF 13
ENDMDL
MODEL 7
REMARK VINA RESULT:    -3.451      2.740      4.990
REMARK INTER + INTRA:          -8.429
REMARK INTER:                  -6.536
REMARK INTRA:                  -1.893
REMARK UNBOUND:                -2.356
REMARK SMILES CCCCCCC=CCCCCCCCC(=O)[O-]
REMARK SMILES IDX 10 1 11 2 12 3 13 4 14 5 15 6 16 7 17 8 18 9 9 10 8 11 7 12
REMARK SMILES IDX 6 13 5 14 4 15 3 16 2 17 1 18
REMARK H PARENT
REMARK Flexibility Score: inf
ROOT
ATOM      1  C   UNL     1     214.910 203.327 194.893  1.00  0.00     0.004 C 
ENDROOT
BRANCH   1   2
ATOM      2  C   UNL     1     215.796 204.580 194.853  1.00  0.00     0.000 C 
BRANCH   2   3
ATOM      3  C   UNL     1     216.523 204.699 193.508  1.00  0.00     0.000 C 
BRANCH   3   4
ATOM      4  C   UNL     1     215.650 204.164 192.362  1.00  0.00     0.000 C 
BRANCH   4   5
ATOM      5  C   UNL     1     214.578 205.170 191.914  1.00  0.00     0.006 C 
BRANCH   5   6
ATOM      6  C   UNL     1     213.461 204.517 191.091  1.00  0.00     0.053 C 
BRANCH   6   7
ATOM      7  C   UNL     1     212.138 204.705 191.764  1.00  0.00     0.041 C 
ATOM      8  O   UNL     1     211.683 203.814 192.529  1.00  0.00    -0.550 OA
ATOM      9  O   UNL     1     211.429 205.886 191.584  1.00  0.00    -0.550 OA
ENDBRANCH   6   7
ENDBRANCH   5   6
ENDBRANCH   4   5
ENDBRANCH   3   4
ENDBRANCH   2   3
ENDBRANCH   1   2
BRANCH   1  10
ATOM     10  C   UNL     1     213.596 203.569 195.650  1.00  0.00     0.027 C 
BRANCH  10  11
ATOM     11  C   UNL     1     213.341 205.031 195.903  1.00  0.00    -0.031 C 
ATOM     12  C   UNL     1     212.227 205.637 195.465  1.00  0.00    -0.031 C 
BRANCH  12  13
ATOM     13  C   UNL     1     211.968 207.095 195.731  1.00  0.00     0.027 C 
BRANCH  13  14
ATOM     14  C   UNL     1     211.793 207.362 197.231  1.00  0.00     0.004 C 
BRANCH  14  15
ATOM     15  C   UNL     1     212.722 208.491 197.699  1.00  0.00     0.000 C 
BRANCH  15  16
ATOM     16  C   UNL     1     213.351 209.218 196.505  1.00  0.00    -0.000 C 
BRANCH  16  17
ATOM     17  C   UNL     1     214.869 209.345 196.675  1.00  0.00    -0.003 C 
ATOM     18  C   UNL     1     215.571 208.025 196.367  1.00  0.00     0.004 C 
ENDBRANCH  16  17
ENDBRANCH  15  16
ENDBRANCH  14  15
ENDBRANCH  13  14
ENDBRANCH  12  13
ENDBRANCH  10  11
ENDBRANCH   1  10
TORSDOF 13
ENDMDL
MODEL 8
REMARK VINA RESULT:    -3.392      2.122      3.448
REMARK INTER + INTRA:          -8.325
REMARK INTER:                  -6.442
REMARK INTRA:                  -1.883
REMARK UNBOUND:                -2.356
REMARK SMILES CCCCCCC=CCCCCCCCC(=O)[O-]
REMARK SMILES IDX 10 1 11 2 12 3 13 4 14 5 15 6 16 7 17 8 18 9 9 10 8 11 7 12
REMARK SMILES IDX 6 13 5 14 4 15 3 16 2 17 1 18
REMARK H PARENT
REMARK Flexibility Score: inf
ROOT
ATOM      1  C   UNL     1     216.709 205.022 195.645  1.00  0.00     0.004 C 
ENDROOT
BRANCH   1   2
ATOM      2  C   UNL     1     217.049 206.458 195.222  1.00  0.00     0.000 C 
BRANCH   2   3
ATOM      3  C   UNL     1     216.476 207.476 196.217  1.00  0.00     0.000 C 
BRANCH   3   4
ATOM      4  C   UNL     1     215.113 208.001 195.742  1.00  0.00     0.000 C 
BRANCH   4   5
ATOM      5  C   UNL     1     214.065 208.029 196.866  1.00  0.00     0.006 C 
BRANCH   5   6
ATOM      6  C   UNL     1     212.627 207.977 196.335  1.00  0.00     0.053 C 
BRANCH   6   7
ATOM      7  C   UNL     1     211.663 207.749 197.457  1.00  0.00     0.041 C 
ATOM      8  O   UNL     1     210.626 207.061 197.271  1.00  0.00    -0.550 OA
ATOM      9  O   UNL     1     211.936 208.257 198.720  1.00  0.00    -0.550 OA
ENDBRANCH   6   7
ENDBRANCH   5   6
ENDBRANCH   4   5
ENDBRANCH   3   4
ENDBRANCH   2   3
ENDBRANCH   1   2
BRANCH   1  10
ATOM     10  C   UNL     1     215.811 204.313 194.621  1.00  0.00     0.027 C 
BRANCH  10  11
ATOM     11  C   UNL     1     214.544 203.784 195.238  1.00  0.00    -0.031 C 
ATOM     12  C   UNL     1     213.513 204.590 195.530  1.00  0.00    -0.031 C 
BRANCH  12  13
ATOM     13  C   UNL     1     212.243 204.057 196.134  1.00  0.00     0.027 C 
BRANCH  13  14
ATOM     14  C   UNL     1     211.074 204.157 195.145  1.00  0.00     0.004 C 
BRANCH  14  15
ATOM     15  C   UNL     1     211.450 205.025 193.937  1.00  0.00     0.000 C 
BRANCH  15  16
ATOM     16  C   UNL     1     211.602 204.174 192.672  1.00  0.00    -0.000 C 
BRANCH  16  17
ATOM     17  C   UNL     1     212.379 204.931 191.590  1.00  0.00    -0.003 C 
ATOM     18  C   UNL     1     213.771 204.336 191.392  1.00  0.00     0.004 C 
ENDBRANCH  16  17
ENDBRANCH  15  16
ENDBRANCH  14  15
ENDBRANCH  13  14
ENDBRANCH  12  13
ENDBRANCH  10  11
ENDBRANCH   1  10
TORSDOF 13
ENDMDL
