MODEL 1
REMARK VINA RESULT:    -4.966      0.000      0.000
REMARK INTER + INTRA:          -9.021
REMARK INTER:                  -8.451
REMARK INTRA:                  -0.571
REMARK UNBOUND:                -0.571
REMARK SMILES CCCCCCCCCCCCCC(=O)[O-]
REMARK SMILES IDX 8 1 9 2 10 3 11 4 12 5 13 6 14 7 15 8 16 9 7 10 6 11 5 12
REMARK SMILES IDX 4 13 3 14 2 15 1 16
REMARK H PARENT
REMARK Flexibility Score: inf
ROOT
ATOM      1  C   UNL     1      -2.844   9.023  -3.337  1.00  0.00     0.000 C 
ENDROOT
BRANCH   1   2
ATOM      2  C   UNL     1      -4.074   9.947  -3.348  1.00  0.00     0.000 C 
BRANCH   2   3
ATOM      3  C   UNL     1      -4.870   9.852  -4.660  1.00  0.00     0.000 C 
BRANCH   3   4
ATOM      4  C   UNL     1      -6.010   8.822  -4.590  1.00  0.00     0.000 C 
BRANCH   4   5
ATOM      5  C   UNL     1      -5.793   7.618  -5.526  1.00  0.00     0.006 C 
BRANCH   5   6
ATOM      6  C   UNL     1      -6.701   6.415  -5.214  1.00  0.00     0.053 C 
BRANCH   6   7
ATOM      7  C   UNL     1      -7.286   5.801  -6.449  1.00  0.00     0.041 C 
ATOM      8  O   UNL     1      -6.557   5.577  -7.451  1.00  0.00    -0.550 OA
ATOM      9  O   UNL     1      -8.627   5.441  -6.483  1.00  0.00    -0.550 OA
ENDBRANCH   6   7
ENDBRANCH   5   6
ENDBRANCH   4   5
ENDBRANCH   3   4
ENDBRANCH   2   3
ENDBRANCH   1   2
BRANCH   1  10
ATOM     10  C   UNL     1      -1.686   9.575  -4.185  1.00  0.00     0.000 C 
BRANCH  10  11
ATOM     11  C   UNL     1      -1.317   8.650  -5.358  1.00  0.00    -0.000 C 
BRANCH  11  12
ATOM     12  C   UNL     1      -0.234   9.253  -6.271  1.00  0.00    -0.000 C 
BRANCH  12  13
ATOM     13  C   UNL     1       0.891   8.280  -6.677  1.00  0.00    -0.000 C 
BRANCH  13  14
ATOM     14  C   UNL     1       1.646   8.656  -7.965  1.00  0.00    -0.000 C 
BRANCH  14  15
ATOM     15  C   UNL     1       2.755   7.655  -8.319  1.00  0.00    -0.003 C 
ATOM     16  C   UNL     1       3.051   6.727  -7.145  1.00  0.00     0.004 C 
ENDBRANCH  14  15
ENDBRANCH  13  14
ENDBRANCH  12  13
ENDBRANCH  11  12
ENDBRANCH  10  11
ENDBRANCH   1  10
TORSDOF 12
ENDMDL
MODEL 2
REMARK VINA RESULT:    -4.930      1.447      1.841
REMARK INTER + INTRA:          -8.959
REMARK INTER:                  -7.780
REMARK INTRA:                  -1.179
REMARK UNBOUND:                -0.571
REMARK SMILES CCCCCCCCCCCCCC(=O)[O-]
REMARK SMILES IDX 8 1 9 2 10 3 11 4 12 5 13 6 14 7 15 8 16 9 7 10 6 11 5 12
REMARK SMILES IDX 4 13 3 14 2 15 1 16
REMARK H PARENT
REMARK Flexibility Score: inf
ROOT
ATOM      1  C   UNL     1      -2.947   9.045  -3.385  1.00  0.00     0.000 C 
ENDROOT
BRANCH   1   2
ATOM      2  C   UNL     1      -4.208   9.911  -3.553  1.00  0.00     0.000 C 
BRANCH   2   3
ATOM      3  C   UNL     1      -5.140   9.387  -4.658  1.00  0.00     0.000 C 
BRANCH   3   4
ATOM      4  C   UNL     1      -4.857   7.920  -5.028  1.00  0.00     0.000 C 
BRANCH   4   5
ATOM      5  C   UNL     1      -4.394   7.745  -6.486  1.00  0.00     0.006 C 
BRANCH   5   6
ATOM      6  C   UNL     1      -3.793   6.361  -6.786  1.00  0.00     0.053 C 
BRANCH   6   7
ATOM      7  C   UNL     1      -4.601   5.587  -7.783  1.00  0.00     0.041 C 
ATOM      8  O   UNL     1      -4.027   4.923  -8.685  1.00  0.00    -0.550 OA
ATOM      9  O   UNL     1      -5.988   5.570  -7.696  1.00  0.00    -0.550 OA
ENDBRANCH   6   7
ENDBRANCH   5   6
ENDBRANCH   4   5
ENDBRANCH   3   4
ENDBRANCH   2   3
ENDBRANCH   1   2
BRANCH   1  10
ATOM     10  C   UNL     1      -1.729   9.634  -4.115  1.00  0.00     0.000 C 
BRANCH  10  11
ATOM     11  C   UNL     1      -1.080   8.632  -5.087  1.00  0.00    -0.000 C 
BRANCH  11  12
ATOM     12  C   UNL     1      -0.982   9.175  -6.523  1.00  0.00    -0.000 C 
BRANCH  12  13
ATOM     13  C   UNL     1       0.439   9.182  -7.122  1.00  0.00    -0.000 C 
BRANCH  13  14
ATOM     14  C   UNL     1       1.325   7.991  -6.714  1.00  0.00    -0.000 C 
BRANCH  14  15
ATOM     15  C   UNL     1       2.436   7.698  -7.733  1.00  0.00    -0.003 C 
ATOM     16  C   UNL     1       2.401   8.699  -8.884  1.00  0.00     0.004 C 
ENDBRANCH  14  15
ENDBRANCH  13  14
ENDBRANCH  12  13
ENDBRANCH  11  12
ENDBRANCH  10  11
ENDBRANCH   1  10
TORSDOF 12
ENDMDL
MODEL 3
REMARK VINA RESULT:    -4.917      1.252      1.984
REMARK INTER + INTRA:          -8.937
REMARK INTER:                  -8.414
REMARK INTRA:                  -0.523
REMARK UNBOUND:                -0.571
REMARK SMILES CCCCCCCCCCCCCC(=O)[O-]
REMARK SMILES IDX 8 1 9 2 10 3 11 4 12 5 13 6 14 7 15 8 16 9 7 10 6 11 5 12
REMARK SMILES IDX 4 13 3 14 2 15 1 16
REMARK H PARENT
REMARK Flexibility Score: inf
ROOT
ATOM      1  C   UNL     1      -1.839   9.485  -4.308  1.00  0.00     0.000 C 
ENDROOT
BRANCH   1   2
ATOM      2  C   UNL     1      -2.988   9.071  -3.373  1.00  0.00     0.000 C 
BRANCH   2   3
ATOM      3  C   UNL     1      -4.147  10.082  -3.379  1.00  0.00     0.000 C 
BRANCH   3   4
ATOM      4  C   UNL     1      -5.060   9.931  -4.608  1.00  0.00     0.000 C 
BRANCH   4   5
ATOM      5  C   UNL     1      -5.953   8.679  -4.545  1.00  0.00     0.006 C 
BRANCH   5   6
ATOM      6  C   UNL     1      -7.201   8.759  -5.443  1.00  0.00     0.053 C 
BRANCH   6   7
ATOM      7  C   UNL     1      -8.206   7.694  -5.126  1.00  0.00     0.041 C 
ATOM      8  O   UNL     1      -9.262   7.984  -4.505  1.00  0.00    -0.550 OA
ATOM      9  O   UNL     1      -7.996   6.386  -5.547  1.00  0.00    -0.550 OA
ENDBRANCH   6   7
ENDBRANCH   5   6
ENDBRANCH   4   5
ENDBRANCH   3   4
ENDBRANCH   2   3
ENDBRANCH   1   2
BRANCH   1  10
ATOM     10  C   UNL     1      -1.596   8.463  -5.430  1.00  0.00     0.000 C 
BRANCH  10  11
ATOM     11  C   UNL     1      -0.104   8.305  -5.774  1.00  0.00    -0.000 C 
BRANCH  11  12
ATOM     12  C   UNL     1       0.309   9.118  -7.013  1.00  0.00    -0.000 C 
BRANCH  12  13
ATOM     13  C   UNL     1       1.524   8.562  -7.782  1.00  0.00    -0.000 C 
BRANCH  13  14
ATOM     14  C   UNL     1       2.242   7.381  -7.104  1.00  0.00    -0.000 C 
BRANCH  14  15
ATOM     15  C   UNL     1       3.433   6.860  -7.920  1.00  0.00    -0.003 C 
ATOM     16  C   UNL     1       3.723   7.770  -9.109  1.00  0.00     0.004 C 
ENDBRANCH  14  15
ENDBRANCH  13  14
ENDBRANCH  12  13
ENDBRANCH  11  12
ENDBRANCH  10  11
ENDBRANCH   1  10
TORSDOF 12
ENDMDL
MODEL 4
REMARK VINA RESULT:    -4.875      1.219      1.596
REMARK INTER + INTRA:          -8.865
REMARK INTER:                  -8.139
REMARK INTRA:                  -0.726
REMARK UNBOUND:                -0.571
REMARK SMILES CCCCCCCCCCCCCC(=O)[O-]
REMARK SMILES IDX 8 1 9 2 10 3 11 4 12 5 13 6 14 7 15 8 16 9 7 10 6 11 5 12
REMARK SMILES IDX 4 13 3 14 2 15 1 16
REMARK H PARENT
REMARK Flexibility Score: inf
ROOT
ATOM      1  C   UNL     1      -2.338   8.621  -4.509  1.00  0.00     0.000 C 
ENDROOT
BRANCH   1   2
ATOM      2  C   UNL     1      -2.649   9.561  -3.331  1.00  0.00     0.000 C 
BRANCH   2   3
ATOM      3  C   UNL     1      -4.129   9.978  -3.285  1.00  0.00     0.000 C 
BRANCH   3   4
ATOM      4  C   UNL     1      -4.771  10.044  -4.681  1.00  0.00     0.000 C 
BRANCH   4   5
ATOM      5  C   UNL     1      -5.935   9.051  -4.856  1.00  0.00     0.006 C 
BRANCH   5   6
ATOM      6  C   UNL     1      -5.778   8.116  -6.068  1.00  0.00     0.053 C 
BRANCH   6   7
ATOM      7  C   UNL     1      -5.614   6.681  -5.670  1.00  0.00     0.041 C 
ATOM      8  O   UNL     1      -4.601   6.033  -6.041  1.00  0.00    -0.550 OA
ATOM      9  O   UNL     1      -6.561   6.068  -4.860  1.00  0.00    -0.550 OA
ENDBRANCH   6   7
ENDBRANCH   5   6
ENDBRANCH   4   5
ENDBRANCH   3   4
ENDBRANCH   2   3
ENDBRANCH   1   2
BRANCH   1  10
ATOM     10  C   UNL     1      -0.870   8.703  -4.955  1.00  0.00     0.000 C 
BRANCH  10  11
ATOM     11  C   UNL     1      -0.630   9.803  -6.004  1.00  0.00    -0.000 C 
BRANCH  11  12
ATOM     12  C   UNL     1      -0.015   9.259  -7.306  1.00  0.00    -0.000 C 
BRANCH  12  13
ATOM     13  C   UNL     1       1.298   8.471  -7.127  1.00  0.00    -0.000 C 
BRANCH  13  14
ATOM     14  C   UNL     1       2.183   8.382  -8.384  1.00  0.00    -0.000 C 
BRANCH  14  15
ATOM     15  C   UNL     1       3.288   7.323  -8.260  1.00  0.00    -0.003 C 
ATOM     16  C   UNL     1       3.054   6.424  -7.050  1.00  0.00     0.004 C 
ENDBRANCH  14  15
ENDBRANCH  13  14
ENDBRANCH  12  13
ENDBRANCH  11  12
ENDBRANCH  10  11
ENDBRANCH   1  10
TORSDOF 12
ENDMDL
MODEL 5
REMARK VINA RESULT:    -4.857      3.892      7.471
REMARK INTER + INTRA:          -8.835
REMARK INTER:                  -7.951
REMARK INTRA:                  -0.884
REMARK UNBOUND:                -0.571
REMARK SMILES CCCCCCCCCCCCCC(=O)[O-]
REMARK SMILES IDX 8 1 9 2 10 3 11 4 12 5 13 6 14 7 15 8 16 9 7 10 6 11 5 12
REMARK SMILES IDX 4 13 3 14 2 15 1 16
REMARK H PARENT
REMARK Flexibility Score: inf
ROOT
ATOM      1  C   UNL     1      -2.562   8.879  -4.804  1.00  0.00     0.000 C 
ENDROOT
BRANCH   1   2
ATOM      2  C   UNL     1      -1.027   8.784  -4.840  1.00  0.00     0.000 C 
BRANCH   2   3
ATOM      3  C   UNL     1      -0.391   9.861  -5.734  1.00  0.00     0.000 C 
BRANCH   3   4
ATOM      4  C   UNL     1       0.073   9.308  -7.092  1.00  0.00     0.000 C 
BRANCH   4   5
ATOM      5  C   UNL     1       1.199   8.265  -6.966  1.00  0.00     0.006 C 
BRANCH   5   6
ATOM      6  C   UNL     1       2.232   8.322  -8.105  1.00  0.00     0.053 C 
BRANCH   6   7
ATOM      7  C   UNL     1       3.213   7.192  -8.049  1.00  0.00     0.041 C 
ATOM      8  O   UNL     1       4.189   7.160  -8.843  1.00  0.00    -0.550 OA
ATOM      9  O   UNL     1       3.073   6.191  -7.095  1.00  0.00    -0.550 OA
ENDBRANCH   6   7
ENDBRANCH   5   6
ENDBRANCH   4   5
ENDBRANCH   3   4
ENDBRANCH   2   3
ENDBRANCH   1   2
BRANCH   1  10
ATOM     10  C   UNL     1      -3.093   9.299  -3.424  1.00  0.00     0.000 C 
BRANCH  10  11
ATOM     11  C   UNL     1      -4.530   9.849  -3.485  1.00  0.00    -0.000 C 
BRANCH  11  12
ATOM     12  C   UNL     1      -5.243   9.504  -4.804  1.00  0.00    -0.000 C 
BRANCH  12  13
ATOM     13  C   UNL     1      -6.445   8.550  -4.665  1.00  0.00    -0.000 C 
BRANCH  13  14
ATOM     14  C   UNL     1      -6.235   7.144  -5.255  1.00  0.00    -0.000 C 
BRANCH  14  15
ATOM     15  C   UNL     1      -5.322   7.147  -6.490  1.00  0.00    -0.003 C 
ATOM     16  C   UNL     1      -4.223   6.097  -6.363  1.00  0.00     0.004 C 
ENDBRANCH  14  15
ENDBRANCH  13  14
ENDBRANCH  12  13
ENDBRANCH  11  12
ENDBRANCH  10  11
ENDBRANCH   1  10
TORSDOF 12
ENDMDL
MODEL 6
REMARK VINA RESULT:    -4.692      3.884      7.657
REMARK INTER + INTRA:          -8.555
REMARK INTER:                  -7.525
REMARK INTRA:                  -1.030
REMARK UNBOUND:                -0.571
REMARK SMILES CCCCCCCCCCCCCC(=O)[O-]
REMARK SMILES IDX 8 1 9 2 10 3 11 4 12 5 13 6 14 7 15 8 16 9 7 10 6 11 5 12
REMARK SMILES IDX 4 13 3 14 2 15 1 16
REMARK H PARENT
REMARK Flexibility Score: inf
ROOT
ATOM      1  C   UNL     1      -1.551   8.256  -6.059  1.00  0.00     0.000 C 
ENDROOT
BRANCH   1   2
ATOM      2  C   UNL     1      -1.418   9.365  -7.119  1.00  0.00     0.000 C 
BRANCH   2   3
ATOM      3  C   UNL     1      -0.035  10.036  -7.099  1.00  0.00     0.000 C 
BRANCH   3   4
ATOM      4  C   UNL     1       0.606  10.117  -8.495  1.00  0.00     0.000 C 
BRANCH   4   5
ATOM      5  C   UNL     1       1.486   8.898  -8.826  1.00  0.00     0.006 C 
BRANCH   5   6
ATOM      6  C   UNL     1       1.964   8.120  -7.587  1.00  0.00     0.053 C 
BRANCH   6   7
ATOM      7  C   UNL     1       3.050   7.139  -7.908  1.00  0.00     0.041 C 
ATOM      8  O   UNL     1       3.003   5.969  -7.446  1.00  0.00    -0.550 OA
ATOM      9  O   UNL     1       4.096   7.503  -8.746  1.00  0.00    -0.550 OA
ENDBRANCH   6   7
ENDBRANCH   5   6
ENDBRANCH   4   5
ENDBRANCH   3   4
ENDBRANCH   2   3
ENDBRANCH   1   2
BRANCH   1  10
ATOM     10  C   UNL     1      -0.925   8.652  -4.713  1.00  0.00     0.000 C 
BRANCH  10  11
ATOM     11  C   UNL     1      -1.796   9.645  -3.923  1.00  0.00    -0.000 C 
BRANCH  11  12
ATOM     12  C   UNL     1      -3.089   9.005  -3.387  1.00  0.00    -0.000 C 
BRANCH  12  13
ATOM     13  C   UNL     1      -4.370   9.829  -3.622  1.00  0.00    -0.000 C 
BRANCH  13  14
ATOM     14  C   UNL     1      -5.073   9.573  -4.968  1.00  0.00    -0.000 C 
BRANCH  14  15
ATOM     15  C   UNL     1      -6.269   8.618  -4.843  1.00  0.00    -0.003 C 
ATOM     16  C   UNL     1      -5.885   7.202  -5.259  1.00  0.00     0.004 C 
ENDBRANCH  14  15
ENDBRANCH  13  14
ENDBRANCH  12  13
ENDBRANCH  11  12
ENDBRANCH  10  11
ENDBRANCH   1  10
TORSDOF 12
ENDMDL
MODEL 7
REMARK VINA RESULT:    -4.593      1.658      2.834
REMARK INTER + INTRA:          -8.386
REMARK INTER:                  -7.087
REMARK INTRA:                  -1.299
REMARK UNBOUND:                -0.571
REMARK SMILES CCCCCCCCCCCCCC(=O)[O-]
REMARK SMILES IDX 8 1 9 2 10 3 11 4 12 5 13 6 14 7 15 8 16 9 7 10 6 11 5 12
REMARK SMILES IDX 4 13 3 14 2 15 1 16
REMARK H PARENT
REMARK Flexibility Score: inf
ROOT
ATOM      1  C   UNL     1      -4.520  10.125  -4.714  1.00  0.00     0.000 C 
ENDROOT
BRANCH   1   2
ATOM      2  C   UNL     1      -5.796   9.280  -4.876  1.00  0.00     0.000 C 
BRANCH   2   3
ATOM      3  C   UNL     1      -5.708   8.303  -6.060  1.00  0.00     0.000 C 
BRANCH   3   4
ATOM      4  C   UNL     1      -4.809   8.823  -7.194  1.00  0.00     0.000 C 
BRANCH   4   5
ATOM      5  C   UNL     1      -3.751   7.798  -7.643  1.00  0.00     0.006 C 
BRANCH   5   6
ATOM      6  C   UNL     1      -4.029   6.364  -7.158  1.00  0.00     0.053 C 
BRANCH   6   7
ATOM      7  C   UNL     1      -4.709   5.527  -8.199  1.00  0.00     0.041 C 
ATOM      8  O   UNL     1      -5.964   5.438  -8.219  1.00  0.00    -0.550 OA
ATOM      9  O   UNL     1      -3.959   4.874  -9.170  1.00  0.00    -0.550 OA
ENDBRANCH   6   7
ENDBRANCH   5   6
ENDBRANCH   4   5
ENDBRANCH   3   4
ENDBRANCH   2   3
ENDBRANCH   1   2
BRANCH   1  10
ATOM     10  C   UNL     1      -3.902   9.994  -3.312  1.00  0.00     0.000 C 
BRANCH  10  11
ATOM     11  C   UNL     1      -2.691   9.045  -3.285  1.00  0.00    -0.000 C 
BRANCH  11  12
ATOM     12  C   UNL     1      -1.596   9.451  -4.288  1.00  0.00    -0.000 C 
BRANCH  12  13
ATOM     13  C   UNL     1      -1.193   8.353  -5.293  1.00  0.00    -0.000 C 
BRANCH  13  14
ATOM     14  C   UNL     1      -0.469   8.857  -6.555  1.00  0.00    -0.000 C 
BRANCH  14  15
ATOM     15  C   UNL     1       0.967   8.325  -6.669  1.00  0.00    -0.003 C 
ATOM     16  C   UNL     1       1.571   8.664  -8.028  1.00  0.00     0.004 C 
ENDBRANCH  14  15
ENDBRANCH  13  14
ENDBRANCH  12  13
ENDBRANCH  11  12
ENDBRANCH  10  11
ENDBRANCH   1  10
TORSDOF 12
ENDMDL
MODEL 8
REMARK VINA RESULT:    -4.402      3.489      7.596
REMARK INTER + INTRA:          -8.060
REMARK INTER:                  -6.433
REMARK INTRA:                  -1.627
REMARK UNBOUND:                -0.571
REMARK SMILES CCCCCCCCCCCCCC(=O)[O-]
REMARK SMILES IDX 8 1 9 2 10 3 11 4 12 5 13 6 14 7 15 8 16 9 7 10 6 11 5 12
REMARK SMILES IDX 4 13 3 14 2 15 1 16
REMARK H PARENT
REMARK Flexibility Score: inf
ROOT
ATOM      1  C   UNL     1      -5.898   6.913  -6.100  1.00  0.00     0.000 C 
ENDROOT
BRANCH   1   2
ATOM      2  C   UNL     1      -4.910   7.980  -5.597  1.00  0.00     0.000 C 
BRANCH   2   3
ATOM      3  C   UNL     1      -5.572   8.999  -4.656  1.00  0.00     0.000 C 
BRANCH   3   4
ATOM      4  C   UNL     1      -4.549   9.881  -3.920  1.00  0.00     0.000 C 
BRANCH   4   5
ATOM      5  C   UNL     1      -3.346   9.085  -3.380  1.00  0.00     0.006 C 
BRANCH   5   6
ATOM      6  C   UNL     1      -1.981   9.668  -3.787  1.00  0.00     0.053 C 
BRANCH   6   7
ATOM      7  C   UNL     1      -1.369   8.942  -4.946  1.00  0.00     0.041 C 
ATOM      8  O   UNL     1      -1.707   9.230  -6.124  1.00  0.00    -0.550 OA
ATOM      9  O   UNL     1      -0.398   7.972  -4.729  1.00  0.00    -0.550 OA
ENDBRANCH   6   7
ENDBRANCH   5   6
ENDBRANCH   4   5
ENDBRANCH   3   4
ENDBRANCH   2   3
ENDBRANCH   1   2
BRANCH   1  10
ATOM     10  C   UNL     1      -6.850   6.425  -4.995  1.00  0.00     0.000 C 
BRANCH  10  11
ATOM     11  C   UNL     1      -8.074   5.680  -5.555  1.00  0.00    -0.000 C 
BRANCH  11  12
ATOM     12  C   UNL     1      -9.261   6.617  -5.842  1.00  0.00    -0.000 C 
BRANCH  12  13
ATOM     13  C   UNL     1      -9.311   7.889  -4.972  1.00  0.00    -0.000 C 
BRANCH  13  14
ATOM     14  C   UNL     1      -9.144   9.212  -5.741  1.00  0.00    -0.000 C 
BRANCH  14  15
ATOM     15  C   UNL     1      -9.036   9.009  -7.259  1.00  0.00    -0.003 C 
ATOM     16  C   UNL     1      -7.745   9.613  -7.803  1.00  0.00     0.004 C 
ENDBRANCH  14  15
ENDBRANCH  13  14
ENDBRANCH  12  13
ENDBRANCH  11  12
ENDBRANCH  10  11
ENDBRANCH   1  10
TORSDOF 12
ENDMDL
MODEL 9
REMARK VINA RESULT:    -4.343      3.742      7.308
REMARK INTER + INTRA:          -7.960
REMARK INTER:                  -6.534
REMARK INTRA:                  -1.426
REMARK UNBOUND:                -0.571
REMARK SMILES CCCCCCCCCCCCCC(=O)[O-]
REMARK SMILES IDX 8 1 9 2 10 3 11 4 12 5 13 6 14 7 15 8 16 9 7 10 6 11 5 12
REMARK SMILES IDX 4 13 3 14 2 15 1 16
REMARK H PARENT
REMARK Flexibility Score: inf
ROOT
ATOM      1  C   UNL     1      -4.662   6.141  -6.786  1.00  0.00     0.000 C 
ENDROOT
BRANCH   1   2
ATOM      2  C   UNL     1      -3.658   7.239  -7.181  1.00  0.00     0.000 C 
BRANCH   2   3
ATOM      3  C   UNL     1      -2.699   7.600  -6.035  1.00  0.00     0.000 C 
BRANCH   3   4
ATOM      4  C   UNL     1      -2.020   8.966  -6.236  1.00  0.00     0.000 C 
BRANCH   4   5
ATOM      5  C   UNL     1      -0.964   8.955  -7.356  1.00  0.00     0.006 C 
BRANCH   5   6
ATOM      6  C   UNL     1       0.457   9.300  -6.876  1.00  0.00     0.053 C 
BRANCH   6   7
ATOM      7  C   UNL     1       1.518   8.614  -7.681  1.00  0.00     0.041 C 
ATOM      8  O   UNL     1       2.070   7.571  -7.242  1.00  0.00    -0.550 OA
ATOM      9  O   UNL     1       1.874   9.104  -8.931  1.00  0.00    -0.550 OA
ENDBRANCH   6   7
ENDBRANCH   5   6
ENDBRANCH   4   5
ENDBRANCH   3   4
ENDBRANCH   2   3
ENDBRANCH   1   2
BRANCH   1  10
ATOM     10  C   UNL     1      -5.267   6.371  -5.391  1.00  0.00     0.000 C 
BRANCH  10  11
ATOM     11  C   UNL     1      -6.790   6.588  -5.435  1.00  0.00    -0.000 C 
BRANCH  11  12
ATOM     12  C   UNL     1      -7.204   7.991  -4.957  1.00  0.00    -0.000 C 
BRANCH  12  13
ATOM     13  C   UNL     1      -6.682   9.155  -5.823  1.00  0.00    -0.000 C 
BRANCH  13  14
ATOM     14  C   UNL     1      -5.521   9.957  -5.207  1.00  0.00    -0.000 C 
BRANCH  14  15
ATOM     15  C   UNL     1      -5.222   9.553  -3.757  1.00  0.00    -0.003 C 
ATOM     16  C   UNL     1      -3.885  10.123  -3.294  1.00  0.00     0.004 C 
ENDBRANCH  14  15
ENDBRANCH  13  14
ENDBRANCH  12  13
ENDBRANCH  11  12
ENDBRANCH  10  11
ENDBRANCH   1  10
TORSDOF 12
ENDMDL
