MODEL 1
REMARK VINA RESULT:    -5.563      0.000      0.000
REMARK INTER + INTRA:          -6.306
REMARK INTER:                  -6.050
REMARK INTRA:                  -0.255
REMARK UNBOUND:                -0.255
REMARK SMILES CC1=C2C[C@H](C(C)(C)O)CC[C@]2(C)CCC1
REMARK SMILES IDX 6 1 7 2 8 3 5 4 1 5 2 6 3 7 16 8 4 9 12 10 15 11 11 12 14 13
REMARK SMILES IDX 13 14 10 15 9 16
REMARK H PARENT 9 17
REMARK Flexibility Score: inf
ROOT
ATOM      1  C   UNL     1     136.710 144.145 143.052  1.00  0.00     0.062 C 
ATOM      2  C   UNL     1     136.137 143.400 141.825  1.00  0.00     0.042 C 
ATOM      3  C   UNL     1     135.535 144.625 143.930  1.00  0.00     0.042 C 
ENDROOT
BRANCH   1   4
ATOM      4  C   UNL     1     137.723 143.228 143.838  1.00  0.00     0.024 C 
ATOM      5  C   UNL     1     137.416 143.158 148.223  1.00  0.00     0.039 C 
ATOM      6  C   UNL     1     138.325 142.217 147.462  1.00  0.00    -0.074 C 
ATOM      7  C   UNL     1     138.324 142.178 146.093  1.00  0.00    -0.065 C 
ATOM      8  C   UNL     1     139.110 141.231 148.314  1.00  0.00     0.031 C 
ATOM      9  C   UNL     1     137.296 142.984 145.302  1.00  0.00     0.038 C 
ATOM     10  C   UNL     1     139.246 141.219 145.326  1.00  0.00    -0.011 C 
ATOM     11  C   UNL     1     140.082 140.330 147.550  1.00  0.00     0.005 C 
ATOM     12  C   UNL     1     138.538 140.760 144.025  1.00  0.00     0.011 C 
ATOM     13  C   UNL     1     139.522 139.957 146.181  1.00  0.00     0.011 C 
ATOM     14  C   UNL     1     140.591 141.916 144.987  1.00  0.00     0.016 C 
ATOM     15  C   UNL     1     138.086 141.908 143.100  1.00  0.00     0.008 C 
ENDBRANCH   1   4
BRANCH   1  16
ATOM     16  O   UNL     1     137.380 145.300 142.598  1.00  0.00    -0.390 OA
ATOM     17  H   UNL     1     137.032 146.080 143.105  1.00  0.00     0.211 HD
ENDBRANCH   1  16
TORSDOF 2
ENDMDL
MODEL 2
REMARK VINA RESULT:    -5.203      2.189      4.807
REMARK INTER + INTRA:          -5.915
REMARK INTER:                  -5.686
REMARK INTRA:                  -0.229
REMARK UNBOUND:                -0.255
REMARK SMILES CC1=C2C[C@H](C(C)(C)O)CC[C@]2(C)CCC1
REMARK SMILES IDX 6 1 7 2 8 3 5 4 1 5 2 6 3 7 16 8 4 9 12 10 15 11 11 12 14 13
REMARK SMILES IDX 13 14 10 15 9 16
REMARK H PARENT 9 17
REMARK Flexibility Score: inf
ROOT
ATOM      1  C   UNL     1     138.773 142.539 147.831  1.00  0.00     0.062 C 
ATOM      2  C   UNL     1     139.747 143.723 148.013  1.00  0.00     0.042 C 
ATOM      3  C   UNL     1     137.361 142.991 148.264  1.00  0.00     0.042 C 
ENDROOT
BRANCH   1   4
ATOM      4  C   UNL     1     138.813 142.005 146.349  1.00  0.00     0.024 C 
ATOM      5  C   UNL     1     136.352 144.099 143.368  1.00  0.00     0.039 C 
ATOM      6  C   UNL     1     137.343 143.021 142.984  1.00  0.00    -0.074 C 
ATOM      7  C   UNL     1     138.180 142.460 143.912  1.00  0.00    -0.065 C 
ATOM      8  C   UNL     1     137.447 142.726 141.495  1.00  0.00     0.031 C 
ATOM      9  C   UNL     1     138.232 143.013 145.334  1.00  0.00     0.038 C 
ATOM     10  C   UNL     1     139.185 141.370 143.516  1.00  0.00    -0.011 C 
ATOM     11  C   UNL     1     138.395 141.588 141.115  1.00  0.00     0.005 C 
ATOM     12  C   UNL     1     140.458 141.505 144.391  1.00  0.00     0.011 C 
ATOM     13  C   UNL     1     139.610 141.555 142.037  1.00  0.00     0.011 C 
ATOM     14  C   UNL     1     138.558 139.961 143.698  1.00  0.00     0.016 C 
ATOM     15  C   UNL     1     140.202 141.458 145.911  1.00  0.00     0.008 C 
ENDBRANCH   1   4
BRANCH   1  16
ATOM     16  O   UNL     1     139.158 141.506 148.711  1.00  0.00    -0.390 OA
ATOM     17  H   UNL     1     138.865 140.641 148.322  1.00  0.00     0.211 HD
ENDBRANCH   1  16
TORSDOF 2
ENDMDL
MODEL 3
REMARK VINA RESULT:    -5.094      8.898     10.274
REMARK INTER + INTRA:          -5.796
REMARK INTER:                  -5.541
REMARK INTRA:                  -0.255
REMARK UNBOUND:                -0.255
REMARK SMILES CC1=C2C[C@H](C(C)(C)O)CC[C@]2(C)CCC1
REMARK SMILES IDX 6 1 7 2 8 3 5 4 1 5 2 6 3 7 16 8 4 9 12 10 15 11 11 12 14 13
REMARK SMILES IDX 13 14 10 15 9 16
REMARK H PARENT 9 17
REMARK Flexibility Score: inf
ROOT
ATOM      1  C   UNL     1     136.217 135.531 146.920  1.00  0.00     0.062 C 
ATOM      2  C   UNL     1     136.434 134.903 145.526  1.00  0.00     0.042 C 
ATOM      3  C   UNL     1     135.008 136.488 146.847  1.00  0.00     0.042 C 
ENDROOT
BRANCH   1   4
ATOM      4  C   UNL     1     136.042 134.412 148.016  1.00  0.00     0.024 C 
ATOM      5  C   UNL     1     132.875 134.979 151.012  1.00  0.00     0.039 C 
ATOM      6  C   UNL     1     133.661 133.691 150.902  1.00  0.00    -0.074 C 
ATOM      7  C   UNL     1     134.565 133.492 149.892  1.00  0.00    -0.065 C 
ATOM      8  C   UNL     1     133.267 132.597 151.883  1.00  0.00     0.031 C 
ATOM      9  C   UNL     1     134.696 134.514 148.765  1.00  0.00     0.038 C 
ATOM     10  C   UNL     1     135.357 132.182 149.784  1.00  0.00    -0.011 C 
ATOM     11  C   UNL     1     134.111 131.322 151.820  1.00  0.00     0.005 C 
ATOM     12  C   UNL     1     135.607 131.857 148.288  1.00  0.00     0.011 C 
ATOM     13  C   UNL     1     134.533 131.016 150.386  1.00  0.00     0.011 C 
ATOM     14  C   UNL     1     136.708 132.300 150.539  1.00  0.00     0.016 C 
ATOM     15  C   UNL     1     136.323 132.972 147.499  1.00  0.00     0.008 C 
ENDBRANCH   1   4
BRANCH   1  16
ATOM     16  O   UNL     1     137.344 136.320 147.233  1.00  0.00    -0.390 OA
ATOM     17  H   UNL     1     137.777 136.594 146.383  1.00  0.00     0.211 HD
ENDBRANCH   1  16
TORSDOF 2
ENDMDL
MODEL 4
REMARK VINA RESULT:    -4.927      8.159     10.496
REMARK INTER + INTRA:          -5.614
REMARK INTER:                  -5.360
REMARK INTRA:                  -0.254
REMARK UNBOUND:                -0.255
REMARK SMILES CC1=C2C[C@H](C(C)(C)O)CC[C@]2(C)CCC1
REMARK SMILES IDX 6 1 7 2 8 3 5 4 1 5 2 6 3 7 16 8 4 9 12 10 15 11 11 12 14 13
REMARK SMILES IDX 13 14 10 15 9 16
REMARK H PARENT 9 17
REMARK Flexibility Score: inf
ROOT
ATOM      1  C   UNL     1     146.671 139.459 145.425  1.00  0.00     0.062 C 
ATOM      2  C   UNL     1     147.222 139.038 144.044  1.00  0.00     0.042 C 
ATOM      3  C   UNL     1     145.132 139.547 145.336  1.00  0.00     0.042 C 
ENDROOT
BRANCH   1   4
ATOM      4  C   UNL     1     147.159 138.465 146.547  1.00  0.00     0.024 C 
ATOM      5  C   UNL     1     144.239 137.261 149.605  1.00  0.00     0.039 C 
ATOM      6  C   UNL     1     145.609 136.627 149.503  1.00  0.00    -0.074 C 
ATOM      7  C   UNL     1     146.462 136.935 148.476  1.00  0.00    -0.065 C 
ATOM      8  C   UNL     1     145.901 135.529 150.515  1.00  0.00     0.031 C 
ATOM      9  C   UNL     1     145.991 137.822 147.326  1.00  0.00     0.038 C 
ATOM     10  C   UNL     1     147.849 136.286 148.376  1.00  0.00    -0.011 C 
ATOM     11  C   UNL     1     147.311 134.939 150.457  1.00  0.00     0.005 C 
ATOM     12  C   UNL     1     148.226 136.110 146.881  1.00  0.00     0.011 C 
ATOM     13  C   UNL     1     147.820 134.877 149.021  1.00  0.00     0.011 C 
ATOM     14  C   UNL     1     148.911 137.160 149.096  1.00  0.00     0.016 C 
ATOM     15  C   UNL     1     148.191 137.411 146.053  1.00  0.00     0.008 C 
ENDBRANCH   1   4
BRANCH   1  16
ATOM     16  O   UNL     1     147.139 140.757 145.715  1.00  0.00    -0.390 OA
ATOM     17  H   UNL     1     146.849 141.362 144.983  1.00  0.00     0.211 HD
ENDBRANCH   1  16
TORSDOF 2
ENDMDL
MODEL 5
REMARK VINA RESULT:    -4.874      3.440      4.999
REMARK INTER + INTRA:          -5.557
REMARK INTER:                  -5.315
REMARK INTRA:                  -0.242
REMARK UNBOUND:                -0.255
REMARK SMILES CC1=C2C[C@H](C(C)(C)O)CC[C@]2(C)CCC1
REMARK SMILES IDX 6 1 7 2 8 3 5 4 1 5 2 6 3 7 16 8 4 9 12 10 15 11 11 12 14 13
REMARK SMILES IDX 13 14 10 15 9 16
REMARK H PARENT 9 17
REMARK Flexibility Score: inf
ROOT
ATOM      1  C   UNL     1     139.975 142.123 148.040  1.00  0.00     0.062 C 
ATOM      2  C   UNL     1     140.394 143.600 147.868  1.00  0.00     0.042 C 
ATOM      3  C   UNL     1     138.494 142.079 148.476  1.00  0.00     0.042 C 
ENDROOT
BRANCH   1   4
ATOM      4  C   UNL     1     140.245 141.309 146.719  1.00  0.00     0.024 C 
ATOM      5  C   UNL     1     137.880 137.662 146.060  1.00  0.00     0.039 C 
ATOM      6  C   UNL     1     138.794 138.234 144.998  1.00  0.00    -0.074 C 
ATOM      7  C   UNL     1     139.436 139.431 145.180  1.00  0.00    -0.065 C 
ATOM      8  C   UNL     1     138.823 137.476 143.680  1.00  0.00     0.031 C 
ATOM      9  C   UNL     1     139.129 140.288 146.406  1.00  0.00     0.038 C 
ATOM     10  C   UNL     1     140.358 140.008 144.098  1.00  0.00    -0.011 C 
ATOM     11  C   UNL     1     139.801 138.014 142.633  1.00  0.00     0.005 C 
ATOM     12  C   UNL     1     140.271 141.556 144.124  1.00  0.00     0.011 C 
ATOM     13  C   UNL     1     139.891 139.535 142.699  1.00  0.00     0.011 C 
ATOM     14  C   UNL     1     141.823 139.550 144.333  1.00  0.00     0.016 C 
ATOM     15  C   UNL     1     140.596 142.196 145.490  1.00  0.00     0.008 C 
ENDBRANCH   1   4
BRANCH   1  16
ATOM     16  O   UNL     1     140.728 141.567 149.095  1.00  0.00    -0.390 OA
ATOM     17  H   UNL     1     141.075 142.310 149.655  1.00  0.00     0.211 HD
ENDBRANCH   1  16
TORSDOF 2
ENDMDL
MODEL 6
REMARK VINA RESULT:    -4.842      8.760     11.753
REMARK INTER + INTRA:          -5.522
REMARK INTER:                  -5.272
REMARK INTRA:                  -0.250
REMARK UNBOUND:                -0.255
REMARK SMILES CC1=C2C[C@H](C(C)(C)O)CC[C@]2(C)CCC1
REMARK SMILES IDX 6 1 7 2 8 3 5 4 1 5 2 6 3 7 16 8 4 9 12 10 15 11 11 12 14 13
REMARK SMILES IDX 13 14 10 15 9 16
REMARK H PARENT 9 17
REMARK Flexibility Score: inf
ROOT
ATOM      1  C   UNL     1     148.331 135.360 149.045  1.00  0.00     0.062 C 
ATOM      2  C   UNL     1     148.737 136.074 150.353  1.00  0.00     0.042 C 
ATOM      3  C   UNL     1     147.075 134.505 149.320  1.00  0.00     0.042 C 
ENDROOT
BRANCH   1   4
ATOM      4  C   UNL     1     148.114 136.403 147.884  1.00  0.00     0.024 C 
ATOM      5  C   UNL     1     143.982 137.198 146.611  1.00  0.00     0.039 C 
ATOM      6  C   UNL     1     145.154 138.007 146.099  1.00  0.00    -0.074 C 
ATOM      7  C   UNL     1     146.419 137.819 146.592  1.00  0.00    -0.065 C 
ATOM      8  C   UNL     1     144.805 139.128 145.132  1.00  0.00     0.031 C 
ATOM      9  C   UNL     1     146.651 136.884 147.776  1.00  0.00     0.038 C 
ATOM     10  C   UNL     1     147.603 138.645 146.071  1.00  0.00    -0.011 C 
ATOM     11  C   UNL     1     145.997 139.898 144.560  1.00  0.00     0.005 C 
ATOM     12  C   UNL     1     148.613 138.876 147.226  1.00  0.00     0.011 C 
ATOM     13  C   UNL     1     147.109 140.034 145.595  1.00  0.00     0.011 C 
ATOM     14  C   UNL     1     148.298 137.913 144.891  1.00  0.00     0.016 C 
ATOM     15  C   UNL     1     149.125 137.586 147.899  1.00  0.00     0.008 C 
ENDBRANCH   1   4
BRANCH   1  16
ATOM     16  O   UNL     1     149.362 134.468 148.686  1.00  0.00    -0.390 OA
ATOM     17  H   UNL     1     149.311 134.311 147.707  1.00  0.00     0.211 HD
ENDBRANCH   1  16
TORSDOF 2
ENDMDL
MODEL 7
REMARK VINA RESULT:    -4.760      9.020     11.180
REMARK INTER + INTRA:          -5.433
REMARK INTER:                  -5.237
REMARK INTRA:                  -0.196
REMARK UNBOUND:                -0.255
REMARK SMILES CC1=C2C[C@H](C(C)(C)O)CC[C@]2(C)CCC1
REMARK SMILES IDX 6 1 7 2 8 3 5 4 1 5 2 6 3 7 16 8 4 9 12 10 15 11 11 12 14 13
REMARK SMILES IDX 13 14 10 15 9 16
REMARK H PARENT 9 17
REMARK Flexibility Score: inf
ROOT
ATOM      1  C   UNL     1     147.498 139.291 145.771  1.00  0.00     0.062 C 
ATOM      2  C   UNL     1     148.310 138.872 144.525  1.00  0.00     0.042 C 
ATOM      3  C   UNL     1     146.205 139.994 145.303  1.00  0.00     0.042 C 
ENDROOT
BRANCH   1   4
ATOM      4  C   UNL     1     147.215 138.048 146.696  1.00  0.00     0.024 C 
ATOM      5  C   UNL     1     149.915 137.392 150.102  1.00  0.00     0.039 C 
ATOM      6  C   UNL     1     148.653 136.580 149.905  1.00  0.00    -0.074 C 
ATOM      7  C   UNL     1     147.768 136.874 148.901  1.00  0.00    -0.065 C 
ATOM      8  C   UNL     1     148.370 135.537 150.975  1.00  0.00     0.031 C 
ATOM      9  C   UNL     1     147.963 138.122 148.044  1.00  0.00     0.038 C 
ATOM     10  C   UNL     1     146.488 136.049 148.708  1.00  0.00    -0.011 C 
ATOM     11  C   UNL     1     147.133 134.669 150.736  1.00  0.00     0.005 C 
ATOM     12  C   UNL     1     145.360 136.972 148.178  1.00  0.00     0.011 C 
ATOM     13  C   UNL     1     146.021 135.472 150.068  1.00  0.00     0.011 C 
ATOM     14  C   UNL     1     146.738 134.884 147.713  1.00  0.00     0.016 C 
ATOM     15  C   UNL     1     145.703 137.725 146.876  1.00  0.00     0.008 C 
ENDBRANCH   1   4
BRANCH   1  16
ATOM     16  O   UNL     1     148.246 140.248 146.488  1.00  0.00    -0.390 OA
ATOM     17  H   UNL     1     148.852 139.766 147.109  1.00  0.00     0.211 HD
ENDBRANCH   1  16
TORSDOF 2
ENDMDL
MODEL 8
REMARK VINA RESULT:    -4.668      9.101     11.534
REMARK INTER + INTRA:          -5.332
REMARK INTER:                  -5.144
REMARK INTRA:                  -0.188
REMARK UNBOUND:                -0.255
REMARK SMILES CC1=C2C[C@H](C(C)(C)O)CC[C@]2(C)CCC1
REMARK SMILES IDX 6 1 7 2 8 3 5 4 1 5 2 6 3 7 16 8 4 9 12 10 15 11 11 12 14 13
REMARK SMILES IDX 13 14 10 15 9 16
REMARK H PARENT 9 17
REMARK Flexibility Score: inf
ROOT
ATOM      1  C   UNL     1     147.996 136.923 148.514  1.00  0.00     0.062 C 
ATOM      2  C   UNL     1     149.003 137.833 149.251  1.00  0.00     0.042 C 
ATOM      3  C   UNL     1     146.928 136.449 149.523  1.00  0.00     0.042 C 
ENDROOT
BRANCH   1   4
ATOM      4  C   UNL     1     147.372 137.670 147.274  1.00  0.00     0.024 C 
ATOM      5  C   UNL     1     149.821 137.963 143.635  1.00  0.00     0.039 C 
ATOM      6  C   UNL     1     148.370 138.393 143.669  1.00  0.00    -0.074 C 
ATOM      7  C   UNL     1     147.593 138.190 144.778  1.00  0.00    -0.065 C 
ATOM      8  C   UNL     1     147.810 138.913 142.353  1.00  0.00     0.031 C 
ATOM      9  C   UNL     1     148.135 137.392 145.961  1.00  0.00     0.038 C 
ATOM     10  C   UNL     1     146.121 138.625 144.806  1.00  0.00    -0.011 C 
ATOM     11  C   UNL     1     146.365 139.415 142.407  1.00  0.00     0.005 C 
ATOM     12  C   UNL     1     145.310 137.634 145.679  1.00  0.00     0.011 C 
ATOM     13  C   UNL     1     145.531 138.580 143.374  1.00  0.00     0.011 C 
ATOM     14  C   UNL     1     145.992 140.066 145.370  1.00  0.00     0.016 C 
ATOM     15  C   UNL     1     145.837 137.467 147.120  1.00  0.00     0.008 C 
ENDBRANCH   1   4
BRANCH   1  16
ATOM     16  O   UNL     1     148.679 135.771 148.071  1.00  0.00    -0.390 OA
ATOM     17  H   UNL     1     148.408 135.591 147.132  1.00  0.00     0.211 HD
ENDBRANCH   1  16
TORSDOF 2
ENDMDL
MODEL 9
REMARK VINA RESULT:    -4.600     10.521     12.129
REMARK INTER + INTRA:          -5.259
REMARK INTER:                  -5.050
REMARK INTRA:                  -0.209
REMARK UNBOUND:                -0.255
REMARK SMILES CC1=C2C[C@H](C(C)(C)O)CC[C@]2(C)CCC1
REMARK SMILES IDX 6 1 7 2 8 3 5 4 1 5 2 6 3 7 16 8 4 9 12 10 15 11 11 12 14 13
REMARK SMILES IDX 13 14 10 15 9 16
REMARK H PARENT 9 17
REMARK Flexibility Score: inf
ROOT
ATOM      1  C   UNL     1     149.178 137.972 146.278  1.00  0.00     0.062 C 
ATOM      2  C   UNL     1     149.185 137.728 144.752  1.00  0.00     0.042 C 
ATOM      3  C   UNL     1     148.799 139.445 146.539  1.00  0.00     0.042 C 
ENDROOT
BRANCH   1   4
ATOM      4  C   UNL     1     148.213 136.957 147.001  1.00  0.00     0.024 C 
ATOM      5  C   UNL     1     149.367 135.558 151.006  1.00  0.00     0.039 C 
ATOM      6  C   UNL     1     148.020 135.237 150.396  1.00  0.00    -0.074 C 
ATOM      7  C   UNL     1     147.635 135.775 149.196  1.00  0.00    -0.065 C 
ATOM      8  C   UNL     1     147.083 134.417 151.270  1.00  0.00     0.031 C 
ATOM      9  C   UNL     1     148.503 136.828 148.512  1.00  0.00     0.038 C 
ATOM     10  C   UNL     1     146.266 135.449 148.584  1.00  0.00    -0.011 C 
ATOM     11  C   UNL     1     145.750 134.033 150.624  1.00  0.00     0.005 C 
ATOM     12  C   UNL     1     145.748 136.684 147.802  1.00  0.00     0.011 C 
ATOM     13  C   UNL     1     145.245 135.143 149.708  1.00  0.00     0.011 C 
ATOM     14  C   UNL     1     146.372 134.223 147.638  1.00  0.00     0.016 C 
ATOM     15  C   UNL     1     146.705 137.200 146.708  1.00  0.00     0.008 C 
ENDBRANCH   1   4
BRANCH   1  16
ATOM     16  O   UNL     1     150.491 137.795 146.762  1.00  0.00    -0.390 OA
ATOM     17  H   UNL     1     150.651 138.467 147.476  1.00  0.00     0.211 HD
ENDBRANCH   1  16
TORSDOF 2
ENDMDL
