MODEL 1
REMARK VINA RESULT:     9.958      0.000      0.000
REMARK INTER + INTRA:          10.788
REMARK INTER:                  10.831
REMARK INTRA:                  -0.043
REMARK UNBOUND:                -0.043
REMARK SMILES CC1(C)[C@@H]2CC=C(CO)[C@H]1C2
REMARK SMILES IDX 8 1 7 2 1 3 2 4 4 5 3 6 10 7 5 8 11 9 6 10 9 11
REMARK H PARENT 9 12
REMARK Flexibility Score: inf
ROOT
ATOM      1  C   UNL     1      20.097  15.251  52.838  1.00  0.00     0.187 C 
ENDROOT
BRANCH   1   2
ATOM      2  C   UNL     1      18.609  15.325  53.047  1.00  0.00    -0.045 C 
ATOM      3  C   UNL     1      17.230  17.849  53.722  1.00  0.00     0.012 C 
ATOM      4  C   UNL     1      16.686  16.893  52.623  1.00  0.00    -0.026 C 
ATOM      5  C   UNL     1      15.877  15.640  53.058  1.00  0.00    -0.000 C 
ATOM      6  C   UNL     1      15.930  17.743  51.570  1.00  0.00     0.012 C 
ATOM      7  C   UNL     1      17.671  15.887  51.969  1.00  0.00     0.023 C 
ATOM      8  C   UNL     1      16.497  15.013  54.354  1.00  0.00     0.031 C 
ATOM      9  C   UNL     1      16.513  14.875  51.879  1.00  0.00     0.013 C 
ATOM     10  C   UNL     1      18.025  14.877  54.197  1.00  0.00    -0.025 C 
ENDBRANCH   1   2
BRANCH   1  11
ATOM     11  O   UNL     1      20.387  15.072  51.478  1.00  0.00    -0.392 OA
ATOM     12  H   UNL     1      21.184  14.479  51.436  1.00  0.00     0.211 HD
ENDBRANCH   1  11
TORSDOF 2
ENDMDL
