MODEL 1
REMARK VINA RESULT:    11.308      0.000      0.000
REMARK INTER + INTRA:          21.009
REMARK INTER:                  21.224
REMARK INTRA:                  -0.215
REMARK UNBOUND:                -0.215
REMARK SMILES CCCCCCCCC=CCCCCCCCC(=O)[O-]
REMARK SMILES IDX 10 1 9 2 11 3 12 4 13 5 14 6 15 7 16 8 17 9 18 10 19 11
REMARK SMILES IDX 20 12 8 13 7 14 6 15 5 16 4 17 3 18 2 19 1 20
REMARK H PARENT
REMARK Flexibility Score: inf
ROOT
ATOM      1  C   UNL     1      34.352 -23.835   4.782  1.00  0.00    -0.031 C 
ATOM      2  C   UNL     1      35.391 -23.609   5.606  1.00  0.00    -0.031 C 
ENDROOT
BRANCH   1   3
ATOM      3  C   UNL     1      33.017 -24.396   5.206  1.00  0.00     0.027 C 
BRANCH   3   4
ATOM      4  C   UNL     1      32.876 -25.891   4.869  1.00  0.00     0.004 C 
BRANCH   4   5
ATOM      5  C   UNL     1      32.460 -26.774   6.063  1.00  0.00     0.000 C 
BRANCH   5   6
ATOM      6  C   UNL     1      32.353 -26.042   7.417  1.00  0.00     0.000 C 
BRANCH   6   7
ATOM      7  C   UNL     1      31.727 -24.638   7.348  1.00  0.00     0.000 C 
BRANCH   7   8
ATOM      8  C   UNL     1      30.393 -24.543   8.107  1.00  0.00     0.006 C 
BRANCH   8   9
ATOM      9  C   UNL     1      29.446 -25.698   7.760  1.00  0.00     0.053 C 
BRANCH   9  10
ATOM     10  C   UNL     1      28.116 -25.199   7.283  1.00  0.00     0.041 C 
ATOM     11  O   UNL     1      27.893 -23.962   7.208  1.00  0.00    -0.550 OA
ATOM     12  O   UNL     1      27.137 -26.101   6.887  1.00  0.00    -0.550 OA
ENDBRANCH   9  10
ENDBRANCH   8   9
ENDBRANCH   7   8
ENDBRANCH   6   7
ENDBRANCH   5   6
ENDBRANCH   4   5
ENDBRANCH   3   4
ENDBRANCH   1   3
BRANCH   2  13
ATOM     13  C   UNL     1      35.421 -23.935   7.081  1.00  0.00     0.027 C 
BRANCH  13  14
ATOM     14  C   UNL     1      36.265 -22.920   7.860  1.00  0.00     0.004 C 
BRANCH  14  15
ATOM     15  C   UNL     1      37.747 -23.326   7.927  1.00  0.00     0.000 C 
BRANCH  15  16
ATOM     16  C   UNL     1      38.678 -22.225   7.376  1.00  0.00     0.000 C 
BRANCH  16  17
ATOM     17  C   UNL     1      38.342 -21.797   5.938  1.00  0.00    -0.000 C 
BRANCH  17  18
ATOM     18  C   UNL     1      39.125 -22.589   4.881  1.00  0.00    -0.000 C 
BRANCH  18  19
ATOM     19  C   UNL     1      39.123 -24.088   5.206  1.00  0.00    -0.003 C 
ATOM     20  C   UNL     1      38.825 -24.920   3.962  1.00  0.00     0.004 C 
ENDBRANCH  18  19
ENDBRANCH  17  18
ENDBRANCH  16  17
ENDBRANCH  15  16
ENDBRANCH  14  15
ENDBRANCH  13  14
ENDBRANCH   2  13
TORSDOF 15
ENDMDL
MODEL 2
REMARK VINA RESULT:    11.748      6.210      8.034
REMARK INTER + INTRA:          21.835
REMARK INTER:                  22.137
REMARK INTRA:                  -0.302
REMARK UNBOUND:                -0.215
REMARK SMILES CCCCCCCCC=CCCCCCCCC(=O)[O-]
REMARK SMILES IDX 10 1 9 2 11 3 12 4 13 5 14 6 15 7 16 8 17 9 18 10 19 11
REMARK SMILES IDX 20 12 8 13 7 14 6 15 5 16 4 17 3 18 2 19 1 20
REMARK H PARENT
REMARK Flexibility Score: inf
ROOT
ATOM      1  C   UNL     1      36.689 -24.184   2.745  1.00  0.00    -0.031 C 
ATOM      2  C   UNL     1      37.299 -23.548   3.761  1.00  0.00    -0.031 C 
ENDROOT
BRANCH   1   3
ATOM      3  C   UNL     1      37.322 -25.251   1.886  1.00  0.00     0.027 C 
BRANCH   3   4
ATOM      4  C   UNL     1      36.712 -25.305   0.475  1.00  0.00     0.004 C 
BRANCH   4   5
ATOM      5  C   UNL     1      36.717 -26.708  -0.166  1.00  0.00     0.000 C 
BRANCH   5   6
ATOM      6  C   UNL     1      35.327 -27.270  -0.529  1.00  0.00     0.000 C 
BRANCH   6   7
ATOM      7  C   UNL     1      35.339 -28.431  -1.538  1.00  0.00     0.000 C 
BRANCH   7   8
ATOM      8  C   UNL     1      34.109 -29.346  -1.408  1.00  0.00     0.006 C 
BRANCH   8   9
ATOM      9  C   UNL     1      34.389 -30.767  -1.915  1.00  0.00     0.053 C 
BRANCH   9  10
ATOM     10  C   UNL     1      34.434 -30.822  -3.411  1.00  0.00     0.041 C 
ATOM     11  O   UNL     1      35.534 -30.956  -4.008  1.00  0.00    -0.550 OA
ATOM     12  O   UNL     1      33.256 -30.761  -4.144  1.00  0.00    -0.550 OA
ENDBRANCH   9  10
ENDBRANCH   8   9
ENDBRANCH   7   8
ENDBRANCH   6   7
ENDBRANCH   5   6
ENDBRANCH   4   5
ENDBRANCH   3   4
ENDBRANCH   1   3
BRANCH   2  13
ATOM     13  C   UNL     1      38.740 -23.746   4.174  1.00  0.00     0.027 C 
BRANCH  13  14
ATOM     14  C   UNL     1      38.893 -24.957   5.101  1.00  0.00     0.004 C 
BRANCH  14  15
ATOM     15  C   UNL     1      38.909 -24.553   6.586  1.00  0.00     0.000 C 
BRANCH  15  16
ATOM     16  C   UNL     1      39.107 -23.033   6.773  1.00  0.00     0.000 C 
BRANCH  16  17
ATOM     17  C   UNL     1      37.975 -22.358   7.565  1.00  0.00    -0.000 C 
BRANCH  17  18
ATOM     18  C   UNL     1      36.814 -23.313   7.879  1.00  0.00    -0.000 C 
BRANCH  18  19
ATOM     19  C   UNL     1      35.996 -23.616   6.619  1.00  0.00    -0.003 C 
ATOM     20  C   UNL     1      34.587 -24.080   6.976  1.00  0.00     0.004 C 
ENDBRANCH  18  19
ENDBRANCH  17  18
ENDBRANCH  16  17
ENDBRANCH  15  16
ENDBRANCH  14  15
ENDBRANCH  13  14
ENDBRANCH   2  13
TORSDOF 15
ENDMDL
MODEL 3
REMARK VINA RESULT:    11.808      6.133      8.009
REMARK INTER + INTRA:          21.949
REMARK INTER:                  21.586
REMARK INTRA:                   0.362
REMARK UNBOUND:                -0.215
REMARK SMILES CCCCCCCCC=CCCCCCCCC(=O)[O-]
REMARK SMILES IDX 10 1 9 2 11 3 12 4 13 5 14 6 15 7 16 8 17 9 18 10 19 11
REMARK SMILES IDX 20 12 8 13 7 14 6 15 5 16 4 17 3 18 2 19 1 20
REMARK H PARENT
REMARK Flexibility Score: inf
ROOT
ATOM      1  C   UNL     1      36.603 -24.899   1.352  1.00  0.00    -0.031 C 
ATOM      2  C   UNL     1      37.220 -24.459   2.464  1.00  0.00    -0.031 C 
ENDROOT
BRANCH   1   3
ATOM      3  C   UNL     1      37.017 -26.113   0.556  1.00  0.00     0.027 C 
BRANCH   3   4
ATOM      4  C   UNL     1      35.811 -26.941   0.081  1.00  0.00     0.004 C 
BRANCH   4   5
ATOM      5  C   UNL     1      36.012 -27.631  -1.284  1.00  0.00     0.000 C 
BRANCH   5   6
ATOM      6  C   UNL     1      34.862 -28.558  -1.728  1.00  0.00     0.000 C 
BRANCH   6   7
ATOM      7  C   UNL     1      35.230 -30.049  -1.825  1.00  0.00     0.000 C 
BRANCH   7   8
ATOM      8  C   UNL     1      35.091 -30.604  -3.253  1.00  0.00     0.006 C 
BRANCH   8   9
ATOM      9  C   UNL     1      33.665 -31.084  -3.551  1.00  0.00     0.053 C 
BRANCH   9  10
ATOM     10  C   UNL     1      32.673 -30.499  -2.593  1.00  0.00     0.041 C 
ATOM     11  O   UNL     1      31.901 -29.576  -2.964  1.00  0.00    -0.550 OA
ATOM     12  O   UNL     1      32.578 -30.997  -1.300  1.00  0.00    -0.550 OA
ENDBRANCH   9  10
ENDBRANCH   8   9
ENDBRANCH   7   8
ENDBRANCH   6   7
ENDBRANCH   5   6
ENDBRANCH   4   5
ENDBRANCH   3   4
ENDBRANCH   1   3
BRANCH   2  13
ATOM     13  C   UNL     1      38.466 -25.064   3.068  1.00  0.00     0.027 C 
BRANCH  13  14
ATOM     14  C   UNL     1      38.640 -24.641   4.531  1.00  0.00     0.004 C 
BRANCH  14  15
ATOM     15  C   UNL     1      37.947 -23.300   4.833  1.00  0.00     0.000 C 
BRANCH  15  16
ATOM     16  C   UNL     1      38.945 -22.225   5.314  1.00  0.00     0.000 C 
BRANCH  16  17
ATOM     17  C   UNL     1      38.658 -21.709   6.734  1.00  0.00    -0.000 C 
BRANCH  17  18
ATOM     18  C   UNL     1      38.903 -22.771   7.815  1.00  0.00    -0.000 C 
BRANCH  18  19
ATOM     19  C   UNL     1      37.638 -23.600   8.067  1.00  0.00    -0.003 C 
ATOM     20  C   UNL     1      36.392 -22.720   8.059  1.00  0.00     0.004 C 
ENDBRANCH  18  19
ENDBRANCH  17  18
ENDBRANCH  16  17
ENDBRANCH  15  16
ENDBRANCH  14  15
ENDBRANCH  13  14
ENDBRANCH   2  13
TORSDOF 15
ENDMDL
MODEL 4
REMARK VINA RESULT:    12.120      1.364      2.305
REMARK INTER + INTRA:          22.534
REMARK INTER:                  22.512
REMARK INTRA:                   0.021
REMARK UNBOUND:                -0.215
REMARK SMILES CCCCCCCCC=CCCCCCCCC(=O)[O-]
REMARK SMILES IDX 10 1 9 2 11 3 12 4 13 5 14 6 15 7 16 8 17 9 18 10 19 11
REMARK SMILES IDX 20 12 8 13 7 14 6 15 5 16 4 17 3 18 2 19 1 20
REMARK H PARENT
REMARK Flexibility Score: inf
ROOT
ATOM      1  C   UNL     1      33.425 -24.631   5.582  1.00  0.00    -0.031 C 
ATOM      2  C   UNL     1      34.479 -23.890   5.968  1.00  0.00    -0.031 C 
ENDROOT
BRANCH   1   3
ATOM      3  C   UNL     1      32.897 -25.836   6.321  1.00  0.00     0.027 C 
BRANCH   3   4
ATOM      4  C   UNL     1      32.401 -25.485   7.735  1.00  0.00     0.004 C 
BRANCH   4   5
ATOM      5  C   UNL     1      31.300 -24.405   7.772  1.00  0.00     0.000 C 
BRANCH   5   6
ATOM      6  C   UNL     1      29.889 -24.918   8.125  1.00  0.00     0.000 C 
BRANCH   6   7
ATOM      7  C   UNL     1      28.733 -24.054   7.593  1.00  0.00     0.000 C 
BRANCH   7   8
ATOM      8  C   UNL     1      27.763 -24.842   6.696  1.00  0.00     0.006 C 
BRANCH   8   9
ATOM      9  C   UNL     1      27.699 -26.326   7.078  1.00  0.00     0.053 C 
BRANCH   9  10
ATOM     10  C   UNL     1      27.116 -27.156   5.976  1.00  0.00     0.041 C 
ATOM     11  O   UNL     1      26.004 -26.849   5.471  1.00  0.00    -0.550 OA
ATOM     12  O   UNL     1      27.817 -28.249   5.483  1.00  0.00    -0.550 OA
ENDBRANCH   9  10
ENDBRANCH   8   9
ENDBRANCH   7   8
ENDBRANCH   6   7
ENDBRANCH   5   6
ENDBRANCH   4   5
ENDBRANCH   3   4
ENDBRANCH   1   3
BRANCH   2  13
ATOM     13  C   UNL     1      35.351 -24.174   7.170  1.00  0.00     0.027 C 
BRANCH  13  14
ATOM     14  C   UNL     1      35.826 -22.875   7.833  1.00  0.00     0.004 C 
BRANCH  14  15
ATOM     15  C   UNL     1      37.353 -22.845   8.022  1.00  0.00     0.000 C 
BRANCH  15  16
ATOM     16  C   UNL     1      38.107 -23.216   6.727  1.00  0.00     0.000 C 
BRANCH  16  17
ATOM     17  C   UNL     1      38.995 -24.464   6.867  1.00  0.00    -0.000 C 
BRANCH  17  18
ATOM     18  C   UNL     1      38.966 -25.359   5.620  1.00  0.00    -0.000 C 
BRANCH  18  19
ATOM     19  C   UNL     1      39.076 -24.521   4.340  1.00  0.00    -0.003 C 
ATOM     20  C   UNL     1      37.850 -23.631   4.158  1.00  0.00     0.004 C 
ENDBRANCH  18  19
ENDBRANCH  17  18
ENDBRANCH  16  17
ENDBRANCH  15  16
ENDBRANCH  14  15
ENDBRANCH  13  14
ENDBRANCH   2  13
TORSDOF 15
ENDMDL
MODEL 5
REMARK VINA RESULT:    12.888      5.239     11.421
REMARK INTER + INTRA:          23.974
REMARK INTER:                  24.562
REMARK INTRA:                  -0.588
REMARK UNBOUND:                -0.215
REMARK SMILES CCCCCCCCC=CCCCCCCCC(=O)[O-]
REMARK SMILES IDX 10 1 9 2 11 3 12 4 13 5 14 6 15 7 16 8 17 9 18 10 19 11
REMARK SMILES IDX 20 12 8 13 7 14 6 15 5 16 4 17 3 18 2 19 1 20
REMARK H PARENT
REMARK Flexibility Score: inf
ROOT
ATOM      1  C   UNL     1      28.233 -25.539   7.764  1.00  0.00    -0.031 C 
ATOM      2  C   UNL     1      27.186 -26.237   7.288  1.00  0.00    -0.031 C 
ENDROOT
BRANCH   1   3
ATOM      3  C   UNL     1      28.975 -24.466   7.005  1.00  0.00     0.027 C 
BRANCH   3   4
ATOM      4  C   UNL     1      30.457 -24.383   7.408  1.00  0.00     0.004 C 
BRANCH   4   5
ATOM      5  C   UNL     1      31.320 -25.557   6.900  1.00  0.00     0.000 C 
BRANCH   5   6
ATOM      6  C   UNL     1      32.569 -25.153   6.092  1.00  0.00     0.000 C 
BRANCH   6   7
ATOM      7  C   UNL     1      33.861 -25.017   6.917  1.00  0.00     0.000 C 
BRANCH   7   8
ATOM      8  C   UNL     1      34.824 -23.962   6.347  1.00  0.00     0.006 C 
BRANCH   8   9
ATOM      9  C   UNL     1      35.828 -23.469   7.396  1.00  0.00     0.053 C 
BRANCH   9  10
ATOM     10  C   UNL     1      37.236 -23.535   6.888  1.00  0.00     0.041 C 
ATOM     11  O   UNL     1      37.464 -23.834   5.686  1.00  0.00    -0.550 OA
ATOM     12  O   UNL     1      38.295 -23.231   7.734  1.00  0.00    -0.550 OA
ENDBRANCH   9  10
ENDBRANCH   8   9
ENDBRANCH   7   8
ENDBRANCH   6   7
ENDBRANCH   5   6
ENDBRANCH   4   5
ENDBRANCH   3   4
ENDBRANCH   1   3
BRANCH   2  13
ATOM     13  C   UNL     1      26.616 -26.112   5.894  1.00  0.00     0.027 C 
BRANCH  13  14
ATOM     14  C   UNL     1      25.973 -27.426   5.434  1.00  0.00     0.004 C 
BRANCH  14  15
ATOM     15  C   UNL     1      24.472 -27.265   5.135  1.00  0.00     0.000 C 
BRANCH  15  16
ATOM     16  C   UNL     1      23.672 -28.542   5.468  1.00  0.00     0.000 C 
BRANCH  16  17
ATOM     17  C   UNL     1      22.151 -28.321   5.514  1.00  0.00    -0.000 C 
BRANCH  17  18
ATOM     18  C   UNL     1      21.503 -28.898   6.781  1.00  0.00    -0.000 C 
BRANCH  18  19
ATOM     19  C   UNL     1      21.956 -30.342   7.021  1.00  0.00    -0.003 C 
ATOM     20  C   UNL     1      20.884 -31.141   7.757  1.00  0.00     0.004 C 
ENDBRANCH  18  19
ENDBRANCH  17  18
ENDBRANCH  16  17
ENDBRANCH  15  16
ENDBRANCH  14  15
ENDBRANCH  13  14
ENDBRANCH   2  13
TORSDOF 15
ENDMDL
