MODEL 1
REMARK VINA RESULT:    -4.343      0.000      0.000
REMARK INTER + INTRA:          -5.626
REMARK INTER:                  -6.121
REMARK INTRA:                   0.495
REMARK UNBOUND:                 0.495
REMARK SMILES CC1=CCC(=C(C)C)C(=O)CC(C)=CCC1
REMARK SMILES IDX 12 1 14 2 13 3 15 4 16 5 2 6 1 7 3 8 11 10 9 11 10 12 5 13
REMARK SMILES IDX 6 14 7 15 8 16 4 17
REMARK H PARENT
REMARK Flexibility Score: 60.00
ROOT
ATOM      1  C   UNL     1      -2.648  28.662  31.257  1.00  0.00    -0.070 C 
ATOM      2  C   UNL     1      -1.354  28.320  30.988  1.00  0.00    -0.027 C 
ATOM      3  C   UNL     1      -2.873  30.018  31.880  1.00  0.00     0.039 C 
ENDROOT
BRANCH   2   4
ATOM      4  C   UNL     1      -0.744  27.041  30.425  1.00  0.00     0.032 C 
BRANCH   4   5
ATOM      5  C   UNL     1      -0.310  27.057  28.955  1.00  0.00     0.034 C 
BRANCH   5   6
ATOM      6  C   UNL     1      -1.379  26.822  27.878  1.00  0.00    -0.077 C 
ATOM      7  C   UNL     1      -1.263  25.517  27.122  1.00  0.00     0.039 C 
ATOM      8  C   UNL     1      -2.368  27.663  27.450  1.00  0.00    -0.023 CG0
ATOM      9  G   UNL     1      -2.754  29.056  27.909  1.00  0.00     0.000 G0
ENDBRANCH   5   6
ENDBRANCH   4   5
ENDBRANCH   2   4
BRANCH   1  10
ATOM     10  C   UNL     1      -3.887  27.823  30.986  1.00  0.00     0.111 C 
BRANCH  10  11
ATOM     11  C   UNL     1      -4.286  27.867  29.543  1.00  0.00     0.163 C 
ATOM     12  O   UNL     1      -4.818  26.850  29.024  1.00  0.00    -0.294 OA
BRANCH  11  13
ATOM     13  C   UNL     1      -4.020  29.075  28.718  1.00  0.00    -0.002 C 
ATOM     14  C   UNL     1      -4.889  30.128  28.696  1.00  0.00    -0.069 C 
ATOM     15  C   UNL     1      -4.676  31.310  27.777  1.00  0.00     0.039 C 
ATOM     16  C   UNL     1      -6.096  30.164  29.605  1.00  0.00     0.039 C 
BRANCH  13  17
ATOM     17  C   UNL     1      -2.747  29.054  27.898  1.00  0.00     0.066 CG0
ATOM     18  G   UNL     1      -2.389  27.654  27.439  1.00  0.00     0.000 G0
ENDBRANCH  13  17
ENDBRANCH  11  13
ENDBRANCH  10  11
ENDBRANCH   1  10
TORSDOF 0
ENDMDL
MODEL 2
REMARK VINA RESULT:    -3.536      1.715      3.714
REMARK INTER + INTRA:          -4.488
REMARK INTER:                  -5.192
REMARK INTRA:                   0.704
REMARK UNBOUND:                 0.495
REMARK SMILES CC1=CCC(=C(C)C)C(=O)CC(C)=CCC1
REMARK SMILES IDX 12 1 14 2 13 3 15 4 16 5 2 6 1 7 3 8 11 10 9 11 10 12 5 13
REMARK SMILES IDX 6 14 7 15 8 16 4 17
REMARK H PARENT
REMARK Flexibility Score: 60.00
ROOT
ATOM      1  C   UNL     1      -1.726  26.874  28.243  1.00  0.00    -0.070 C 
ATOM      2  C   UNL     1      -0.815  27.257  29.185  1.00  0.00    -0.027 C 
ATOM      3  C   UNL     1      -1.220  25.976  27.139  1.00  0.00     0.039 C 
ENDROOT
BRANCH   2   4
ATOM      4  C   UNL     1      -0.937  28.184  30.389  1.00  0.00     0.032 C 
BRANCH   4   5
ATOM      5  C   UNL     1      -2.156  27.996  31.300  1.00  0.00     0.034 C 
BRANCH   5   6
ATOM      6  C   UNL     1      -3.041  29.216  31.593  1.00  0.00    -0.077 C 
ATOM      7  C   UNL     1      -2.598  30.074  32.759  1.00  0.00     0.039 C 
ATOM      8  C   UNL     1      -4.215  29.589  31.002  1.00  0.00    -0.023 CG0
ATOM      9  G   UNL     1      -4.999  28.960  29.866  1.00  0.00     0.000 G0
ENDBRANCH   5   6
ENDBRANCH   4   5
ENDBRANCH   2   4
BRANCH   1  10
ATOM     10  C   UNL     1      -3.198  27.251  28.193  1.00  0.00     0.111 C 
BRANCH  10  11
ATOM     11  C   UNL     1      -3.390  28.708  27.902  1.00  0.00     0.163 C 
ATOM     12  O   UNL     1      -2.567  29.296  27.151  1.00  0.00    -0.294 OA
BRANCH  11  13
ATOM     13  C   UNL     1      -4.507  29.466  28.524  1.00  0.00    -0.002 C 
ATOM     14  C   UNL     1      -5.049  30.563  27.917  1.00  0.00    -0.069 C 
ATOM     15  C   UNL     1      -6.112  31.398  28.595  1.00  0.00     0.039 C 
ATOM     16  C   UNL     1      -4.618  30.980  26.530  1.00  0.00     0.039 C 
BRANCH  13  17
ATOM     17  C   UNL     1      -4.989  28.960  29.867  1.00  0.00     0.066 CG0
ATOM     18  G   UNL     1      -4.233  29.594  31.018  1.00  0.00     0.000 G0
ENDBRANCH  13  17
ENDBRANCH  11  13
ENDBRANCH  10  11
ENDBRANCH   1  10
TORSDOF 0
ENDMDL
MODEL 3
REMARK VINA RESULT:    -3.422      1.601      4.380
REMARK INTER + INTRA:          -4.327
REMARK INTER:                  -5.651
REMARK INTRA:                   1.324
REMARK UNBOUND:                 0.495
REMARK SMILES CC1=CCC(=C(C)C)C(=O)CC(C)=CCC1
REMARK SMILES IDX 12 1 14 2 13 3 15 4 16 5 2 6 1 7 3 8 11 10 9 11 10 12 5 13
REMARK SMILES IDX 6 14 7 15 8 16 4 17
REMARK H PARENT
REMARK Flexibility Score: 60.00
ROOT
ATOM      1  C   UNL     1      -2.094  26.860  27.980  1.00  0.00    -0.070 C 
ATOM      2  C   UNL     1      -2.291  27.987  27.235  1.00  0.00    -0.027 C 
ATOM      3  C   UNL     1      -1.512  25.667  27.260  1.00  0.00     0.039 C 
ENDROOT
BRANCH   2   4
ATOM      4  C   UNL     1      -2.898  29.340  27.591  1.00  0.00     0.032 C 
BRANCH   4   5
ATOM      5  C   UNL     1      -4.422  29.473  27.498  1.00  0.00     0.034 C 
BRANCH   5   6
ATOM      6  C   UNL     1      -5.130  30.425  28.472  1.00  0.00    -0.077 C 
ATOM      7  C   UNL     1      -5.395  31.817  27.942  1.00  0.00     0.039 C 
ATOM      8  C   UNL     1      -5.480  30.217  29.777  1.00  0.00    -0.023 CG0
ATOM      9  G   UNL     1      -5.323  28.998  30.665  1.00  0.00     0.000 G0
ENDBRANCH   5   6
ENDBRANCH   4   5
ENDBRANCH   2   4
BRANCH   1  10
ATOM     10  C   UNL     1      -2.392  26.683  29.460  1.00  0.00     0.111 C 
BRANCH  10  11
ATOM     11  C   UNL     1      -3.758  27.185  29.818  1.00  0.00     0.163 C 
ATOM     12  O   UNL     1      -4.769  26.576  29.374  1.00  0.00    -0.294 OA
BRANCH  11  13
ATOM     13  C   UNL     1      -3.927  28.408  30.645  1.00  0.00    -0.002 C 
ATOM     14  C   UNL     1      -2.884  28.945  31.343  1.00  0.00    -0.069 C 
ATOM     15  C   UNL     1      -3.075  30.125  32.269  1.00  0.00     0.039 C 
ATOM     16  C   UNL     1      -1.484  28.392  31.205  1.00  0.00     0.039 C 
BRANCH  13  17
ATOM     17  C   UNL     1      -5.319  29.002  30.679  1.00  0.00     0.066 CG0
ATOM     18  G   UNL     1      -5.441  30.215  29.777  1.00  0.00     0.000 G0
ENDBRANCH  13  17
ENDBRANCH  11  13
ENDBRANCH  10  11
ENDBRANCH   1  10
TORSDOF 0
ENDMDL
MODEL 4
REMARK VINA RESULT:    -3.414      1.553      3.447
REMARK INTER + INTRA:          -4.316
REMARK INTER:                  -5.283
REMARK INTRA:                   0.966
REMARK UNBOUND:                 0.495
REMARK SMILES CC1=CCC(=C(C)C)C(=O)CC(C)=CCC1
REMARK SMILES IDX 12 1 14 2 13 3 15 4 16 5 2 6 1 7 3 8 11 10 9 11 10 12 5 13
REMARK SMILES IDX 6 14 7 15 8 16 4 17
REMARK H PARENT
REMARK Flexibility Score: 60.00
ROOT
ATOM      1  C   UNL     1      -4.837  30.652  27.977  1.00  0.00    -0.070 C 
ATOM      2  C   UNL     1      -3.497  30.665  27.719  1.00  0.00    -0.027 C 
ATOM      3  C   UNL     1      -5.581  31.947  27.750  1.00  0.00     0.039 C 
ENDROOT
BRANCH   2   4
ATOM      4  C   UNL     1      -2.428  29.589  27.881  1.00  0.00     0.032 C 
BRANCH   4   5
ATOM      5  C   UNL     1      -2.681  28.238  27.201  1.00  0.00     0.034 C 
BRANCH   5   6
ATOM      6  C   UNL     1      -2.378  26.958  27.991  1.00  0.00    -0.077 C 
ATOM      7  C   UNL     1      -1.164  26.182  27.529  1.00  0.00     0.039 C 
ATOM      8  C   UNL     1      -3.097  26.378  28.999  1.00  0.00    -0.023 CG0
ATOM      9  G   UNL     1      -4.381  26.811  29.679  1.00  0.00     0.000 G0
ENDBRANCH   5   6
ENDBRANCH   4   5
ENDBRANCH   2   4
BRANCH   1  10
ATOM     10  C   UNL     1      -5.662  29.470  28.461  1.00  0.00     0.111 C 
BRANCH  10  11
ATOM     11  C   UNL     1      -5.382  29.146  29.897  1.00  0.00     0.163 C 
ATOM     12  O   UNL     1      -6.066  29.707  30.794  1.00  0.00    -0.294 OA
BRANCH  11  13
ATOM     13  C   UNL     1      -4.287  28.212  30.266  1.00  0.00    -0.002 C 
ATOM     14  C   UNL     1      -3.249  28.609  31.059  1.00  0.00    -0.069 C 
ATOM     15  C   UNL     1      -2.080  27.695  31.350  1.00  0.00     0.039 C 
ATOM     16  C   UNL     1      -3.233  29.980  31.696  1.00  0.00     0.039 C 
BRANCH  13  17
ATOM     17  C   UNL     1      -4.386  26.812  29.698  1.00  0.00     0.066 CG0
ATOM     18  G   UNL     1      -3.107  26.390  29.001  1.00  0.00     0.000 G0
ENDBRANCH  13  17
ENDBRANCH  11  13
ENDBRANCH  10  11
ENDBRANCH   1  10
TORSDOF 0
ENDMDL
MODEL 5
REMARK VINA RESULT:    -2.564      1.667      4.575
REMARK INTER + INTRA:          -3.119
REMARK INTER:                  -4.177
REMARK INTRA:                   1.058
REMARK UNBOUND:                 0.495
REMARK SMILES CC1=CCC(=C(C)C)C(=O)CC(C)=CCC1
REMARK SMILES IDX 12 1 14 2 13 3 15 4 16 5 2 6 1 7 3 8 11 10 9 11 10 12 5 13
REMARK SMILES IDX 6 14 7 15 8 16 4 17
REMARK H PARENT
REMARK Flexibility Score: 60.00
ROOT
ATOM      1  C   UNL     1      -4.395  29.529  28.167  1.00  0.00    -0.070 C 
ATOM      2  C   UNL     1      -5.069  29.224  29.314  1.00  0.00    -0.027 C 
ATOM      3  C   UNL     1      -4.606  30.915  27.607  1.00  0.00     0.039 C 
ENDROOT
BRANCH   2   4
ATOM      4  C   UNL     1      -5.150  27.936  30.126  1.00  0.00     0.032 C 
BRANCH   4   5
ATOM      5  C   UNL     1      -3.884  27.494  30.870  1.00  0.00     0.034 C 
BRANCH   5   6
ATOM      6  C   UNL     1      -2.799  28.543  31.148  1.00  0.00    -0.077 C 
ATOM      7  C   UNL     1      -3.240  29.728  31.979  1.00  0.00     0.039 C 
ATOM      8  C   UNL     1      -1.515  28.596  30.682  1.00  0.00    -0.023 CG0
ATOM      9  G   UNL     1      -0.743  27.646  29.788  1.00  0.00     0.000 G0
ENDBRANCH   5   6
ENDBRANCH   4   5
ENDBRANCH   2   4
BRANCH   1  10
ATOM     10  C   UNL     1      -3.447  28.622  27.399  1.00  0.00     0.111 C 
BRANCH  10  11
ATOM     11  C   UNL     1      -2.039  28.736  27.900  1.00  0.00     0.163 C 
ATOM     12  O   UNL     1      -1.465  29.857  27.859  1.00  0.00    -0.294 OA
BRANCH  11  13
ATOM     13  C   UNL     1      -1.309  27.541  28.397  1.00  0.00    -0.002 C 
ATOM     14  C   UNL     1      -1.188  26.413  27.637  1.00  0.00    -0.069 C 
ATOM     15  C   UNL     1      -0.540  25.159  28.179  1.00  0.00     0.039 C 
ATOM     16  C   UNL     1      -1.684  26.376  26.210  1.00  0.00     0.039 C 
BRANCH  13  17
ATOM     17  C   UNL     1      -0.730  27.647  29.792  1.00  0.00     0.066 CG0
ATOM     18  G   UNL     1      -1.513  28.613  30.660  1.00  0.00     0.000 G0
ENDBRANCH  13  17
ENDBRANCH  11  13
ENDBRANCH  10  11
ENDBRANCH   1  10
TORSDOF 0
ENDMDL
MODEL 6
REMARK VINA RESULT:    -2.217      1.412      4.117
REMARK INTER + INTRA:          -2.630
REMARK INTER:                  -3.366
REMARK INTRA:                   0.736
REMARK UNBOUND:                 0.495
REMARK SMILES CC1=CCC(=C(C)C)C(=O)CC(C)=CCC1
REMARK SMILES IDX 12 1 14 2 13 3 15 4 16 5 2 6 1 7 3 8 11 10 9 11 10 12 5 13
REMARK SMILES IDX 6 14 7 15 8 16 4 17
REMARK H PARENT
REMARK Flexibility Score: 60.00
ROOT
ATOM      1  C   UNL     1      -2.973  29.632  31.573  1.00  0.00    -0.070 C 
ATOM      2  C   UNL     1      -4.323  29.433  31.556  1.00  0.00    -0.027 C 
ATOM      3  C   UNL     1      -2.380  30.139  32.866  1.00  0.00     0.039 C 
ENDROOT
BRANCH   2   4
ATOM      4  C   UNL     1      -5.265  28.993  30.440  1.00  0.00     0.032 C 
BRANCH   4   5
ATOM      5  C   UNL     1      -5.471  29.963  29.271  1.00  0.00     0.034 C 
BRANCH   5   6
ATOM      6  C   UNL     1      -4.448  29.952  28.127  1.00  0.00    -0.077 C 
ATOM      7  C   UNL     1      -4.420  31.198  27.269  1.00  0.00     0.039 C 
ATOM      8  C   UNL     1      -3.618  28.943  27.724  1.00  0.00    -0.023 CG0
ATOM      9  G   UNL     1      -3.409  27.548  28.280  1.00  0.00     0.000 G0
ENDBRANCH   5   6
ENDBRANCH   4   5
ENDBRANCH   2   4
BRANCH   1  10
ATOM     10  C   UNL     1      -2.002  29.388  30.429  1.00  0.00     0.111 C 
BRANCH  10  11
ATOM     11  C   UNL     1      -1.776  27.926  30.191  1.00  0.00     0.163 C 
ATOM     12  O   UNL     1      -1.331  27.215  31.131  1.00  0.00    -0.294 OA
BRANCH  11  13
ATOM     13  C   UNL     1      -2.030  27.325  28.856  1.00  0.00    -0.002 C 
ATOM     14  C   UNL     1      -1.056  26.643  28.185  1.00  0.00    -0.069 C 
ATOM     15  C   UNL     1      -1.276  26.123  26.782  1.00  0.00     0.039 C 
ATOM     16  C   UNL     1       0.285  26.364  28.825  1.00  0.00     0.039 C 
BRANCH  13  17
ATOM     17  C   UNL     1      -3.417  27.531  28.286  1.00  0.00     0.066 CG0
ATOM     18  G   UNL     1      -3.601  28.929  27.729  1.00  0.00     0.000 G0
ENDBRANCH  13  17
ENDBRANCH  11  13
ENDBRANCH  10  11
ENDBRANCH   1  10
TORSDOF 0
ENDMDL
MODEL 7
REMARK VINA RESULT:    -1.601      1.824      4.155
REMARK INTER + INTRA:          -1.762
REMARK INTER:                  -2.506
REMARK INTRA:                   0.744
REMARK UNBOUND:                 0.495
REMARK SMILES CC1=CCC(=C(C)C)C(=O)CC(C)=CCC1
REMARK SMILES IDX 12 1 14 2 13 3 15 4 16 5 2 6 1 7 3 8 11 10 9 11 10 12 5 13
REMARK SMILES IDX 6 14 7 15 8 16 4 17
REMARK H PARENT
REMARK Flexibility Score: 60.00
ROOT
ATOM      1  C   UNL     1      -1.107  27.213  28.263  1.00  0.00    -0.070 C 
ATOM      2  C   UNL     1      -1.999  27.452  27.258  1.00  0.00    -0.027 C 
ATOM      3  C   UNL     1      -0.200  26.018  28.092  1.00  0.00     0.039 C 
ENDROOT
BRANCH   2   4
ATOM      4  C   UNL     1      -3.089  28.507  27.106  1.00  0.00     0.032 C 
BRANCH   4   5
ATOM      5  C   UNL     1      -2.801  29.903  27.673  1.00  0.00     0.034 C 
BRANCH   5   6
ATOM      6  C   UNL     1      -3.897  30.594  28.496  1.00  0.00    -0.077 C 
ATOM      7  C   UNL     1      -4.735  31.604  27.742  1.00  0.00     0.039 C 
ATOM      8  C   UNL     1      -4.167  30.487  29.832  1.00  0.00    -0.023 CG0
ATOM      9  G   UNL     1      -3.515  29.645  30.912  1.00  0.00     0.000 G0
ENDBRANCH   5   6
ENDBRANCH   4   5
ENDBRANCH   2   4
BRANCH   1  10
ATOM     10  C   UNL     1      -0.924  28.029  29.533  1.00  0.00     0.111 C 
BRANCH  10  11
ATOM     11  C   UNL     1      -1.938  27.672  30.576  1.00  0.00     0.163 C 
ATOM     12  O   UNL     1      -1.609  26.885  31.504  1.00  0.00    -0.294 OA
BRANCH  11  13
ATOM     13  C   UNL     1      -3.326  28.197  30.499  1.00  0.00    -0.002 C 
ATOM     14  C   UNL     1      -4.359  27.421  30.060  1.00  0.00    -0.069 C 
ATOM     15  C   UNL     1      -5.751  27.983  29.879  1.00  0.00     0.039 C 
ATOM     16  C   UNL     1      -4.157  25.955  29.749  1.00  0.00     0.039 C 
BRANCH  13  17
ATOM     17  C   UNL     1      -3.515  29.640  30.919  1.00  0.00     0.066 CG0
ATOM     18  G   UNL     1      -4.158  30.470  29.825  1.00  0.00     0.000 G0
ENDBRANCH  13  17
ENDBRANCH  11  13
ENDBRANCH  10  11
ENDBRANCH   1  10
TORSDOF 0
ENDMDL
