MODEL 1
REMARK VINA RESULT:    -3.327      0.000      0.000
REMARK INTER + INTRA:          -4.188
REMARK INTER:                  -4.105
REMARK INTRA:                  -0.083
REMARK UNBOUND:                -0.083
REMARK SMILES CCCCCC(=O)[O-]
REMARK SMILES IDX 4 1 5 2 6 3 7 4 8 5 3 6 2 7 1 8
REMARK H PARENT
REMARK Flexibility Score: inf
ROOT
ATOM      1  C   UNL     1     -14.229   6.541  -0.011  1.00  0.00     0.006 C 
ENDROOT
BRANCH   1   2
ATOM      2  C   UNL     1     -15.580   5.818  -0.100  1.00  0.00     0.053 C 
BRANCH   2   3
ATOM      3  C   UNL     1     -15.523   4.726  -1.121  1.00  0.00     0.041 C 
ATOM      4  O   UNL     1     -14.512   4.604  -1.861  1.00  0.00    -0.550 OA
ATOM      5  O   UNL     1     -16.608   3.875  -1.291  1.00  0.00    -0.550 OA
ENDBRANCH   2   3
ENDBRANCH   1   2
BRANCH   1   6
ATOM      6  C   UNL     1     -14.339   7.895   0.723  1.00  0.00     0.000 C 
BRANCH   6   7
ATOM      7  C   UNL     1     -13.047   8.727   0.676  1.00  0.00    -0.003 C 
ATOM      8  C   UNL     1     -12.127   8.340  -0.480  1.00  0.00     0.004 C 
ENDBRANCH   6   7
ENDBRANCH   1   6
TORSDOF 4
ENDMDL
MODEL 2
REMARK VINA RESULT:    -3.104     11.313     12.401
REMARK INTER + INTRA:          -3.913
REMARK INTER:                  -3.799
REMARK INTRA:                  -0.114
REMARK UNBOUND:                -0.083
REMARK SMILES CCCCCC(=O)[O-]
REMARK SMILES IDX 4 1 5 2 6 3 7 4 8 5 3 6 2 7 1 8
REMARK H PARENT
REMARK Flexibility Score: inf
ROOT
ATOM      1  C   UNL     1     -14.949  13.546   9.928  1.00  0.00     0.006 C 
ENDROOT
BRANCH   1   2
ATOM      2  C   UNL     1     -14.446  12.542   8.882  1.00  0.00     0.053 C 
BRANCH   2   3
ATOM      3  C   UNL     1     -14.385  13.179   7.531  1.00  0.00     0.041 C 
ATOM      4  O   UNL     1     -13.314  13.706   7.128  1.00  0.00    -0.550 OA
ATOM      5  O   UNL     1     -15.522  13.238   6.736  1.00  0.00    -0.550 OA
ENDBRANCH   2   3
ENDBRANCH   1   2
BRANCH   1   6
ATOM      6  C   UNL     1     -13.804  14.397  10.517  1.00  0.00     0.000 C 
BRANCH   6   7
ATOM      7  C   UNL     1     -13.382  13.968  11.932  1.00  0.00    -0.003 C 
ATOM      8  C   UNL     1     -14.331  12.948  12.556  1.00  0.00     0.004 C 
ENDBRANCH   6   7
ENDBRANCH   1   6
TORSDOF 4
ENDMDL
MODEL 3
REMARK VINA RESULT:    -3.083     11.839     12.918
REMARK INTER + INTRA:          -3.886
REMARK INTER:                  -3.711
REMARK INTRA:                  -0.175
REMARK UNBOUND:                -0.083
REMARK SMILES CCCCCC(=O)[O-]
REMARK SMILES IDX 4 1 5 2 6 3 7 4 8 5 3 6 2 7 1 8
REMARK H PARENT
REMARK Flexibility Score: inf
ROOT
ATOM      1  C   UNL     1     -15.566  13.062   9.693  1.00  0.00     0.006 C 
ENDROOT
BRANCH   1   2
ATOM      2  C   UNL     1     -14.863  12.913  11.049  1.00  0.00     0.053 C 
BRANCH   2   3
ATOM      3  C   UNL     1     -13.777  13.932  11.191  1.00  0.00     0.041 C 
ATOM      4  O   UNL     1     -13.676  14.869  10.357  1.00  0.00    -0.550 OA
ATOM      5  O   UNL     1     -12.846  13.818  12.215  1.00  0.00    -0.550 OA
ENDBRANCH   2   3
ENDBRANCH   1   2
BRANCH   1   6
ATOM      6  C   UNL     1     -14.920  12.184   8.601  1.00  0.00     0.000 C 
BRANCH   6   7
ATOM      7  C   UNL     1     -14.759  12.900   7.249  1.00  0.00    -0.003 C 
ATOM      8  C   UNL     1     -13.411  13.600   7.100  1.00  0.00     0.004 C 
ENDBRANCH   6   7
ENDBRANCH   1   6
TORSDOF 4
ENDMDL
MODEL 4
REMARK VINA RESULT:    -3.069     11.838     12.984
REMARK INTER + INTRA:          -3.869
REMARK INTER:                  -3.783
REMARK INTRA:                  -0.086
REMARK UNBOUND:                -0.083
REMARK SMILES CCCCCC(=O)[O-]
REMARK SMILES IDX 4 1 5 2 6 3 7 4 8 5 3 6 2 7 1 8
REMARK H PARENT
REMARK Flexibility Score: inf
ROOT
ATOM      1  C   UNL     1     -14.411  13.276   9.289  1.00  0.00     0.006 C 
ENDROOT
BRANCH   1   2
ATOM      2  C   UNL     1     -13.951  14.279  10.355  1.00  0.00     0.053 C 
BRANCH   2   3
ATOM      3  C   UNL     1     -13.783  13.599  11.677  1.00  0.00     0.041 C 
ATOM      4  O   UNL     1     -12.753  13.810  12.370  1.00  0.00    -0.550 OA
ATOM      5  O   UNL     1     -14.738  12.694  12.120  1.00  0.00    -0.550 OA
ENDBRANCH   2   3
ENDBRANCH   1   2
BRANCH   1   6
ATOM      6  C   UNL     1     -13.774  13.555   7.910  1.00  0.00     0.000 C 
BRANCH   6   7
ATOM      7  C   UNL     1     -14.635  13.082   6.727  1.00  0.00    -0.003 C 
ATOM      8  C   UNL     1     -16.107  12.909   7.090  1.00  0.00     0.004 C 
ENDBRANCH   6   7
ENDBRANCH   1   6
TORSDOF 4
ENDMDL
MODEL 5
REMARK VINA RESULT:    -2.695     10.404     11.391
REMARK INTER + INTRA:          -3.408
REMARK INTER:                  -3.354
REMARK INTRA:                  -0.054
REMARK UNBOUND:                -0.083
REMARK SMILES CCCCCC(=O)[O-]
REMARK SMILES IDX 4 1 5 2 6 3 7 4 8 5 3 6 2 7 1 8
REMARK H PARENT
REMARK Flexibility Score: inf
ROOT
ATOM      1  C   UNL     1     -14.145  13.179   8.375  1.00  0.00     0.006 C 
ENDROOT
BRANCH   1   2
ATOM      2  C   UNL     1     -15.188  13.022   7.261  1.00  0.00     0.053 C 
BRANCH   2   3
ATOM      3  C   UNL     1     -15.932  11.734   7.416  1.00  0.00     0.041 C 
ATOM      4  O   UNL     1     -15.504  10.686   6.865  1.00  0.00    -0.550 OA
ATOM      5  O   UNL     1     -17.125  11.700   8.127  1.00  0.00    -0.550 OA
ENDBRANCH   2   3
ENDBRANCH   1   2
BRANCH   1   6
ATOM      6  C   UNL     1     -14.777  13.636   9.707  1.00  0.00     0.000 C 
BRANCH   6   7
ATOM      7  C   UNL     1     -13.855  14.533  10.550  1.00  0.00    -0.003 C 
ATOM      8  C   UNL     1     -13.449  13.894  11.876  1.00  0.00     0.004 C 
ENDBRANCH   6   7
ENDBRANCH   1   6
TORSDOF 4
ENDMDL
MODEL 6
REMARK VINA RESULT:    -2.614     10.284     11.003
REMARK INTER + INTRA:          -3.308
REMARK INTER:                  -3.181
REMARK INTRA:                  -0.127
REMARK UNBOUND:                -0.083
REMARK SMILES CCCCCC(=O)[O-]
REMARK SMILES IDX 4 1 5 2 6 3 7 4 8 5 3 6 2 7 1 8
REMARK H PARENT
REMARK Flexibility Score: inf
ROOT
ATOM      1  C   UNL     1     -16.430  12.269   8.114  1.00  0.00     0.006 C 
ENDROOT
BRANCH   1   2
ATOM      2  C   UNL     1     -15.397  12.793   7.108  1.00  0.00     0.053 C 
BRANCH   2   3
ATOM      3  C   UNL     1     -14.177  13.288   7.818  1.00  0.00     0.041 C 
ATOM      4  O   UNL     1     -14.139  13.299   9.077  1.00  0.00    -0.550 OA
ATOM      5  O   UNL     1     -13.102  13.785   7.093  1.00  0.00    -0.550 OA
ENDBRANCH   2   3
ENDBRANCH   1   2
BRANCH   1   6
ATOM      6  C   UNL     1     -16.667  10.750   7.970  1.00  0.00     0.000 C 
BRANCH   6   7
ATOM      7  C   UNL     1     -15.453   9.897   8.372  1.00  0.00    -0.003 C 
ATOM      8  C   UNL     1     -15.836   8.494   8.838  1.00  0.00     0.004 C 
ENDBRANCH   6   7
ENDBRANCH   1   6
TORSDOF 4
ENDMDL
MODEL 7
REMARK VINA RESULT:    -2.528     24.969     25.729
REMARK INTER + INTRA:          -3.202
REMARK INTER:                  -3.050
REMARK INTRA:                  -0.152
REMARK UNBOUND:                -0.083
REMARK SMILES CCCCCC(=O)[O-]
REMARK SMILES IDX 4 1 5 2 6 3 7 4 8 5 3 6 2 7 1 8
REMARK H PARENT
REMARK Flexibility Score: inf
ROOT
ATOM      1  C   UNL     1       2.581  21.537  11.364  1.00  0.00     0.006 C 
ENDROOT
BRANCH   1   2
ATOM      2  C   UNL     1       3.125  20.878  12.639  1.00  0.00     0.053 C 
BRANCH   2   3
ATOM      3  C   UNL     1       2.405  19.596  12.914  1.00  0.00     0.041 C 
ATOM      4  O   UNL     1       1.149  19.583  13.007  1.00  0.00    -0.550 OA
ATOM      5  O   UNL     1       3.122  18.424  13.118  1.00  0.00    -0.550 OA
ENDBRANCH   2   3
ENDBRANCH   1   2
BRANCH   1   6
ATOM      6  C   UNL     1       2.601  23.078  11.449  1.00  0.00     0.000 C 
BRANCH   6   7
ATOM      7  C   UNL     1       1.207  23.703  11.627  1.00  0.00    -0.003 C 
ATOM      8  C   UNL     1       0.085  22.669  11.642  1.00  0.00     0.004 C 
ENDBRANCH   6   7
ENDBRANCH   1   6
TORSDOF 4
ENDMDL
MODEL 8
REMARK VINA RESULT:    -2.171      2.934      4.600
REMARK INTER + INTRA:          -2.762
REMARK INTER:                  -2.659
REMARK INTRA:                  -0.103
REMARK UNBOUND:                -0.083
REMARK SMILES CCCCCC(=O)[O-]
REMARK SMILES IDX 4 1 5 2 6 3 7 4 8 5 3 6 2 7 1 8
REMARK H PARENT
REMARK Flexibility Score: inf
ROOT
ATOM      1  C   UNL     1     -13.455   6.072  -0.632  1.00  0.00     0.006 C 
ENDROOT
BRANCH   1   2
ATOM      2  C   UNL     1     -14.051   7.134   0.301  1.00  0.00     0.053 C 
BRANCH   2   3
ATOM      3  C   UNL     1     -13.120   8.297   0.434  1.00  0.00     0.041 C 
ATOM      4  O   UNL     1     -12.092   8.371  -0.290  1.00  0.00    -0.550 OA
ATOM      5  O   UNL     1     -13.358   9.274   1.392  1.00  0.00    -0.550 OA
ENDBRANCH   2   3
ENDBRANCH   1   2
BRANCH   1   6
ATOM      6  C   UNL     1     -14.540   5.178  -1.268  1.00  0.00     0.000 C 
BRANCH   6   7
ATOM      7  C   UNL     1     -15.878   5.200  -0.510  1.00  0.00    -0.003 C 
ATOM      8  C   UNL     1     -16.633   3.875  -0.589  1.00  0.00     0.004 C 
ENDBRANCH   6   7
ENDBRANCH   1   6
TORSDOF 4
ENDMDL
