MODEL 1
REMARK VINA RESULT:    -3.984      0.000      0.000
REMARK INTER + INTRA:          -4.611
REMARK INTER:                  -4.566
REMARK INTRA:                  -0.045
REMARK UNBOUND:                -0.045
REMARK SMILES O=C([O-])c1cc(O)c(O)c(O)c1
REMARK SMILES IDX 4 1 5 2 12 3 6 4 10 5 8 6 2 7 1 8 3 9 7 10 11 12 9 14
REMARK H PARENT 7 11 11 13 9 15
REMARK Flexibility Score: inf
ROOT
ATOM      1  C   UNL     1      -8.114  -1.021   8.636  1.00  0.00     0.005 A 
ATOM      2  C   UNL     1      -7.881  -0.973   7.250  1.00  0.00     0.060 A 
ATOM      3  C   UNL     1      -9.439  -1.039   9.104  1.00  0.00     0.060 A 
ATOM      4  C   UNL     1      -8.950  -0.945   6.347  1.00  0.00     0.162 A 
ATOM      5  C   UNL     1     -10.514  -1.012   8.205  1.00  0.00     0.162 A 
ATOM      6  C   UNL     1     -10.271  -0.964   6.822  1.00  0.00     0.200 A 
ENDROOT
BRANCH   1   7
ATOM      7  C   UNL     1      -6.984  -1.050   9.590  1.00  0.00     0.072 C 
ATOM      8  O   UNL     1      -6.461  -2.144   9.931  1.00  0.00    -0.545 OA
ATOM      9  O   UNL     1      -6.482   0.132  10.125  1.00  0.00    -0.545 OA
ENDBRANCH   1   7
BRANCH   4  10
ATOM     10  O   UNL     1      -8.676  -0.897   4.980  1.00  0.00    -0.504 OA
ATOM     11  H   UNL     1      -7.754  -1.089   4.608  1.00  0.00     0.293 HD
ENDBRANCH   4  10
BRANCH   5  12
ATOM     12  O   UNL     1     -11.824  -1.032   8.683  1.00  0.00    -0.504 OA
ATOM     13  H   UNL     1     -12.071  -1.521   9.535  1.00  0.00     0.293 HD
ENDBRANCH   5  12
BRANCH   6  14
ATOM     14  O   UNL     1     -11.330  -0.937   5.914  1.00  0.00    -0.502 OA
ATOM     15  H   UNL     1     -11.648  -1.768   5.429  1.00  0.00     0.293 HD
ENDBRANCH   6  14
TORSDOF 4
ENDMDL
MODEL 2
REMARK VINA RESULT:    -3.971      0.025      2.430
REMARK INTER + INTRA:          -4.595
REMARK INTER:                  -4.551
REMARK INTRA:                  -0.045
REMARK UNBOUND:                -0.045
REMARK SMILES O=C([O-])c1cc(O)c(O)c(O)c1
REMARK SMILES IDX 4 1 5 2 12 3 6 4 10 5 8 6 2 7 1 8 3 9 7 10 11 12 9 14
REMARK H PARENT 7 11 11 13 9 15
REMARK Flexibility Score: inf
ROOT
ATOM      1  C   UNL     1      -8.120  -1.007   8.636  1.00  0.00     0.005 A 
ATOM      2  C   UNL     1      -9.449  -1.036   9.097  1.00  0.00     0.060 A 
ATOM      3  C   UNL     1      -7.880  -0.966   7.252  1.00  0.00     0.060 A 
ATOM      4  C   UNL     1     -10.517  -1.023   8.194  1.00  0.00     0.162 A 
ATOM      5  C   UNL     1      -8.945  -0.952   6.343  1.00  0.00     0.162 A 
ATOM      6  C   UNL     1     -10.270  -0.981   6.813  1.00  0.00     0.200 A 
ENDROOT
BRANCH   1   7
ATOM      7  C   UNL     1      -6.990  -1.021   9.591  1.00  0.00     0.072 C 
ATOM      8  O   UNL     1      -6.462  -2.109   9.944  1.00  0.00    -0.545 OA
ATOM      9  O   UNL     1      -6.495   0.169  10.115  1.00  0.00    -0.545 OA
ENDBRANCH   1   7
BRANCH   4  10
ATOM     10  O   UNL     1     -11.820  -1.053   8.692  1.00  0.00    -0.504 OA
ATOM     11  H   UNL     1     -12.474  -1.787   8.448  1.00  0.00     0.293 HD
ENDBRANCH   4  10
BRANCH   5  12
ATOM     12  O   UNL     1      -8.693  -0.910   4.971  1.00  0.00    -0.504 OA
ATOM     13  H   UNL     1      -8.033  -1.542   4.534  1.00  0.00     0.293 HD
ENDBRANCH   5  12
BRANCH   6  14
ATOM     14  O   UNL     1     -11.342  -0.968   5.920  1.00  0.00    -0.502 OA
ATOM     15  H   UNL     1     -11.293  -0.500   5.022  1.00  0.00     0.293 HD
ENDBRANCH   6  14
TORSDOF 4
ENDMDL
MODEL 3
REMARK VINA RESULT:    -3.668      1.901      2.812
REMARK INTER + INTRA:          -4.248
REMARK INTER:                  -4.201
REMARK INTRA:                  -0.047
REMARK UNBOUND:                -0.045
REMARK SMILES O=C([O-])c1cc(O)c(O)c(O)c1
REMARK SMILES IDX 4 1 5 2 12 3 6 4 10 5 8 6 2 7 1 8 3 9 7 10 11 12 9 14
REMARK H PARENT 7 11 11 13 9 15
REMARK Flexibility Score: inf
ROOT
ATOM      1  C   UNL     1      -8.199  -0.484   8.534  1.00  0.00     0.005 A 
ATOM      2  C   UNL     1      -8.635   0.560   9.369  1.00  0.00     0.060 A 
ATOM      3  C   UNL     1      -8.977  -0.834   7.417  1.00  0.00     0.060 A 
ATOM      4  C   UNL     1      -9.825   1.243   9.095  1.00  0.00     0.162 A 
ATOM      5  C   UNL     1     -10.170  -0.154   7.137  1.00  0.00     0.162 A 
ATOM      6  C   UNL     1     -10.597   0.888   7.977  1.00  0.00     0.200 A 
ENDROOT
BRANCH   1   7
ATOM      7  C   UNL     1      -6.941  -1.207   8.824  1.00  0.00     0.072 C 
ATOM      8  O   UNL     1      -6.049  -1.322   7.941  1.00  0.00    -0.545 OA
ATOM      9  O   UNL     1      -6.724  -1.771  10.076  1.00  0.00    -0.545 OA
ENDBRANCH   1   7
BRANCH   4  10
ATOM     10  O   UNL     1     -10.222   2.272   9.948  1.00  0.00    -0.504 OA
ATOM     11  H   UNL     1      -9.742   2.467  10.819  1.00  0.00     0.293 HD
ENDBRANCH   4  10
BRANCH   5  12
ATOM     12  O   UNL     1     -10.932  -0.510   6.025  1.00  0.00    -0.504 OA
ATOM     13  H   UNL     1     -11.417   0.184   5.469  1.00  0.00     0.293 HD
ENDBRANCH   5  12
BRANCH   6  14
ATOM     14  O   UNL     1     -11.782   1.576   7.712  1.00  0.00    -0.502 OA
ATOM     15  H   UNL     1     -11.793   2.466   7.228  1.00  0.00     0.293 HD
ENDBRANCH   6  14
TORSDOF 4
ENDMDL
MODEL 4
REMARK VINA RESULT:    -3.630     18.749     19.368
REMARK INTER + INTRA:          -4.205
REMARK INTER:                  -4.160
REMARK INTRA:                  -0.045
REMARK UNBOUND:                -0.045
REMARK SMILES O=C([O-])c1cc(O)c(O)c(O)c1
REMARK SMILES IDX 4 1 5 2 12 3 6 4 10 5 8 6 2 7 1 8 3 9 7 10 11 12 9 14
REMARK H PARENT 7 11 11 13 9 15
REMARK Flexibility Score: inf
ROOT
ATOM      1  C   UNL     1       0.792  -4.866  -8.601  1.00  0.00     0.005 A 
ATOM      2  C   UNL     1      -0.330  -5.711  -8.532  1.00  0.00     0.060 A 
ATOM      3  C   UNL     1       0.607  -3.514  -8.933  1.00  0.00     0.060 A 
ATOM      4  C   UNL     1      -1.613  -5.216  -8.789  1.00  0.00     0.162 A 
ATOM      5  C   UNL     1      -0.675  -3.011  -9.192  1.00  0.00     0.162 A 
ATOM      6  C   UNL     1      -1.790  -3.863  -9.120  1.00  0.00     0.200 A 
ENDROOT
BRANCH   1   7
ATOM      7  C   UNL     1       2.149  -5.390  -8.329  1.00  0.00     0.072 C 
ATOM      8  O   UNL     1       2.732  -6.125  -9.170  1.00  0.00    -0.545 OA
ATOM      9  O   UNL     1       2.800  -5.080  -7.140  1.00  0.00    -0.545 OA
ENDBRANCH   1   7
BRANCH   4  10
ATOM     10  O   UNL     1      -2.699  -6.087  -8.711  1.00  0.00    -0.504 OA
ATOM     11  H   UNL     1      -3.605  -5.856  -9.101  1.00  0.00     0.293 HD
ENDBRANCH   4  10
BRANCH   5  12
ATOM     12  O   UNL     1      -0.845  -1.666  -9.520  1.00  0.00    -0.504 OA
ATOM     13  H   UNL     1      -1.692  -1.164  -9.281  1.00  0.00     0.293 HD
ENDBRANCH   5  12
BRANCH   6  14
ATOM     14  O   UNL     1      -3.074  -3.378  -9.375  1.00  0.00    -0.502 OA
ATOM     15  H   UNL     1      -3.597  -2.847  -8.688  1.00  0.00     0.293 HD
ENDBRANCH   6  14
TORSDOF 4
ENDMDL
MODEL 5
REMARK VINA RESULT:    -3.622     18.758     19.364
REMARK INTER + INTRA:          -4.196
REMARK INTER:                  -4.151
REMARK INTRA:                  -0.045
REMARK UNBOUND:                -0.045
REMARK SMILES O=C([O-])c1cc(O)c(O)c(O)c1
REMARK SMILES IDX 4 1 5 2 12 3 6 4 10 5 8 6 2 7 1 8 3 9 7 10 11 12 9 14
REMARK H PARENT 7 11 11 13 9 15
REMARK Flexibility Score: inf
ROOT
ATOM      1  C   UNL     1       0.801  -4.866  -8.632  1.00  0.00     0.005 A 
ATOM      2  C   UNL     1       0.613  -3.524  -9.006  1.00  0.00     0.060 A 
ATOM      3  C   UNL     1      -0.320  -5.705  -8.517  1.00  0.00     0.060 A 
ATOM      4  C   UNL     1      -0.670  -3.028  -9.264  1.00  0.00     0.162 A 
ATOM      5  C   UNL     1      -1.608  -5.215  -8.773  1.00  0.00     0.162 A 
ATOM      6  C   UNL     1      -1.786  -3.872  -9.147  1.00  0.00     0.200 A 
ENDROOT
BRANCH   1   7
ATOM      7  C   UNL     1       2.158  -5.390  -8.360  1.00  0.00     0.072 C 
ATOM      8  O   UNL     1       2.717  -5.178  -7.251  1.00  0.00    -0.545 OA
ATOM      9  O   UNL     1       2.836  -6.125  -9.326  1.00  0.00    -0.545 OA
ENDBRANCH   1   7
BRANCH   4  10
ATOM     10  O   UNL     1      -0.814  -1.691  -9.633  1.00  0.00    -0.504 OA
ATOM     11  H   UNL     1      -1.269  -1.415 -10.495  1.00  0.00     0.293 HD
ENDBRANCH   4  10
BRANCH   5  12
ATOM     12  O   UNL     1      -2.712  -6.059  -8.656  1.00  0.00    -0.504 OA
ATOM     13  H   UNL     1      -3.424  -6.103  -9.375  1.00  0.00     0.293 HD
ENDBRANCH   5  12
BRANCH   6  14
ATOM     14  O   UNL     1      -3.061  -3.368  -9.406  1.00  0.00    -0.502 OA
ATOM     15  H   UNL     1      -3.425  -2.549  -8.933  1.00  0.00     0.293 HD
ENDBRANCH   6  14
TORSDOF 4
ENDMDL
MODEL 6
REMARK VINA RESULT:    -3.599     20.957     21.999
REMARK INTER + INTRA:          -4.170
REMARK INTER:                  -4.124
REMARK INTRA:                  -0.046
REMARK UNBOUND:                -0.045
REMARK SMILES O=C([O-])c1cc(O)c(O)c(O)c1
REMARK SMILES IDX 4 1 5 2 12 3 6 4 10 5 8 6 2 7 1 8 3 9 7 10 11 12 9 14
REMARK H PARENT 7 11 11 13 9 15
REMARK Flexibility Score: inf
ROOT
ATOM      1  C   UNL     1       4.633   5.340  -8.497  1.00  0.00     0.005 A 
ATOM      2  C   UNL     1       3.957   6.435  -9.064  1.00  0.00     0.060 A 
ATOM      3  C   UNL     1       3.986   4.095  -8.440  1.00  0.00     0.060 A 
ATOM      4  C   UNL     1       2.659   6.290  -9.566  1.00  0.00     0.162 A 
ATOM      5  C   UNL     1       2.686   3.942  -8.941  1.00  0.00     0.162 A 
ATOM      6  C   UNL     1       2.018   5.042  -9.506  1.00  0.00     0.200 A 
ENDROOT
BRANCH   1   7
ATOM      7  C   UNL     1       6.006   5.494  -7.966  1.00  0.00     0.072 C 
ATOM      8  O   UNL     1       6.239   5.339  -6.738  1.00  0.00    -0.545 OA
ATOM      9  O   UNL     1       7.059   5.813  -8.817  1.00  0.00    -0.545 OA
ENDBRANCH   1   7
BRANCH   4  10
ATOM     10  O   UNL     1       2.023   7.400 -10.120  1.00  0.00    -0.504 OA
ATOM     11  H   UNL     1       1.515   8.069  -9.554  1.00  0.00     0.293 HD
ENDBRANCH   4  10
BRANCH   5  12
ATOM     12  O   UNL     1       2.055   2.699  -8.879  1.00  0.00    -0.504 OA
ATOM     13  H   UNL     1       1.368   2.419  -9.568  1.00  0.00     0.293 HD
ENDBRANCH   5  12
BRANCH   6  14
ATOM     14  O   UNL     1       0.724   4.907 -10.010  1.00  0.00    -0.502 OA
ATOM     15  H   UNL     1       0.037   5.650  -9.942  1.00  0.00     0.293 HD
ENDBRANCH   6  14
TORSDOF 4
ENDMDL
MODEL 7
REMARK VINA RESULT:    -3.568     20.979     22.002
REMARK INTER + INTRA:          -4.134
REMARK INTER:                  -4.088
REMARK INTRA:                  -0.046
REMARK UNBOUND:                -0.045
REMARK SMILES O=C([O-])c1cc(O)c(O)c(O)c1
REMARK SMILES IDX 4 1 5 2 12 3 6 4 10 5 8 6 2 7 1 8 3 9 7 10 11 12 9 14
REMARK H PARENT 7 11 11 13 9 15
REMARK Flexibility Score: inf
ROOT
ATOM      1  C   UNL     1       4.636   5.338  -8.446  1.00  0.00     0.005 A 
ATOM      2  C   UNL     1       3.997   4.085  -8.421  1.00  0.00     0.060 A 
ATOM      3  C   UNL     1       3.959   6.436  -9.004  1.00  0.00     0.060 A 
ATOM      4  C   UNL     1       2.708   3.931  -8.942  1.00  0.00     0.162 A 
ATOM      5  C   UNL     1       2.668   6.289  -9.527  1.00  0.00     0.162 A 
ATOM      6  C   UNL     1       2.038   5.033  -9.497  1.00  0.00     0.200 A 
ENDROOT
BRANCH   1   7
ATOM      7  C   UNL     1       5.999   5.501  -7.896  1.00  0.00     0.072 C 
ATOM      8  O   UNL     1       6.222   5.315  -6.670  1.00  0.00    -0.545 OA
ATOM      9  O   UNL     1       7.056   5.863  -8.725  1.00  0.00    -0.545 OA
ENDBRANCH   1   7
BRANCH   4  10
ATOM     10  O   UNL     1       2.110   2.671  -8.898  1.00  0.00    -0.504 OA
ATOM     11  H   UNL     1       1.909   2.140  -9.736  1.00  0.00     0.293 HD
ENDBRANCH   4  10
BRANCH   5  12
ATOM     12  O   UNL     1       2.007   7.387 -10.077  1.00  0.00    -0.504 OA
ATOM     13  H   UNL     1       2.483   8.042 -10.685  1.00  0.00     0.293 HD
ENDBRANCH   5  12
BRANCH   6  14
ATOM     14  O   UNL     1       0.752   4.869 -10.014  1.00  0.00    -0.502 OA
ATOM     15  H   UNL     1       0.390   5.454 -10.757  1.00  0.00     0.293 HD
ENDBRANCH   6  14
TORSDOF 4
ENDMDL
MODEL 8
REMARK VINA RESULT:    -3.480     18.648     19.236
REMARK INTER + INTRA:          -4.033
REMARK INTER:                  -3.987
REMARK INTRA:                  -0.046
REMARK UNBOUND:                -0.045
REMARK SMILES O=C([O-])c1cc(O)c(O)c(O)c1
REMARK SMILES IDX 4 1 5 2 12 3 6 4 10 5 8 6 2 7 1 8 3 9 7 10 11 12 9 14
REMARK H PARENT 7 11 11 13 9 15
REMARK Flexibility Score: inf
ROOT
ATOM      1  C   UNL     1       0.443  -2.305  -8.710  1.00  0.00     0.005 A 
ATOM      2  C   UNL     1       0.964  -3.611  -8.660  1.00  0.00     0.060 A 
ATOM      3  C   UNL     1      -0.925  -2.128  -8.975  1.00  0.00     0.060 A 
ATOM      4  C   UNL     1       0.135  -4.718  -8.868  1.00  0.00     0.162 A 
ATOM      5  C   UNL     1      -1.761  -3.232  -9.184  1.00  0.00     0.162 A 
ATOM      6  C   UNL     1      -1.232  -4.533  -9.131  1.00  0.00     0.200 A 
ENDROOT
BRANCH   1   7
ATOM      7  C   UNL     1       1.321  -1.134  -8.491  1.00  0.00     0.072 C 
ATOM      8  O   UNL     1       1.529  -0.307  -9.417  1.00  0.00    -0.545 OA
ATOM      9  O   UNL     1       1.929  -0.931  -7.257  1.00  0.00    -0.545 OA
ENDBRANCH   1   7
BRANCH   4  10
ATOM     10  O   UNL     1       0.691  -5.996  -8.809  1.00  0.00    -0.504 OA
ATOM     11  H   UNL     1       1.692  -6.149  -8.796  1.00  0.00     0.293 HD
ENDBRANCH   4  10
BRANCH   5  12
ATOM     12  O   UNL     1      -3.118  -3.042  -9.445  1.00  0.00    -0.504 OA
ATOM     13  H   UNL     1      -3.727  -3.816  -9.680  1.00  0.00     0.293 HD
ENDBRANCH   5  12
BRANCH   6  14
ATOM     14  O   UNL     1      -2.051  -5.644  -9.337  1.00  0.00    -0.502 OA
ATOM     15  H   UNL     1      -2.823  -5.867  -8.720  1.00  0.00     0.293 HD
ENDBRANCH   6  14
TORSDOF 4
ENDMDL
MODEL 9
REMARK VINA RESULT:    -3.480     18.624     19.274
REMARK INTER + INTRA:          -4.033
REMARK INTER:                  -3.988
REMARK INTRA:                  -0.045
REMARK UNBOUND:                -0.045
REMARK SMILES O=C([O-])c1cc(O)c(O)c(O)c1
REMARK SMILES IDX 4 1 5 2 12 3 6 4 10 5 8 6 2 7 1 8 3 9 7 10 11 12 9 14
REMARK H PARENT 7 11 11 13 9 15
REMARK Flexibility Score: inf
ROOT
ATOM      1  C   UNL     1       0.422  -2.285  -8.699  1.00  0.00     0.005 A 
ATOM      2  C   UNL     1      -0.948  -2.124  -8.970  1.00  0.00     0.060 A 
ATOM      3  C   UNL     1       0.957  -3.582  -8.634  1.00  0.00     0.060 A 
ATOM      4  C   UNL     1      -1.770  -3.238  -9.174  1.00  0.00     0.162 A 
ATOM      5  C   UNL     1       0.140  -4.702  -8.838  1.00  0.00     0.162 A 
ATOM      6  C   UNL     1      -1.229  -4.532  -9.109  1.00  0.00     0.200 A 
ENDROOT
BRANCH   1   7
ATOM      7  C   UNL     1       1.291  -1.106  -8.483  1.00  0.00     0.072 C 
ATOM      8  O   UNL     1       1.586  -0.344  -9.441  1.00  0.00    -0.545 OA
ATOM      9  O   UNL     1       1.795  -0.825  -7.218  1.00  0.00    -0.545 OA
ENDBRANCH   1   7
BRANCH   4  10
ATOM     10  O   UNL     1      -3.124  -3.037  -9.441  1.00  0.00    -0.504 OA
ATOM     11  H   UNL     1      -3.445  -2.361 -10.124  1.00  0.00     0.293 HD
ENDBRANCH   4  10
BRANCH   5  12
ATOM     12  O   UNL     1       0.684  -5.985  -8.772  1.00  0.00    -0.504 OA
ATOM     13  H   UNL     1       1.048  -6.363  -7.906  1.00  0.00     0.293 HD
ENDBRANCH   5  12
BRANCH   6  14
ATOM     14  O   UNL     1      -2.057  -5.637  -9.314  1.00  0.00    -0.502 OA
ATOM     15  H   UNL     1      -2.542  -6.097  -8.553  1.00  0.00     0.293 HD
ENDBRANCH   6  14
TORSDOF 4
ENDMDL
