MODEL 1
REMARK VINA RESULT:    -7.404      0.000      0.000
REMARK INTER + INTRA:          -9.605
REMARK INTER:                  -9.135
REMARK INTRA:                  -0.469
REMARK UNBOUND:                -0.469
REMARK SMILES CC(C)=CCC[C@H](C)c1ccc(C)cc1
REMARK SMILES IDX 6 1 7 2 8 3 9 4 13 5 12 6 11 7 14 8 10 9 15 10 5 11 4 12
REMARK SMILES IDX 2 13 1 14 3 15
REMARK H PARENT
REMARK Flexibility Score: inf
ROOT
ATOM      1  C   UNL     1      16.043  33.182  36.348  1.00  0.00     0.012 C 
ENDROOT
BRANCH   1   2
ATOM      2  C   UNL     1      16.346  33.088  34.831  1.00  0.00     0.016 C 
ATOM      3  C   UNL     1      17.775  33.542  34.490  1.00  0.00     0.013 C 
BRANCH   2   4
ATOM      4  C   UNL     1      15.331  33.897  34.044  1.00  0.00    -0.045 A 
ATOM      5  C   UNL     1      12.464  36.199  31.776  1.00  0.00     0.044 C 
ATOM      6  C   UNL     1      13.446  35.374  32.553  1.00  0.00    -0.051 A 
ATOM      7  C   UNL     1      13.163  34.995  33.872  1.00  0.00     0.004 A 
ATOM      8  C   UNL     1      14.683  35.030  31.989  1.00  0.00     0.004 A 
ATOM      9  C   UNL     1      14.092  34.257  34.610  1.00  0.00     0.004 A 
ATOM     10  C   UNL     1      15.614  34.293  32.725  1.00  0.00     0.004 A 
ENDBRANCH   2   4
ENDBRANCH   1   2
BRANCH   1  11
ATOM     11  C   UNL     1      16.246  31.863  37.115  1.00  0.00     0.028 C 
BRANCH  11  12
ATOM     12  C   UNL     1      17.008  30.839  36.307  1.00  0.00    -0.028 C 
ATOM     13  C   UNL     1      17.171  29.545  36.661  1.00  0.00    -0.080 C 
ATOM     14  C   UNL     1      17.926  28.635  35.727  1.00  0.00     0.039 C 
ATOM     15  C   UNL     1      16.642  28.998  37.966  1.00  0.00     0.039 C 
ENDBRANCH  11  12
ENDBRANCH   1  11
TORSDOF 4
ENDMDL
MODEL 2
REMARK VINA RESULT:    -6.893      1.234      6.656
REMARK INTER + INTRA:          -8.974
REMARK INTER:                  -8.780
REMARK INTRA:                  -0.194
REMARK UNBOUND:                -0.469
REMARK SMILES CC(C)=CCC[C@H](C)c1ccc(C)cc1
REMARK SMILES IDX 6 1 7 2 8 3 9 4 13 5 12 6 11 7 14 8 10 9 15 10 5 11 4 12
REMARK SMILES IDX 2 13 1 14 3 15
REMARK H PARENT
REMARK Flexibility Score: inf
ROOT
ATOM      1  C   UNL     1      15.193  33.312  36.566  1.00  0.00     0.012 C 
ENDROOT
BRANCH   1   2
ATOM      2  C   UNL     1      16.622  32.874  36.159  1.00  0.00     0.016 C 
ATOM      3  C   UNL     1      16.944  33.214  34.694  1.00  0.00     0.013 C 
BRANCH   2   4
ATOM      4  C   UNL     1      16.805  31.388  36.410  1.00  0.00    -0.045 A 
ATOM      5  C   UNL     1      17.313  27.163  37.155  1.00  0.00     0.044 C 
ATOM      6  C   UNL     1      17.109  28.624  36.884  1.00  0.00    -0.051 A 
ATOM      7  C   UNL     1      17.533  29.184  35.671  1.00  0.00     0.004 A 
ATOM      8  C   UNL     1      16.552  29.455  37.868  1.00  0.00     0.004 A 
ATOM      9  C   UNL     1      17.376  30.551  35.431  1.00  0.00     0.004 A 
ATOM     10  C   UNL     1      16.395  30.823  37.630  1.00  0.00     0.004 A 
ENDBRANCH   2   4
ENDBRANCH   1   2
BRANCH   1  11
ATOM     11  C   UNL     1      14.690  34.575  35.843  1.00  0.00     0.028 C 
BRANCH  11  12
ATOM     12  C   UNL     1      13.967  34.253  34.557  1.00  0.00    -0.028 C 
ATOM     13  C   UNL     1      13.130  35.095  33.913  1.00  0.00    -0.080 C 
ATOM     14  C   UNL     1      12.513  34.640  32.615  1.00  0.00     0.039 C 
ATOM     15  C   UNL     1      12.782  36.458  34.464  1.00  0.00     0.039 C 
ENDBRANCH  11  12
ENDBRANCH   1  11
TORSDOF 4
ENDMDL
MODEL 3
REMARK VINA RESULT:    -6.874      1.230      6.570
REMARK INTER + INTRA:          -8.950
REMARK INTER:                  -8.745
REMARK INTRA:                  -0.205
REMARK UNBOUND:                -0.469
REMARK SMILES CC(C)=CCC[C@H](C)c1ccc(C)cc1
REMARK SMILES IDX 6 1 7 2 8 3 9 4 13 5 12 6 11 7 14 8 10 9 15 10 5 11 4 12
REMARK SMILES IDX 2 13 1 14 3 15
REMARK H PARENT
REMARK Flexibility Score: inf
ROOT
ATOM      1  C   UNL     1      15.198  33.254  36.488  1.00  0.00     0.012 C 
ENDROOT
BRANCH   1   2
ATOM      2  C   UNL     1      16.628  32.809  36.092  1.00  0.00     0.016 C 
ATOM      3  C   UNL     1      16.946  33.105  34.617  1.00  0.00     0.013 C 
BRANCH   2   4
ATOM      4  C   UNL     1      16.818  31.332  36.388  1.00  0.00    -0.045 A 
ATOM      5  C   UNL     1      17.372  27.126  37.202  1.00  0.00     0.044 C 
ATOM      6  C   UNL     1      17.207  28.592  36.933  1.00  0.00    -0.051 A 
ATOM      7  C   UNL     1      16.563  29.414  37.868  1.00  0.00     0.004 A 
ATOM      8  C   UNL     1      17.636  29.140  35.716  1.00  0.00     0.004 A 
ATOM      9  C   UNL     1      16.376  30.773  37.603  1.00  0.00     0.004 A 
ATOM     10  C   UNL     1      17.450  30.499  35.449  1.00  0.00     0.004 A 
ENDBRANCH   2   4
ENDBRANCH   1   2
BRANCH   1  11
ATOM     11  C   UNL     1      14.711  34.526  35.770  1.00  0.00     0.028 C 
BRANCH  11  12
ATOM     12  C   UNL     1      13.978  34.216  34.486  1.00  0.00    -0.028 C 
ATOM     13  C   UNL     1      13.116  35.055  33.870  1.00  0.00    -0.080 C 
ATOM     14  C   UNL     1      12.491  34.615  32.572  1.00  0.00     0.039 C 
ATOM     15  C   UNL     1      12.749  36.398  34.454  1.00  0.00     0.039 C 
ENDBRANCH  11  12
ENDBRANCH   1  11
TORSDOF 4
ENDMDL
MODEL 4
REMARK VINA RESULT:    -6.397      8.754     10.267
REMARK INTER + INTRA:          -8.363
REMARK INTER:                  -7.538
REMARK INTRA:                  -0.825
REMARK UNBOUND:                -0.469
REMARK SMILES CC(C)=CCC[C@H](C)c1ccc(C)cc1
REMARK SMILES IDX 6 1 7 2 8 3 9 4 13 5 12 6 11 7 14 8 10 9 15 10 5 11 4 12
REMARK SMILES IDX 2 13 1 14 3 15
REMARK H PARENT
REMARK Flexibility Score: inf
ROOT
ATOM      1  C   UNL     1      21.914  28.670  27.178  1.00  0.00     0.012 C 
ENDROOT
BRANCH   1   2
ATOM      2  C   UNL     1      21.496  29.755  26.154  1.00  0.00     0.016 C 
ATOM      3  C   UNL     1      22.371  29.734  24.889  1.00  0.00     0.013 C 
BRANCH   2   4
ATOM      4  C   UNL     1      21.533  31.127  26.801  1.00  0.00    -0.045 A 
ATOM      5  C   UNL     1      21.629  35.019  28.672  1.00  0.00     0.044 C 
ATOM      6  C   UNL     1      21.625  33.664  28.030  1.00  0.00    -0.051 A 
ATOM      7  C   UNL     1      21.930  33.527  26.668  1.00  0.00     0.004 A 
ATOM      8  C   UNL     1      21.254  32.532  28.770  1.00  0.00     0.004 A 
ATOM      9  C   UNL     1      21.892  32.270  26.060  1.00  0.00     0.004 A 
ATOM     10  C   UNL     1      21.215  31.274  28.162  1.00  0.00     0.004 A 
ENDBRANCH   2   4
ENDBRANCH   1   2
BRANCH   1  11
ATOM     11  C   UNL     1      20.889  27.534  27.348  1.00  0.00     0.028 C 
BRANCH  11  12
ATOM     12  C   UNL     1      19.605  27.801  26.599  1.00  0.00    -0.028 C 
ATOM     13  C   UNL     1      18.366  27.654  27.118  1.00  0.00    -0.080 C 
ATOM     14  C   UNL     1      17.180  27.997  26.253  1.00  0.00     0.039 C 
ATOM     15  C   UNL     1      18.139  27.138  28.519  1.00  0.00     0.039 C 
ENDBRANCH  11  12
ENDBRANCH   1  11
TORSDOF 4
ENDMDL
MODEL 5
REMARK VINA RESULT:    -5.980      9.077     10.436
REMARK INTER + INTRA:          -7.848
REMARK INTER:                  -6.777
REMARK INTRA:                  -1.071
REMARK UNBOUND:                -0.469
REMARK SMILES CC(C)=CCC[C@H](C)c1ccc(C)cc1
REMARK SMILES IDX 6 1 7 2 8 3 9 4 13 5 12 6 11 7 14 8 10 9 15 10 5 11 4 12
REMARK SMILES IDX 2 13 1 14 3 15
REMARK H PARENT
REMARK Flexibility Score: inf
ROOT
ATOM      1  C   UNL     1      17.490  27.803  23.795  1.00  0.00     0.012 C 
ENDROOT
BRANCH   1   2
ATOM      2  C   UNL     1      16.209  27.869  24.663  1.00  0.00     0.016 C 
ATOM      3  C   UNL     1      15.006  27.192  23.985  1.00  0.00     0.013 C 
BRANCH   2   4
ATOM      4  C   UNL     1      15.882  29.311  25.005  1.00  0.00    -0.045 A 
ATOM      5  C   UNL     1      14.918  33.409  25.972  1.00  0.00     0.044 C 
ATOM      6  C   UNL     1      15.249  31.979  25.666  1.00  0.00    -0.051 A 
ATOM      7  C   UNL     1      16.578  31.535  25.713  1.00  0.00     0.004 A 
ATOM      8  C   UNL     1      14.240  31.090  25.266  1.00  0.00     0.004 A 
ATOM      9  C   UNL     1      16.892  30.212  25.393  1.00  0.00     0.004 A 
ATOM     10  C   UNL     1      14.553  29.766  24.946  1.00  0.00     0.004 A 
ENDBRANCH   2   4
ENDBRANCH   1   2
BRANCH   1  11
ATOM     11  C   UNL     1      18.719  27.232  24.524  1.00  0.00     0.028 C 
BRANCH  11  12
ATOM     12  C   UNL     1      18.413  26.849  25.953  1.00  0.00    -0.028 C 
ATOM     13  C   UNL     1      18.943  27.450  27.041  1.00  0.00    -0.080 C 
ATOM     14  C   UNL     1      18.509  26.978  28.405  1.00  0.00     0.039 C 
ATOM     15  C   UNL     1      19.967  28.556  26.928  1.00  0.00     0.039 C 
ENDBRANCH  11  12
ENDBRANCH   1  11
TORSDOF 4
ENDMDL
MODEL 6
REMARK VINA RESULT:    -5.942      9.069     10.793
REMARK INTER + INTRA:          -7.801
REMARK INTER:                  -7.246
REMARK INTRA:                  -0.556
REMARK UNBOUND:                -0.469
REMARK SMILES CC(C)=CCC[C@H](C)c1ccc(C)cc1
REMARK SMILES IDX 6 1 7 2 8 3 9 4 13 5 12 6 11 7 14 8 10 9 15 10 5 11 4 12
REMARK SMILES IDX 2 13 1 14 3 15
REMARK H PARENT
REMARK Flexibility Score: inf
ROOT
ATOM      1  C   UNL     1      20.088  28.864  25.736  1.00  0.00     0.012 C 
ENDROOT
BRANCH   1   2
ATOM      2  C   UNL     1      21.498  29.017  26.359  1.00  0.00     0.016 C 
ATOM      3  C   UNL     1      21.755  28.002  27.484  1.00  0.00     0.013 C 
BRANCH   2   4
ATOM      4  C   UNL     1      21.694  30.434  26.868  1.00  0.00    -0.045 A 
ATOM      5  C   UNL     1      22.233  34.457  28.346  1.00  0.00     0.044 C 
ATOM      6  C   UNL     1      22.071  33.051  27.849  1.00  0.00    -0.051 A 
ATOM      7  C   UNL     1      22.670  32.654  26.645  1.00  0.00     0.004 A 
ATOM      8  C   UNL     1      21.267  32.141  28.550  1.00  0.00     0.004 A 
ATOM      9  C   UNL     1      22.490  31.356  26.161  1.00  0.00     0.004 A 
ATOM     10  C   UNL     1      21.086  30.842  28.068  1.00  0.00     0.004 A 
ENDBRANCH   2   4
ENDBRANCH   1   2
BRANCH   1  11
ATOM     11  C   UNL     1      19.051  28.218  26.672  1.00  0.00     0.028 C 
BRANCH  11  12
ATOM     12  C   UNL     1      17.958  27.503  25.914  1.00  0.00    -0.028 C 
ATOM     13  C   UNL     1      16.780  28.059  25.554  1.00  0.00    -0.080 C 
ATOM     14  C   UNL     1      15.804  27.225  24.765  1.00  0.00     0.039 C 
ATOM     15  C   UNL     1      16.410  29.472  25.938  1.00  0.00     0.039 C 
ENDBRANCH  11  12
ENDBRANCH   1  11
TORSDOF 4
ENDMDL
MODEL 7
REMARK VINA RESULT:    -5.909      9.340     12.024
REMARK INTER + INTRA:          -7.760
REMARK INTER:                  -6.771
REMARK INTRA:                  -0.989
REMARK UNBOUND:                -0.469
REMARK SMILES CC(C)=CCC[C@H](C)c1ccc(C)cc1
REMARK SMILES IDX 6 1 7 2 8 3 9 4 13 5 12 6 11 7 14 8 10 9 15 10 5 11 4 12
REMARK SMILES IDX 2 13 1 14 3 15
REMARK H PARENT
REMARK Flexibility Score: inf
ROOT
ATOM      1  C   UNL     1      16.001  30.131  23.063  1.00  0.00     0.012 C 
ENDROOT
BRANCH   1   2
ATOM      2  C   UNL     1      15.719  28.640  23.376  1.00  0.00     0.016 C 
ATOM      3  C   UNL     1      14.253  28.391  23.766  1.00  0.00     0.013 C 
BRANCH   2   4
ATOM      4  C   UNL     1      16.650  28.151  24.471  1.00  0.00    -0.045 A 
ATOM      5  C   UNL     1      19.318  26.745  27.564  1.00  0.00     0.044 C 
ATOM      6  C   UNL     1      18.407  27.260  26.489  1.00  0.00    -0.051 A 
ATOM      7  C   UNL     1      17.224  27.931  26.828  1.00  0.00     0.004 A 
ATOM      8  C   UNL     1      18.698  27.017  25.139  1.00  0.00     0.004 A 
ATOM      9  C   UNL     1      16.356  28.379  25.830  1.00  0.00     0.004 A 
ATOM     10  C   UNL     1      17.831  27.465  24.139  1.00  0.00     0.004 A 
ENDBRANCH   2   4
ENDBRANCH   1   2
BRANCH   1  11
ATOM     11  C   UNL     1      14.757  31.035  23.120  1.00  0.00     0.028 C 
BRANCH  11  12
ATOM     12  C   UNL     1      14.979  32.267  23.966  1.00  0.00    -0.028 C 
ATOM     13  C   UNL     1      14.662  32.369  25.275  1.00  0.00    -0.080 C 
ATOM     14  C   UNL     1      14.982  33.655  25.993  1.00  0.00     0.039 C 
ATOM     15  C   UNL     1      13.982  31.248  26.025  1.00  0.00     0.039 C 
ENDBRANCH  11  12
ENDBRANCH   1  11
TORSDOF 4
ENDMDL
MODEL 8
REMARK VINA RESULT:    -5.875      9.151     10.623
REMARK INTER + INTRA:          -7.718
REMARK INTER:                  -7.081
REMARK INTRA:                  -0.637
REMARK UNBOUND:                -0.469
REMARK SMILES CC(C)=CCC[C@H](C)c1ccc(C)cc1
REMARK SMILES IDX 6 1 7 2 8 3 9 4 13 5 12 6 11 7 14 8 10 9 15 10 5 11 4 12
REMARK SMILES IDX 2 13 1 14 3 15
REMARK H PARENT
REMARK Flexibility Score: inf
ROOT
ATOM      1  C   UNL     1      20.298  28.689  26.053  1.00  0.00     0.012 C 
ENDROOT
BRANCH   1   2
ATOM      2  C   UNL     1      19.098  28.218  26.912  1.00  0.00     0.016 C 
ATOM      3  C   UNL     1      19.263  26.771  27.406  1.00  0.00     0.013 C 
BRANCH   2   4
ATOM      4  C   UNL     1      17.805  28.367  26.131  1.00  0.00    -0.045 A 
ATOM      5  C   UNL     1      14.123  28.758  23.906  1.00  0.00     0.044 C 
ATOM      6  C   UNL     1      15.385  28.621  24.705  1.00  0.00    -0.051 A 
ATOM      7  C   UNL     1      16.060  29.762  25.159  1.00  0.00     0.004 A 
ATOM      8  C   UNL     1      15.934  27.354  24.948  1.00  0.00     0.004 A 
ATOM      9  C   UNL     1      17.255  29.638  25.872  1.00  0.00     0.004 A 
ATOM     10  C   UNL     1      17.129  27.227  25.661  1.00  0.00     0.004 A 
ENDBRANCH   2   4
ENDBRANCH   1   2
BRANCH   1  11
ATOM     11  C   UNL     1      21.496  29.206  26.871  1.00  0.00     0.028 C 
BRANCH  11  12
ATOM     12  C   UNL     1      21.138  30.402  27.721  1.00  0.00    -0.028 C 
ATOM     13  C   UNL     1      21.654  31.640  27.562  1.00  0.00    -0.080 C 
ATOM     14  C   UNL     1      21.168  32.742  28.468  1.00  0.00     0.039 C 
ATOM     15  C   UNL     1      22.713  31.942  26.528  1.00  0.00     0.039 C 
ENDBRANCH  11  12
ENDBRANCH   1  11
TORSDOF 4
ENDMDL
MODEL 9
REMARK VINA RESULT:    -5.774      9.182     11.355
REMARK INTER + INTRA:          -7.593
REMARK INTER:                  -6.539
REMARK INTRA:                  -1.054
REMARK UNBOUND:                -0.469
REMARK SMILES CC(C)=CCC[C@H](C)c1ccc(C)cc1
REMARK SMILES IDX 6 1 7 2 8 3 9 4 13 5 12 6 11 7 14 8 10 9 15 10 5 11 4 12
REMARK SMILES IDX 2 13 1 14 3 15
REMARK H PARENT
REMARK Flexibility Score: inf
ROOT
ATOM      1  C   UNL     1      20.608  32.012  24.743  1.00  0.00     0.012 C 
ENDROOT
BRANCH   1   2
ATOM      2  C   UNL     1      21.668  30.905  24.972  1.00  0.00     0.016 C 
ATOM      3  C   UNL     1      22.333  30.452  23.662  1.00  0.00     0.013 C 
BRANCH   2   4
ATOM      4  C   UNL     1      21.042  29.720  25.685  1.00  0.00    -0.045 A 
ATOM      5  C   UNL     1      19.236  26.349  27.694  1.00  0.00     0.044 C 
ATOM      6  C   UNL     1      19.877  27.500  26.977  1.00  0.00    -0.051 A 
ATOM      7  C   UNL     1      21.119  27.992  27.400  1.00  0.00     0.004 A 
ATOM      8  C   UNL     1      19.209  28.135  25.920  1.00  0.00     0.004 A 
ATOM      9  C   UNL     1      21.702  29.087  26.757  1.00  0.00     0.004 A 
ATOM     10  C   UNL     1      19.790  29.230  25.275  1.00  0.00     0.004 A 
ENDBRANCH   2   4
ENDBRANCH   1   2
BRANCH   1  11
ATOM     11  C   UNL     1      20.057  32.636  26.038  1.00  0.00     0.028 C 
BRANCH  11  12
ATOM     12  C   UNL     1      21.075  33.506  26.736  1.00  0.00    -0.028 C 
ATOM     13  C   UNL     1      21.596  33.252  27.956  1.00  0.00    -0.080 C 
ATOM     14  C   UNL     1      22.635  34.197  28.504  1.00  0.00     0.039 C 
ATOM     15  C   UNL     1      21.154  32.071  28.789  1.00  0.00     0.039 C 
ENDBRANCH  11  12
ENDBRANCH   1  11
TORSDOF 4
ENDMDL
