MODEL 1
REMARK VINA RESULT:    -7.809      0.000      0.000
REMARK INTER + INTRA:          -8.961
REMARK INTER:                  -9.179
REMARK INTRA:                   0.218
REMARK UNBOUND:                 0.218
REMARK SMILES O=c1c(O)c(-c2ccc(O)c(O)c2)oc2cc(O)ccc12
REMARK SMILES IDX 5 1 3 2 2 3 1 4 21 5 15 6 14 7 16 8 17 9 19 10 20 11 6 12
REMARK SMILES IDX 7 13 8 14 9 15 13 16 11 17 10 18 12 20 4 22 18 24
REMARK H PARENT 10 19 12 21 4 23 18 25
REMARK Flexibility Score: inf
ROOT
ATOM      1  C   UNL     1      27.311  13.155  78.183  1.00  0.00     0.180 A 
ATOM      2  C   UNL     1      26.672  14.330  78.630  1.00  0.00     0.208 A 
ATOM      3  C   UNL     1      27.240  15.045  79.695  1.00  0.00     0.235 A 
ATOM      4  O   UNL     1      26.681  16.093  80.121  1.00  0.00    -0.285 OA
ATOM      5  C   UNL     1      28.433  14.588  80.275  1.00  0.00     0.069 A 
ATOM      6  C   UNL     1      29.023  13.416  79.755  1.00  0.00     0.142 A 
ATOM      7  O   UNL     1      28.449  12.764  78.750  1.00  0.00    -0.452 OA
ATOM      8  C   UNL     1      30.219  12.933  80.300  1.00  0.00     0.094 A 
ATOM      9  C   UNL     1      30.834  13.608  81.362  1.00  0.00     0.119 A 
ATOM     10  C   UNL     1      30.249  14.769  81.880  1.00  0.00     0.047 A 
ATOM     11  C   UNL     1      29.056  15.260  81.343  1.00  0.00     0.020 A 
ENDROOT
BRANCH   1  12
ATOM     12  C   UNL     1      26.765  12.336  77.077  1.00  0.00     0.025 A 
ATOM     13  C   UNL     1      26.848  10.936  77.147  1.00  0.00     0.016 A 
ATOM     14  C   UNL     1      26.321  10.143  76.125  1.00  0.00     0.051 A 
ATOM     15  C   UNL     1      25.688  10.737  75.027  1.00  0.00     0.157 A 
ATOM     16  C   UNL     1      26.110  12.928  75.981  1.00  0.00     0.062 A 
ATOM     17  C   UNL     1      25.579  12.131  74.956  1.00  0.00     0.158 A 
BRANCH  15  18
ATOM     18  O   UNL     1      25.162   9.950  74.003  1.00  0.00    -0.504 OA
ATOM     19  H   UNL     1      24.684   9.077  74.198  1.00  0.00     0.293 HD
ENDBRANCH  15  18
BRANCH  17  20
ATOM     20  O   UNL     1      24.936  12.719  73.867  1.00  0.00    -0.504 OA
ATOM     21  H   UNL     1      24.593  12.165  73.091  1.00  0.00     0.293 HD
ENDBRANCH  17  20
ENDBRANCH   1  12
BRANCH   2  22
ATOM     22  O   UNL     1      25.511  14.788  78.000  1.00  0.00    -0.502 OA
ATOM     23  H   UNL     1      24.633  14.895  78.495  1.00  0.00     0.293 HD
ENDBRANCH   2  22
BRANCH   9  24
ATOM     24  O   UNL     1      32.023  13.135  81.910  1.00  0.00    -0.508 OA
ATOM     25  H   UNL     1      32.830  12.932  81.330  1.00  0.00     0.293 HD
ENDBRANCH   9  24
TORSDOF 5
ENDMDL
MODEL 2
REMARK VINA RESULT:    -7.269      1.640      2.872
REMARK INTER + INTRA:          -8.326
REMARK INTER:                  -8.112
REMARK INTRA:                  -0.214
REMARK UNBOUND:                 0.218
REMARK SMILES O=c1c(O)c(-c2ccc(O)c(O)c2)oc2cc(O)ccc12
REMARK SMILES IDX 5 1 3 2 2 3 1 4 21 5 15 6 14 7 16 8 17 9 19 10 20 11 6 12
REMARK SMILES IDX 7 13 8 14 9 15 13 16 11 17 10 18 12 20 4 22 18 24
REMARK H PARENT 10 19 12 21 4 23 18 25
REMARK Flexibility Score: inf
ROOT
ATOM      1  C   UNL     1      27.818  12.301  78.715  1.00  0.00     0.180 A 
ATOM      2  C   UNL     1      29.220  12.259  78.861  1.00  0.00     0.208 A 
ATOM      3  C   UNL     1      29.795  12.789  80.026  1.00  0.00     0.235 A 
ATOM      4  O   UNL     1      31.048  12.773  80.175  1.00  0.00    -0.285 OA
ATOM      5  C   UNL     1      28.965  13.328  81.022  1.00  0.00     0.069 A 
ATOM      6  C   UNL     1      27.570  13.313  80.810  1.00  0.00     0.142 A 
ATOM      7  O   UNL     1      27.066  12.808  79.689  1.00  0.00    -0.452 OA
ATOM      8  C   UNL     1      26.709  13.832  81.783  1.00  0.00     0.094 A 
ATOM      9  C   UNL     1      27.226  14.371  82.968  1.00  0.00     0.119 A 
ATOM     10  C   UNL     1      28.609  14.389  83.179  1.00  0.00     0.047 A 
ATOM     11  C   UNL     1      29.477  13.872  82.214  1.00  0.00     0.020 A 
ENDROOT
BRANCH   1  12
ATOM     12  C   UNL     1      27.138  11.779  77.508  1.00  0.00     0.025 A 
ATOM     13  C   UNL     1      27.069  10.392  77.300  1.00  0.00     0.016 A 
ATOM     14  C   UNL     1      26.414   9.876  76.179  1.00  0.00     0.051 A 
ATOM     15  C   UNL     1      25.805  10.738  75.259  1.00  0.00     0.157 A 
ATOM     16  C   UNL     1      26.507  12.640  76.591  1.00  0.00     0.062 A 
ATOM     17  C   UNL     1      25.848  12.122  75.467  1.00  0.00     0.158 A 
BRANCH  15  18
ATOM     18  O   UNL     1      25.152  10.228  74.138  1.00  0.00    -0.504 OA
ATOM     19  H   UNL     1      25.221  10.680  73.233  1.00  0.00     0.293 HD
ENDBRANCH  15  18
BRANCH  17  20
ATOM     20  O   UNL     1      25.229  12.977  74.556  1.00  0.00    -0.504 OA
ATOM     21  H   UNL     1      25.367  12.877  73.557  1.00  0.00     0.293 HD
ENDBRANCH  17  20
ENDBRANCH   1  12
BRANCH   2  22
ATOM     22  O   UNL     1      30.018  11.671  77.875  1.00  0.00    -0.502 OA
ATOM     23  H   UNL     1      31.022  11.580  77.973  1.00  0.00     0.293 HD
ENDBRANCH   2  22
BRANCH   9  24
ATOM     24  O   UNL     1      26.376  14.889  83.942  1.00  0.00    -0.508 OA
ATOM     25  H   UNL     1      25.517  14.417  84.202  1.00  0.00     0.293 HD
ENDBRANCH   9  24
TORSDOF 5
ENDMDL
MODEL 3
REMARK VINA RESULT:    -7.089      1.772      6.898
REMARK INTER + INTRA:          -8.115
REMARK INTER:                  -8.028
REMARK INTRA:                  -0.086
REMARK UNBOUND:                 0.218
REMARK SMILES O=c1c(O)c(-c2ccc(O)c(O)c2)oc2cc(O)ccc12
REMARK SMILES IDX 5 1 3 2 2 3 1 4 21 5 15 6 14 7 16 8 17 9 19 10 20 11 6 12
REMARK SMILES IDX 7 13 8 14 9 15 13 16 11 17 10 18 12 20 4 22 18 24
REMARK H PARENT 10 19 12 21 4 23 18 25
REMARK Flexibility Score: inf
ROOT
ATOM      1  C   UNL     1      27.043  13.362  78.965  1.00  0.00     0.180 A 
ATOM      2  C   UNL     1      27.506  12.072  79.299  1.00  0.00     0.208 A 
ATOM      3  C   UNL     1      27.370  11.040  78.358  1.00  0.00     0.235 A 
ATOM      4  O   UNL     1      27.766   9.875  78.637  1.00  0.00    -0.285 OA
ATOM      5  C   UNL     1      26.797  11.318  77.107  1.00  0.00     0.069 A 
ATOM      6  C   UNL     1      26.379  12.640  76.841  1.00  0.00     0.142 A 
ATOM      7  O   UNL     1      26.519  13.586  77.763  1.00  0.00    -0.452 OA
ATOM      8  C   UNL     1      25.813  12.959  75.602  1.00  0.00     0.094 A 
ATOM      9  C   UNL     1      25.655  11.970  74.622  1.00  0.00     0.119 A 
ATOM     10  C   UNL     1      26.067  10.658  74.884  1.00  0.00     0.047 A 
ATOM     11  C   UNL     1      26.635  10.330  76.118  1.00  0.00     0.020 A 
ENDROOT
BRANCH   1  12
ATOM     12  C   UNL     1      27.135  14.498  79.910  1.00  0.00     0.025 A 
ATOM     13  C   UNL     1      28.396  14.917  80.366  1.00  0.00     0.016 A 
ATOM     14  C   UNL     1      28.508  16.000  81.241  1.00  0.00     0.051 A 
ATOM     15  C   UNL     1      27.364  16.691  81.659  1.00  0.00     0.157 A 
ATOM     16  C   UNL     1      25.990  15.208  80.316  1.00  0.00     0.062 A 
ATOM     17  C   UNL     1      26.104  16.296  81.194  1.00  0.00     0.158 A 
BRANCH  15  18
ATOM     18  O   UNL     1      27.471  17.771  82.534  1.00  0.00    -0.504 OA
ATOM     19  H   UNL     1      27.031  17.758  83.448  1.00  0.00     0.293 HD
ENDBRANCH  15  18
BRANCH  17  20
ATOM     20  O   UNL     1      24.968  16.995  81.601  1.00  0.00    -0.504 OA
ATOM     21  H   UNL     1      24.581  16.882  82.532  1.00  0.00     0.293 HD
ENDBRANCH  17  20
ENDBRANCH   1  12
BRANCH   2  22
ATOM     22  O   UNL     1      28.118  11.837  80.534  1.00  0.00    -0.502 OA
ATOM     23  H   UNL     1      28.995  11.337  80.617  1.00  0.00     0.293 HD
ENDBRANCH   2  22
BRANCH   9  24
ATOM     24  O   UNL     1      25.092  12.278  73.386  1.00  0.00    -0.508 OA
ATOM     25  H   UNL     1      24.982  13.239  73.080  1.00  0.00     0.293 HD
ENDBRANCH   9  24
TORSDOF 5
ENDMDL
MODEL 4
REMARK VINA RESULT:    -6.866      1.861      6.550
REMARK INTER + INTRA:          -7.852
REMARK INTER:                  -7.609
REMARK INTRA:                  -0.243
REMARK UNBOUND:                 0.218
REMARK SMILES O=c1c(O)c(-c2ccc(O)c(O)c2)oc2cc(O)ccc12
REMARK SMILES IDX 5 1 3 2 2 3 1 4 21 5 15 6 14 7 16 8 17 9 19 10 20 11 6 12
REMARK SMILES IDX 7 13 8 14 9 15 13 16 11 17 10 18 12 20 4 22 18 24
REMARK H PARENT 10 19 12 21 4 23 18 25
REMARK Flexibility Score: inf
ROOT
ATOM      1  C   UNL     1      27.154  12.988  79.315  1.00  0.00     0.180 A 
ATOM      2  C   UNL     1      26.674  14.248  78.900  1.00  0.00     0.208 A 
ATOM      3  C   UNL     1      26.199  14.391  77.588  1.00  0.00     0.235 A 
ATOM      4  O   UNL     1      25.776  15.511  77.189  1.00  0.00    -0.285 OA
ATOM      5  C   UNL     1      26.194  13.280  76.730  1.00  0.00     0.069 A 
ATOM      6  C   UNL     1      26.670  12.048  77.228  1.00  0.00     0.142 A 
ATOM      7  O   UNL     1      27.119  11.956  78.475  1.00  0.00    -0.452 OA
ATOM      8  C   UNL     1      26.672  10.915  76.407  1.00  0.00     0.094 A 
ATOM      9  C   UNL     1      26.206  10.997  75.089  1.00  0.00     0.119 A 
ATOM     10  C   UNL     1      25.736  12.218  74.592  1.00  0.00     0.047 A 
ATOM     11  C   UNL     1      25.728  13.355  75.404  1.00  0.00     0.020 A 
ENDROOT
BRANCH   1  12
ATOM     12  C   UNL     1      27.688  12.761  80.678  1.00  0.00     0.025 A 
ATOM     13  C   UNL     1      26.976  11.944  81.571  1.00  0.00     0.016 A 
ATOM     14  C   UNL     1      27.471  11.699  82.854  1.00  0.00     0.051 A 
ATOM     15  C   UNL     1      28.692  12.252  83.257  1.00  0.00     0.157 A 
ATOM     16  C   UNL     1      28.924  13.298  81.080  1.00  0.00     0.062 A 
ATOM     17  C   UNL     1      29.422  13.050  82.367  1.00  0.00     0.158 A 
BRANCH  15  18
ATOM     18  O   UNL     1      29.189  12.012  84.537  1.00  0.00    -0.504 OA
ATOM     19  H   UNL     1      30.080  12.391  84.839  1.00  0.00     0.293 HD
ENDBRANCH  15  18
BRANCH  17  20
ATOM     20  O   UNL     1      30.644  13.589  82.766  1.00  0.00    -0.504 OA
ATOM     21  H   UNL     1      31.477  13.495  82.197  1.00  0.00     0.293 HD
ENDBRANCH  17  20
ENDBRANCH   1  12
BRANCH   2  22
ATOM     22  O   UNL     1      26.645  15.323  79.792  1.00  0.00    -0.502 OA
ATOM     23  H   UNL     1      26.752  15.201  80.792  1.00  0.00     0.293 HD
ENDBRANCH   2  22
BRANCH   9  24
ATOM     24  O   UNL     1      26.204   9.875  74.264  1.00  0.00    -0.508 OA
ATOM     25  H   UNL     1      26.350   8.944  74.638  1.00  0.00     0.293 HD
ENDBRANCH   9  24
TORSDOF 5
ENDMDL
MODEL 5
REMARK VINA RESULT:    -6.797      3.192      5.737
REMARK INTER + INTRA:          -7.771
REMARK INTER:                  -7.494
REMARK INTRA:                  -0.278
REMARK UNBOUND:                 0.218
REMARK SMILES O=c1c(O)c(-c2ccc(O)c(O)c2)oc2cc(O)ccc12
REMARK SMILES IDX 5 1 3 2 2 3 1 4 21 5 15 6 14 7 16 8 17 9 19 10 20 11 6 12
REMARK SMILES IDX 7 13 8 14 9 15 13 16 11 17 10 18 12 20 4 22 18 24
REMARK H PARENT 10 19 12 21 4 23 18 25
REMARK Flexibility Score: inf
ROOT
ATOM      1  C   UNL     1      27.853  14.648  80.725  1.00  0.00     0.180 A 
ATOM      2  C   UNL     1      29.091  15.102  81.225  1.00  0.00     0.208 A 
ATOM      3  C   UNL     1      30.253  14.381  80.908  1.00  0.00     0.235 A 
ATOM      4  O   UNL     1      31.371  14.760  81.353  1.00  0.00    -0.285 OA
ATOM      5  C   UNL     1      30.159  13.244  80.090  1.00  0.00     0.069 A 
ATOM      6  C   UNL     1      28.885  12.869  79.611  1.00  0.00     0.142 A 
ATOM      7  O   UNL     1      27.809  13.574  79.941  1.00  0.00    -0.452 OA
ATOM      8  C   UNL     1      28.751  11.748  78.784  1.00  0.00     0.094 A 
ATOM      9  C   UNL     1      29.877  10.992  78.431  1.00  0.00     0.119 A 
ATOM     10  C   UNL     1      31.140  11.362  78.907  1.00  0.00     0.047 A 
ATOM     11  C   UNL     1      31.284  12.480  79.732  1.00  0.00     0.020 A 
ENDROOT
BRANCH   1  12
ATOM     12  C   UNL     1      26.581  15.343  81.029  1.00  0.00     0.025 A 
ATOM     13  C   UNL     1      25.755  14.855  82.055  1.00  0.00     0.016 A 
ATOM     14  C   UNL     1      24.561  15.507  82.373  1.00  0.00     0.051 A 
ATOM     15  C   UNL     1      24.184  16.665  81.683  1.00  0.00     0.157 A 
ATOM     16  C   UNL     1      26.208  16.519  80.352  1.00  0.00     0.062 A 
ATOM     17  C   UNL     1      25.010  17.174  80.674  1.00  0.00     0.158 A 
BRANCH  15  18
ATOM     18  O   UNL     1      22.992  17.318  81.995  1.00  0.00    -0.504 OA
ATOM     19  H   UNL     1      22.157  16.802  82.249  1.00  0.00     0.293 HD
ENDBRANCH  15  18
BRANCH  17  20
ATOM     20  O   UNL     1      24.639  18.335  79.997  1.00  0.00    -0.504 OA
ATOM     21  H   UNL     1      24.462  19.203  80.490  1.00  0.00     0.293 HD
ENDBRANCH  17  20
ENDBRANCH   1  12
BRANCH   2  22
ATOM     22  O   UNL     1      29.160  16.265  81.997  1.00  0.00    -0.502 OA
ATOM     23  H   UNL     1      29.005  17.186  81.603  1.00  0.00     0.293 HD
ENDBRANCH   2  22
BRANCH   9  24
ATOM     24  O   UNL     1      29.753   9.875  77.609  1.00  0.00    -0.508 OA
ATOM     25  H   UNL     1      30.179   9.844  76.690  1.00  0.00     0.293 HD
ENDBRANCH   9  24
TORSDOF 5
ENDMDL
MODEL 6
REMARK VINA RESULT:    -6.787      1.442      1.843
REMARK INTER + INTRA:          -7.760
REMARK INTER:                  -8.058
REMARK INTRA:                   0.298
REMARK UNBOUND:                 0.218
REMARK SMILES O=c1c(O)c(-c2ccc(O)c(O)c2)oc2cc(O)ccc12
REMARK SMILES IDX 5 1 3 2 2 3 1 4 21 5 15 6 14 7 16 8 17 9 19 10 20 11 6 12
REMARK SMILES IDX 7 13 8 14 9 15 13 16 11 17 10 18 12 20 4 22 18 24
REMARK H PARENT 10 19 12 21 4 23 18 25
REMARK Flexibility Score: inf
ROOT
ATOM      1  C   UNL     1      26.527  12.827  76.754  1.00  0.00     0.180 A 
ATOM      2  C   UNL     1      26.149  14.072  77.298  1.00  0.00     0.208 A 
ATOM      3  C   UNL     1      26.953  14.646  78.295  1.00  0.00     0.235 A 
ATOM      4  O   UNL     1      26.629  15.754  78.805  1.00  0.00    -0.285 OA
ATOM      5  C   UNL     1      28.118  13.982  78.710  1.00  0.00     0.069 A 
ATOM      6  C   UNL     1      28.439  12.751  78.100  1.00  0.00     0.142 A 
ATOM      7  O   UNL     1      27.647  12.237  77.166  1.00  0.00    -0.452 OA
ATOM      8  C   UNL     1      29.597  12.063  78.480  1.00  0.00     0.094 A 
ATOM      9  C   UNL     1      30.440  12.590  79.467  1.00  0.00     0.119 A 
ATOM     10  C   UNL     1      30.122  13.810  80.074  1.00  0.00     0.047 A 
ATOM     11  C   UNL     1      28.969  14.506  79.701  1.00  0.00     0.020 A 
ENDROOT
BRANCH   1  12
ATOM     12  C   UNL     1      25.722  12.148  75.713  1.00  0.00     0.025 A 
ATOM     13  C   UNL     1      25.701  10.744  75.662  1.00  0.00     0.016 A 
ATOM     14  C   UNL     1      24.932  10.082  74.702  1.00  0.00     0.051 A 
ATOM     15  C   UNL     1      24.161  10.813  73.789  1.00  0.00     0.157 A 
ATOM     16  C   UNL     1      24.930  12.877  74.807  1.00  0.00     0.062 A 
ATOM     17  C   UNL     1      24.157  12.212  73.844  1.00  0.00     0.158 A 
BRANCH  15  18
ATOM     18  O   UNL     1      23.394  10.157  72.828  1.00  0.00    -0.504 OA
ATOM     19  H   UNL     1      23.518  10.337  71.838  1.00  0.00     0.293 HD
ENDBRANCH  15  18
BRANCH  17  20
ATOM     20  O   UNL     1      23.378  12.936  72.943  1.00  0.00    -0.504 OA
ATOM     21  H   UNL     1      22.369  12.976  73.026  1.00  0.00     0.293 HD
ENDBRANCH  17  20
ENDBRANCH   1  12
BRANCH   2  22
ATOM     22  O   UNL     1      25.010  14.733  76.830  1.00  0.00    -0.502 OA
ATOM     23  H   UNL     1      24.631  14.569  75.904  1.00  0.00     0.293 HD
ENDBRANCH   2  22
BRANCH   9  24
ATOM     24  O   UNL     1      31.594  11.913  79.851  1.00  0.00    -0.508 OA
ATOM     25  H   UNL     1      32.269  11.587  79.168  1.00  0.00     0.293 HD
ENDBRANCH   9  24
TORSDOF 5
ENDMDL
MODEL 7
REMARK VINA RESULT:    -6.746      2.117      2.159
REMARK INTER + INTRA:          -7.711
REMARK INTER:                  -7.976
REMARK INTRA:                   0.265
REMARK UNBOUND:                 0.218
REMARK SMILES O=c1c(O)c(-c2ccc(O)c(O)c2)oc2cc(O)ccc12
REMARK SMILES IDX 5 1 3 2 2 3 1 4 21 5 15 6 14 7 16 8 17 9 19 10 20 11 6 12
REMARK SMILES IDX 7 13 8 14 9 15 13 16 11 17 10 18 12 20 4 22 18 24
REMARK H PARENT 10 19 12 21 4 23 18 25
REMARK Flexibility Score: inf
ROOT
ATOM      1  C   UNL     1      27.472  12.517  79.029  1.00  0.00     0.180 A 
ATOM      2  C   UNL     1      27.875  13.868  79.089  1.00  0.00     0.208 A 
ATOM      3  C   UNL     1      28.262  14.403  80.327  1.00  0.00     0.235 A 
ATOM      4  O   UNL     1      28.616  15.611  80.410  1.00  0.00    -0.285 OA
ATOM      5  C   UNL     1      28.259  13.582  81.466  1.00  0.00     0.069 A 
ATOM      6  C   UNL     1      27.864  12.234  81.318  1.00  0.00     0.142 A 
ATOM      7  O   UNL     1      27.497  11.769  80.129  1.00  0.00    -0.452 OA
ATOM      8  C   UNL     1      27.857  11.382  82.428  1.00  0.00     0.094 A 
ATOM      9  C   UNL     1      28.238  11.859  83.688  1.00  0.00     0.119 A 
ATOM     10  C   UNL     1      28.628  13.195  83.837  1.00  0.00     0.047 A 
ATOM     11  C   UNL     1      28.639  14.055  82.735  1.00  0.00     0.020 A 
ENDROOT
BRANCH   1  12
ATOM     12  C   UNL     1      27.032  11.885  77.764  1.00  0.00     0.025 A 
ATOM     13  C   UNL     1      27.166  10.496  77.604  1.00  0.00     0.016 A 
ATOM     14  C   UNL     1      26.739   9.875  76.427  1.00  0.00     0.051 A 
ATOM     15  C   UNL     1      26.156  10.631  75.402  1.00  0.00     0.157 A 
ATOM     16  C   UNL     1      26.428  12.637  76.740  1.00  0.00     0.062 A 
ATOM     17  C   UNL     1      25.997  12.012  75.560  1.00  0.00     0.158 A 
BRANCH  15  18
ATOM     18  O   UNL     1      25.730  10.016  74.226  1.00  0.00    -0.504 OA
ATOM     19  H   UNL     1      25.553  10.550  73.383  1.00  0.00     0.293 HD
ENDBRANCH  15  18
BRANCH  17  20
ATOM     20  O   UNL     1      25.405  12.760  74.543  1.00  0.00    -0.504 OA
ATOM     21  H   UNL     1      24.466  13.131  74.635  1.00  0.00     0.293 HD
ENDBRANCH  17  20
ENDBRANCH   1  12
BRANCH   2  22
ATOM     22  O   UNL     1      27.916  14.647  77.930  1.00  0.00    -0.502 OA
ATOM     23  H   UNL     1      27.857  14.243  77.003  1.00  0.00     0.293 HD
ENDBRANCH   2  22
BRANCH   9  24
ATOM     24  O   UNL     1      28.233  11.018  84.797  1.00  0.00    -0.508 OA
ATOM     25  H   UNL     1      28.023  11.367  85.726  1.00  0.00     0.293 HD
ENDBRANCH   9  24
TORSDOF 5
ENDMDL
MODEL 8
REMARK VINA RESULT:    -6.161      1.275      6.595
REMARK INTER + INTRA:          -7.024
REMARK INTER:                  -6.884
REMARK INTRA:                  -0.140
REMARK UNBOUND:                 0.218
REMARK SMILES O=c1c(O)c(-c2ccc(O)c(O)c2)oc2cc(O)ccc12
REMARK SMILES IDX 5 1 3 2 2 3 1 4 21 5 15 6 14 7 16 8 17 9 19 10 20 11 6 12
REMARK SMILES IDX 7 13 8 14 9 15 13 16 11 17 10 18 12 20 4 22 18 24
REMARK H PARENT 10 19 12 21 4 23 18 25
REMARK Flexibility Score: inf
ROOT
ATOM      1  C   UNL     1      27.995  13.250  78.340  1.00  0.00     0.180 A 
ATOM      2  C   UNL     1      27.226  14.426  78.220  1.00  0.00     0.208 A 
ATOM      3  C   UNL     1      26.195  14.465  77.268  1.00  0.00     0.235 A 
ATOM      4  O   UNL     1      25.500  15.509  77.133  1.00  0.00    -0.285 OA
ATOM      5  C   UNL     1      25.943  13.334  76.476  1.00  0.00     0.069 A 
ATOM      6  C   UNL     1      26.743  12.187  76.673  1.00  0.00     0.142 A 
ATOM      7  O   UNL     1      27.714  12.194  77.580  1.00  0.00    -0.452 OA
ATOM      8  C   UNL     1      26.516  11.036  75.911  1.00  0.00     0.094 A 
ATOM      9  C   UNL     1      25.498  11.016  74.948  1.00  0.00     0.119 A 
ATOM     10  C   UNL     1      24.705  12.152  74.750  1.00  0.00     0.047 A 
ATOM     11  C   UNL     1      24.923  13.306  75.507  1.00  0.00     0.020 A 
ENDROOT
BRANCH   1  12
ATOM     12  C   UNL     1      29.111  13.136  79.307  1.00  0.00     0.025 A 
ATOM     13  C   UNL     1      30.426  13.004  78.832  1.00  0.00     0.016 A 
ATOM     14  C   UNL     1      31.496  12.916  79.726  1.00  0.00     0.051 A 
ATOM     15  C   UNL     1      31.268  12.977  81.107  1.00  0.00     0.157 A 
ATOM     16  C   UNL     1      28.889  13.218  80.694  1.00  0.00     0.062 A 
ATOM     17  C   UNL     1      29.964  13.132  81.591  1.00  0.00     0.158 A 
BRANCH  15  18
ATOM     18  O   UNL     1      32.332  12.889  82.003  1.00  0.00    -0.504 OA
ATOM     19  H   UNL     1      32.329  13.395  82.881  1.00  0.00     0.293 HD
ENDBRANCH  15  18
BRANCH  17  20
ATOM     20  O   UNL     1      29.742  13.206  82.965  1.00  0.00    -0.504 OA
ATOM     21  H   UNL     1      29.363  12.422  83.485  1.00  0.00     0.293 HD
ENDBRANCH  17  20
ENDBRANCH   1  12
BRANCH   2  22
ATOM     22  O   UNL     1      27.468  15.519  79.056  1.00  0.00    -0.502 OA
ATOM     23  H   UNL     1      28.365  15.988  79.088  1.00  0.00     0.293 HD
ENDBRANCH   2  22
BRANCH   9  24
ATOM     24  O   UNL     1      25.265   9.875  74.185  1.00  0.00    -0.508 OA
ATOM     25  H   UNL     1      25.362   8.945  74.579  1.00  0.00     0.293 HD
ENDBRANCH   9  24
TORSDOF 5
ENDMDL
