MODEL 1
REMARK VINA RESULT:    -6.250      0.000      0.000
REMARK INTER + INTRA:          -8.027
REMARK INTER:                  -7.529
REMARK INTRA:                  -0.498
REMARK UNBOUND:                -0.498
REMARK SMILES CCCCc1oc(O)c2ccccc12
REMARK SMILES IDX 4 1 5 2 7 3 6 4 9 5 14 6 10 7 13 8 11 9 12 10 8 11 3 13 2 14
REMARK SMILES IDX 1 15
REMARK H PARENT 8 12
REMARK Flexibility Score: inf
ROOT
ATOM      1  C   UNL     1     -14.316  11.399  -8.597  1.00  0.00     0.076 C 
ENDROOT
BRANCH   1   2
ATOM      2  C   UNL     1     -13.038  10.737  -9.009  1.00  0.00     0.116 A 
ATOM      3  C   UNL     1     -11.207   9.630  -8.862  1.00  0.00     0.290 A 
ATOM      4  O   UNL     1     -12.259  10.055  -8.187  1.00  0.00    -0.430 OA
ATOM      5  C   UNL     1     -11.292  10.049 -10.169  1.00  0.00     0.066 A 
ATOM      6  C   UNL     1     -12.458  10.759 -10.266  1.00  0.00     0.027 A 
ATOM      7  C   UNL     1     -10.442   9.869 -11.258  1.00  0.00     0.016 A 
ATOM      8  C   UNL     1     -12.860  11.346 -11.466  1.00  0.00     0.012 A 
ATOM      9  C   UNL     1     -10.822  10.447 -12.484  1.00  0.00     0.001 A 
ATOM     10  C   UNL     1     -12.025  11.183 -12.587  1.00  0.00     0.001 A 
BRANCH   3  11
ATOM     11  O   UNL     1     -10.175   8.875  -8.315  1.00  0.00    -0.480 OA
ATOM     12  H   UNL     1      -9.564   8.334  -8.914  1.00  0.00     0.297 HD
ENDBRANCH   3  11
ENDBRANCH   1   2
BRANCH   1  13
ATOM     13  C   UNL     1     -15.296  10.368  -8.031  1.00  0.00     0.008 C 
BRANCH  13  14
ATOM     14  C   UNL     1     -15.694   9.344  -9.099  1.00  0.00    -0.003 C 
ATOM     15  C   UNL     1     -16.304  10.028 -10.319  1.00  0.00     0.004 C 
ENDBRANCH  13  14
ENDBRANCH   1  13
TORSDOF 4
ENDMDL
MODEL 2
REMARK VINA RESULT:    -6.110      1.266      4.373
REMARK INTER + INTRA:          -7.858
REMARK INTER:                  -7.550
REMARK INTRA:                  -0.308
REMARK UNBOUND:                -0.498
REMARK SMILES CCCCc1oc(O)c2ccccc12
REMARK SMILES IDX 4 1 5 2 7 3 6 4 9 5 14 6 10 7 13 8 11 9 12 10 8 11 3 13 2 14
REMARK SMILES IDX 1 15
REMARK H PARENT 8 12
REMARK Flexibility Score: inf
ROOT
ATOM      1  C   UNL     1     -12.920  11.496 -11.148  1.00  0.00     0.076 C 
ENDROOT
BRANCH   1   2
ATOM      2  C   UNL     1     -13.046  10.891  -9.784  1.00  0.00     0.116 A 
ATOM      3  C   UNL     1     -12.476  10.079  -7.883  1.00  0.00     0.290 A 
ATOM      4  O   UNL     1     -12.021  10.631  -8.991  1.00  0.00    -0.430 OA
ATOM      5  C   UNL     1     -13.845   9.965  -7.947  1.00  0.00     0.066 A 
ATOM      6  C   UNL     1     -14.213  10.480  -9.162  1.00  0.00     0.027 A 
ATOM      7  C   UNL     1     -14.777   9.451  -7.049  1.00  0.00     0.016 A 
ATOM      8  C   UNL     1     -15.546  10.515  -9.569  1.00  0.00     0.012 A 
ATOM      9  C   UNL     1     -16.132   9.474  -7.430  1.00  0.00     0.001 A 
ATOM     10  C   UNL     1     -16.515  10.003  -8.685  1.00  0.00     0.001 A 
BRANCH   3  11
ATOM     11  O   UNL     1     -11.676   9.675  -6.819  1.00  0.00    -0.480 OA
ATOM     12  H   UNL     1     -10.694   9.476  -6.965  1.00  0.00     0.297 HD
ENDBRANCH   3  11
ENDBRANCH   1   2
BRANCH   1  13
ATOM     13  C   UNL     1     -13.000  10.412 -12.225  1.00  0.00     0.008 C 
BRANCH  13  14
ATOM     14  C   UNL     1     -11.797  10.489 -13.171  1.00  0.00    -0.003 C 
ATOM     15  C   UNL     1     -10.486  10.309 -12.411  1.00  0.00     0.004 C 
ENDBRANCH  13  14
ENDBRANCH   1  13
TORSDOF 4
ENDMDL
MODEL 3
REMARK VINA RESULT:    -6.016      2.279      3.209
REMARK INTER + INTRA:          -7.745
REMARK INTER:                  -7.446
REMARK INTRA:                  -0.299
REMARK UNBOUND:                -0.498
REMARK SMILES CCCCc1oc(O)c2ccccc12
REMARK SMILES IDX 4 1 5 2 7 3 6 4 9 5 14 6 10 7 13 8 11 9 12 10 8 11 3 13 2 14
REMARK SMILES IDX 1 15
REMARK H PARENT 8 12
REMARK Flexibility Score: inf
ROOT
ATOM      1  C   UNL     1     -15.136   9.321  -9.585  1.00  0.00     0.076 C 
ENDROOT
BRANCH   1   2
ATOM      2  C   UNL     1     -14.395  10.300 -10.444  1.00  0.00     0.116 A 
ATOM      3  C   UNL     1     -13.988  12.067 -11.586  1.00  0.00     0.290 A 
ATOM      4  O   UNL     1     -14.880  11.470 -10.820  1.00  0.00    -0.430 OA
ATOM      5  C   UNL     1     -12.880  11.263 -11.725  1.00  0.00     0.066 A 
ATOM      6  C   UNL     1     -13.138  10.132 -10.999  1.00  0.00     0.027 A 
ATOM      7  C   UNL     1     -11.690  11.437 -12.428  1.00  0.00     0.016 A 
ATOM      8  C   UNL     1     -12.221   9.084 -10.926  1.00  0.00     0.012 A 
ATOM      9  C   UNL     1     -10.743  10.397 -12.371  1.00  0.00     0.001 A 
ATOM     10  C   UNL     1     -11.007   9.226 -11.624  1.00  0.00     0.001 A 
BRANCH   3  11
ATOM     11  O   UNL     1     -14.160  13.321 -12.162  1.00  0.00    -0.480 OA
ATOM     12  H   UNL     1     -13.395  13.768 -12.654  1.00  0.00     0.297 HD
ENDBRANCH   3  11
ENDBRANCH   1   2
BRANCH   1  13
ATOM     13  C   UNL     1     -15.680  10.011  -8.331  1.00  0.00     0.008 C 
BRANCH  13  14
ATOM     14  C   UNL     1     -14.954   9.517  -7.075  1.00  0.00    -0.003 C 
ATOM     15  C   UNL     1     -13.615   8.875  -7.428  1.00  0.00     0.004 C 
ENDBRANCH  13  14
ENDBRANCH   1  13
TORSDOF 4
ENDMDL
MODEL 4
REMARK VINA RESULT:    -5.975      2.353      3.387
REMARK INTER + INTRA:          -7.696
REMARK INTER:                  -7.170
REMARK INTRA:                  -0.526
REMARK UNBOUND:                -0.498
REMARK SMILES CCCCc1oc(O)c2ccccc12
REMARK SMILES IDX 4 1 5 2 7 3 6 4 9 5 14 6 10 7 13 8 11 9 12 10 8 11 3 13 2 14
REMARK SMILES IDX 1 15
REMARK H PARENT 8 12
REMARK Flexibility Score: inf
ROOT
ATOM      1  C   UNL     1     -14.598  12.243 -12.077  1.00  0.00     0.076 C 
ENDROOT
BRANCH   1   2
ATOM      2  C   UNL     1     -13.271  11.552 -12.021  1.00  0.00     0.116 A 
ATOM      3  C   UNL     1     -11.413  10.708 -12.679  1.00  0.00     0.290 A 
ATOM      4  O   UNL     1     -12.486  11.370 -13.068  1.00  0.00    -0.430 OA
ATOM      5  C   UNL     1     -11.495  10.440 -11.332  1.00  0.00     0.066 A 
ATOM      6  C   UNL     1     -12.681  10.976 -10.909  1.00  0.00     0.027 A 
ATOM      7  C   UNL     1     -10.633   9.772 -10.465  1.00  0.00     0.016 A 
ATOM      8  C   UNL     1     -13.096  10.878  -9.581  1.00  0.00     0.012 A 
ATOM      9  C   UNL     1     -11.023   9.659  -9.117  1.00  0.00     0.001 A 
ATOM     10  C   UNL     1     -12.249  10.209  -8.677  1.00  0.00     0.001 A 
BRANCH   3  11
ATOM     11  O   UNL     1     -10.367  10.341 -13.519  1.00  0.00    -0.480 OA
ATOM     12  H   UNL     1      -9.678   9.665 -13.213  1.00  0.00     0.297 HD
ENDBRANCH   3  11
ENDBRANCH   1   2
BRANCH   1  13
ATOM     13  C   UNL     1     -15.675  11.294 -12.608  1.00  0.00     0.008 C 
BRANCH  13  14
ATOM     14  C   UNL     1     -16.223  10.403 -11.487  1.00  0.00    -0.003 C 
ATOM     15  C   UNL     1     -15.895   8.934 -11.741  1.00  0.00     0.004 C 
ENDBRANCH  13  14
ENDBRANCH   1  13
TORSDOF 4
ENDMDL
MODEL 5
REMARK VINA RESULT:    -5.881      1.320      4.483
REMARK INTER + INTRA:          -7.583
REMARK INTER:                  -7.174
REMARK INTRA:                  -0.409
REMARK UNBOUND:                -0.498
REMARK SMILES CCCCc1oc(O)c2ccccc12
REMARK SMILES IDX 4 1 5 2 7 3 6 4 9 5 14 6 10 7 13 8 11 9 12 10 8 11 3 13 2 14
REMARK SMILES IDX 1 15
REMARK H PARENT 8 12
REMARK Flexibility Score: inf
ROOT
ATOM      1  C   UNL     1     -12.175  11.127  -9.824  1.00  0.00     0.076 C 
ENDROOT
BRANCH   1   2
ATOM      2  C   UNL     1     -13.361  10.676  -9.028  1.00  0.00     0.116 A 
ATOM      3  C   UNL     1     -14.528  10.015  -7.355  1.00  0.00     0.290 A 
ATOM      4  O   UNL     1     -13.327  10.410  -7.734  1.00  0.00    -0.430 OA
ATOM      5  C   UNL     1     -15.380  10.015  -8.435  1.00  0.00     0.066 A 
ATOM      6  C   UNL     1     -14.638  10.434  -9.506  1.00  0.00     0.027 A 
ATOM      7  C   UNL     1     -16.727   9.677  -8.553  1.00  0.00     0.016 A 
ATOM      8  C   UNL     1     -15.191  10.543 -10.782  1.00  0.00     0.012 A 
ATOM      9  C   UNL     1     -17.314   9.780  -9.828  1.00  0.00     0.001 A 
ATOM     10  C   UNL     1     -16.550  10.210 -10.938  1.00  0.00     0.001 A 
BRANCH   3  11
ATOM     11  O   UNL     1     -14.862   9.653  -6.055  1.00  0.00    -0.480 OA
ATOM     12  H   UNL     1     -14.845   8.680  -5.774  1.00  0.00     0.297 HD
ENDBRANCH   3  11
ENDBRANCH   1   2
BRANCH   1  13
ATOM     13  C   UNL     1     -11.243   9.947 -10.112  1.00  0.00     0.008 C 
BRANCH  13  14
ATOM     14  C   UNL     1     -10.913   9.860 -11.606  1.00  0.00    -0.003 C 
ATOM     15  C   UNL     1     -11.357  11.121 -12.343  1.00  0.00     0.004 C 
ENDBRANCH  13  14
ENDBRANCH   1  13
TORSDOF 4
ENDMDL
MODEL 6
REMARK VINA RESULT:    -5.814      1.665      2.653
REMARK INTER + INTRA:          -7.501
REMARK INTER:                  -7.043
REMARK INTRA:                  -0.459
REMARK UNBOUND:                -0.498
REMARK SMILES CCCCc1oc(O)c2ccccc12
REMARK SMILES IDX 4 1 5 2 7 3 6 4 9 5 14 6 10 7 13 8 11 9 12 10 8 11 3 13 2 14
REMARK SMILES IDX 1 15
REMARK H PARENT 8 12
REMARK Flexibility Score: inf
ROOT
ATOM      1  C   UNL     1     -15.010  12.504 -12.081  1.00  0.00     0.076 C 
ENDROOT
BRANCH   1   2
ATOM      2  C   UNL     1     -14.022  11.900 -11.131  1.00  0.00     0.116 A 
ATOM      3  C   UNL     1     -13.088  11.348  -9.282  1.00  0.00     0.290 A 
ATOM      4  O   UNL     1     -14.134  11.950  -9.815  1.00  0.00    -0.430 OA
ATOM      5  C   UNL     1     -12.256  10.890 -10.277  1.00  0.00     0.066 A 
ATOM      6  C   UNL     1     -12.848  11.243 -11.460  1.00  0.00     0.027 A 
ATOM      7  C   UNL     1     -11.042  10.209 -10.231  1.00  0.00     0.016 A 
ATOM      8  C   UNL     1     -12.264  10.942 -12.690  1.00  0.00     0.012 A 
ATOM      9  C   UNL     1     -10.429   9.887 -11.457  1.00  0.00     0.001 A 
ATOM     10  C   UNL     1     -11.036  10.253 -12.681  1.00  0.00     0.001 A 
BRANCH   3  11
ATOM     11  O   UNL     1     -12.873  11.209  -7.915  1.00  0.00    -0.480 OA
ATOM     12  H   UNL     1     -11.966  10.926  -7.566  1.00  0.00     0.297 HD
ENDBRANCH   3  11
ENDBRANCH   1   2
BRANCH   1  13
ATOM     13  C   UNL     1     -15.759  11.409 -12.844  1.00  0.00     0.008 C 
BRANCH  13  14
ATOM     14  C   UNL     1     -16.533  10.501 -11.882  1.00  0.00    -0.003 C 
ATOM     15  C   UNL     1     -16.108   9.044 -12.037  1.00  0.00     0.004 C 
ENDBRANCH  13  14
ENDBRANCH   1  13
TORSDOF 4
ENDMDL
MODEL 7
REMARK VINA RESULT:    -5.683     10.171     11.527
REMARK INTER + INTRA:          -7.343
REMARK INTER:                  -6.968
REMARK INTRA:                  -0.376
REMARK UNBOUND:                -0.498
REMARK SMILES CCCCc1oc(O)c2ccccc12
REMARK SMILES IDX 4 1 5 2 7 3 6 4 9 5 14 6 10 7 13 8 11 9 12 10 8 11 3 13 2 14
REMARK SMILES IDX 1 15
REMARK H PARENT 8 12
REMARK Flexibility Score: inf
ROOT
ATOM      1  C   UNL     1      -5.736  18.015  -7.216  1.00  0.00     0.076 C 
ENDROOT
BRANCH   1   2
ATOM      2  C   UNL     1      -7.151  18.314  -7.604  1.00  0.00     0.116 A 
ATOM      3  C   UNL     1      -8.888  18.573  -8.834  1.00  0.00     0.290 A 
ATOM      4  O   UNL     1      -7.618  18.212  -8.836  1.00  0.00    -0.430 OA
ATOM      5  C   UNL     1      -9.269  18.930  -7.562  1.00  0.00     0.066 A 
ATOM      6  C   UNL     1      -8.161  18.768  -6.774  1.00  0.00     0.027 A 
ATOM      7  C   UNL     1     -10.483  19.382  -7.050  1.00  0.00     0.016 A 
ATOM      8  C   UNL     1      -8.187  19.053  -5.408  1.00  0.00     0.012 A 
ATOM      9  C   UNL     1     -10.541  19.675  -5.674  1.00  0.00     0.001 A 
ATOM     10  C   UNL     1      -9.398  19.512  -4.857  1.00  0.00     0.001 A 
BRANCH   3  11
ATOM     11  O   UNL     1      -9.702  18.587  -9.961  1.00  0.00    -0.480 OA
ATOM     12  H   UNL     1     -10.132  19.450 -10.271  1.00  0.00     0.297 HD
ENDBRANCH   3  11
ENDBRANCH   1   2
BRANCH   1  13
ATOM     13  C   UNL     1      -4.762  18.832  -8.068  1.00  0.00     0.008 C 
BRANCH  13  14
ATOM     14  C   UNL     1      -4.933  20.333  -7.810  1.00  0.00    -0.003 C 
ATOM     15  C   UNL     1      -4.052  21.157  -8.745  1.00  0.00     0.004 C 
ENDBRANCH  13  14
ENDBRANCH   1  13
TORSDOF 4
ENDMDL
MODEL 8
REMARK VINA RESULT:    -5.615     10.184     10.747
REMARK INTER + INTRA:          -7.262
REMARK INTER:                  -6.958
REMARK INTRA:                  -0.304
REMARK UNBOUND:                -0.498
REMARK SMILES CCCCc1oc(O)c2ccccc12
REMARK SMILES IDX 4 1 5 2 7 3 6 4 9 5 14 6 10 7 13 8 11 9 12 10 8 11 3 13 2 14
REMARK SMILES IDX 1 15
REMARK H PARENT 8 12
REMARK Flexibility Score: inf
ROOT
ATOM      1  C   UNL     1      -9.126  19.362  -5.168  1.00  0.00     0.076 C 
ENDROOT
BRANCH   1   2
ATOM      2  C   UNL     1      -8.765  19.215  -6.614  1.00  0.00     0.116 A 
ATOM      3  C   UNL     1      -8.950  18.730  -8.694  1.00  0.00     0.290 A 
ATOM      4  O   UNL     1      -9.588  18.754  -7.540  1.00  0.00    -0.430 OA
ATOM      5  C   UNL     1      -7.663  19.184  -8.525  1.00  0.00     0.066 A 
ATOM      6  C   UNL     1      -7.540  19.492  -7.197  1.00  0.00     0.027 A 
ATOM      7  C   UNL     1      -6.608  19.339  -9.422  1.00  0.00     0.016 A 
ATOM      8  C   UNL     1      -6.345  19.978  -6.665  1.00  0.00     0.012 A 
ATOM      9  C   UNL     1      -5.390  19.831  -8.915  1.00  0.00     0.001 A 
ATOM     10  C   UNL     1      -5.259  20.148  -7.543  1.00  0.00     0.001 A 
BRANCH   3  11
ATOM     11  O   UNL     1      -9.510  18.302  -9.893  1.00  0.00    -0.480 OA
ATOM     12  H   UNL     1     -10.377  17.779  -9.895  1.00  0.00     0.297 HD
ENDBRANCH   3  11
ENDBRANCH   1   2
BRANCH   1  13
ATOM     13  C   UNL     1     -10.201  20.438  -4.990  1.00  0.00     0.008 C 
BRANCH  13  14
ATOM     14  C   UNL     1     -11.594  19.809  -4.879  1.00  0.00    -0.003 C 
ATOM     15  C   UNL     1     -12.474  20.208  -6.059  1.00  0.00     0.004 C 
ENDBRANCH  13  14
ENDBRANCH   1  13
TORSDOF 4
ENDMDL
MODEL 9
REMARK VINA RESULT:    -5.596      3.125      4.132
REMARK INTER + INTRA:          -7.239
REMARK INTER:                  -6.937
REMARK INTRA:                  -0.302
REMARK UNBOUND:                -0.498
REMARK SMILES CCCCc1oc(O)c2ccccc12
REMARK SMILES IDX 4 1 5 2 7 3 6 4 9 5 14 6 10 7 13 8 11 9 12 10 8 11 3 13 2 14
REMARK SMILES IDX 1 15
REMARK H PARENT 8 12
REMARK Flexibility Score: inf
ROOT
ATOM      1  C   UNL     1     -16.410   9.218 -11.793  1.00  0.00     0.076 C 
ENDROOT
BRANCH   1   2
ATOM      2  C   UNL     1     -15.343  10.268 -11.789  1.00  0.00     0.116 A 
ATOM      3  C   UNL     1     -14.426  12.205 -11.865  1.00  0.00     0.290 A 
ATOM      4  O   UNL     1     -15.581  11.566 -11.865  1.00  0.00    -0.430 OA
ATOM      5  C   UNL     1     -13.393  11.300 -11.791  1.00  0.00     0.066 A 
ATOM      6  C   UNL     1     -13.974  10.062 -11.746  1.00  0.00     0.027 A 
ATOM      7  C   UNL     1     -12.010  11.471 -11.768  1.00  0.00     0.016 A 
ATOM      8  C   UNL     1     -13.211   8.897 -11.678  1.00  0.00     0.012 A 
ATOM      9  C   UNL     1     -11.213  10.313 -11.696  1.00  0.00     0.001 A 
ATOM     10  C   UNL     1     -11.810   9.032 -11.652  1.00  0.00     0.001 A 
BRANCH   3  11
ATOM     11  O   UNL     1     -14.293  13.588 -11.932  1.00  0.00    -0.480 OA
ATOM     12  H   UNL     1     -15.114  14.180 -11.955  1.00  0.00     0.297 HD
ENDBRANCH   3  11
ENDBRANCH   1   2
BRANCH   1  13
ATOM     13  C   UNL     1     -17.772   9.838 -12.116  1.00  0.00     0.008 C 
BRANCH  13  14
ATOM     14  C   UNL     1     -18.165   9.571 -13.574  1.00  0.00    -0.003 C 
ATOM     15  C   UNL     1     -18.098  10.848 -14.406  1.00  0.00     0.004 C 
ENDBRANCH  13  14
ENDBRANCH   1  13
TORSDOF 4
ENDMDL
