MODEL 1
REMARK VINA RESULT:    -5.350      0.000      0.000
REMARK INTER + INTRA:          -5.819
REMARK INTER:                  -5.819
REMARK INTRA:                   0.000
REMARK UNBOUND:                 0.000
REMARK SMILES Cc1cc(O)c2c(c1)C(=O)c1cc(O)cc(O)c1C2=O
REMARK SMILES IDX 1 1 2 2 8 3 7 4 6 5 4 6 3 7 19 8 20 9 18 10 11 11 9 12 10 13
REMARK SMILES IDX 12 14 13 15 15 16 16 17 5 18 17 20 14 22
REMARK H PARENT 5 19 17 21 14 23
REMARK Flexibility Score: inf
ROOT
ATOM      1  C   UNL     1      12.524  25.624   7.177  1.00  0.00     0.044 C 
ATOM      2  C   UNL     1      12.179  24.164   7.156  1.00  0.00    -0.047 A 
ATOM      3  C   UNL     1      12.948  23.249   7.883  1.00  0.00     0.016 A 
ATOM      4  C   UNL     1      12.618  21.884   7.892  1.00  0.00     0.038 A 
ATOM      5  C   UNL     1      11.498  21.426   7.162  1.00  0.00     0.076 A 
ATOM      6  C   UNL     1      10.675  22.370   6.497  1.00  0.00     0.127 A 
ATOM      7  C   UNL     1      11.036  23.721   6.484  1.00  0.00     0.050 A 
ATOM      8  C   UNL     1      11.268  19.961   7.075  1.00  0.00     0.201 C 
ATOM      9  O   UNL     1      10.709  19.475   6.055  1.00  0.00    -0.288 OA
ATOM     10  C   UNL     1      11.859  19.058   8.096  1.00  0.00     0.076 A 
ATOM     11  C   UNL     1      12.977  19.520   8.826  1.00  0.00     0.041 A 
ATOM     12  C   UNL     1      13.433  20.922   8.672  1.00  0.00     0.194 C 
ATOM     13  O   UNL     1      14.502  21.303   9.224  1.00  0.00    -0.289 OA
ATOM     14  C   UNL     1      13.649  18.649   9.701  1.00  0.00     0.059 A 
ATOM     15  C   UNL     1      13.211  17.332   9.865  1.00  0.00     0.120 A 
ATOM     16  C   UNL     1      12.084  16.886   9.176  1.00  0.00     0.093 A 
ATOM     17  C   UNL     1      11.386  17.739   8.315  1.00  0.00     0.131 A 
ENDROOT
BRANCH   6  18
ATOM     18  O   UNL     1       9.478  22.018   5.869  1.00  0.00    -0.507 OA
ATOM     19  H   UNL     1       9.395  21.854   4.875  1.00  0.00     0.293 HD
ENDBRANCH   6  18
BRANCH  17  20
ATOM     20  O   UNL     1      10.215  17.248   7.732  1.00  0.00    -0.507 OA
ATOM     21  H   UNL     1      10.055  17.227   6.735  1.00  0.00     0.293 HD
ENDBRANCH  17  20
BRANCH  15  22
ATOM     22  O   UNL     1      13.881  16.461  10.722  1.00  0.00    -0.508 OA
ATOM     23  H   UNL     1      13.608  16.357  11.692  1.00  0.00     0.293 HD
ENDBRANCH  15  22
TORSDOF 3
ENDMDL
MODEL 2
REMARK VINA RESULT:    -5.106      2.643      6.639
REMARK INTER + INTRA:          -5.553
REMARK INTER:                  -5.553
REMARK INTRA:                   0.000
REMARK UNBOUND:                 0.000
REMARK SMILES Cc1cc(O)c2c(c1)C(=O)c1cc(O)cc(O)c1C2=O
REMARK SMILES IDX 1 1 2 2 8 3 7 4 6 5 4 6 3 7 19 8 20 9 18 10 11 11 9 12 10 13
REMARK SMILES IDX 12 14 13 15 15 16 16 17 5 18 17 20 14 22
REMARK H PARENT 5 19 17 21 14 23
REMARK Flexibility Score: inf
ROOT
ATOM      1  C   UNL     1       9.004  13.333   5.301  1.00  0.00     0.044 C 
ATOM      2  C   UNL     1       9.788  14.270   6.172  1.00  0.00    -0.047 A 
ATOM      3  C   UNL     1       9.890  15.624   5.835  1.00  0.00     0.016 A 
ATOM      4  C   UNL     1      10.598  16.514   6.659  1.00  0.00     0.038 A 
ATOM      5  C   UNL     1      11.213  16.043   7.840  1.00  0.00     0.076 A 
ATOM      6  C   UNL     1      11.034  14.688   8.219  1.00  0.00     0.127 A 
ATOM      7  C   UNL     1      10.342  13.815   7.372  1.00  0.00     0.050 A 
ATOM      8  C   UNL     1      12.075  16.980   8.606  1.00  0.00     0.201 C 
ATOM      9  O   UNL     1      13.050  16.535   9.269  1.00  0.00    -0.288 OA
ATOM     10  C   UNL     1      11.902  18.446   8.440  1.00  0.00     0.076 A 
ATOM     11  C   UNL     1      11.283  18.915   7.258  1.00  0.00     0.041 A 
ATOM     12  C   UNL     1      10.696  17.950   6.300  1.00  0.00     0.194 C 
ATOM     13  O   UNL     1      10.256  18.353   5.188  1.00  0.00    -0.289 OA
ATOM     14  C   UNL     1      11.224  20.295   7.001  1.00  0.00     0.059 A 
ATOM     15  C   UNL     1      11.759  21.210   7.912  1.00  0.00     0.120 A 
ATOM     16  C   UNL     1      12.334  20.752   9.096  1.00  0.00     0.093 A 
ATOM     17  C   UNL     1      12.387  19.385   9.387  1.00  0.00     0.131 A 
ENDROOT
BRANCH   6  18
ATOM     18  O   UNL     1      11.491  14.177   9.436  1.00  0.00    -0.507 OA
ATOM     19  H   UNL     1      12.443  13.873   9.592  1.00  0.00     0.293 HD
ENDBRANCH   6  18
BRANCH  17  20
ATOM     20  O   UNL     1      12.894  19.010  10.633  1.00  0.00    -0.507 OA
ATOM     21  H   UNL     1      12.311  18.764  11.421  1.00  0.00     0.293 HD
ENDBRANCH  17  20
BRANCH  15  22
ATOM     22  O   UNL     1      11.714  22.579   7.654  1.00  0.00    -0.508 OA
ATOM     23  H   UNL     1      12.437  23.205   7.989  1.00  0.00     0.293 HD
ENDBRANCH  15  22
TORSDOF 3
ENDMDL
MODEL 3
REMARK VINA RESULT:    -5.091      1.784      4.431
REMARK INTER + INTRA:          -5.538
REMARK INTER:                  -5.538
REMARK INTRA:                   0.000
REMARK UNBOUND:                 0.000
REMARK SMILES Cc1cc(O)c2c(c1)C(=O)c1cc(O)cc(O)c1C2=O
REMARK SMILES IDX 1 1 2 2 8 3 7 4 6 5 4 6 3 7 19 8 20 9 18 10 11 11 9 12 10 13
REMARK SMILES IDX 12 14 13 15 15 16 16 17 5 18 17 20 14 22
REMARK H PARENT 5 19 17 21 14 23
REMARK Flexibility Score: inf
ROOT
ATOM      1  C   UNL     1      11.411  22.383   6.972  1.00  0.00     0.044 C 
ATOM      2  C   UNL     1      11.883  21.164   7.710  1.00  0.00    -0.047 A 
ATOM      3  C   UNL     1      11.194  19.953   7.580  1.00  0.00     0.016 A 
ATOM      4  C   UNL     1      11.644  18.799   8.243  1.00  0.00     0.038 A 
ATOM      5  C   UNL     1      12.803  18.858   9.049  1.00  0.00     0.076 A 
ATOM      6  C   UNL     1      13.543  20.067   9.108  1.00  0.00     0.127 A 
ATOM      7  C   UNL     1      13.064  21.208   8.456  1.00  0.00     0.050 A 
ATOM      8  C   UNL     1      13.162  17.660   9.851  1.00  0.00     0.201 C 
ATOM      9  O   UNL     1      13.766  17.799  10.949  1.00  0.00    -0.288 OA
ATOM     10  C   UNL     1      12.648  16.324   9.453  1.00  0.00     0.076 A 
ATOM     11  C   UNL     1      11.490  16.269   8.645  1.00  0.00     0.041 A 
ATOM     12  C   UNL     1      10.914  17.518   8.095  1.00  0.00     0.194 C 
ATOM     13  O   UNL     1       9.813  17.487   7.478  1.00  0.00    -0.289 OA
ATOM     14  C   UNL     1      10.895  15.028   8.361  1.00  0.00     0.059 A 
ATOM     15  C   UNL     1      11.447  13.845   8.861  1.00  0.00     0.120 A 
ATOM     16  C   UNL     1      12.611  13.894   9.626  1.00  0.00     0.093 A 
ATOM     17  C   UNL     1      13.236  15.113   9.905  1.00  0.00     0.131 A 
ENDROOT
BRANCH   6  18
ATOM     18  O   UNL     1      14.769  20.170   9.769  1.00  0.00    -0.507 OA
ATOM     19  H   UNL     1      15.630  20.436   9.310  1.00  0.00     0.293 HD
ENDBRANCH   6  18
BRANCH  17  20
ATOM     20  O   UNL     1      14.448  15.074  10.599  1.00  0.00    -0.507 OA
ATOM     21  H   UNL     1      15.347  14.996  10.146  1.00  0.00     0.293 HD
ENDBRANCH  17  20
BRANCH  15  22
ATOM     22  O   UNL     1      10.852  12.614   8.593  1.00  0.00    -0.508 OA
ATOM     23  H   UNL     1       9.929  12.550   8.181  1.00  0.00     0.293 HD
ENDBRANCH  15  22
TORSDOF 3
ENDMDL
MODEL 4
REMARK VINA RESULT:    -5.057      1.639      6.819
REMARK INTER + INTRA:          -5.501
REMARK INTER:                  -5.501
REMARK INTRA:                   0.000
REMARK UNBOUND:                 0.000
REMARK SMILES Cc1cc(O)c2c(c1)C(=O)c1cc(O)cc(O)c1C2=O
REMARK SMILES IDX 1 1 2 2 8 3 7 4 6 5 4 6 3 7 19 8 20 9 18 10 11 11 9 12 10 13
REMARK SMILES IDX 12 14 13 15 15 16 16 17 5 18 17 20 14 22
REMARK H PARENT 5 19 17 21 14 23
REMARK Flexibility Score: inf
ROOT
ATOM      1  C   UNL     1      12.912  13.240  10.992  1.00  0.00     0.044 C 
ATOM      2  C   UNL     1      13.143  14.694  10.702  1.00  0.00    -0.047 A 
ATOM      3  C   UNL     1      12.376  15.348   9.731  1.00  0.00     0.016 A 
ATOM      4  C   UNL     1      12.565  16.715   9.472  1.00  0.00     0.038 A 
ATOM      5  C   UNL     1      13.536  17.441  10.197  1.00  0.00     0.076 A 
ATOM      6  C   UNL     1      14.250  16.793  11.237  1.00  0.00     0.127 A 
ATOM      7  C   UNL     1      14.060  15.425  11.462  1.00  0.00     0.050 A 
ATOM      8  C   UNL     1      13.810  18.845   9.794  1.00  0.00     0.201 C 
ATOM      9  O   UNL     1      14.960  19.332   9.961  1.00  0.00    -0.288 OA
ATOM     10  C   UNL     1      12.789  19.606   9.028  1.00  0.00     0.076 A 
ATOM     11  C   UNL     1      11.816  18.876   8.306  1.00  0.00     0.041 A 
ATOM     12  C   UNL     1      11.743  17.403   8.447  1.00  0.00     0.194 C 
ATOM     13  O   UNL     1      10.963  16.737   7.713  1.00  0.00    -0.289 OA
ATOM     14  C   UNL     1      10.920  19.553   7.461  1.00  0.00     0.059 A 
ATOM     15  C   UNL     1      10.973  20.944   7.340  1.00  0.00     0.120 A 
ATOM     16  C   UNL     1      11.905  21.670   8.081  1.00  0.00     0.093 A 
ATOM     17  C   UNL     1      12.794  21.022   8.945  1.00  0.00     0.131 A 
ENDROOT
BRANCH   6  18
ATOM     18  O   UNL     1      15.125  17.470  12.089  1.00  0.00    -0.507 OA
ATOM     19  H   UNL     1      15.066  17.430  13.097  1.00  0.00     0.293 HD
ENDBRANCH   6  18
BRANCH  17  20
ATOM     20  O   UNL     1      13.635  21.823   9.722  1.00  0.00    -0.507 OA
ATOM     21  H   UNL     1      14.260  21.456  10.426  1.00  0.00     0.293 HD
ENDBRANCH  17  20
BRANCH  15  22
ATOM     22  O   UNL     1      10.094  21.618   6.493  1.00  0.00    -0.508 OA
ATOM     23  H   UNL     1      10.431  22.218   5.749  1.00  0.00     0.293 HD
ENDBRANCH  15  22
TORSDOF 3
ENDMDL
MODEL 5
REMARK VINA RESULT:    -5.009      3.276      7.392
REMARK INTER + INTRA:          -5.449
REMARK INTER:                  -5.449
REMARK INTRA:                   0.000
REMARK UNBOUND:                 0.000
REMARK SMILES Cc1cc(O)c2c(c1)C(=O)c1cc(O)cc(O)c1C2=O
REMARK SMILES IDX 1 1 2 2 8 3 7 4 6 5 4 6 3 7 19 8 20 9 18 10 11 11 9 12 10 13
REMARK SMILES IDX 12 14 13 15 15 16 16 17 5 18 17 20 14 22
REMARK H PARENT 5 19 17 21 14 23
REMARK Flexibility Score: inf
ROOT
ATOM      1  C   UNL     1      14.865  12.704  12.870  1.00  0.00     0.044 C 
ATOM      2  C   UNL     1      14.520  13.977  12.154  1.00  0.00    -0.047 A 
ATOM      3  C   UNL     1      13.670  13.951  11.043  1.00  0.00     0.016 A 
ATOM      4  C   UNL     1      13.319  15.140  10.383  1.00  0.00     0.038 A 
ATOM      5  C   UNL     1      13.826  16.376  10.842  1.00  0.00     0.076 A 
ATOM      6  C   UNL     1      14.618  16.403  12.019  1.00  0.00     0.127 A 
ATOM      7  C   UNL     1      14.971  15.205  12.647  1.00  0.00     0.050 A 
ATOM      8  C   UNL     1      13.555  17.592  10.032  1.00  0.00     0.201 C 
ATOM      9  O   UNL     1      14.383  18.541  10.030  1.00  0.00    -0.288 OA
ATOM     10  C   UNL     1      12.408  17.609   9.088  1.00  0.00     0.076 A 
ATOM     11  C   UNL     1      11.901  16.370   8.632  1.00  0.00     0.041 A 
ATOM     12  C   UNL     1      12.412  15.106   9.210  1.00  0.00     0.194 C 
ATOM     13  O   UNL     1      12.056  13.998   8.721  1.00  0.00    -0.289 OA
ATOM     14  C   UNL     1      10.910  16.345   7.636  1.00  0.00     0.059 A 
ATOM     15  C   UNL     1      10.411  17.536   7.102  1.00  0.00     0.120 A 
ATOM     16  C   UNL     1      10.880  18.759   7.578  1.00  0.00     0.093 A 
ATOM     17  C   UNL     1      11.851  18.813   8.583  1.00  0.00     0.131 A 
ENDROOT
BRANCH   6  18
ATOM     18  O   UNL     1      15.043  17.593  12.616  1.00  0.00    -0.507 OA
ATOM     19  H   UNL     1      15.908  17.681  13.130  1.00  0.00     0.293 HD
ENDBRANCH   6  18
BRANCH  17  20
ATOM     20  O   UNL     1      12.203  20.073   9.073  1.00  0.00    -0.507 OA
ATOM     21  H   UNL     1      13.125  20.298   9.419  1.00  0.00     0.293 HD
ENDBRANCH  17  20
BRANCH  15  22
ATOM     22  O   UNL     1       9.438  17.515   6.105  1.00  0.00    -0.508 OA
ATOM     23  H   UNL     1       9.648  17.790   5.153  1.00  0.00     0.293 HD
ENDBRANCH  15  22
TORSDOF 3
ENDMDL
MODEL 6
REMARK VINA RESULT:    -4.958      5.716      8.010
REMARK INTER + INTRA:          -5.393
REMARK INTER:                  -5.393
REMARK INTRA:                   0.000
REMARK UNBOUND:                 0.000
REMARK SMILES Cc1cc(O)c2c(c1)C(=O)c1cc(O)cc(O)c1C2=O
REMARK SMILES IDX 1 1 2 2 8 3 7 4 6 5 4 6 3 7 19 8 20 9 18 10 11 11 9 12 10 13
REMARK SMILES IDX 12 14 13 15 15 16 16 17 5 18 17 20 14 22
REMARK H PARENT 5 19 17 21 14 23
REMARK Flexibility Score: inf
ROOT
ATOM      1  C   UNL     1      13.794  30.465   8.092  1.00  0.00     0.044 C 
ATOM      2  C   UNL     1      12.570  29.869   7.460  1.00  0.00    -0.047 A 
ATOM      3  C   UNL     1      12.542  28.511   7.126  1.00  0.00     0.016 A 
ATOM      4  C   UNL     1      11.392  27.937   6.560  1.00  0.00     0.038 A 
ATOM      5  C   UNL     1      10.250  28.734   6.326  1.00  0.00     0.076 A 
ATOM      6  C   UNL     1      10.256  30.090   6.745  1.00  0.00     0.127 A 
ATOM      7  C   UNL     1      11.420  30.644   7.287  1.00  0.00     0.050 A 
ATOM      8  C   UNL     1       9.109  28.130   5.592  1.00  0.00     0.201 C 
ATOM      9  O   UNL     1       8.369  28.856   4.875  1.00  0.00    -0.288 OA
ATOM     10  C   UNL     1       8.955  26.652   5.554  1.00  0.00     0.076 A 
ATOM     11  C   UNL     1      10.099  25.856   5.792  1.00  0.00     0.041 A 
ATOM     12  C   UNL     1      11.367  26.495   6.216  1.00  0.00     0.194 C 
ATOM     13  O   UNL     1      12.420  25.806   6.308  1.00  0.00    -0.289 OA
ATOM     14  C   UNL     1      10.026  24.463   5.630  1.00  0.00     0.059 A 
ATOM     15  C   UNL     1       8.827  23.854   5.250  1.00  0.00     0.120 A 
ATOM     16  C   UNL     1       7.687  24.632   5.053  1.00  0.00     0.093 A 
ATOM     17  C   UNL     1       7.727  26.019   5.228  1.00  0.00     0.131 A 
ENDROOT
BRANCH   6  18
ATOM     18  O   UNL     1       9.126  30.907   6.675  1.00  0.00    -0.507 OA
ATOM     19  H   UNL     1       8.546  31.127   7.473  1.00  0.00     0.293 HD
ENDBRANCH   6  18
BRANCH  17  20
ATOM     20  O   UNL     1       6.525  26.720   5.103  1.00  0.00    -0.507 OA
ATOM     21  H   UNL     1       5.718  26.360   4.613  1.00  0.00     0.293 HD
ENDBRANCH  17  20
BRANCH  15  22
ATOM     22  O   UNL     1       8.754  22.473   5.076  1.00  0.00    -0.508 OA
ATOM     23  H   UNL     1       7.875  22.010   4.879  1.00  0.00     0.293 HD
ENDBRANCH  15  22
TORSDOF 3
ENDMDL
MODEL 7
REMARK VINA RESULT:    -4.904      3.297      7.322
REMARK INTER + INTRA:          -5.334
REMARK INTER:                  -5.334
REMARK INTRA:                   0.000
REMARK UNBOUND:                 0.000
REMARK SMILES Cc1cc(O)c2c(c1)C(=O)c1cc(O)cc(O)c1C2=O
REMARK SMILES IDX 1 1 2 2 8 3 7 4 6 5 4 6 3 7 19 8 20 9 18 10 11 11 9 12 10 13
REMARK SMILES IDX 12 14 13 15 15 16 16 17 5 18 17 20 14 22
REMARK H PARENT 5 19 17 21 14 23
REMARK Flexibility Score: inf
ROOT
ATOM      1  C   UNL     1      14.870  13.293  12.615  1.00  0.00     0.044 C 
ATOM      2  C   UNL     1      13.851  13.661  11.576  1.00  0.00    -0.047 A 
ATOM      3  C   UNL     1      13.690  14.996  11.190  1.00  0.00     0.016 A 
ATOM      4  C   UNL     1      12.759  15.347  10.199  1.00  0.00     0.038 A 
ATOM      5  C   UNL     1      11.977  14.345   9.582  1.00  0.00     0.076 A 
ATOM      6  C   UNL     1      12.205  12.986   9.918  1.00  0.00     0.127 A 
ATOM      7  C   UNL     1      13.123  12.663  10.922  1.00  0.00     0.050 A 
ATOM      8  C   UNL     1      10.902  14.769   8.648  1.00  0.00     0.201 C 
ATOM      9  O   UNL     1       9.864  14.064   8.527  1.00  0.00    -0.288 OA
ATOM     10  C   UNL     1      10.967  16.106   8.005  1.00  0.00     0.076 A 
ATOM     11  C   UNL     1      11.753  17.106   8.623  1.00  0.00     0.041 A 
ATOM     12  C   UNL     1      12.599  16.763   9.790  1.00  0.00     0.194 C 
ATOM     13  O   UNL     1      13.203  17.674  10.421  1.00  0.00    -0.289 OA
ATOM     14  C   UNL     1      11.732  18.419   8.124  1.00  0.00     0.059 A 
ATOM     15  C   UNL     1      10.951  18.743   7.011  1.00  0.00     0.120 A 
ATOM     16  C   UNL     1      10.206  17.750   6.376  1.00  0.00     0.093 A 
ATOM     17  C   UNL     1      10.225  16.431   6.839  1.00  0.00     0.131 A 
ENDROOT
BRANCH   6  18
ATOM     18  O   UNL     1      11.574  11.929   9.258  1.00  0.00    -0.507 OA
ATOM     19  H   UNL     1      12.066  11.249   8.693  1.00  0.00     0.293 HD
ENDBRANCH   6  18
BRANCH  17  20
ATOM     20  O   UNL     1       9.527  15.476   6.096  1.00  0.00    -0.507 OA
ATOM     21  H   UNL     1       9.309  14.552   6.441  1.00  0.00     0.293 HD
ENDBRANCH  17  20
BRANCH  15  22
ATOM     22  O   UNL     1      10.917  20.046   6.521  1.00  0.00    -0.508 OA
ATOM     23  H   UNL     1      10.183  20.693   6.784  1.00  0.00     0.293 HD
ENDBRANCH  15  22
TORSDOF 3
ENDMDL
MODEL 8
REMARK VINA RESULT:    -4.832      4.398      6.990
REMARK INTER + INTRA:          -5.256
REMARK INTER:                  -5.256
REMARK INTRA:                   0.000
REMARK UNBOUND:                 0.000
REMARK SMILES Cc1cc(O)c2c(c1)C(=O)c1cc(O)cc(O)c1C2=O
REMARK SMILES IDX 1 1 2 2 8 3 7 4 6 5 4 6 3 7 19 8 20 9 18 10 11 11 9 12 10 13
REMARK SMILES IDX 12 14 13 15 15 16 16 17 5 18 17 20 14 22
REMARK H PARENT 5 19 17 21 14 23
REMARK Flexibility Score: inf
ROOT
ATOM      1  C   UNL     1      15.117  14.536  12.745  1.00  0.00     0.044 C 
ATOM      2  C   UNL     1      14.345  15.162  11.620  1.00  0.00    -0.047 A 
ATOM      3  C   UNL     1      13.645  14.359  10.714  1.00  0.00     0.016 A 
ATOM      4  C   UNL     1      12.897  14.936   9.675  1.00  0.00     0.038 A 
ATOM      5  C   UNL     1      12.847  16.342   9.541  1.00  0.00     0.076 A 
ATOM      6  C   UNL     1      13.490  17.151  10.513  1.00  0.00     0.127 A 
ATOM      7  C   UNL     1      14.246  16.553  11.526  1.00  0.00     0.050 A 
ATOM      8  C   UNL     1      12.171  16.910   8.347  1.00  0.00     0.201 C 
ATOM      9  O   UNL     1      12.558  18.012   7.872  1.00  0.00    -0.288 OA
ATOM     10  C   UNL     1      11.171  16.097   7.608  1.00  0.00     0.076 A 
ATOM     11  C   UNL     1      11.221  14.692   7.746  1.00  0.00     0.041 A 
ATOM     12  C   UNL     1      12.151  14.079   8.723  1.00  0.00     0.194 C 
ATOM     13  O   UNL     1      12.290  12.825   8.762  1.00  0.00    -0.289 OA
ATOM     14  C   UNL     1      10.384  13.882   6.960  1.00  0.00     0.059 A 
ATOM     15  C   UNL     1       9.491  14.456   6.051  1.00  0.00     0.120 A 
ATOM     16  C   UNL     1       9.412  15.844   5.941  1.00  0.00     0.093 A 
ATOM     17  C   UNL     1      10.218  16.673   6.727  1.00  0.00     0.131 A 
ENDROOT
BRANCH   6  18
ATOM     18  O   UNL     1      13.375  18.543  10.531  1.00  0.00    -0.507 OA
ATOM     19  H   UNL     1      13.961  19.160   9.984  1.00  0.00     0.293 HD
ENDBRANCH   6  18
BRANCH  17  20
ATOM     20  O   UNL     1      10.016  18.052   6.627  1.00  0.00    -0.507 OA
ATOM     21  H   UNL     1      10.620  18.736   7.061  1.00  0.00     0.293 HD
ENDBRANCH  17  20
BRANCH  15  22
ATOM     22  O   UNL     1       8.669  13.656   5.260  1.00  0.00    -0.508 OA
ATOM     23  H   UNL     1       7.680  13.853   5.156  1.00  0.00     0.293 HD
ENDBRANCH  15  22
TORSDOF 3
ENDMDL
MODEL 9
REMARK VINA RESULT:    -4.813      1.881      6.261
REMARK INTER + INTRA:          -5.235
REMARK INTER:                  -5.235
REMARK INTRA:                   0.000
REMARK UNBOUND:                 0.000
REMARK SMILES Cc1cc(O)c2c(c1)C(=O)c1cc(O)cc(O)c1C2=O
REMARK SMILES IDX 1 1 2 2 8 3 7 4 6 5 4 6 3 7 19 8 20 9 18 10 11 11 9 12 10 13
REMARK SMILES IDX 12 14 13 15 15 16 16 17 5 18 17 20 14 22
REMARK H PARENT 5 19 17 21 14 23
REMARK Flexibility Score: inf
ROOT
ATOM      1  C   UNL     1      13.193  12.731  10.504  1.00  0.00     0.044 C 
ATOM      2  C   UNL     1      12.624  13.916   9.779  1.00  0.00    -0.047 A 
ATOM      3  C   UNL     1      12.986  15.213  10.159  1.00  0.00     0.016 A 
ATOM      4  C   UNL     1      12.481  16.327   9.469  1.00  0.00     0.038 A 
ATOM      5  C   UNL     1      11.602  16.141   8.379  1.00  0.00     0.076 A 
ATOM      6  C   UNL     1      11.307  14.823   7.946  1.00  0.00     0.127 A 
ATOM      7  C   UNL     1      11.804  13.729   8.662  1.00  0.00     0.050 A 
ATOM      8  C   UNL     1      10.974  17.342   7.770  1.00  0.00     0.201 C 
ATOM      9  O   UNL     1       9.831  17.254   7.246  1.00  0.00    -0.288 OA
ATOM     10  C   UNL     1      11.607  18.675   7.944  1.00  0.00     0.076 A 
ATOM     11  C   UNL     1      12.489  18.857   9.033  1.00  0.00     0.041 A 
ATOM     12  C   UNL     1      12.875  17.699   9.872  1.00  0.00     0.194 C 
ATOM     13  O   UNL     1      13.560  17.876  10.917  1.00  0.00    -0.289 OA
ATOM     14  C   UNL     1      13.000  20.136   9.312  1.00  0.00     0.059 A 
ATOM     15  C   UNL     1      12.655  21.228   8.511  1.00  0.00     0.120 A 
ATOM     16  C   UNL     1      11.817  21.044   7.412  1.00  0.00     0.093 A 
ATOM     17  C   UNL     1      11.311  19.778   7.100  1.00  0.00     0.131 A 
ENDROOT
BRANCH   6  18
ATOM     18  O   UNL     1      10.559  14.555   6.797  1.00  0.00    -0.507 OA
ATOM     19  H   UNL     1      10.442  15.215   6.041  1.00  0.00     0.293 HD
ENDBRANCH   6  18
BRANCH  17  20
ATOM     20  O   UNL     1      10.554  19.656   5.933  1.00  0.00    -0.507 OA
ATOM     21  H   UNL     1       9.544  19.680   5.918  1.00  0.00     0.293 HD
ENDBRANCH  17  20
BRANCH  15  22
ATOM     22  O   UNL     1      13.149  22.500   8.792  1.00  0.00    -0.508 OA
ATOM     23  H   UNL     1      13.978  22.860   8.332  1.00  0.00     0.293 HD
ENDBRANCH  15  22
TORSDOF 3
ENDMDL
