MODEL 1
REMARK VINA RESULT:    -3.362      0.000      0.000
REMARK INTER + INTRA:          -8.393
REMARK INTER:                  -5.918
REMARK INTRA:                  -2.475
REMARK UNBOUND:                -2.475
REMARK SMILES CCCCCCC=CCCCCCCCC(=O)[O-]
REMARK SMILES IDX 10 1 11 2 12 3 13 4 14 5 15 6 16 7 17 8 18 9 9 10 8 11 7 12
REMARK SMILES IDX 6 13 5 14 4 15 3 16 2 17 1 18
REMARK H PARENT
REMARK Flexibility Score: inf
ROOT
ATOM      1  C   UNL     1      18.114 -11.114   0.427  1.00  0.00     0.004 C 
ENDROOT
BRANCH   1   2
ATOM      2  C   UNL     1      16.748 -10.764   1.044  1.00  0.00     0.000 C 
BRANCH   2   3
ATOM      3  C   UNL     1      15.828 -10.014   0.067  1.00  0.00     0.000 C 
BRANCH   3   4
ATOM      4  C   UNL     1      16.474  -9.655  -1.285  1.00  0.00     0.000 C 
BRANCH   4   5
ATOM      5  C   UNL     1      15.454  -9.427  -2.424  1.00  0.00     0.006 C 
BRANCH   5   6
ATOM      6  C   UNL     1      14.076  -8.960  -1.927  1.00  0.00     0.053 C 
BRANCH   6   7
ATOM      7  C   UNL     1      13.732  -7.596  -2.442  1.00  0.00     0.041 C 
ATOM      8  O   UNL     1      13.182  -7.463  -3.567  1.00  0.00    -0.550 OA
ATOM      9  O   UNL     1      14.036  -6.468  -1.689  1.00  0.00    -0.550 OA
ENDBRANCH   6   7
ENDBRANCH   5   6
ENDBRANCH   4   5
ENDBRANCH   3   4
ENDBRANCH   2   3
ENDBRANCH   1   2
BRANCH   1  10
ATOM     10  C   UNL     1      18.374 -12.627   0.422  1.00  0.00     0.027 C 
BRANCH  10  11
ATOM     11  C   UNL     1      17.560 -13.346  -0.622  1.00  0.00    -0.031 C 
ATOM     12  C   UNL     1      17.739 -13.119  -1.931  1.00  0.00    -0.031 C 
BRANCH  12  13
ATOM     13  C   UNL     1      16.920 -13.830  -2.973  1.00  0.00     0.027 C 
BRANCH  13  14
ATOM     14  C   UNL     1      15.961 -12.865  -3.680  1.00  0.00     0.004 C 
BRANCH  14  15
ATOM     15  C   UNL     1      14.503 -13.317  -3.515  1.00  0.00     0.000 C 
BRANCH  15  16
ATOM     16  C   UNL     1      14.224 -13.892  -2.110  1.00  0.00    -0.000 C 
BRANCH  16  17
ATOM     17  C   UNL     1      13.810 -12.828  -1.079  1.00  0.00    -0.003 C 
ATOM     18  C   UNL     1      14.030 -13.276   0.364  1.00  0.00     0.004 C 
ENDBRANCH  16  17
ENDBRANCH  15  16
ENDBRANCH  14  15
ENDBRANCH  13  14
ENDBRANCH  12  13
ENDBRANCH  10  11
ENDBRANCH   1  10
TORSDOF 13
ENDMDL
MODEL 2
REMARK VINA RESULT:    -3.167      9.627     11.743
REMARK INTER + INTRA:          -8.050
REMARK INTER:                  -6.610
REMARK INTRA:                  -1.439
REMARK UNBOUND:                -2.475
REMARK SMILES CCCCCCC=CCCCCCCCC(=O)[O-]
REMARK SMILES IDX 10 1 11 2 12 3 13 4 14 5 15 6 16 7 17 8 18 9 9 10 8 11 7 12
REMARK SMILES IDX 6 13 5 14 4 15 3 16 2 17 1 18
REMARK H PARENT
REMARK Flexibility Score: inf
ROOT
ATOM      1  C   UNL     1      18.399 -22.151  -3.421  1.00  0.00     0.004 C 
ENDROOT
BRANCH   1   2
ATOM      2  C   UNL     1      18.072 -23.360  -2.527  1.00  0.00     0.000 C 
BRANCH   2   3
ATOM      3  C   UNL     1      18.665 -23.234  -1.115  1.00  0.00     0.000 C 
BRANCH   3   4
ATOM      4  C   UNL     1      17.684 -22.722  -0.044  1.00  0.00     0.000 C 
BRANCH   4   5
ATOM      5  C   UNL     1      17.766 -21.197   0.201  1.00  0.00     0.006 C 
BRANCH   5   6
ATOM      6  C   UNL     1      19.201 -20.648   0.162  1.00  0.00     0.053 C 
BRANCH   6   7
ATOM      7  C   UNL     1      19.344 -19.530  -0.826  1.00  0.00     0.041 C 
ATOM      8  O   UNL     1      18.331 -19.080  -1.424  1.00  0.00    -0.550 OA
ATOM      9  O   UNL     1      20.598 -18.999  -1.103  1.00  0.00    -0.550 OA
ENDBRANCH   6   7
ENDBRANCH   5   6
ENDBRANCH   4   5
ENDBRANCH   3   4
ENDBRANCH   2   3
ENDBRANCH   1   2
BRANCH   1  10
ATOM     10  C   UNL     1      17.138 -21.374  -3.824  1.00  0.00     0.027 C 
BRANCH  10  11
ATOM     11  C   UNL     1      15.916 -21.834  -3.073  1.00  0.00    -0.031 C 
ATOM     12  C   UNL     1      14.690 -21.760  -3.614  1.00  0.00    -0.031 C 
BRANCH  12  13
ATOM     13  C   UNL     1      13.469 -22.211  -2.860  1.00  0.00     0.027 C 
BRANCH  13  14
ATOM     14  C   UNL     1      12.197 -21.571  -3.429  1.00  0.00     0.004 C 
BRANCH  14  15
ATOM     15  C   UNL     1      11.154 -22.640  -3.784  1.00  0.00     0.000 C 
BRANCH  15  16
ATOM     16  C   UNL     1      11.788 -23.878  -4.452  1.00  0.00    -0.000 C 
BRANCH  16  17
ATOM     17  C   UNL     1      11.836 -23.794  -5.987  1.00  0.00    -0.003 C 
ATOM     18  C   UNL     1      10.551 -23.235  -6.596  1.00  0.00     0.004 C 
ENDBRANCH  16  17
ENDBRANCH  15  16
ENDBRANCH  14  15
ENDBRANCH  13  14
ENDBRANCH  12  13
ENDBRANCH  10  11
ENDBRANCH   1  10
TORSDOF 13
ENDMDL
MODEL 3
REMARK VINA RESULT:    -3.142      7.129      9.456
REMARK INTER + INTRA:          -8.005
REMARK INTER:                  -7.130
REMARK INTRA:                  -0.876
REMARK UNBOUND:                -2.475
REMARK SMILES CCCCCCC=CCCCCCCCC(=O)[O-]
REMARK SMILES IDX 10 1 11 2 12 3 13 4 14 5 15 6 16 7 17 8 18 9 9 10 8 11 7 12
REMARK SMILES IDX 6 13 5 14 4 15 3 16 2 17 1 18
REMARK H PARENT
REMARK Flexibility Score: inf
ROOT
ATOM      1  C   UNL     1      18.500 -18.720  -0.686  1.00  0.00     0.004 C 
ENDROOT
BRANCH   1   2
ATOM      2  C   UNL     1      19.883 -19.287  -0.322  1.00  0.00     0.000 C 
BRANCH   2   3
ATOM      3  C   UNL     1      19.862 -20.807  -0.093  1.00  0.00     0.000 C 
BRANCH   3   4
ATOM      4  C   UNL     1      18.636 -21.533  -0.678  1.00  0.00     0.000 C 
BRANCH   4   5
ATOM      5  C   UNL     1      18.993 -22.770  -1.534  1.00  0.00     0.006 C 
BRANCH   5   6
ATOM      6  C   UNL     1      18.046 -22.982  -2.727  1.00  0.00     0.053 C 
BRANCH   6   7
ATOM      7  C   UNL     1      17.974 -21.770  -3.604  1.00  0.00     0.041 C 
ATOM      8  O   UNL     1      16.882 -21.166  -3.761  1.00  0.00    -0.550 OA
ATOM      9  O   UNL     1      19.110 -21.320  -4.266  1.00  0.00    -0.550 OA
ENDBRANCH   6   7
ENDBRANCH   5   6
ENDBRANCH   4   5
ENDBRANCH   3   4
ENDBRANCH   2   3
ENDBRANCH   1   2
BRANCH   1  10
ATOM     10  C   UNL     1      17.841 -18.000   0.500  1.00  0.00     0.027 C 
BRANCH  10  11
ATOM     11  C   UNL     1      17.681 -16.522   0.257  1.00  0.00    -0.031 C 
ATOM     12  C   UNL     1      17.205 -16.049  -0.904  1.00  0.00    -0.031 C 
BRANCH  12  13
ATOM     13  C   UNL     1      17.053 -14.572  -1.148  1.00  0.00     0.027 C 
BRANCH  13  14
ATOM     14  C   UNL     1      17.080 -14.252  -2.648  1.00  0.00     0.004 C 
BRANCH  14  15
ATOM     15  C   UNL     1      15.668 -13.957  -3.173  1.00  0.00     0.000 C 
BRANCH  15  16
ATOM     16  C   UNL     1      15.567 -12.564  -3.829  1.00  0.00    -0.000 C 
BRANCH  16  17
ATOM     17  C   UNL     1      16.845 -11.720  -3.684  1.00  0.00    -0.003 C 
ATOM     18  C   UNL     1      16.669 -10.522  -2.754  1.00  0.00     0.004 C 
ENDBRANCH  16  17
ENDBRANCH  15  16
ENDBRANCH  14  15
ENDBRANCH  13  14
ENDBRANCH  12  13
ENDBRANCH  10  11
ENDBRANCH   1  10
TORSDOF 13
ENDMDL
MODEL 4
REMARK VINA RESULT:    -3.104      2.565      5.069
REMARK INTER + INTRA:          -7.939
REMARK INTER:                  -6.217
REMARK INTRA:                  -1.722
REMARK UNBOUND:                -2.475
REMARK SMILES CCCCCCC=CCCCCCCCC(=O)[O-]
REMARK SMILES IDX 10 1 11 2 12 3 13 4 14 5 15 6 16 7 17 8 18 9 9 10 8 11 7 12
REMARK SMILES IDX 6 13 5 14 4 15 3 16 2 17 1 18
REMARK H PARENT
REMARK Flexibility Score: inf
ROOT
ATOM      1  C   UNL     1      18.071 -12.790  -0.657  1.00  0.00     0.004 C 
ENDROOT
BRANCH   1   2
ATOM      2  C   UNL     1      17.196 -14.048  -0.801  1.00  0.00     0.000 C 
BRANCH   2   3
ATOM      3  C   UNL     1      16.996 -14.469  -2.266  1.00  0.00     0.000 C 
BRANCH   3   4
ATOM      4  C   UNL     1      16.998 -13.309  -3.279  1.00  0.00     0.000 C 
BRANCH   4   5
ATOM      5  C   UNL     1      15.627 -13.063  -3.950  1.00  0.00     0.006 C 
BRANCH   5   6
ATOM      6  C   UNL     1      14.475 -12.899  -2.947  1.00  0.00     0.053 C 
BRANCH   6   7
ATOM      7  C   UNL     1      13.333 -13.819  -3.253  1.00  0.00     0.041 C 
ATOM      8  O   UNL     1      13.410 -15.042  -2.965  1.00  0.00    -0.550 OA
ATOM      9  O   UNL     1      12.191 -13.331  -3.877  1.00  0.00    -0.550 OA
ENDBRANCH   6   7
ENDBRANCH   5   6
ENDBRANCH   4   5
ENDBRANCH   3   4
ENDBRANCH   2   3
ENDBRANCH   1   2
BRANCH   1  10
ATOM     10  C   UNL     1      17.418 -11.734   0.246  1.00  0.00     0.027 C 
BRANCH  10  11
ATOM     11  C   UNL     1      16.369 -10.930  -0.478  1.00  0.00    -0.031 C 
ATOM     12  C   UNL     1      16.663 -10.219  -1.577  1.00  0.00    -0.031 C 
BRANCH  12  13
ATOM     13  C   UNL     1      15.617  -9.410  -2.294  1.00  0.00     0.027 C 
BRANCH  13  14
ATOM     14  C   UNL     1      14.521  -8.940  -1.330  1.00  0.00     0.004 C 
BRANCH  14  15
ATOM     15  C   UNL     1      13.952  -7.582  -1.763  1.00  0.00     0.000 C 
BRANCH  15  16
ATOM     16  C   UNL     1      13.225  -7.657  -3.122  1.00  0.00    -0.000 C 
BRANCH  16  17
ATOM     17  C   UNL     1      11.694  -7.570  -3.008  1.00  0.00    -0.003 C 
ATOM     18  C   UNL     1      11.022  -8.938  -2.905  1.00  0.00     0.004 C 
ENDBRANCH  16  17
ENDBRANCH  15  16
ENDBRANCH  14  15
ENDBRANCH  13  14
ENDBRANCH  12  13
ENDBRANCH  10  11
ENDBRANCH   1  10
TORSDOF 13
ENDMDL
MODEL 5
REMARK VINA RESULT:    -3.102      8.568     10.941
REMARK INTER + INTRA:          -7.934
REMARK INTER:                  -6.544
REMARK INTRA:                  -1.390
REMARK UNBOUND:                -2.475
REMARK SMILES CCCCCCC=CCCCCCCCC(=O)[O-]
REMARK SMILES IDX 10 1 11 2 12 3 13 4 14 5 15 6 16 7 17 8 18 9 9 10 8 11 7 12
REMARK SMILES IDX 6 13 5 14 4 15 3 16 2 17 1 18
REMARK H PARENT
REMARK Flexibility Score: inf
ROOT
ATOM      1  C   UNL     1      18.452 -22.492  -3.251  1.00  0.00     0.004 C 
ENDROOT
BRANCH   1   2
ATOM      2  C   UNL     1      17.861 -23.524  -2.274  1.00  0.00     0.000 C 
BRANCH   2   3
ATOM      3  C   UNL     1      18.416 -23.378  -0.847  1.00  0.00     0.000 C 
BRANCH   3   4
ATOM      4  C   UNL     1      19.891 -22.943  -0.767  1.00  0.00     0.000 C 
BRANCH   4   5
ATOM      5  C   UNL     1      20.121 -21.670   0.080  1.00  0.00     0.006 C 
BRANCH   5   6
ATOM      6  C   UNL     1      18.956 -20.670   0.011  1.00  0.00     0.053 C 
BRANCH   6   7
ATOM      7  C   UNL     1      19.261 -19.521  -0.902  1.00  0.00     0.041 C 
ATOM      8  O   UNL     1      20.455 -19.195  -1.132  1.00  0.00    -0.550 OA
ATOM      9  O   UNL     1      18.227 -18.797  -1.481  1.00  0.00    -0.550 OA
ENDBRANCH   6   7
ENDBRANCH   5   6
ENDBRANCH   4   5
ENDBRANCH   3   4
ENDBRANCH   2   3
ENDBRANCH   1   2
BRANCH   1  10
ATOM     10  C   UNL     1      17.416 -21.443  -3.678  1.00  0.00     0.027 C 
BRANCH  10  11
ATOM     11  C   UNL     1      16.053 -21.713  -3.097  1.00  0.00    -0.031 C 
ATOM     12  C   UNL     1      14.932 -21.461  -3.790  1.00  0.00    -0.031 C 
BRANCH  12  13
ATOM     13  C   UNL     1      13.570 -21.724  -3.206  1.00  0.00     0.027 C 
BRANCH  13  14
ATOM     14  C   UNL     1      13.410 -21.040  -1.843  1.00  0.00     0.004 C 
BRANCH  14  15
ATOM     15  C   UNL     1      12.155 -20.156  -1.815  1.00  0.00     0.000 C 
BRANCH  15  16
ATOM     16  C   UNL     1      11.826 -19.562  -3.201  1.00  0.00    -0.000 C 
BRANCH  16  17
ATOM     17  C   UNL     1      12.430 -18.166  -3.432  1.00  0.00    -0.003 C 
ATOM     18  C   UNL     1      11.490 -17.224  -4.182  1.00  0.00     0.004 C 
ENDBRANCH  16  17
ENDBRANCH  15  16
ENDBRANCH  14  15
ENDBRANCH  13  14
ENDBRANCH  12  13
ENDBRANCH  10  11
ENDBRANCH   1  10
TORSDOF 13
ENDMDL
MODEL 6
REMARK VINA RESULT:    -3.090      5.522      7.721
REMARK INTER + INTRA:          -7.915
REMARK INTER:                  -6.357
REMARK INTRA:                  -1.558
REMARK UNBOUND:                -2.475
REMARK SMILES CCCCCCC=CCCCCCCCC(=O)[O-]
REMARK SMILES IDX 10 1 11 2 12 3 13 4 14 5 15 6 16 7 17 8 18 9 9 10 8 11 7 12
REMARK SMILES IDX 6 13 5 14 4 15 3 16 2 17 1 18
REMARK H PARENT
REMARK Flexibility Score: inf
ROOT
ATOM      1  C   UNL     1      15.710 -14.769  -2.259  1.00  0.00     0.004 C 
ENDROOT
BRANCH   1   2
ATOM      2  C   UNL     1      16.056 -14.751  -0.760  1.00  0.00     0.000 C 
BRANCH   2   3
ATOM      3  C   UNL     1      16.426 -16.141  -0.217  1.00  0.00     0.000 C 
BRANCH   3   4
ATOM      4  C   UNL     1      17.900 -16.302   0.200  1.00  0.00     0.000 C 
BRANCH   4   5
ATOM      5  C   UNL     1      18.318 -17.767   0.466  1.00  0.00     0.006 C 
BRANCH   5   6
ATOM      6  C   UNL     1      18.487 -18.598  -0.816  1.00  0.00     0.053 C 
BRANCH   6   7
ATOM      7  C   UNL     1      19.765 -19.380  -0.809  1.00  0.00     0.041 C 
ATOM      8  O   UNL     1      20.873 -18.784  -0.834  1.00  0.00    -0.550 OA
ATOM      9  O   UNL     1      19.732 -20.769  -0.795  1.00  0.00    -0.550 OA
ENDBRANCH   6   7
ENDBRANCH   5   6
ENDBRANCH   4   5
ENDBRANCH   3   4
ENDBRANCH   2   3
ENDBRANCH   1   2
BRANCH   1  10
ATOM     10  C   UNL     1      16.867 -14.247  -3.124  1.00  0.00     0.027 C 
BRANCH  10  11
ATOM     11  C   UNL     1      17.238 -12.826  -2.788  1.00  0.00    -0.031 C 
ATOM     12  C   UNL     1      16.559 -11.785  -3.293  1.00  0.00    -0.031 C 
BRANCH  12  13
ATOM     13  C   UNL     1      16.936 -10.366  -2.964  1.00  0.00     0.027 C 
BRANCH  13  14
ATOM     14  C   UNL     1      15.760  -9.611  -2.333  1.00  0.00     0.004 C 
BRANCH  14  15
ATOM     15  C   UNL     1      15.494 -10.103  -0.902  1.00  0.00     0.000 C 
BRANCH  15  16
ATOM     16  C   UNL     1      16.777 -10.132  -0.045  1.00  0.00    -0.000 C 
BRANCH  16  17
ATOM     17  C   UNL     1      16.963 -11.440   0.743  1.00  0.00    -0.003 C 
ATOM     18  C   UNL     1      18.362 -12.034   0.595  1.00  0.00     0.004 C 
ENDBRANCH  16  17
ENDBRANCH  15  16
ENDBRANCH  14  15
ENDBRANCH  13  14
ENDBRANCH  12  13
ENDBRANCH  10  11
ENDBRANCH   1  10
TORSDOF 13
ENDMDL
MODEL 7
REMARK VINA RESULT:    -3.065      1.826      2.833
REMARK INTER + INTRA:          -7.870
REMARK INTER:                  -6.077
REMARK INTRA:                  -1.793
REMARK UNBOUND:                -2.475
REMARK SMILES CCCCCCC=CCCCCCCCC(=O)[O-]
REMARK SMILES IDX 10 1 11 2 12 3 13 4 14 5 15 6 16 7 17 8 18 9 9 10 8 11 7 12
REMARK SMILES IDX 6 13 5 14 4 15 3 16 2 17 1 18
REMARK H PARENT
REMARK Flexibility Score: inf
ROOT
ATOM      1  C   UNL     1      16.179  -9.914  -1.167  1.00  0.00     0.004 C 
ENDROOT
BRANCH   1   2
ATOM      2  C   UNL     1      14.753  -9.588  -0.691  1.00  0.00     0.000 C 
BRANCH   2   3
ATOM      3  C   UNL     1      13.801 -10.791  -0.793  1.00  0.00     0.000 C 
BRANCH   3   4
ATOM      4  C   UNL     1      12.486 -10.515  -1.547  1.00  0.00     0.000 C 
BRANCH   4   5
ATOM      5  C   UNL     1      11.912  -9.100  -1.303  1.00  0.00     0.006 C 
BRANCH   5   6
ATOM      6  C   UNL     1      11.334  -8.447  -2.570  1.00  0.00     0.053 C 
BRANCH   6   7
ATOM      7  C   UNL     1      12.195  -7.323  -3.059  1.00  0.00     0.041 C 
ATOM      8  O   UNL     1      13.431  -7.497  -3.226  1.00  0.00    -0.550 OA
ATOM      9  O   UNL     1      11.637  -6.076  -3.313  1.00  0.00    -0.550 OA
ENDBRANCH   6   7
ENDBRANCH   5   6
ENDBRANCH   4   5
ENDBRANCH   3   4
ENDBRANCH   2   3
ENDBRANCH   1   2
BRANCH   1  10
ATOM     10  C   UNL     1      16.297  -9.883  -2.698  1.00  0.00     0.027 C 
BRANCH  10  11
ATOM     11  C   UNL     1      16.590 -11.242  -3.278  1.00  0.00    -0.031 C 
ATOM     12  C   UNL     1      16.925 -12.281  -2.499  1.00  0.00    -0.031 C 
BRANCH  12  13
ATOM     13  C   UNL     1      17.227 -13.636  -3.080  1.00  0.00     0.027 C 
BRANCH  13  14
ATOM     14  C   UNL     1      16.739 -14.758  -2.156  1.00  0.00     0.004 C 
BRANCH  14  15
ATOM     15  C   UNL     1      15.372 -14.414  -1.547  1.00  0.00     0.000 C 
BRANCH  15  16
ATOM     16  C   UNL     1      14.302 -15.478  -1.872  1.00  0.00    -0.000 C 
BRANCH  16  17
ATOM     17  C   UNL     1      13.224 -14.988  -2.855  1.00  0.00    -0.003 C 
ATOM     18  C   UNL     1      13.404 -13.526  -3.260  1.00  0.00     0.004 C 
ENDBRANCH  16  17
ENDBRANCH  15  16
ENDBRANCH  14  15
ENDBRANCH  13  14
ENDBRANCH  12  13
ENDBRANCH  10  11
ENDBRANCH   1  10
TORSDOF 13
ENDMDL
MODEL 8
REMARK VINA RESULT:    -3.033      2.310      4.955
REMARK INTER + INTRA:          -7.814
REMARK INTER:                  -5.452
REMARK INTRA:                  -2.362
REMARK UNBOUND:                -2.475
REMARK SMILES CCCCCCC=CCCCCCCCC(=O)[O-]
REMARK SMILES IDX 10 1 11 2 12 3 13 4 14 5 15 6 16 7 17 8 18 9 9 10 8 11 7 12
REMARK SMILES IDX 6 13 5 14 4 15 3 16 2 17 1 18
REMARK H PARENT
REMARK Flexibility Score: inf
ROOT
ATOM      1  C   UNL     1      15.944 -12.719  -3.765  1.00  0.00     0.004 C 
ENDROOT
BRANCH   1   2
ATOM      2  C   UNL     1      16.418 -13.952  -2.975  1.00  0.00     0.000 C 
BRANCH   2   3
ATOM      3  C   UNL     1      15.257 -14.731  -2.335  1.00  0.00     0.000 C 
BRANCH   3   4
ATOM      4  C   UNL     1      14.687 -14.104  -1.049  1.00  0.00     0.000 C 
BRANCH   4   5
ATOM      5  C   UNL     1      13.166 -13.835  -1.107  1.00  0.00     0.006 C 
BRANCH   5   6
ATOM      6  C   UNL     1      12.807 -12.487  -1.754  1.00  0.00     0.053 C 
BRANCH   6   7
ATOM      7  C   UNL     1      11.956 -12.664  -2.975  1.00  0.00     0.041 C 
ATOM      8  O   UNL     1      10.889 -12.008  -3.103  1.00  0.00    -0.550 OA
ATOM      9  O   UNL     1      12.330 -13.568  -3.961  1.00  0.00    -0.550 OA
ENDBRANCH   6   7
ENDBRANCH   5   6
ENDBRANCH   4   5
ENDBRANCH   3   4
ENDBRANCH   2   3
ENDBRANCH   1   2
BRANCH   1  10
ATOM     10  C   UNL     1      17.028 -11.634  -3.845  1.00  0.00     0.027 C 
BRANCH  10  11
ATOM     11  C   UNL     1      16.716 -10.446  -2.973  1.00  0.00    -0.031 C 
ATOM     12  C   UNL     1      15.672 -10.449  -2.130  1.00  0.00    -0.031 C 
BRANCH  12  13
ATOM     13  C   UNL     1      15.356  -9.258  -1.266  1.00  0.00     0.027 C 
BRANCH  13  14
ATOM     14  C   UNL     1      15.538  -9.587   0.221  1.00  0.00     0.004 C 
BRANCH  14  15
ATOM     15  C   UNL     1      15.937 -11.057   0.414  1.00  0.00     0.000 C 
BRANCH  15  16
ATOM     16  C   UNL     1      17.408 -11.211   0.855  1.00  0.00    -0.000 C 
BRANCH  16  17
ATOM     17  C   UNL     1      18.202 -12.221   0.009  1.00  0.00    -0.003 C 
ATOM     18  C   UNL     1      18.015 -13.666   0.470  1.00  0.00     0.004 C 
ENDBRANCH  16  17
ENDBRANCH  15  16
ENDBRANCH  14  15
ENDBRANCH  13  14
ENDBRANCH  12  13
ENDBRANCH  10  11
ENDBRANCH   1  10
TORSDOF 13
ENDMDL
MODEL 9
REMARK VINA RESULT:    -3.026      2.547      4.486
REMARK INTER + INTRA:          -7.802
REMARK INTER:                  -5.348
REMARK INTRA:                  -2.454
REMARK UNBOUND:                -2.475
REMARK SMILES CCCCCCC=CCCCCCCCC(=O)[O-]
REMARK SMILES IDX 10 1 11 2 12 3 13 4 14 5 15 6 16 7 17 8 18 9 9 10 8 11 7 12
REMARK SMILES IDX 6 13 5 14 4 15 3 16 2 17 1 18
REMARK H PARENT
REMARK Flexibility Score: inf
ROOT
ATOM      1  C   UNL     1      15.748 -14.968  -0.603  1.00  0.00     0.004 C 
ENDROOT
BRANCH   1   2
ATOM      2  C   UNL     1      14.477 -15.799  -0.849  1.00  0.00     0.000 C 
BRANCH   2   3
ATOM      3  C   UNL     1      13.210 -14.933  -0.950  1.00  0.00     0.000 C 
BRANCH   3   4
ATOM      4  C   UNL     1      13.419 -13.441  -0.631  1.00  0.00     0.000 C 
BRANCH   4   5
ATOM      5  C   UNL     1      12.922 -12.489  -1.743  1.00  0.00     0.006 C 
BRANCH   5   6
ATOM      6  C   UNL     1      12.614 -13.204  -3.068  1.00  0.00     0.053 C 
BRANCH   6   7
ATOM      7  C   UNL     1      11.231 -12.899  -3.557  1.00  0.00     0.041 C 
ATOM      8  O   UNL     1      10.747 -13.537  -4.529  1.00  0.00    -0.550 OA
ATOM      9  O   UNL     1      10.483 -11.895  -2.954  1.00  0.00    -0.550 OA
ENDBRANCH   6   7
ENDBRANCH   5   6
ENDBRANCH   4   5
ENDBRANCH   3   4
ENDBRANCH   2   3
ENDBRANCH   1   2
BRANCH   1  10
ATOM     10  C   UNL     1      16.895 -15.378  -1.540  1.00  0.00     0.027 C 
BRANCH  10  11
ATOM     11  C   UNL     1      17.113 -14.383  -2.649  1.00  0.00    -0.031 C 
ATOM     12  C   UNL     1      16.124 -13.589  -3.085  1.00  0.00    -0.031 C 
BRANCH  12  13
ATOM     13  C   UNL     1      16.340 -12.602  -4.200  1.00  0.00     0.027 C 
BRANCH  13  14
ATOM     14  C   UNL     1      16.958 -11.300  -3.676  1.00  0.00     0.004 C 
BRANCH  14  15
ATOM     15  C   UNL     1      16.023 -10.611  -2.672  1.00  0.00     0.000 C 
BRANCH  15  16
ATOM     16  C   UNL     1      16.749 -10.223  -1.366  1.00  0.00    -0.000 C 
BRANCH  16  17
ATOM     17  C   UNL     1      16.681 -11.308  -0.278  1.00  0.00    -0.003 C 
ATOM     18  C   UNL     1      18.025 -11.987  -0.025  1.00  0.00     0.004 C 
ENDBRANCH  16  17
ENDBRANCH  15  16
ENDBRANCH  14  15
ENDBRANCH  13  14
ENDBRANCH  12  13
ENDBRANCH  10  11
ENDBRANCH   1  10
TORSDOF 13
ENDMDL
