MODEL 1
REMARK VINA RESULT:    -6.165      0.000      0.000
REMARK INTER + INTRA:          -7.207
REMARK INTER:                  -7.066
REMARK INTRA:                  -0.141
REMARK UNBOUND:                -0.141
REMARK SMILES C=C(C)[C@@H]1CC[C@@]2(C(=O)[O-])CC[C@@]3(C)[C@@H](CC[C@H]4[C@@]5(C)CC[C@H](O)C(C)(C)[C@H]5CC[C@@]43C)[C@H]12
REMARK SMILES IDX 7 1 6 2 33 3 11 4 5 5 15 6 4 7 12 8 16 9 13 10 17 11 31 12
REMARK SMILES IDX 14 13 18 14 30 15 32 16 19 17 29 18 21 19 20 20 28 21 22 22
REMARK SMILES IDX 25 23 23 24 26 25 27 26 8 27 9 28 10 29 2 30 3 31 1 32 24 33
REMARK H PARENT 24 34
REMARK Flexibility Score: inf
ROOT
ATOM      1  C   UNL     1      32.496  -6.146 -31.190  1.00  0.00     0.014 C 
ATOM      2  C   UNL     1      32.254  -5.396 -32.510  1.00  0.00     0.014 C 
ATOM      3  C   UNL     1      31.290  -5.637 -30.367  1.00  0.00     0.012 C 
ATOM      4  C   UNL     1      33.785  -5.742 -30.453  1.00  0.00     0.014 C 
ATOM      5  C   UNL     1      30.748  -5.570 -32.749  1.00  0.00     0.009 C 
ATOM      6  C   UNL     1      31.208  -6.277 -28.968  1.00  0.00     0.000 C 
ATOM      7  C   UNL     1      30.095  -5.569 -31.352  1.00  0.00     0.018 C 
ATOM      8  C   UNL     1      33.826  -6.365 -29.029  1.00  0.00     0.008 C 
ATOM      9  C   UNL     1      29.995  -5.834 -28.133  1.00  0.00     0.005 C 
ATOM     10  C   UNL     1      32.547  -6.075 -28.141  1.00  0.00    -0.024 C 
ATOM     11  C   UNL     1      29.886  -6.676 -26.850  1.00  0.00     0.005 C 
ATOM     12  C   UNL     1      32.454  -7.037 -26.839  1.00  0.00    -0.024 C 
ATOM     13  C   UNL     1      32.727  -4.562 -27.737  1.00  0.00     0.012 C 
ATOM     14  C   UNL     1      31.181  -6.643 -25.977  1.00  0.00     0.002 C 
ATOM     15  C   UNL     1      33.682  -6.837 -25.927  1.00  0.00     0.008 C 
ATOM     16  C   UNL     1      32.402  -8.553 -27.270  1.00  0.00     0.012 C 
ATOM     17  C   UNL     1      31.015  -7.342 -24.546  1.00  0.00    -0.026 C 
ATOM     18  C   UNL     1      33.653  -7.719 -24.680  1.00  0.00     0.005 C 
ATOM     19  C   UNL     1      30.237  -8.696 -24.694  1.00  0.00     0.010 C 
ATOM     20  C   UNL     1      30.116  -6.388 -23.679  1.00  0.00     0.012 C 
ATOM     21  C   UNL     1      32.416  -7.499 -23.768  1.00  0.00     0.003 C 
ATOM     22  C   UNL     1      30.227  -9.575 -23.453  1.00  0.00     0.033 C 
ATOM     23  C   UNL     1      32.400  -8.520 -22.533  1.00  0.00    -0.006 C 
ATOM     24  C   UNL     1      31.648  -9.827 -22.934  1.00  0.00     0.120 C 
ATOM     25  C   UNL     1      33.839  -8.927 -22.101  1.00  0.00     0.014 C 
ATOM     26  C   UNL     1      31.767  -7.858 -21.266  1.00  0.00     0.014 C 
ENDROOT
BRANCH   1  27
ATOM     27  C   UNL     1      32.552  -7.661 -31.482  1.00  0.00     0.048 C 
ATOM     28  O   UNL     1      33.311  -8.118 -32.375  1.00  0.00    -0.550 OA
ATOM     29  O   UNL     1      31.883  -8.582 -30.692  1.00  0.00    -0.550 OA
ENDBRANCH   1  27
BRANCH   7  30
ATOM     30  C   UNL     1      28.968  -6.600 -31.210  1.00  0.00    -0.077 C 
ATOM     31  C   UNL     1      27.768  -6.274 -30.365  1.00  0.00     0.039 C 
ATOM     32  C   UNL     1      28.962  -7.769 -31.866  1.00  0.00     0.008 C 
ENDBRANCH   7  30
BRANCH  24  33
ATOM     33  O   UNL     1      31.628 -10.755 -21.876  1.00  0.00    -0.393 OA
ATOM     34  H   UNL     1      31.186 -11.586 -22.191  1.00  0.00     0.210 HD
ENDBRANCH  24  33
TORSDOF 3
ENDMDL
MODEL 2
REMARK VINA RESULT:    -5.719      3.445      5.936
REMARK INTER + INTRA:          -6.696
REMARK INTER:                  -6.530
REMARK INTRA:                  -0.167
REMARK UNBOUND:                -0.141
REMARK SMILES C=C(C)[C@@H]1CC[C@@]2(C(=O)[O-])CC[C@@]3(C)[C@@H](CC[C@H]4[C@@]5(C)CC[C@H](O)C(C)(C)[C@H]5CC[C@@]43C)[C@H]12
REMARK SMILES IDX 7 1 6 2 33 3 11 4 5 5 15 6 4 7 12 8 16 9 13 10 17 11 31 12
REMARK SMILES IDX 14 13 18 14 30 15 32 16 19 17 29 18 21 19 20 20 28 21 22 22
REMARK SMILES IDX 25 23 23 24 26 25 27 26 8 27 9 28 10 29 2 30 3 31 1 32 24 33
REMARK H PARENT 24 34
REMARK Flexibility Score: inf
ROOT
ATOM      1  C   UNL     1      31.715  -6.792 -31.266  1.00  0.00     0.014 C 
ATOM      2  C   UNL     1      32.790  -7.623 -31.986  1.00  0.00     0.014 C 
ATOM      3  C   UNL     1      31.527  -7.644 -29.990  1.00  0.00     0.012 C 
ATOM      4  C   UNL     1      30.364  -6.722 -32.000  1.00  0.00     0.014 C 
ATOM      5  C   UNL     1      33.785  -7.966 -30.868  1.00  0.00     0.009 C 
ATOM      6  C   UNL     1      30.526  -7.021 -28.998  1.00  0.00     0.000 C 
ATOM      7  C   UNL     1      32.941  -8.136 -29.588  1.00  0.00     0.018 C 
ATOM      8  C   UNL     1      29.277  -6.073 -31.098  1.00  0.00     0.008 C 
ATOM      9  C   UNL     1      30.345  -7.811 -27.691  1.00  0.00     0.005 C 
ATOM     10  C   UNL     1      29.116  -6.740 -29.670  1.00  0.00    -0.024 C 
ATOM     11  C   UNL     1      29.497  -7.011 -26.689  1.00  0.00     0.005 C 
ATOM     12  C   UNL     1      28.270  -5.820 -28.637  1.00  0.00    -0.024 C 
ATOM     13  C   UNL     1      28.375  -8.094 -29.989  1.00  0.00     0.012 C 
ATOM     14  C   UNL     1      28.106  -6.584 -27.256  1.00  0.00     0.002 C 
ATOM     15  C   UNL     1      26.845  -5.572 -29.175  1.00  0.00     0.008 C 
ATOM     16  C   UNL     1      28.970  -4.422 -28.435  1.00  0.00     0.012 C 
ATOM     17  C   UNL     1      27.133  -5.932 -26.165  1.00  0.00    -0.026 C 
ATOM     18  C   UNL     1      25.995  -4.708 -28.245  1.00  0.00     0.005 C 
ATOM     19  C   UNL     1      27.929  -4.917 -25.271  1.00  0.00     0.010 C 
ATOM     20  C   UNL     1      26.662  -7.100 -25.225  1.00  0.00     0.012 C 
ATOM     21  C   UNL     1      25.808  -5.294 -26.820  1.00  0.00     0.003 C 
ATOM     22  C   UNL     1      27.074  -4.049 -24.360  1.00  0.00     0.033 C 
ATOM     23  C   UNL     1      24.990  -4.296 -25.870  1.00  0.00    -0.006 C 
ATOM     24  C   UNL     1      25.975  -3.325 -25.146  1.00  0.00     0.120 C 
ATOM     25  C   UNL     1      23.987  -3.421 -26.678  1.00  0.00     0.014 C 
ATOM     26  C   UNL     1      24.109  -5.087 -24.849  1.00  0.00     0.014 C 
ENDROOT
BRANCH   1  27
ATOM     27  C   UNL     1      32.245  -5.354 -31.075  1.00  0.00     0.048 C 
ATOM     28  O   UNL     1      32.839  -4.756 -32.008  1.00  0.00    -0.550 OA
ATOM     29  O   UNL     1      31.970  -4.622 -29.931  1.00  0.00    -0.550 OA
ENDBRANCH   1  27
BRANCH   7  30
ATOM     30  C   UNL     1      33.602  -7.531 -28.343  1.00  0.00    -0.077 C 
ATOM     31  C   UNL     1      33.753  -8.370 -27.104  1.00  0.00     0.039 C 
ATOM     32  C   UNL     1      34.125  -6.298 -28.321  1.00  0.00     0.008 C 
ENDBRANCH   7  30
BRANCH  24  33
ATOM     33  O   UNL     1      25.289  -2.421 -24.313  1.00  0.00    -0.393 OA
ATOM     34  H   UNL     1      25.158  -1.571 -24.808  1.00  0.00     0.210 HD
ENDBRANCH  24  33
TORSDOF 3
ENDMDL
MODEL 3
REMARK VINA RESULT:    -5.507      3.369      4.631
REMARK INTER + INTRA:          -6.454
REMARK INTER:                  -6.273
REMARK INTRA:                  -0.180
REMARK UNBOUND:                -0.141
REMARK SMILES C=C(C)[C@@H]1CC[C@@]2(C(=O)[O-])CC[C@@]3(C)[C@@H](CC[C@H]4[C@@]5(C)CC[C@H](O)C(C)(C)[C@H]5CC[C@@]43C)[C@H]12
REMARK SMILES IDX 7 1 6 2 33 3 11 4 5 5 15 6 4 7 12 8 16 9 13 10 17 11 31 12
REMARK SMILES IDX 14 13 18 14 30 15 32 16 19 17 29 18 21 19 20 20 28 21 22 22
REMARK SMILES IDX 25 23 23 24 26 25 27 26 8 27 9 28 10 29 2 30 3 31 1 32 24 33
REMARK H PARENT 24 34
REMARK Flexibility Score: inf
ROOT
ATOM      1  C   UNL     1      31.088  -4.367 -30.442  1.00  0.00     0.014 C 
ATOM      2  C   UNL     1      31.559  -4.153 -31.889  1.00  0.00     0.014 C 
ATOM      3  C   UNL     1      29.741  -5.080 -30.700  1.00  0.00     0.012 C 
ATOM      4  C   UNL     1      30.803  -3.069 -29.664  1.00  0.00     0.014 C 
ATOM      5  C   UNL     1      31.265  -5.501 -32.563  1.00  0.00     0.009 C 
ATOM      6  C   UNL     1      29.028  -5.501 -29.400  1.00  0.00     0.000 C 
ATOM      7  C   UNL     1      29.983  -6.037 -31.895  1.00  0.00     0.018 C 
ATOM      8  C   UNL     1      30.109  -3.378 -28.308  1.00  0.00     0.008 C 
ATOM      9  C   UNL     1      27.706  -6.258 -29.612  1.00  0.00     0.005 C 
ATOM     10  C   UNL     1      28.807  -4.274 -28.417  1.00  0.00    -0.024 C 
ATOM     11  C   UNL     1      27.182  -6.813 -28.277  1.00  0.00     0.005 C 
ATOM     12  C   UNL     1      28.341  -4.885 -26.989  1.00  0.00    -0.024 C 
ATOM     13  C   UNL     1      27.736  -3.279 -29.004  1.00  0.00     0.012 C 
ATOM     14  C   UNL     1      27.004  -5.718 -27.178  1.00  0.00     0.002 C 
ATOM     15  C   UNL     1      28.017  -3.751 -25.995  1.00  0.00     0.008 C 
ATOM     16  C   UNL     1      29.484  -5.776 -26.365  1.00  0.00     0.012 C 
ATOM     17  C   UNL     1      26.270  -6.241 -25.855  1.00  0.00    -0.026 C 
ATOM     18  C   UNL     1      27.572  -4.264 -24.626  1.00  0.00     0.005 C 
ATOM     19  C   UNL     1      26.838  -7.644 -25.441  1.00  0.00     0.010 C 
ATOM     20  C   UNL     1      24.758  -6.452 -26.232  1.00  0.00     0.012 C 
ATOM     21  C   UNL     1      26.308  -5.164 -24.659  1.00  0.00     0.003 C 
ATOM     22  C   UNL     1      26.403  -8.138 -24.070  1.00  0.00     0.033 C 
ATOM     23  C   UNL     1      25.953  -5.744 -23.208  1.00  0.00    -0.006 C 
ATOM     24  C   UNL     1      26.693  -7.099 -22.981  1.00  0.00     0.120 C 
ATOM     25  C   UNL     1      26.401  -4.775 -22.074  1.00  0.00     0.014 C 
ATOM     26  C   UNL     1      24.408  -5.896 -23.026  1.00  0.00     0.014 C 
ENDROOT
BRANCH   1  27
ATOM     27  C   UNL     1      32.167  -5.167 -29.681  1.00  0.00     0.048 C 
ATOM     28  O   UNL     1      33.381  -4.845 -29.755  1.00  0.00    -0.550 OA
ATOM     29  O   UNL     1      31.835  -6.173 -28.787  1.00  0.00    -0.550 OA
ENDBRANCH   1  27
BRANCH   7  30
ATOM     30  C   UNL     1      30.026  -7.547 -31.629  1.00  0.00    -0.077 C 
ATOM     31  C   UNL     1      28.840  -8.397 -31.992  1.00  0.00     0.039 C 
ATOM     32  C   UNL     1      31.109  -8.172 -31.146  1.00  0.00     0.008 C 
ENDBRANCH   7  30
BRANCH  24  33
ATOM     33  O   UNL     1      26.417  -7.631 -21.707  1.00  0.00    -0.393 OA
ATOM     34  H   UNL     1      25.515  -7.327 -21.427  1.00  0.00     0.210 HD
ENDBRANCH  24  33
TORSDOF 3
ENDMDL
MODEL 4
REMARK VINA RESULT:    -5.474      4.457      7.100
REMARK INTER + INTRA:          -6.416
REMARK INTER:                  -6.339
REMARK INTRA:                  -0.076
REMARK UNBOUND:                -0.141
REMARK SMILES C=C(C)[C@@H]1CC[C@@]2(C(=O)[O-])CC[C@@]3(C)[C@@H](CC[C@H]4[C@@]5(C)CC[C@H](O)C(C)(C)[C@H]5CC[C@@]43C)[C@H]12
REMARK SMILES IDX 7 1 6 2 33 3 11 4 5 5 15 6 4 7 12 8 16 9 13 10 17 11 31 12
REMARK SMILES IDX 14 13 18 14 30 15 32 16 19 17 29 18 21 19 20 20 28 21 22 22
REMARK SMILES IDX 25 23 23 24 26 25 27 26 8 27 9 28 10 29 2 30 3 31 1 32 24 33
REMARK H PARENT 24 34
REMARK Flexibility Score: inf
ROOT
ATOM      1  C   UNL     1      30.491  -7.338 -30.051  1.00  0.00     0.014 C 
ATOM      2  C   UNL     1      31.491  -8.424 -30.479  1.00  0.00     0.014 C 
ATOM      3  C   UNL     1      31.447  -6.134 -29.903  1.00  0.00     0.012 C 
ATOM      4  C   UNL     1      29.820  -7.590 -28.688  1.00  0.00     0.014 C 
ATOM      5  C   UNL     1      32.360  -7.714 -31.527  1.00  0.00     0.009 C 
ATOM      6  C   UNL     1      30.714  -4.829 -29.532  1.00  0.00     0.000 C 
ATOM      7  C   UNL     1      32.465  -6.246 -31.067  1.00  0.00     0.018 C 
ATOM      8  C   UNL     1      29.017  -6.340 -28.228  1.00  0.00     0.008 C 
ATOM      9  C   UNL     1      31.624  -3.594 -29.423  1.00  0.00     0.005 C 
ATOM     10  C   UNL     1      29.842  -4.988 -28.216  1.00  0.00    -0.024 C 
ATOM     11  C   UNL     1      30.782  -2.317 -29.259  1.00  0.00     0.005 C 
ATOM     12  C   UNL     1      28.897  -3.675 -28.108  1.00  0.00    -0.024 C 
ATOM     13  C   UNL     1      30.770  -5.146 -26.952  1.00  0.00     0.012 C 
ATOM     14  C   UNL     1      29.802  -2.373 -28.044  1.00  0.00     0.002 C 
ATOM     15  C   UNL     1      28.075  -3.705 -26.803  1.00  0.00     0.008 C 
ATOM     16  C   UNL     1      27.892  -3.611 -29.322  1.00  0.00     0.012 C 
ATOM     17  C   UNL     1      29.071  -0.983 -27.738  1.00  0.00    -0.026 C 
ATOM     18  C   UNL     1      27.161  -2.491 -26.643  1.00  0.00     0.005 C 
ATOM     19  C   UNL     1      28.581  -0.324 -29.075  1.00  0.00     0.010 C 
ATOM     20  C   UNL     1      30.158  -0.026 -27.126  1.00  0.00     0.012 C 
ATOM     21  C   UNL     1      27.903  -1.127 -26.639  1.00  0.00     0.003 C 
ATOM     22  C   UNL     1      27.659   0.874 -28.906  1.00  0.00     0.033 C 
ATOM     23  C   UNL     1      26.880   0.105 -26.564  1.00  0.00    -0.006 C 
ATOM     24  C   UNL     1      26.465   0.538 -28.005  1.00  0.00     0.120 C 
ATOM     25  C   UNL     1      25.578  -0.272 -25.799  1.00  0.00     0.014 C 
ATOM     26  C   UNL     1      27.494   1.296 -25.760  1.00  0.00     0.014 C 
ENDROOT
BRANCH   1  27
ATOM     27  C   UNL     1      29.388  -7.227 -31.126  1.00  0.00     0.048 C 
ATOM     28  O   UNL     1      29.023  -8.235 -31.783  1.00  0.00    -0.550 OA
ATOM     29  O   UNL     1      28.668  -6.058 -31.313  1.00  0.00    -0.550 OA
ENDBRANCH   1  27
BRANCH   7  30
ATOM     30  C   UNL     1      32.372  -5.242 -32.222  1.00  0.00    -0.077 C 
ATOM     31  C   UNL     1      33.503  -4.280 -32.460  1.00  0.00     0.039 C 
ATOM     32  C   UNL     1      31.351  -5.221 -33.090  1.00  0.00     0.008 C 
ENDBRANCH   7  30
BRANCH  24  33
ATOM     33  O   UNL     1      25.552   1.610 -27.977  1.00  0.00    -0.393 OA
ATOM     34  H   UNL     1      25.578   2.071 -28.856  1.00  0.00     0.210 HD
ENDBRANCH  24  33
TORSDOF 3
ENDMDL
MODEL 5
REMARK VINA RESULT:    -5.370     12.522     14.471
REMARK INTER + INTRA:          -6.296
REMARK INTER:                  -6.117
REMARK INTRA:                  -0.179
REMARK UNBOUND:                -0.141
REMARK SMILES C=C(C)[C@@H]1CC[C@@]2(C(=O)[O-])CC[C@@]3(C)[C@@H](CC[C@H]4[C@@]5(C)CC[C@H](O)C(C)(C)[C@H]5CC[C@@]43C)[C@H]12
REMARK SMILES IDX 7 1 6 2 33 3 11 4 5 5 15 6 4 7 12 8 16 9 13 10 17 11 31 12
REMARK SMILES IDX 14 13 18 14 30 15 32 16 19 17 29 18 21 19 20 20 28 21 22 22
REMARK SMILES IDX 25 23 23 24 26 25 27 26 8 27 9 28 10 29 2 30 3 31 1 32 24 33
REMARK H PARENT 24 34
REMARK Flexibility Score: inf
ROOT
ATOM      1  C   UNL     1      27.106   5.186 -23.194  1.00  0.00     0.014 C 
ATOM      2  C   UNL     1      28.039   6.398 -23.040  1.00  0.00     0.014 C 
ATOM      3  C   UNL     1      25.989   5.814 -24.058  1.00  0.00     0.012 C 
ATOM      4  C   UNL     1      26.477   4.693 -21.879  1.00  0.00     0.014 C 
ATOM      5  C   UNL     1      28.095   6.988 -24.456  1.00  0.00     0.009 C 
ATOM      6  C   UNL     1      24.897   4.801 -24.452  1.00  0.00     0.000 C 
ATOM      7  C   UNL     1      26.701   6.747 -25.070  1.00  0.00     0.018 C 
ATOM      8  C   UNL     1      25.375   3.632 -22.156  1.00  0.00     0.008 C 
ATOM      9  C   UNL     1      23.790   5.373 -25.354  1.00  0.00     0.005 C 
ATOM     10  C   UNL     1      24.261   4.087 -23.186  1.00  0.00    -0.024 C 
ATOM     11  C   UNL     1      22.872   4.248 -25.860  1.00  0.00     0.005 C 
ATOM     12  C   UNL     1      23.368   2.849 -23.735  1.00  0.00    -0.024 C 
ATOM     13  C   UNL     1      23.396   5.105 -22.351  1.00  0.00     0.012 C 
ATOM     14  C   UNL     1      22.244   3.397 -24.711  1.00  0.00     0.002 C 
ATOM     15  C   UNL     1      22.637   2.149 -22.570  1.00  0.00     0.008 C 
ATOM     16  C   UNL     1      24.278   1.783 -24.457  1.00  0.00     0.012 C 
ATOM     17  C   UNL     1      21.131   2.359 -25.208  1.00  0.00    -0.026 C 
ATOM     18  C   UNL     1      21.778   0.970 -23.024  1.00  0.00     0.005 C 
ATOM     19  C   UNL     1      21.614   1.631 -26.511  1.00  0.00     0.010 C 
ATOM     20  C   UNL     1      19.865   3.206 -25.598  1.00  0.00     0.012 C 
ATOM     21  C   UNL     1      20.672   1.341 -24.048  1.00  0.00     0.003 C 
ATOM     22  C   UNL     1      20.762   0.449 -26.946  1.00  0.00     0.033 C 
ATOM     23  C   UNL     1      19.872   0.047 -24.553  1.00  0.00    -0.006 C 
ATOM     24  C   UNL     1      20.579  -0.559 -25.805  1.00  0.00     0.120 C 
ATOM     25  C   UNL     1      19.826  -1.064 -23.463  1.00  0.00     0.014 C 
ATOM     26  C   UNL     1      18.376   0.391 -24.847  1.00  0.00     0.014 C 
ENDROOT
BRANCH   1  27
ATOM     27  C   UNL     1      27.904   4.022 -23.822  1.00  0.00     0.048 C 
ATOM     28  O   UNL     1      29.028   3.691 -23.366  1.00  0.00    -0.550 OA
ATOM     29  O   UNL     1      27.363   3.217 -24.811  1.00  0.00    -0.550 OA
ENDBRANCH   1  27
BRANCH   7  30
ATOM     30  C   UNL     1      26.754   6.327 -26.544  1.00  0.00    -0.077 C 
ATOM     31  C   UNL     1      25.748   6.889 -27.510  1.00  0.00     0.039 C 
ATOM     32  C   UNL     1      27.706   5.526 -27.041  1.00  0.00     0.008 C 
ENDBRANCH   7  30
BRANCH  24  33
ATOM     33  O   UNL     1      19.912  -1.709 -26.267  1.00  0.00    -0.393 OA
ATOM     34  H   UNL     1      20.575  -2.440 -26.372  1.00  0.00     0.210 HD
ENDBRANCH  24  33
TORSDOF 3
ENDMDL
MODEL 6
REMARK VINA RESULT:    -5.356     11.280     15.337
REMARK INTER + INTRA:          -6.281
REMARK INTER:                  -6.159
REMARK INTRA:                  -0.121
REMARK UNBOUND:                -0.141
REMARK SMILES C=C(C)[C@@H]1CC[C@@]2(C(=O)[O-])CC[C@@]3(C)[C@@H](CC[C@H]4[C@@]5(C)CC[C@H](O)C(C)(C)[C@H]5CC[C@@]43C)[C@H]12
REMARK SMILES IDX 7 1 6 2 33 3 11 4 5 5 15 6 4 7 12 8 16 9 13 10 17 11 31 12
REMARK SMILES IDX 14 13 18 14 30 15 32 16 19 17 29 18 21 19 20 20 28 21 22 22
REMARK SMILES IDX 25 23 23 24 26 25 27 26 8 27 9 28 10 29 2 30 3 31 1 32 24 33
REMARK H PARENT 24 34
REMARK Flexibility Score: inf
ROOT
ATOM      1  C   UNL     1      21.170  -0.725 -17.349  1.00  0.00     0.014 C 
ATOM      2  C   UNL     1      19.731  -0.558 -16.835  1.00  0.00     0.014 C 
ATOM      3  C   UNL     1      21.939   0.047 -16.253  1.00  0.00     0.012 C 
ATOM      4  C   UNL     1      21.448  -0.045 -18.701  1.00  0.00     0.014 C 
ATOM      5  C   UNL     1      19.855  -0.835 -15.330  1.00  0.00     0.009 C 
ATOM      6  C   UNL     1      23.467   0.007 -16.453  1.00  0.00     0.000 C 
ATOM      7  C   UNL     1      21.239  -0.296 -14.913  1.00  0.00     0.018 C 
ATOM      8  C   UNL     1      22.969  -0.058 -19.024  1.00  0.00     0.008 C 
ATOM      9  C   UNL     1      24.274   0.722 -15.356  1.00  0.00     0.005 C 
ATOM     10  C   UNL     1      23.895   0.538 -17.885  1.00  0.00    -0.024 C 
ATOM     11  C   UNL     1      25.777   0.450 -15.528  1.00  0.00     0.005 C 
ATOM     12  C   UNL     1      25.460   0.163 -18.085  1.00  0.00    -0.024 C 
ATOM     13  C   UNL     1      23.647   2.090 -17.998  1.00  0.00     0.012 C 
ATOM     14  C   UNL     1      26.320   0.844 -16.939  1.00  0.00     0.002 C 
ATOM     15  C   UNL     1      25.985   0.724 -19.423  1.00  0.00     0.008 C 
ATOM     16  C   UNL     1      25.660  -1.402 -18.094  1.00  0.00     0.012 C 
ATOM     17  C   UNL     1      27.914   0.760 -17.066  1.00  0.00    -0.026 C 
ATOM     18  C   UNL     1      27.458   0.401 -19.671  1.00  0.00     0.005 C 
ATOM     19  C   UNL     1      28.440  -0.556 -16.393  1.00  0.00     0.010 C 
ATOM     20  C   UNL     1      28.496   1.964 -16.240  1.00  0.00     0.012 C 
ATOM     21  C   UNL     1      28.424   0.943 -18.583  1.00  0.00     0.003 C 
ATOM     22  C   UNL     1      29.903  -0.877 -16.659  1.00  0.00     0.033 C 
ATOM     23  C   UNL     1      29.936   0.489 -18.853  1.00  0.00    -0.006 C 
ATOM     24  C   UNL     1      30.212  -0.883 -18.160  1.00  0.00     0.120 C 
ATOM     25  C   UNL     1      30.222   0.307 -20.373  1.00  0.00     0.014 C 
ATOM     26  C   UNL     1      30.945   1.584 -18.378  1.00  0.00     0.014 C 
ENDROOT
BRANCH   1  27
ATOM     27  C   UNL     1      21.477  -2.233 -17.487  1.00  0.00     0.048 C 
ATOM     28  O   UNL     1      20.708  -2.991 -18.133  1.00  0.00    -0.550 OA
ATOM     29  O   UNL     1      22.664  -2.780 -17.029  1.00  0.00    -0.550 OA
ENDBRANCH   1  27
BRANCH   7  30
ATOM     30  C   UNL     1      21.967  -1.206 -13.916  1.00  0.00    -0.077 C 
ATOM     31  C   UNL     1      22.864  -0.595 -12.876  1.00  0.00     0.039 C 
ATOM     32  C   UNL     1      21.790  -2.534 -13.877  1.00  0.00     0.008 C 
ENDBRANCH   7  30
BRANCH  24  33
ATOM     33  O   UNL     1      31.529  -1.321 -18.390  1.00  0.00    -0.393 OA
ATOM     34  H   UNL     1      31.737  -1.208 -19.354  1.00  0.00     0.210 HD
ENDBRANCH  24  33
TORSDOF 3
ENDMDL
MODEL 7
REMARK VINA RESULT:    -5.343      1.924      7.899
REMARK INTER + INTRA:          -6.266
REMARK INTER:                  -6.083
REMARK INTRA:                  -0.183
REMARK UNBOUND:                -0.141
REMARK SMILES C=C(C)[C@@H]1CC[C@@]2(C(=O)[O-])CC[C@@]3(C)[C@@H](CC[C@H]4[C@@]5(C)CC[C@H](O)C(C)(C)[C@H]5CC[C@@]43C)[C@H]12
REMARK SMILES IDX 7 1 6 2 33 3 11 4 5 5 15 6 4 7 12 8 16 9 13 10 17 11 31 12
REMARK SMILES IDX 14 13 18 14 30 15 32 16 19 17 29 18 21 19 20 20 28 21 22 22
REMARK SMILES IDX 25 23 23 24 26 25 27 26 8 27 9 28 10 29 2 30 3 31 1 32 24 33
REMARK H PARENT 24 34
REMARK Flexibility Score: inf
ROOT
ATOM      1  C   UNL     1      31.880  -8.438 -21.566  1.00  0.00     0.014 C 
ATOM      2  C   UNL     1      31.323  -8.760 -20.169  1.00  0.00     0.014 C 
ATOM      3  C   UNL     1      30.559  -8.279 -22.353  1.00  0.00     0.012 C 
ATOM      4  C   UNL     1      32.688  -9.579 -22.209  1.00  0.00     0.014 C 
ATOM      5  C   UNL     1      30.183  -7.746 -19.998  1.00  0.00     0.009 C 
ATOM      6  C   UNL     1      30.784  -7.876 -23.823  1.00  0.00     0.000 C 
ATOM      7  C   UNL     1      29.577  -7.548 -21.402  1.00  0.00     0.018 C 
ATOM      8  C   UNL     1      33.004  -9.261 -23.698  1.00  0.00     0.008 C 
ATOM      9  C   UNL     1      29.493  -7.659 -24.631  1.00  0.00     0.005 C 
ATOM     10  C   UNL     1      31.742  -8.890 -24.580  1.00  0.00    -0.024 C 
ATOM     11  C   UNL     1      29.814  -7.062 -26.011  1.00  0.00     0.005 C 
ATOM     12  C   UNL     1      32.141  -8.204 -25.994  1.00  0.00    -0.024 C 
ATOM     13  C   UNL     1      31.028 -10.279 -24.786  1.00  0.00     0.012 C 
ATOM     14  C   UNL     1      30.827  -7.918 -26.835  1.00  0.00     0.002 C 
ATOM     15  C   UNL     1      33.005  -9.164 -26.837  1.00  0.00     0.008 C 
ATOM     16  C   UNL     1      32.965  -6.880 -25.757  1.00  0.00     0.012 C 
ATOM     17  C   UNL     1      31.014  -7.422 -28.346  1.00  0.00    -0.026 C 
ATOM     18  C   UNL     1      33.416  -8.573 -28.185  1.00  0.00     0.005 C 
ATOM     19  C   UNL     1      31.132  -5.859 -28.391  1.00  0.00     0.010 C 
ATOM     20  C   UNL     1      29.696  -7.806 -29.113  1.00  0.00     0.012 C 
ATOM     21  C   UNL     1      32.226  -8.171 -29.097  1.00  0.00     0.003 C 
ATOM     22  C   UNL     1      31.558  -5.281 -29.732  1.00  0.00     0.033 C 
ATOM     23  C   UNL     1      32.725  -7.472 -30.450  1.00  0.00    -0.006 C 
ATOM     24  C   UNL     1      32.851  -5.931 -30.238  1.00  0.00     0.120 C 
ATOM     25  C   UNL     1      34.125  -7.995 -30.888  1.00  0.00     0.014 C 
ATOM     26  C   UNL     1      31.773  -7.811 -31.642  1.00  0.00     0.014 C 
ENDROOT
BRANCH   1  27
ATOM     27  C   UNL     1      32.786  -7.192 -21.464  1.00  0.00     0.048 C 
ATOM     28  O   UNL     1      33.638  -7.087 -20.544  1.00  0.00    -0.550 OA
ATOM     29  O   UNL     1      32.796  -6.215 -22.446  1.00  0.00    -0.550 OA
ENDBRANCH   1  27
BRANCH   7  30
ATOM     30  C   UNL     1      29.213  -6.089 -21.704  1.00  0.00    -0.077 C 
ATOM     31  C   UNL     1      27.866  -5.769 -22.291  1.00  0.00     0.039 C 
ATOM     32  C   UNL     1      30.016  -5.060 -21.402  1.00  0.00     0.008 C 
ENDBRANCH   7  30
BRANCH  24  33
ATOM     33  O   UNL     1      33.303  -5.285 -31.404  1.00  0.00    -0.393 OA
ATOM     34  H   UNL     1      33.097  -5.861 -32.185  1.00  0.00     0.210 HD
ENDBRANCH  24  33
TORSDOF 3
ENDMDL
MODEL 8
REMARK VINA RESULT:    -5.239      3.722      5.867
REMARK INTER + INTRA:          -6.147
REMARK INTER:                  -5.979
REMARK INTRA:                  -0.167
REMARK UNBOUND:                -0.141
REMARK SMILES C=C(C)[C@@H]1CC[C@@]2(C(=O)[O-])CC[C@@]3(C)[C@@H](CC[C@H]4[C@@]5(C)CC[C@H](O)C(C)(C)[C@H]5CC[C@@]43C)[C@H]12
REMARK SMILES IDX 7 1 6 2 33 3 11 4 5 5 15 6 4 7 12 8 16 9 13 10 17 11 31 12
REMARK SMILES IDX 14 13 18 14 30 15 32 16 19 17 29 18 21 19 20 20 28 21 22 22
REMARK SMILES IDX 25 23 23 24 26 25 27 26 8 27 9 28 10 29 2 30 3 31 1 32 24 33
REMARK H PARENT 24 34
REMARK Flexibility Score: inf
ROOT
ATOM      1  C   UNL     1      31.882  -7.291 -29.926  1.00  0.00     0.014 C 
ATOM      2  C   UNL     1      33.332  -7.339 -30.438  1.00  0.00     0.014 C 
ATOM      3  C   UNL     1      31.795  -5.807 -29.502  1.00  0.00     0.012 C 
ATOM      4  C   UNL     1      31.614  -8.162 -28.686  1.00  0.00     0.014 C 
ATOM      5  C   UNL     1      33.456  -6.060 -31.277  1.00  0.00     0.009 C 
ATOM      6  C   UNL     1      30.396  -5.413 -28.990  1.00  0.00     0.000 C 
ATOM      7  C   UNL     1      32.574  -5.006 -30.577  1.00  0.00     0.018 C 
ATOM      8  C   UNL     1      30.204  -7.870 -28.100  1.00  0.00     0.008 C 
ATOM      9  C   UNL     1      30.252  -3.931 -28.602  1.00  0.00     0.005 C 
ATOM     10  C   UNL     1      29.914  -6.342 -27.797  1.00  0.00    -0.024 C 
ATOM     11  C   UNL     1      28.782  -3.592 -28.307  1.00  0.00     0.005 C 
ATOM     12  C   UNL     1      28.340  -6.035 -27.559  1.00  0.00    -0.024 C 
ATOM     13  C   UNL     1      30.766  -6.067 -26.500  1.00  0.00     0.012 C 
ATOM     14  C   UNL     1      28.146  -4.500 -27.207  1.00  0.00     0.002 C 
ATOM     15  C   UNL     1      27.808  -6.835 -26.353  1.00  0.00     0.008 C 
ATOM     16  C   UNL     1      27.496  -6.438 -28.829  1.00  0.00     0.012 C 
ATOM     17  C   UNL     1      26.687  -4.030 -26.742  1.00  0.00    -0.026 C 
ATOM     18  C   UNL     1      26.325  -6.589 -26.077  1.00  0.00     0.005 C 
ATOM     19  C   UNL     1      25.824  -3.638 -27.992  1.00  0.00     0.010 C 
ATOM     20  C   UNL     1      26.884  -2.723 -25.891  1.00  0.00     0.012 C 
ATOM     21  C   UNL     1      25.966  -5.107 -25.787  1.00  0.00     0.003 C 
ATOM     22  C   UNL     1      24.346  -3.410 -27.711  1.00  0.00     0.033 C 
ATOM     23  C   UNL     1      24.387  -4.904 -25.602  1.00  0.00    -0.006 C 
ATOM     24  C   UNL     1      23.723  -4.607 -26.983  1.00  0.00     0.120 C 
ATOM     25  C   UNL     1      23.705  -6.179 -25.023  1.00  0.00     0.014 C 
ATOM     26  C   UNL     1      24.083  -3.775 -24.564  1.00  0.00     0.014 C 
ENDROOT
BRANCH   1  27
ATOM     27  C   UNL     1      30.940  -7.750 -31.061  1.00  0.00     0.048 C 
ATOM     28  O   UNL     1      31.170  -8.807 -31.703  1.00  0.00    -0.550 OA
ATOM     29  O   UNL     1      29.745  -7.101 -31.323  1.00  0.00    -0.550 OA
ENDBRANCH   1  27
BRANCH   7  30
ATOM     30  C   UNL     1      31.782  -4.132 -31.557  1.00  0.00    -0.077 C 
ATOM     31  C   UNL     1      31.813  -2.636 -31.407  1.00  0.00     0.039 C 
ATOM     32  C   UNL     1      31.108  -4.634 -32.601  1.00  0.00     0.008 C 
ENDBRANCH   7  30
BRANCH  24  33
ATOM     33  O   UNL     1      22.331  -4.439 -26.861  1.00  0.00    -0.393 OA
ATOM     34  H   UNL     1      22.142  -3.976 -26.004  1.00  0.00     0.210 HD
ENDBRANCH  24  33
TORSDOF 3
ENDMDL
