MODEL 1
REMARK VINA RESULT:    -2.705      0.000      0.000
REMARK INTER + INTRA:          -3.134
REMARK INTER:                  -2.863
REMARK INTRA:                  -0.271
REMARK UNBOUND:                -0.271
REMARK SMILES CC1=CC[C@@H]2[C@H]3[C@@H](C(C)C)CC[C@]2(C)[C@@H]13
REMARK SMILES IDX 1 1 2 2 3 3 4 4 5 5 6 6 15 7 13 8 12 9 11 10 7 11 14 12 8 13
REMARK SMILES IDX 9 14 10 15
REMARK H PARENT
REMARK Flexibility Score: inf
ROOT
ATOM      1  C   UNL     1     153.532 138.895 165.175  1.00  0.00     0.039 C 
ATOM      2  C   UNL     1     153.772 138.165 163.887  1.00  0.00    -0.073 C 
ATOM      3  C   UNL     1     154.927 138.326 163.191  1.00  0.00    -0.027 C 
ATOM      4  C   UNL     1     155.125 137.535 161.894  1.00  0.00     0.031 C 
ATOM      5  C   UNL     1     153.862 136.668 161.586  1.00  0.00     0.003 C 
ATOM      6  C   UNL     1     152.615 137.570 161.786  1.00  0.00     0.004 C 
ATOM      7  C   UNL     1     152.724 137.222 163.289  1.00  0.00     0.024 C 
ATOM      8  C   UNL     1     153.381 135.896 162.842  1.00  0.00    -0.022 C 
ATOM      9  C   UNL     1     152.263 134.875 162.463  1.00  0.00     0.008 C 
ATOM     10  C   UNL     1     151.374 135.374 161.293  1.00  0.00     0.005 C 
ATOM     11  C   UNL     1     151.319 136.928 161.201  1.00  0.00    -0.005 C 
ATOM     12  C   UNL     1     154.431 135.245 163.772  1.00  0.00     0.012 C 
ENDROOT
BRANCH  11  13
ATOM     13  C   UNL     1     150.962 137.422 159.765  1.00  0.00    -0.014 C 
ATOM     14  C   UNL     1     149.496 137.856 159.603  1.00  0.00     0.007 C 
ATOM     15  C   UNL     1     151.314 136.366 158.705  1.00  0.00     0.007 C 
ENDBRANCH  11  13
TORSDOF 1
ENDMDL
