MODEL 1
REMARK VINA RESULT:    -3.907      0.000      0.000
REMARK INTER + INTRA:          -4.159
REMARK INTER:                  -4.136
REMARK INTRA:                  -0.024
REMARK UNBOUND:                -0.024
REMARK SMILES O=C([O-])c1cccnc1
REMARK SMILES IDX 4 1 5 2 9 3 6 4 8 5 7 6 2 7 1 8 3 9
REMARK H PARENT
REMARK Flexibility Score: inf
ROOT
ATOM      1  C   UNL     1      36.822   3.223   8.491  1.00  0.00     0.016 A 
ATOM      2  C   UNL     1      36.009   3.778   9.494  1.00  0.00     0.013 A 
ATOM      3  C   UNL     1      36.601   1.886   8.116  1.00  0.00     0.120 A 
ATOM      4  C   UNL     1      35.013   3.007  10.095  1.00  0.00     0.021 A 
ATOM      5  N   UNL     1      35.623   1.158   8.718  1.00  0.00    -0.264 NA
ATOM      6  C   UNL     1      34.833   1.684   9.689  1.00  0.00     0.111 A 
ENDROOT
BRANCH   1   7
ATOM      7  C   UNL     1      37.884   4.022   7.841  1.00  0.00     0.073 C 
ATOM      8  O   UNL     1      38.657   3.495   6.999  1.00  0.00    -0.545 OA
ATOM      9  O   UNL     1      38.041   5.368   8.151  1.00  0.00    -0.545 OA
ENDBRANCH   1   7
TORSDOF 1
ENDMDL
MODEL 2
REMARK VINA RESULT:    -3.819     18.546     18.871
REMARK INTER + INTRA:          -4.066
REMARK INTER:                  -4.050
REMARK INTRA:                  -0.016
REMARK UNBOUND:                -0.024
REMARK SMILES O=C([O-])c1cccnc1
REMARK SMILES IDX 4 1 5 2 9 3 6 4 8 5 7 6 2 7 1 8 3 9
REMARK H PARENT
REMARK Flexibility Score: inf
ROOT
ATOM      1  C   UNL     1      27.352   5.228  -7.210  1.00  0.00     0.016 A 
ATOM      2  C   UNL     1      26.606   4.037  -7.195  1.00  0.00     0.013 A 
ATOM      3  C   UNL     1      26.771   6.372  -7.784  1.00  0.00     0.120 A 
ATOM      4  C   UNL     1      25.322   4.007  -7.742  1.00  0.00     0.021 A 
ATOM      5  N   UNL     1      25.518   6.315  -8.309  1.00  0.00    -0.264 NA
ATOM      6  C   UNL     1      24.789   5.169  -8.301  1.00  0.00     0.111 A 
ENDROOT
BRANCH   1   7
ATOM      7  C   UNL     1      28.714   5.281  -6.635  1.00  0.00     0.073 C 
ATOM      8  O   UNL     1      28.895   5.670  -5.451  1.00  0.00    -0.545 OA
ATOM      9  O   UNL     1      29.814   4.902  -7.396  1.00  0.00    -0.545 OA
ENDBRANCH   1   7
TORSDOF 1
ENDMDL
MODEL 3
REMARK VINA RESULT:    -3.707     11.018     12.093
REMARK INTER + INTRA:          -3.948
REMARK INTER:                  -3.925
REMARK INTRA:                  -0.023
REMARK UNBOUND:                -0.024
REMARK SMILES O=C([O-])c1cccnc1
REMARK SMILES IDX 4 1 5 2 9 3 6 4 8 5 7 6 2 7 1 8 3 9
REMARK H PARENT
REMARK Flexibility Score: inf
ROOT
ATOM      1  C   UNL     1      25.868  -1.667   9.392  1.00  0.00     0.016 A 
ATOM      2  C   UNL     1      24.606  -1.102   9.643  1.00  0.00     0.013 A 
ATOM      3  C   UNL     1      25.936  -3.035   9.074  1.00  0.00     0.120 A 
ATOM      4  C   UNL     1      23.458  -1.893   9.576  1.00  0.00     0.021 A 
ATOM      5  N   UNL     1      24.801  -3.782   9.014  1.00  0.00    -0.264 NA
ATOM      6  C   UNL     1      23.577  -3.246   9.257  1.00  0.00     0.111 A 
ENDROOT
BRANCH   1   7
ATOM      7  C   UNL     1      27.097  -0.847   9.458  1.00  0.00     0.073 C 
ATOM      8  O   UNL     1      28.229  -1.394   9.536  1.00  0.00    -0.545 OA
ATOM      9  O   UNL     1      27.019   0.541   9.433  1.00  0.00    -0.545 OA
ENDBRANCH   1   7
TORSDOF 1
ENDMDL
MODEL 4
REMARK VINA RESULT:    -3.697      2.853      3.681
REMARK INTER + INTRA:          -3.936
REMARK INTER:                  -3.915
REMARK INTRA:                  -0.021
REMARK UNBOUND:                -0.024
REMARK SMILES O=C([O-])c1cccnc1
REMARK SMILES IDX 4 1 5 2 9 3 6 4 8 5 7 6 2 7 1 8 3 9
REMARK H PARENT
REMARK Flexibility Score: inf
ROOT
ATOM      1  C   UNL     1      36.305   2.627   9.084  1.00  0.00     0.016 A 
ATOM      2  C   UNL     1      36.031   3.984   9.322  1.00  0.00     0.013 A 
ATOM      3  C   UNL     1      37.309   2.302   8.154  1.00  0.00     0.120 A 
ATOM      4  C   UNL     1      36.744   4.973   8.643  1.00  0.00     0.021 A 
ATOM      5  N   UNL     1      37.989   3.286   7.507  1.00  0.00    -0.264 NA
ATOM      6  C   UNL     1      37.730   4.601   7.729  1.00  0.00     0.111 A 
ENDROOT
BRANCH   1   7
ATOM      7  C   UNL     1      35.561   1.563   9.793  1.00  0.00     0.073 C 
ATOM      8  O   UNL     1      34.352   1.726  10.105  1.00  0.00    -0.545 OA
ATOM      9  O   UNL     1      36.188   0.367  10.125  1.00  0.00    -0.545 OA
ENDBRANCH   1   7
TORSDOF 1
ENDMDL
MODEL 5
REMARK VINA RESULT:    -3.662     18.962     19.775
REMARK INTER + INTRA:          -3.899
REMARK INTER:                  -3.877
REMARK INTRA:                  -0.022
REMARK UNBOUND:                -0.024
REMARK SMILES O=C([O-])c1cccnc1
REMARK SMILES IDX 4 1 5 2 9 3 6 4 8 5 7 6 2 7 1 8 3 9
REMARK H PARENT
REMARK Flexibility Score: inf
ROOT
ATOM      1  C   UNL     1      24.296  -7.260  -2.331  1.00  0.00     0.016 A 
ATOM      2  C   UNL     1      23.269  -7.053  -3.268  1.00  0.00     0.013 A 
ATOM      3  C   UNL     1      24.226  -8.396  -1.505  1.00  0.00     0.120 A 
ATOM      4  C   UNL     1      22.213  -7.960  -3.363  1.00  0.00     0.021 A 
ATOM      5  N   UNL     1      23.185  -9.264  -1.619  1.00  0.00    -0.264 NA
ATOM      6  C   UNL     1      22.187  -9.072  -2.520  1.00  0.00     0.111 A 
ENDROOT
BRANCH   1   7
ATOM      7  C   UNL     1      25.425  -6.312  -2.215  1.00  0.00     0.073 C 
ATOM      8  O   UNL     1      26.072  -6.216  -1.138  1.00  0.00    -0.545 OA
ATOM      9  O   UNL     1      25.787  -5.513  -3.293  1.00  0.00    -0.545 OA
ENDBRANCH   1   7
TORSDOF 1
ENDMDL
MODEL 6
REMARK VINA RESULT:    -3.622      1.814      2.504
REMARK INTER + INTRA:          -3.858
REMARK INTER:                  -3.840
REMARK INTRA:                  -0.018
REMARK UNBOUND:                -0.024
REMARK SMILES O=C([O-])c1cccnc1
REMARK SMILES IDX 4 1 5 2 9 3 6 4 8 5 7 6 2 7 1 8 3 9
REMARK H PARENT
REMARK Flexibility Score: inf
ROOT
ATOM      1  C   UNL     1      35.868   3.821   9.386  1.00  0.00     0.016 A 
ATOM      2  C   UNL     1      35.114   2.863  10.085  1.00  0.00     0.013 A 
ATOM      3  C   UNL     1      36.667   3.389   8.313  1.00  0.00     0.120 A 
ATOM      4  C   UNL     1      35.169   1.519   9.711  1.00  0.00     0.021 A 
ATOM      5  N   UNL     1      36.701   2.074   7.969  1.00  0.00    -0.264 NA
ATOM      6  C   UNL     1      35.978   1.140   8.639  1.00  0.00     0.111 A 
ENDROOT
BRANCH   1   7
ATOM      7  C   UNL     1      35.824   5.250   9.766  1.00  0.00     0.073 C 
ATOM      8  O   UNL     1      36.881   5.865  10.067  1.00  0.00    -0.545 OA
ATOM      9  O   UNL     1      34.614   5.934   9.795  1.00  0.00    -0.545 OA
ENDBRANCH   1   7
TORSDOF 1
ENDMDL
MODEL 7
REMARK VINA RESULT:    -3.436      2.872      4.004
REMARK INTER + INTRA:          -3.661
REMARK INTER:                  -3.644
REMARK INTRA:                  -0.017
REMARK UNBOUND:                -0.024
REMARK SMILES O=C([O-])c1cccnc1
REMARK SMILES IDX 4 1 5 2 9 3 6 4 8 5 7 6 2 7 1 8 3 9
REMARK H PARENT
REMARK Flexibility Score: inf
ROOT
ATOM      1  C   UNL     1      37.634   3.831   7.821  1.00  0.00     0.016 A 
ATOM      2  C   UNL     1      36.882   5.004   7.640  1.00  0.00     0.013 A 
ATOM      3  C   UNL     1      38.986   3.839   7.433  1.00  0.00     0.120 A 
ATOM      4  C   UNL     1      37.475   6.140   7.087  1.00  0.00     0.021 A 
ATOM      5  N   UNL     1      39.540   4.960   6.897  1.00  0.00    -0.264 NA
ATOM      6  C   UNL     1      38.820   6.098   6.717  1.00  0.00     0.111 A 
ENDROOT
BRANCH   1   7
ATOM      7  C   UNL     1      37.025   2.617   8.405  1.00  0.00     0.073 C 
ATOM      8  O   UNL     1      36.191   1.939   7.747  1.00  0.00    -0.545 OA
ATOM      9  O   UNL     1      37.365   2.207   9.689  1.00  0.00    -0.545 OA
ENDBRANCH   1   7
TORSDOF 1
ENDMDL
MODEL 8
REMARK VINA RESULT:    -3.431      2.596      3.307
REMARK INTER + INTRA:          -3.655
REMARK INTER:                  -3.639
REMARK INTRA:                  -0.016
REMARK UNBOUND:                -0.024
REMARK SMILES O=C([O-])c1cccnc1
REMARK SMILES IDX 4 1 5 2 9 3 6 4 8 5 7 6 2 7 1 8 3 9
REMARK H PARENT
REMARK Flexibility Score: inf
ROOT
ATOM      1  C   UNL     1      36.274   3.281   8.844  1.00  0.00     0.016 A 
ATOM      2  C   UNL     1      35.550   3.914   9.869  1.00  0.00     0.013 A 
ATOM      3  C   UNL     1      36.927   4.086   7.894  1.00  0.00     0.120 A 
ATOM      4  C   UNL     1      35.489   5.307   9.928  1.00  0.00     0.021 A 
ATOM      5  N   UNL     1      36.852   5.442   7.975  1.00  0.00    -0.264 NA
ATOM      6  C   UNL     1      36.154   6.062   8.961  1.00  0.00     0.111 A 
ENDROOT
BRANCH   1   7
ATOM      7  C   UNL     1      36.351   1.807   8.763  1.00  0.00     0.073 C 
ATOM      8  O   UNL     1      35.411   1.143   8.251  1.00  0.00    -0.545 OA
ATOM      9  O   UNL     1      37.465   1.132   9.252  1.00  0.00    -0.545 OA
ENDBRANCH   1   7
TORSDOF 1
ENDMDL
MODEL 9
REMARK VINA RESULT:    -3.408     18.933     19.370
REMARK INTER + INTRA:          -3.631
REMARK INTER:                  -3.614
REMARK INTRA:                  -0.017
REMARK UNBOUND:                -0.024
REMARK SMILES O=C([O-])c1cccnc1
REMARK SMILES IDX 4 1 5 2 9 3 6 4 8 5 7 6 2 7 1 8 3 9
REMARK H PARENT
REMARK Flexibility Score: inf
ROOT
ATOM      1  C   UNL     1      27.204   4.839  -7.993  1.00  0.00     0.016 A 
ATOM      2  C   UNL     1      27.923   4.514  -9.156  1.00  0.00     0.013 A 
ATOM      3  C   UNL     1      27.925   5.176  -6.835  1.00  0.00     0.120 A 
ATOM      4  C   UNL     1      29.319   4.530  -9.144  1.00  0.00     0.021 A 
ATOM      5  N   UNL     1      29.285   5.184  -6.851  1.00  0.00    -0.264 NA
ATOM      6  C   UNL     1      29.989   4.871  -7.969  1.00  0.00     0.111 A 
ENDROOT
BRANCH   1   7
ATOM      7  C   UNL     1      25.725   4.828  -7.985  1.00  0.00     0.073 C 
ATOM      8  O   UNL     1      25.092   3.740  -8.031  1.00  0.00    -0.545 OA
ATOM      9  O   UNL     1      25.013   6.020  -7.924  1.00  0.00    -0.545 OA
ENDBRANCH   1   7
TORSDOF 1
ENDMDL
