MODEL 1
REMARK VINA RESULT:    -5.129      0.000      0.000
REMARK INTER + INTRA:          -5.653
REMARK INTER:                  -5.579
REMARK INTRA:                  -0.074
REMARK UNBOUND:                -0.074
REMARK SMILES CCc1cccc(O)c1
REMARK SMILES IDX 3 1 9 2 7 3 6 4 5 5 4 6 2 7 1 8 8 9
REMARK H PARENT 8 10
REMARK Flexibility Score: inf
ROOT
ATOM      1  C   UNL     1     -12.668  -7.581  37.655  1.00  0.00    -0.045 A 
ATOM      2  C   UNL     1     -11.881  -8.544  36.999  1.00  0.00     0.049 A 
ATOM      3  C   UNL     1     -10.928  -9.281  37.709  1.00  0.00     0.115 A 
ATOM      4  C   UNL     1     -10.750  -9.053  39.081  1.00  0.00     0.046 A 
ATOM      5  C   UNL     1     -11.521  -8.088  39.735  1.00  0.00     0.004 A 
ATOM      6  C   UNL     1     -12.473  -7.351  39.026  1.00  0.00     0.004 A 
ENDROOT
BRANCH   1   7
ATOM      7  C   UNL     1     -13.670  -6.767  36.882  1.00  0.00     0.032 C 
ATOM      8  C   UNL     1     -14.643  -6.069  37.828  1.00  0.00     0.009 C 
ENDBRANCH   1   7
BRANCH   3   9
ATOM      9  O   UNL     1     -10.160 -10.234  37.044  1.00  0.00    -0.508 OA
ATOM     10  H   UNL     1      -9.460 -10.783  37.529  1.00  0.00     0.293 HD
ENDBRANCH   3   9
TORSDOF 2
ENDMDL
MODEL 2
REMARK VINA RESULT:    -5.104      1.914      3.689
REMARK INTER + INTRA:          -5.626
REMARK INTER:                  -5.574
REMARK INTRA:                  -0.052
REMARK UNBOUND:                -0.074
REMARK SMILES CCc1cccc(O)c1
REMARK SMILES IDX 3 1 9 2 7 3 6 4 5 5 4 6 2 7 1 8 8 9
REMARK H PARENT 8 10
REMARK Flexibility Score: inf
ROOT
ATOM      1  C   UNL     1     -12.162  -7.628  38.714  1.00  0.00    -0.045 A 
ATOM      2  C   UNL     1     -12.566  -7.628  37.368  1.00  0.00     0.049 A 
ATOM      3  C   UNL     1     -13.634  -6.826  36.949  1.00  0.00     0.115 A 
ATOM      4  C   UNL     1     -14.310  -6.024  37.880  1.00  0.00     0.046 A 
ATOM      5  C   UNL     1     -13.921  -6.030  39.222  1.00  0.00     0.004 A 
ATOM      6  C   UNL     1     -12.855  -6.832  39.640  1.00  0.00     0.004 A 
ENDROOT
BRANCH   1   7
ATOM      7  C   UNL     1     -11.035  -8.516  39.168  1.00  0.00     0.032 C 
ATOM      8  C   UNL     1     -10.812  -9.654  38.177  1.00  0.00     0.009 C 
ENDBRANCH   1   7
BRANCH   3   9
ATOM      9  O   UNL     1     -14.017  -6.835  35.610  1.00  0.00    -0.508 OA
ATOM     10  H   UNL     1     -14.099  -5.977  35.077  1.00  0.00     0.293 HD
ENDBRANCH   3   9
TORSDOF 2
ENDMDL
MODEL 3
REMARK VINA RESULT:    -5.088      1.227      1.699
REMARK INTER + INTRA:          -5.609
REMARK INTER:                  -5.545
REMARK INTRA:                  -0.064
REMARK UNBOUND:                -0.074
REMARK SMILES CCc1cccc(O)c1
REMARK SMILES IDX 3 1 9 2 7 3 6 4 5 5 4 6 2 7 1 8 8 9
REMARK H PARENT 8 10
REMARK Flexibility Score: inf
ROOT
ATOM      1  C   UNL     1     -13.922  -6.574  37.895  1.00  0.00    -0.045 A 
ATOM      2  C   UNL     1     -13.180  -7.232  36.898  1.00  0.00     0.049 A 
ATOM      3  C   UNL     1     -12.001  -7.909  37.224  1.00  0.00     0.115 A 
ATOM      4  C   UNL     1     -11.551  -7.925  38.552  1.00  0.00     0.046 A 
ATOM      5  C   UNL     1     -12.277  -7.262  39.545  1.00  0.00     0.004 A 
ATOM      6  C   UNL     1     -13.455  -6.585  39.219  1.00  0.00     0.004 A 
ENDROOT
BRANCH   1   7
ATOM      7  C   UNL     1     -15.173  -5.818  37.536  1.00  0.00     0.032 C 
ATOM      8  C   UNL     1     -16.337  -6.249  38.422  1.00  0.00     0.009 C 
ENDBRANCH   1   7
BRANCH   3   9
ATOM      9  O   UNL     1     -11.282  -8.560  36.224  1.00  0.00    -0.508 OA
ATOM     10  H   UNL     1     -10.272  -8.632  36.260  1.00  0.00     0.293 HD
ENDBRANCH   3   9
TORSDOF 2
ENDMDL
MODEL 4
REMARK VINA RESULT:    -5.064      3.503      4.899
REMARK INTER + INTRA:          -5.583
REMARK INTER:                  -5.509
REMARK INTRA:                  -0.074
REMARK UNBOUND:                -0.074
REMARK SMILES CCc1cccc(O)c1
REMARK SMILES IDX 3 1 9 2 7 3 6 4 5 5 4 6 2 7 1 8 8 9
REMARK H PARENT 8 10
REMARK Flexibility Score: inf
ROOT
ATOM      1  C   UNL     1     -14.319  -6.398  38.056  1.00  0.00    -0.045 A 
ATOM      2  C   UNL     1     -15.679  -6.041  38.065  1.00  0.00     0.049 A 
ATOM      3  C   UNL     1     -16.292  -5.619  39.250  1.00  0.00     0.115 A 
ATOM      4  C   UNL     1     -15.548  -5.560  40.437  1.00  0.00     0.046 A 
ATOM      5  C   UNL     1     -14.200  -5.926  40.436  1.00  0.00     0.004 A 
ATOM      6  C   UNL     1     -13.587  -6.348  39.253  1.00  0.00     0.004 A 
ENDROOT
BRANCH   1   7
ATOM      7  C   UNL     1     -13.671  -6.883  36.788  1.00  0.00     0.032 C 
ATOM      8  C   UNL     1     -12.491  -7.798  37.101  1.00  0.00     0.009 C 
ENDBRANCH   1   7
BRANCH   3   9
ATOM      9  O   UNL     1     -17.639  -5.264  39.239  1.00  0.00    -0.508 OA
ATOM     10  H   UNL     1     -18.005  -4.556  39.864  1.00  0.00     0.293 HD
ENDBRANCH   3   9
TORSDOF 2
ENDMDL
MODEL 5
REMARK VINA RESULT:    -5.044      2.725      4.571
REMARK INTER + INTRA:          -5.560
REMARK INTER:                  -5.486
REMARK INTRA:                  -0.074
REMARK UNBOUND:                -0.074
REMARK SMILES CCc1cccc(O)c1
REMARK SMILES IDX 3 1 9 2 7 3 6 4 5 5 4 6 2 7 1 8 8 9
REMARK H PARENT 8 10
REMARK Flexibility Score: inf
ROOT
ATOM      1  C   UNL     1     -12.702  -7.240  38.671  1.00  0.00    -0.045 A 
ATOM      2  C   UNL     1     -13.537  -6.333  39.346  1.00  0.00     0.049 A 
ATOM      3  C   UNL     1     -14.557  -5.664  38.661  1.00  0.00     0.115 A 
ATOM      4  C   UNL     1     -14.742  -5.893  37.290  1.00  0.00     0.046 A 
ATOM      5  C   UNL     1     -13.907  -6.784  36.610  1.00  0.00     0.004 A 
ATOM      6  C   UNL     1     -12.888  -7.451  37.295  1.00  0.00     0.004 A 
ENDROOT
BRANCH   1   7
ATOM      7  C   UNL     1     -11.585  -7.933  39.403  1.00  0.00     0.032 C 
ATOM      8  C   UNL     1     -11.021  -9.078  38.568  1.00  0.00     0.009 C 
ENDBRANCH   1   7
BRANCH   3   9
ATOM      9  O   UNL     1     -15.378  -4.773  39.348  1.00  0.00    -0.508 OA
ATOM     10  H   UNL     1     -15.574  -4.887  40.335  1.00  0.00     0.293 HD
ENDBRANCH   3   9
TORSDOF 2
ENDMDL
MODEL 6
REMARK VINA RESULT:    -5.011      1.924      3.617
REMARK INTER + INTRA:          -5.524
REMARK INTER:                  -5.449
REMARK INTRA:                  -0.076
REMARK UNBOUND:                -0.074
REMARK SMILES CCc1cccc(O)c1
REMARK SMILES IDX 3 1 9 2 7 3 6 4 5 5 4 6 2 7 1 8 8 9
REMARK H PARENT 8 10
REMARK Flexibility Score: inf
ROOT
ATOM      1  C   UNL     1     -11.528  -8.574  38.277  1.00  0.00    -0.045 A 
ATOM      2  C   UNL     1     -12.211  -8.191  37.110  1.00  0.00     0.049 A 
ATOM      3  C   UNL     1     -13.173  -7.176  37.152  1.00  0.00     0.115 A 
ATOM      4  C   UNL     1     -13.464  -6.543  38.369  1.00  0.00     0.046 A 
ATOM      5  C   UNL     1     -12.798  -6.928  39.535  1.00  0.00     0.004 A 
ATOM      6  C   UNL     1     -11.837  -7.942  39.492  1.00  0.00     0.004 A 
ENDROOT
BRANCH   1   7
ATOM      7  C   UNL     1     -10.518  -9.688  38.234  1.00  0.00     0.032 C 
ATOM      8  C   UNL     1     -10.040 -10.037  39.640  1.00  0.00     0.009 C 
ENDBRANCH   1   7
BRANCH   3   9
ATOM      9  O   UNL     1     -13.836  -6.807  35.985  1.00  0.00    -0.508 OA
ATOM     10  H   UNL     1     -14.397  -5.965  35.938  1.00  0.00     0.293 HD
ENDBRANCH   3   9
TORSDOF 2
ENDMDL
MODEL 7
REMARK VINA RESULT:    -4.983      1.836      3.218
REMARK INTER + INTRA:          -5.494
REMARK INTER:                  -5.431
REMARK INTRA:                  -0.063
REMARK UNBOUND:                -0.074
REMARK SMILES CCc1cccc(O)c1
REMARK SMILES IDX 3 1 9 2 7 3 6 4 5 5 4 6 2 7 1 8 8 9
REMARK H PARENT 8 10
REMARK Flexibility Score: inf
ROOT
ATOM      1  C   UNL     1     -14.493  -5.867  38.578  1.00  0.00    -0.045 A 
ATOM      2  C   UNL     1     -13.482  -6.521  39.303  1.00  0.00     0.049 A 
ATOM      3  C   UNL     1     -12.584  -7.375  38.653  1.00  0.00     0.115 A 
ATOM      4  C   UNL     1     -12.698  -7.586  37.272  1.00  0.00     0.046 A 
ATOM      5  C   UNL     1     -13.710  -6.949  36.548  1.00  0.00     0.004 A 
ATOM      6  C   UNL     1     -14.607  -6.097  37.198  1.00  0.00     0.004 A 
ENDROOT
BRANCH   1   7
ATOM      7  C   UNL     1     -15.477  -4.976  39.285  1.00  0.00     0.032 C 
ATOM      8  C   UNL     1     -16.883  -5.564  39.218  1.00  0.00     0.009 C 
ENDBRANCH   1   7
BRANCH   3   9
ATOM      9  O   UNL     1     -11.585  -8.010  39.387  1.00  0.00    -0.508 OA
ATOM     10  H   UNL     1     -11.175  -8.884  39.078  1.00  0.00     0.293 HD
ENDBRANCH   3   9
TORSDOF 2
ENDMDL
MODEL 8
REMARK VINA RESULT:    -4.839      1.649      2.308
REMARK INTER + INTRA:          -5.338
REMARK INTER:                  -5.286
REMARK INTRA:                  -0.052
REMARK UNBOUND:                -0.074
REMARK SMILES CCc1cccc(O)c1
REMARK SMILES IDX 3 1 9 2 7 3 6 4 5 5 4 6 2 7 1 8 8 9
REMARK H PARENT 8 10
REMARK Flexibility Score: inf
ROOT
ATOM      1  C   UNL     1     -12.639  -7.613  37.535  1.00  0.00    -0.045 A 
ATOM      2  C   UNL     1     -12.510  -7.311  38.901  1.00  0.00     0.049 A 
ATOM      3  C   UNL     1     -11.620  -8.030  39.705  1.00  0.00     0.115 A 
ATOM      4  C   UNL     1     -10.857  -9.066  39.146  1.00  0.00     0.046 A 
ATOM      5  C   UNL     1     -10.990  -9.380  37.791  1.00  0.00     0.004 A 
ATOM      6  C   UNL     1     -11.880  -8.661  36.988  1.00  0.00     0.004 A 
ENDROOT
BRANCH   1   7
ATOM      7  C   UNL     1     -13.621  -6.860  36.679  1.00  0.00     0.032 C 
ATOM      8  C   UNL     1     -14.630  -6.112  37.546  1.00  0.00     0.009 C 
ENDBRANCH   1   7
BRANCH   3   9
ATOM      9  O   UNL     1     -11.503  -7.713  41.056  1.00  0.00    -0.508 OA
ATOM     10  H   UNL     1     -11.786  -6.808  41.414  1.00  0.00     0.293 HD
ENDBRANCH   3   9
TORSDOF 2
ENDMDL
MODEL 9
REMARK VINA RESULT:    -4.764      3.794      5.411
REMARK INTER + INTRA:          -5.256
REMARK INTER:                  -5.210
REMARK INTRA:                  -0.046
REMARK UNBOUND:                -0.074
REMARK SMILES CCc1cccc(O)c1
REMARK SMILES IDX 3 1 9 2 7 3 6 4 5 5 4 6 2 7 1 8 8 9
REMARK H PARENT 8 10
REMARK Flexibility Score: inf
ROOT
ATOM      1  C   UNL     1     -15.580  -6.089  38.529  1.00  0.00    -0.045 A 
ATOM      2  C   UNL     1     -14.974  -5.818  39.768  1.00  0.00     0.049 A 
ATOM      3  C   UNL     1     -15.679  -6.015  40.959  1.00  0.00     0.115 A 
ATOM      4  C   UNL     1     -17.002  -6.479  40.917  1.00  0.00     0.046 A 
ATOM      5  C   UNL     1     -17.614  -6.738  39.688  1.00  0.00     0.004 A 
ATOM      6  C   UNL     1     -16.909  -6.540  38.498  1.00  0.00     0.004 A 
ENDROOT
BRANCH   1   7
ATOM      7  C   UNL     1     -14.830  -5.844  37.247  1.00  0.00     0.032 C 
ATOM      8  C   UNL     1     -13.706  -6.861  37.077  1.00  0.00     0.009 C 
ENDBRANCH   1   7
BRANCH   3   9
ATOM      9  O   UNL     1     -15.061  -5.746  42.178  1.00  0.00    -0.508 OA
ATOM     10  H   UNL     1     -14.808  -6.489  42.819  1.00  0.00     0.293 HD
ENDBRANCH   3   9
TORSDOF 2
ENDMDL
