MODEL 1
REMARK VINA RESULT:    -3.667      0.000      0.000
REMARK INTER + INTRA:          -5.055
REMARK INTER:                  -4.953
REMARK INTRA:                  -0.102
REMARK UNBOUND:                -0.102
REMARK SMILES [NH3+]CCCC[C@@H]([NH3+])C(=O)[O-]
REMARK SMILES IDX 4 1 3 2 2 3 1 4 5 8 6 9 7 10 8 14 9 15 10 16
REMARK H PARENT 1 5 1 6 1 7 7 11 7 12 7 13
REMARK Flexibility Score: inf
ROOT
ATOM      1  C   UNL     1     138.723 146.859 144.246  1.00  0.00     0.012 C 
ENDROOT
BRANCH   1   2
ATOM      2  C   UNL     1     139.134 147.248 145.674  1.00  0.00     0.061 C 
BRANCH   2   3
ATOM      3  C   UNL     1     139.862 148.599 145.687  1.00  0.00     0.258 C 
BRANCH   3   4
ATOM      4  N   UNL     1     140.024 149.120 144.330  1.00  0.00    -0.358 N 
ATOM      5  H   UNL     1     140.992 149.492 144.201  1.00  0.00     0.344 HD
ATOM      6  H   UNL     1     139.864 148.347 143.645  1.00  0.00     0.344 HD
ATOM      7  H   UNL     1     139.327 149.880 144.151  1.00  0.00     0.344 HD
ENDBRANCH   3   4
ENDBRANCH   2   3
ENDBRANCH   1   2
BRANCH   1   8
ATOM      8  C   UNL     1     138.885 145.352 143.966  1.00  0.00     0.072 C 
BRANCH   8   9
ATOM      9  C   UNL     1     138.370 144.903 142.577  1.00  0.00     0.227 C 
BRANCH   9  10
ATOM     10  N   UNL     1     139.495 144.734 141.649  1.00  0.00    -0.350 N 
ATOM     11  H   UNL     1     140.398 144.878 142.156  1.00  0.00     0.345 HD
ATOM     12  H   UNL     1     139.489 143.776 141.227  1.00  0.00     0.345 HD
ATOM     13  H   UNL     1     139.433 145.446 140.884  1.00  0.00     0.345 HD
ENDBRANCH   9  10
BRANCH   9  14
ATOM     14  C   UNL     1     137.582 143.623 142.672  1.00  0.00     0.099 C 
ATOM     15  O   UNL     1     136.622 143.520 143.484  1.00  0.00    -0.544 OA
ATOM     16  O   UNL     1     137.902 142.548 141.852  1.00  0.00    -0.544 OA
ENDBRANCH   9  14
ENDBRANCH   8   9
ENDBRANCH   1   8
TORSDOF 7
ENDMDL
MODEL 2
REMARK VINA RESULT:    -3.645     11.647     13.069
REMARK INTER + INTRA:          -5.026
REMARK INTER:                  -4.849
REMARK INTRA:                  -0.177
REMARK UNBOUND:                -0.102
REMARK SMILES [NH3+]CCCC[C@@H]([NH3+])C(=O)[O-]
REMARK SMILES IDX 4 1 3 2 2 3 1 4 5 8 6 9 7 10 8 14 9 15 10 16
REMARK H PARENT 1 5 1 6 1 7 7 11 7 12 7 13
REMARK Flexibility Score: inf
ROOT
ATOM      1  C   UNL     1     145.805 134.448 144.384  1.00  0.00     0.012 C 
ENDROOT
BRANCH   1   2
ATOM      2  C   UNL     1     145.722 133.780 145.765  1.00  0.00     0.061 C 
BRANCH   2   3
ATOM      3  C   UNL     1     146.702 132.602 145.864  1.00  0.00     0.258 C 
BRANCH   3   4
ATOM      4  N   UNL     1     147.009 132.063 144.540  1.00  0.00    -0.358 N 
ATOM      5  H   UNL     1     147.861 132.528 144.152  1.00  0.00     0.344 HD
ATOM      6  H   UNL     1     147.191 131.037 144.622  1.00  0.00     0.344 HD
ATOM      7  H   UNL     1     146.199 132.213 143.894  1.00  0.00     0.344 HD
ENDBRANCH   3   4
ENDBRANCH   2   3
ENDBRANCH   1   2
BRANCH   1   8
ATOM      8  C   UNL     1     145.158 135.847 144.358  1.00  0.00     0.072 C 
BRANCH   8   9
ATOM      9  C   UNL     1     144.006 135.997 143.336  1.00  0.00     0.227 C 
BRANCH   9  10
ATOM     10  N   UNL     1     144.387 135.402 142.049  1.00  0.00    -0.350 N 
ATOM     11  H   UNL     1     145.234 135.886 141.672  1.00  0.00     0.345 HD
ATOM     12  H   UNL     1     144.597 134.382 142.158  1.00  0.00     0.345 HD
ATOM     13  H   UNL     1     143.609 135.521 141.359  1.00  0.00     0.345 HD
ENDBRANCH   9  10
BRANCH   9  14
ATOM     14  C   UNL     1     142.737 135.363 143.843  1.00  0.00     0.099 C 
ATOM     15  O   UNL     1     141.913 134.848 143.040  1.00  0.00    -0.544 OA
ATOM     16  O   UNL     1     142.474 135.330 145.207  1.00  0.00    -0.544 OA
ENDBRANCH   9  14
ENDBRANCH   8   9
ENDBRANCH   1   8
TORSDOF 7
ENDMDL
MODEL 3
REMARK VINA RESULT:    -3.628      4.790      5.833
REMARK INTER + INTRA:          -5.003
REMARK INTER:                  -4.902
REMARK INTRA:                  -0.101
REMARK UNBOUND:                -0.102
REMARK SMILES [NH3+]CCCC[C@@H]([NH3+])C(=O)[O-]
REMARK SMILES IDX 4 1 3 2 2 3 1 4 5 8 6 9 7 10 8 14 9 15 10 16
REMARK H PARENT 1 5 1 6 1 7 7 11 7 12 7 13
REMARK Flexibility Score: inf
ROOT
ATOM      1  C   UNL     1     136.615 145.621 147.708  1.00  0.00     0.012 C 
ENDROOT
BRANCH   1   2
ATOM      2  C   UNL     1     135.161 145.954 148.075  1.00  0.00     0.061 C 
BRANCH   2   3
ATOM      3  C   UNL     1     134.184 145.341 147.063  1.00  0.00     0.258 C 
BRANCH   3   4
ATOM      4  N   UNL     1     133.846 143.966 147.427  1.00  0.00    -0.358 N 
ATOM      5  H   UNL     1     133.316 143.508 146.651  1.00  0.00     0.344 HD
ATOM      6  H   UNL     1     134.728 143.430 147.598  1.00  0.00     0.344 HD
ATOM      7  H   UNL     1     133.270 143.957 148.302  1.00  0.00     0.344 HD
ENDBRANCH   3   4
ENDBRANCH   2   3
ENDBRANCH   1   2
BRANCH   1   8
ATOM      8  C   UNL     1     137.604 146.732 148.113  1.00  0.00     0.072 C 
BRANCH   8   9
ATOM      9  C   UNL     1     139.031 146.554 147.542  1.00  0.00     0.227 C 
BRANCH   9  10
ATOM     10  N   UNL     1     139.327 145.130 147.347  1.00  0.00    -0.350 N 
ATOM     11  H   UNL     1     140.362 144.984 147.317  1.00  0.00     0.345 HD
ATOM     12  H   UNL     1     138.924 144.556 148.125  1.00  0.00     0.345 HD
ATOM     13  H   UNL     1     138.924 144.805 146.437  1.00  0.00     0.345 HD
ENDBRANCH   9  10
BRANCH   9  14
ATOM     14  C   UNL     1     139.199 147.300 146.244  1.00  0.00     0.099 C 
ATOM     15  O   UNL     1     139.726 148.445 146.226  1.00  0.00    -0.544 OA
ATOM     16  O   UNL     1     138.784 146.719 145.051  1.00  0.00    -0.544 OA
ENDBRANCH   9  14
ENDBRANCH   8   9
ENDBRANCH   1   8
TORSDOF 7
ENDMDL
MODEL 4
REMARK VINA RESULT:    -3.601     10.936     12.775
REMARK INTER + INTRA:          -4.966
REMARK INTER:                  -4.833
REMARK INTRA:                  -0.133
REMARK UNBOUND:                -0.102
REMARK SMILES [NH3+]CCCC[C@@H]([NH3+])C(=O)[O-]
REMARK SMILES IDX 4 1 3 2 2 3 1 4 5 8 6 9 7 10 8 14 9 15 10 16
REMARK H PARENT 1 5 1 6 1 7 7 11 7 12 7 13
REMARK Flexibility Score: inf
ROOT
ATOM      1  C   UNL     1     131.500 134.576 144.365  1.00  0.00     0.012 C 
ENDROOT
BRANCH   1   2
ATOM      2  C   UNL     1     130.939 134.846 145.768  1.00  0.00     0.061 C 
BRANCH   2   3
ATOM      3  C   UNL     1     129.412 134.689 145.788  1.00  0.00     0.258 C 
BRANCH   3   4
ATOM      4  N   UNL     1     128.875 134.612 144.430  1.00  0.00    -0.358 N 
ATOM      5  H   UNL     1     128.713 133.614 144.164  1.00  0.00     0.344 HD
ATOM      6  H   UNL     1     127.965 135.125 144.392  1.00  0.00     0.344 HD
ATOM      7  H   UNL     1     129.542 135.054 143.755  1.00  0.00     0.344 HD
ENDBRANCH   3   4
ENDBRANCH   2   3
ENDBRANCH   1   2
BRANCH   1   8
ATOM      8  C   UNL     1     133.011 134.266 144.375  1.00  0.00     0.072 C 
BRANCH   8   9
ATOM      9  C   UNL     1     133.818 134.994 143.273  1.00  0.00     0.227 C 
BRANCH   9  10
ATOM     10  N   UNL     1     132.960 135.273 142.115  1.00  0.00    -0.350 N 
ATOM     11  H   UNL     1     132.480 136.194 142.243  1.00  0.00     0.345 HD
ATOM     12  H   UNL     1     133.523 135.302 141.233  1.00  0.00     0.345 HD
ATOM     13  H   UNL     1     132.226 134.531 142.030  1.00  0.00     0.345 HD
ENDBRANCH   9  10
BRANCH   9  14
ATOM     14  C   UNL     1     134.421 136.274 143.790  1.00  0.00     0.099 C 
ATOM     15  O   UNL     1     133.705 137.298 143.958  1.00  0.00    -0.544 OA
ATOM     16  O   UNL     1     135.775 136.327 144.099  1.00  0.00    -0.544 OA
ENDBRANCH   9  14
ENDBRANCH   8   9
ENDBRANCH   1   8
TORSDOF 7
ENDMDL
MODEL 5
REMARK VINA RESULT:    -3.495     13.056     14.135
REMARK INTER + INTRA:          -4.823
REMARK INTER:                  -4.713
REMARK INTRA:                  -0.110
REMARK UNBOUND:                -0.102
REMARK SMILES [NH3+]CCCC[C@@H]([NH3+])C(=O)[O-]
REMARK SMILES IDX 4 1 3 2 2 3 1 4 5 8 6 9 7 10 8 14 9 15 10 16
REMARK H PARENT 1 5 1 6 1 7 7 11 7 12 7 13
REMARK Flexibility Score: inf
ROOT
ATOM      1  C   UNL     1     133.639 133.201 147.473  1.00  0.00     0.012 C 
ENDROOT
BRANCH   1   2
ATOM      2  C   UNL     1     134.113 131.892 148.124  1.00  0.00     0.061 C 
BRANCH   2   3
ATOM      3  C   UNL     1     135.382 131.366 147.440  1.00  0.00     0.258 C 
BRANCH   3   4
ATOM      4  N   UNL     1     136.421 132.394 147.402  1.00  0.00    -0.358 N 
ATOM      5  H   UNL     1     136.704 132.656 148.374  1.00  0.00     0.344 HD
ATOM      6  H   UNL     1     137.256 132.019 146.896  1.00  0.00     0.344 HD
ATOM      7  H   UNL     1     136.071 133.241 146.896  1.00  0.00     0.344 HD
ENDBRANCH   3   4
ENDBRANCH   2   3
ENDBRANCH   1   2
BRANCH   1   8
ATOM      8  C   UNL     1     132.361 133.764 148.125  1.00  0.00     0.072 C 
BRANCH   8   9
ATOM      9  C   UNL     1     131.841 135.071 147.480  1.00  0.00     0.227 C 
BRANCH   9  10
ATOM     10  N   UNL     1     132.963 135.958 147.151  1.00  0.00    -0.350 N 
ATOM     11  H   UNL     1     133.864 135.433 147.230  1.00  0.00     0.345 HD
ATOM     12  H   UNL     1     132.869 136.331 146.178  1.00  0.00     0.345 HD
ATOM     13  H   UNL     1     132.992 136.759 147.825  1.00  0.00     0.345 HD
ENDBRANCH   9  10
BRANCH   9  14
ATOM     14  C   UNL     1     131.026 134.787 146.245  1.00  0.00     0.099 C 
ATOM     15  O   UNL     1     129.798 134.517 146.336  1.00  0.00    -0.544 OA
ATOM     16  O   UNL     1     131.625 134.836 144.992  1.00  0.00    -0.544 OA
ENDBRANCH   9  14
ENDBRANCH   8   9
ENDBRANCH   1   8
TORSDOF 7
ENDMDL
MODEL 6
REMARK VINA RESULT:    -3.463      4.116      4.821
REMARK INTER + INTRA:          -4.780
REMARK INTER:                  -4.630
REMARK INTRA:                  -0.150
REMARK UNBOUND:                -0.102
REMARK SMILES [NH3+]CCCC[C@@H]([NH3+])C(=O)[O-]
REMARK SMILES IDX 4 1 3 2 2 3 1 4 5 8 6 9 7 10 8 14 9 15 10 16
REMARK H PARENT 1 5 1 6 1 7 7 11 7 12 7 13
REMARK Flexibility Score: inf
ROOT
ATOM      1  C   UNL     1     137.671 146.560 148.124  1.00  0.00     0.012 C 
ENDROOT
BRANCH   1   2
ATOM      2  C   UNL     1     138.984 146.208 147.409  1.00  0.00     0.061 C 
BRANCH   2   3
ATOM      3  C   UNL     1     139.191 147.094 146.173  1.00  0.00     0.258 C 
BRANCH   3   4
ATOM      4  N   UNL     1     139.585 148.448 146.560  1.00  0.00    -0.358 N 
ATOM      5  H   UNL     1     139.271 148.649 147.537  1.00  0.00     0.344 HD
ATOM      6  H   UNL     1     140.627 148.527 146.516  1.00  0.00     0.344 HD
ATOM      7  H   UNL     1     139.165 149.146 145.903  1.00  0.00     0.344 HD
ENDBRANCH   3   4
ENDBRANCH   2   3
ENDBRANCH   1   2
BRANCH   1   8
ATOM      8  C   UNL     1     136.658 145.398 148.122  1.00  0.00     0.072 C 
BRANCH   8   9
ATOM      9  C   UNL     1     135.693 145.395 146.913  1.00  0.00     0.227 C 
BRANCH   9  10
ATOM     10  N   UNL     1     136.134 144.415 145.913  1.00  0.00    -0.350 N 
ATOM     11  H   UNL     1     136.009 144.809 144.952  1.00  0.00     0.345 HD
ATOM     12  H   UNL     1     137.142 144.169 146.052  1.00  0.00     0.345 HD
ATOM     13  H   UNL     1     135.555 143.546 145.987  1.00  0.00     0.345 HD
ENDBRANCH   9  10
BRANCH   9  14
ATOM     14  C   UNL     1     134.279 145.097 147.340  1.00  0.00     0.099 C 
ATOM     15  O   UNL     1     133.791 143.946 147.181  1.00  0.00    -0.544 OA
ATOM     16  O   UNL     1     133.507 146.093 147.926  1.00  0.00    -0.544 OA
ENDBRANCH   9  14
ENDBRANCH   8   9
ENDBRANCH   1   8
TORSDOF 7
ENDMDL
MODEL 7
REMARK VINA RESULT:    -3.436     11.887     12.530
REMARK INTER + INTRA:          -4.744
REMARK INTER:                  -4.633
REMARK INTRA:                  -0.111
REMARK UNBOUND:                -0.102
REMARK SMILES [NH3+]CCCC[C@@H]([NH3+])C(=O)[O-]
REMARK SMILES IDX 4 1 3 2 2 3 1 4 5 8 6 9 7 10 8 14 9 15 10 16
REMARK H PARENT 1 5 1 6 1 7 7 11 7 12 7 13
REMARK Flexibility Score: inf
ROOT
ATOM      1  C   UNL     1     145.716 137.035 147.621  1.00  0.00     0.012 C 
ENDROOT
BRANCH   1   2
ATOM      2  C   UNL     1     146.664 138.139 148.114  1.00  0.00     0.061 C 
BRANCH   2   3
ATOM      3  C   UNL     1     146.275 139.501 147.522  1.00  0.00     0.258 C 
BRANCH   3   4
ATOM      4  N   UNL     1     145.207 139.357 146.533  1.00  0.00    -0.358 N 
ATOM      5  H   UNL     1     145.342 140.044 145.756  1.00  0.00     0.344 HD
ATOM      6  H   UNL     1     145.235 138.389 146.138  1.00  0.00     0.344 HD
ATOM      7  H   UNL     1     144.276 139.512 146.984  1.00  0.00     0.344 HD
ENDBRANCH   3   4
ENDBRANCH   2   3
ENDBRANCH   1   2
BRANCH   1   8
ATOM      8  C   UNL     1     146.117 135.634 148.123  1.00  0.00     0.072 C 
BRANCH   8   9
ATOM      9  C   UNL     1     145.229 134.486 147.587  1.00  0.00     0.227 C 
BRANCH   9  10
ATOM     10  N   UNL     1     143.844 134.947 147.429  1.00  0.00    -0.350 N 
ATOM     11  H   UNL     1     143.794 135.664 146.670  1.00  0.00     0.345 HD
ATOM     12  H   UNL     1     143.212 134.149 147.187  1.00  0.00     0.345 HD
ATOM     13  H   UNL     1     143.514 135.389 148.318  1.00  0.00     0.345 HD
ENDBRANCH   9  10
BRANCH   9  14
ATOM     14  C   UNL     1     145.750 133.956 146.277  1.00  0.00     0.099 C 
ATOM     15  O   UNL     1     146.533 132.967 146.252  1.00  0.00    -0.544 OA
ATOM     16  O   UNL     1     145.358 134.547 145.082  1.00  0.00    -0.544 OA
ENDBRANCH   9  14
ENDBRANCH   8   9
ENDBRANCH   1   8
TORSDOF 7
ENDMDL
MODEL 8
REMARK VINA RESULT:    -3.432     11.086     11.968
REMARK INTER + INTRA:          -4.739
REMARK INTER:                  -4.299
REMARK INTRA:                  -0.440
REMARK UNBOUND:                -0.102
REMARK SMILES [NH3+]CCCC[C@@H]([NH3+])C(=O)[O-]
REMARK SMILES IDX 4 1 3 2 2 3 1 4 5 8 6 9 7 10 8 14 9 15 10 16
REMARK H PARENT 1 5 1 6 1 7 7 11 7 12 7 13
REMARK Flexibility Score: inf
ROOT
ATOM      1  C   UNL     1     144.974 135.695 143.746  1.00  0.00     0.012 C 
ENDROOT
BRANCH   1   2
ATOM      2  C   UNL     1     145.726 134.499 144.349  1.00  0.00     0.061 C 
BRANCH   2   3
ATOM      3  C   UNL     1     145.388 134.331 145.837  1.00  0.00     0.258 C 
BRANCH   3   4
ATOM      4  N   UNL     1     144.043 134.828 146.127  1.00  0.00    -0.358 N 
ATOM      5  H   UNL     1     144.025 135.871 146.069  1.00  0.00     0.344 HD
ATOM      6  H   UNL     1     143.375 134.437 145.424  1.00  0.00     0.344 HD
ATOM      7  H   UNL     1     143.746 134.522 147.083  1.00  0.00     0.344 HD
ENDBRANCH   3   4
ENDBRANCH   2   3
ENDBRANCH   1   2
BRANCH   1   8
ATOM      8  C   UNL     1     144.197 135.329 142.465  1.00  0.00     0.072 C 
BRANCH   8   9
ATOM      9  C   UNL     1     142.720 135.788 142.462  1.00  0.00     0.227 C 
BRANCH   9  10
ATOM     10  N   UNL     1     142.269 136.042 141.088  1.00  0.00    -0.350 N 
ATOM     11  H   UNL     1     143.045 136.473 140.535  1.00  0.00     0.345 HD
ATOM     12  H   UNL     1     141.972 135.152 140.624  1.00  0.00     0.345 HD
ATOM     13  H   UNL     1     141.463 136.710 141.097  1.00  0.00     0.345 HD
ENDBRANCH   9  10
BRANCH   9  14
ATOM     14  C   UNL     1     141.827 134.769 143.120  1.00  0.00     0.099 C 
ATOM     15  O   UNL     1     141.619 134.807 144.363  1.00  0.00    -0.544 OA
ATOM     16  O   UNL     1     141.214 133.786 142.354  1.00  0.00    -0.544 OA
ENDBRANCH   9  14
ENDBRANCH   8   9
ENDBRANCH   1   8
TORSDOF 7
ENDMDL
MODEL 9
REMARK VINA RESULT:    -3.428      2.474      2.754
REMARK INTER + INTRA:          -4.732
REMARK INTER:                  -4.302
REMARK INTRA:                  -0.430
REMARK UNBOUND:                -0.102
REMARK SMILES [NH3+]CCCC[C@@H]([NH3+])C(=O)[O-]
REMARK SMILES IDX 4 1 3 2 2 3 1 4 5 8 6 9 7 10 8 14 9 15 10 16
REMARK H PARENT 1 5 1 6 1 7 7 11 7 12 7 13
REMARK Flexibility Score: inf
ROOT
ATOM      1  C   UNL     1     138.008 145.485 143.796  1.00  0.00     0.012 C 
ENDROOT
BRANCH   1   2
ATOM      2  C   UNL     1     138.617 146.766 144.386  1.00  0.00     0.061 C 
BRANCH   2   3
ATOM      3  C   UNL     1     138.978 146.571 145.865  1.00  0.00     0.258 C 
BRANCH   3   4
ATOM      4  N   UNL     1     139.257 145.166 146.156  1.00  0.00    -0.358 N 
ATOM      5  H   UNL     1     139.052 144.958 147.160  1.00  0.00     0.344 HD
ATOM      6  H   UNL     1     138.649 144.565 145.554  1.00  0.00     0.344 HD
ATOM      7  H   UNL     1     140.260 144.947 145.948  1.00  0.00     0.344 HD
ENDBRANCH   3   4
ENDBRANCH   2   3
ENDBRANCH   1   2
BRANCH   1   8
ATOM      8  C   UNL     1     138.698 145.041 142.491  1.00  0.00     0.072 C 
BRANCH   8   9
ATOM      9  C   UNL     1     139.080 143.542 142.451  1.00  0.00     0.227 C 
BRANCH   9  10
ATOM     10  N   UNL     1     139.083 143.055 141.066  1.00  0.00    -0.350 N 
ATOM     11  H   UNL     1     139.374 142.051 141.044  1.00  0.00     0.345 HD
ATOM     12  H   UNL     1     138.132 143.144 140.638  1.00  0.00     0.345 HD
ATOM     13  H   UNL     1     139.768 143.606 140.498  1.00  0.00     0.345 HD
ENDBRANCH   9  10
BRANCH   9  14
ATOM     14  C   UNL     1     140.424 143.301 143.087  1.00  0.00     0.099 C 
ATOM     15  O   UNL     1     140.520 143.117 144.330  1.00  0.00    -0.544 OA
ATOM     16  O   UNL     1     141.568 143.267 142.299  1.00  0.00    -0.544 OA
ENDBRANCH   9  14
ENDBRANCH   8   9
ENDBRANCH   1   8
TORSDOF 7
ENDMDL
