MODEL 1
REMARK VINA RESULT:    -3.592      0.000      0.000
REMARK INTER + INTRA:          -4.588
REMARK INTER:                  -4.432
REMARK INTRA:                  -0.156
REMARK UNBOUND:                -0.156
REMARK SMILES [NH3+][C@H](Cc1ccc(O)cc1)C(=O)[O-]
REMARK SMILES IDX 3 1 2 2 1 3 11 7 12 8 13 9 4 10 5 11 10 12 6 13 9 14 7 15
REMARK SMILES IDX 8 16
REMARK H PARENT 1 4 1 5 1 6 8 17
REMARK Flexibility Score: inf
ROOT
ATOM      1  C   UNL     1       2.536 -38.210  -3.919  1.00  0.00     0.107 C 
ENDROOT
BRANCH   1   2
ATOM      2  C   UNL     1       3.034 -36.748  -3.846  1.00  0.00     0.232 C 
BRANCH   2   3
ATOM      3  N   UNL     1       1.925 -35.786  -3.926  1.00  0.00    -0.350 N 
ATOM      4  H   UNL     1       2.155 -34.900  -3.419  1.00  0.00     0.345 HD
ATOM      5  H   UNL     1       1.730 -35.560  -4.928  1.00  0.00     0.345 HD
ATOM      6  H   UNL     1       1.061 -36.206  -3.511  1.00  0.00     0.345 HD
ENDBRANCH   2   3
BRANCH   2   7
ATOM      7  C   UNL     1       3.881 -36.510  -2.621  1.00  0.00     0.099 C 
ATOM      8  O   UNL     1       4.983 -37.104  -2.474  1.00  0.00    -0.544 OA
ATOM      9  O   UNL     1       3.472 -35.585  -1.669  1.00  0.00    -0.544 OA
ENDBRANCH   2   7
ENDBRANCH   1   2
BRANCH   1  10
ATOM     10  C   UNL     1       2.074 -38.624  -5.295  1.00  0.00    -0.041 A 
ATOM     11  C   UNL     1       2.742 -38.158  -6.440  1.00  0.00     0.008 A 
ATOM     12  C   UNL     1       0.962 -39.470  -5.446  1.00  0.00     0.008 A 
ATOM     13  C   UNL     1       2.304 -38.532  -7.714  1.00  0.00     0.046 A 
ATOM     14  C   UNL     1       0.526 -39.843  -6.721  1.00  0.00     0.046 A 
ATOM     15  C   UNL     1       1.193 -39.375  -7.857  1.00  0.00     0.115 A 
BRANCH  15  16
ATOM     16  O   UNL     1       0.747 -39.753  -9.121  1.00  0.00    -0.508 OA
ATOM     17  H   UNL     1      -0.130 -39.412  -9.497  1.00  0.00     0.293 HD
ENDBRANCH  15  16
ENDBRANCH   1  10
TORSDOF 5
ENDMDL
MODEL 2
REMARK VINA RESULT:    -3.581      9.090     10.514
REMARK INTER + INTRA:          -4.574
REMARK INTER:                  -4.346
REMARK INTRA:                  -0.228
REMARK UNBOUND:                -0.156
REMARK SMILES [NH3+][C@H](Cc1ccc(O)cc1)C(=O)[O-]
REMARK SMILES IDX 3 1 2 2 1 3 11 7 12 8 13 9 4 10 5 11 10 12 6 13 9 14 7 15
REMARK SMILES IDX 8 16
REMARK H PARENT 1 4 1 5 1 6 8 17
REMARK Flexibility Score: inf
ROOT
ATOM      1  C   UNL     1      -5.798 -38.452  -4.078  1.00  0.00     0.107 C 
ENDROOT
BRANCH   1   2
ATOM      2  C   UNL     1      -7.151 -37.769  -4.383  1.00  0.00     0.232 C 
BRANCH   2   3
ATOM      3  N   UNL     1      -6.972 -36.438  -4.979  1.00  0.00    -0.350 N 
ATOM      4  H   UNL     1      -6.116 -36.402  -5.578  1.00  0.00     0.345 HD
ATOM      5  H   UNL     1      -7.805 -36.203  -5.566  1.00  0.00     0.345 HD
ATOM      6  H   UNL     1      -6.893 -35.718  -4.222  1.00  0.00     0.345 HD
ENDBRANCH   2   3
BRANCH   2   7
ATOM      7  C   UNL     1      -8.033 -38.642  -5.240  1.00  0.00     0.099 C 
ATOM      8  O   UNL     1      -7.987 -38.570  -6.496  1.00  0.00    -0.544 OA
ATOM      9  O   UNL     1      -8.867 -39.577  -4.639  1.00  0.00    -0.544 OA
ENDBRANCH   2   7
ENDBRANCH   1   2
BRANCH   1  10
ATOM     10  C   UNL     1      -5.807 -39.276  -2.813  1.00  0.00    -0.041 A 
ATOM     11  C   UNL     1      -5.827 -40.679  -2.878  1.00  0.00     0.008 A 
ATOM     12  C   UNL     1      -5.806 -38.647  -1.556  1.00  0.00     0.008 A 
ATOM     13  C   UNL     1      -5.849 -41.440  -1.705  1.00  0.00     0.046 A 
ATOM     14  C   UNL     1      -5.827 -39.410  -0.385  1.00  0.00     0.046 A 
ATOM     15  C   UNL     1      -5.851 -40.806  -0.454  1.00  0.00     0.115 A 
BRANCH  15  16
ATOM     16  O   UNL     1      -5.873 -41.554   0.720  1.00  0.00    -0.508 OA
ATOM     17  H   UNL     1      -5.824 -41.111   1.631  1.00  0.00     0.293 HD
ENDBRANCH  15  16
ENDBRANCH   1  10
TORSDOF 5
ENDMDL
MODEL 3
REMARK VINA RESULT:    -3.491      8.843      9.497
REMARK INTER + INTRA:          -4.464
REMARK INTER:                  -4.233
REMARK INTRA:                  -0.231
REMARK UNBOUND:                -0.156
REMARK SMILES [NH3+][C@H](Cc1ccc(O)cc1)C(=O)[O-]
REMARK SMILES IDX 3 1 2 2 1 3 11 7 12 8 13 9 4 10 5 11 10 12 6 13 9 14 7 15
REMARK SMILES IDX 8 16
REMARK H PARENT 1 4 1 5 1 6 8 17
REMARK Flexibility Score: inf
ROOT
ATOM      1  C   UNL     1      -5.543 -39.443   1.217  1.00  0.00     0.107 C 
ENDROOT
BRANCH   1   2
ATOM      2  C   UNL     1      -5.661 -38.073   1.925  1.00  0.00     0.232 C 
BRANCH   2   3
ATOM      3  N   UNL     1      -6.749 -38.057   2.912  1.00  0.00    -0.350 N 
ATOM      4  H   UNL     1      -6.380 -37.912   3.880  1.00  0.00     0.345 HD
ATOM      5  H   UNL     1      -7.415 -37.283   2.686  1.00  0.00     0.345 HD
ATOM      6  H   UNL     1      -7.275 -38.961   2.876  1.00  0.00     0.345 HD
ENDBRANCH   2   3
BRANCH   2   7
ATOM      7  C   UNL     1      -4.350 -37.653   2.541  1.00  0.00     0.099 C 
ATOM      8  O   UNL     1      -3.372 -37.327   1.818  1.00  0.00    -0.544 OA
ATOM      9  O   UNL     1      -4.235 -37.572   3.924  1.00  0.00    -0.544 OA
ENDBRANCH   2   7
ENDBRANCH   1   2
BRANCH   1  10
ATOM     10  C   UNL     1      -5.680 -39.362  -0.285  1.00  0.00    -0.041 A 
ATOM     11  C   UNL     1      -5.895 -40.526  -1.043  1.00  0.00     0.008 A 
ATOM     12  C   UNL     1      -5.583 -38.123  -0.941  1.00  0.00     0.008 A 
ATOM     13  C   UNL     1      -6.008 -40.450  -2.435  1.00  0.00     0.046 A 
ATOM     14  C   UNL     1      -5.697 -38.051  -2.333  1.00  0.00     0.046 A 
ATOM     15  C   UNL     1      -5.908 -39.212  -3.083  1.00  0.00     0.115 A 
BRANCH  15  16
ATOM     16  O   UNL     1      -6.018 -39.125  -4.469  1.00  0.00    -0.508 OA
ATOM     17  H   UNL     1      -5.990 -38.232  -4.948  1.00  0.00     0.293 HD
ENDBRANCH  15  16
ENDBRANCH   1  10
TORSDOF 5
ENDMDL
MODEL 4
REMARK VINA RESULT:    -3.383      9.064     10.863
REMARK INTER + INTRA:          -4.329
REMARK INTER:                  -4.195
REMARK INTRA:                  -0.135
REMARK UNBOUND:                -0.156
REMARK SMILES [NH3+][C@H](Cc1ccc(O)cc1)C(=O)[O-]
REMARK SMILES IDX 3 1 2 2 1 3 11 7 12 8 13 9 4 10 5 11 10 12 6 13 9 14 7 15
REMARK SMILES IDX 8 16
REMARK H PARENT 1 4 1 5 1 6 8 17
REMARK Flexibility Score: inf
ROOT
ATOM      1  C   UNL     1      -6.369 -40.927  -1.070  1.00  0.00     0.107 C 
ENDROOT
BRANCH   1   2
ATOM      2  C   UNL     1      -5.828 -40.725  -2.505  1.00  0.00     0.232 C 
BRANCH   2   3
ATOM      3  N   UNL     1      -5.413 -41.994  -3.120  1.00  0.00    -0.350 N 
ATOM      4  H   UNL     1      -4.421 -42.224  -2.881  1.00  0.00     0.345 HD
ATOM      5  H   UNL     1      -6.030 -42.766  -2.778  1.00  0.00     0.345 HD
ATOM      6  H   UNL     1      -5.512 -41.933  -4.160  1.00  0.00     0.345 HD
ENDBRANCH   2   3
BRANCH   2   7
ATOM      7  C   UNL     1      -6.817 -39.990  -3.373  1.00  0.00     0.099 C 
ATOM      8  O   UNL     1      -6.428 -39.147  -4.224  1.00  0.00    -0.544 OA
ATOM      9  O   UNL     1      -8.172 -40.283  -3.272  1.00  0.00    -0.544 OA
ENDBRANCH   2   7
ENDBRANCH   1   2
BRANCH   1  10
ATOM     10  C   UNL     1      -5.738 -40.011  -0.050  1.00  0.00    -0.041 A 
ATOM     11  C   UNL     1      -5.435 -40.482   1.239  1.00  0.00     0.008 A 
ATOM     12  C   UNL     1      -5.457 -38.673  -0.375  1.00  0.00     0.008 A 
ATOM     13  C   UNL     1      -4.863 -39.628   2.187  1.00  0.00     0.046 A 
ATOM     14  C   UNL     1      -4.884 -37.821   0.574  1.00  0.00     0.046 A 
ATOM     15  C   UNL     1      -4.588 -38.294   1.857  1.00  0.00     0.115 A 
BRANCH  15  16
ATOM     16  O   UNL     1      -4.019 -37.434   2.793  1.00  0.00    -0.508 OA
ATOM     17  H   UNL     1      -3.415 -37.779   3.531  1.00  0.00     0.293 HD
ENDBRANCH  15  16
ENDBRANCH   1  10
TORSDOF 5
ENDMDL
MODEL 5
REMARK VINA RESULT:    -3.329      3.642      5.026
REMARK INTER + INTRA:          -4.263
REMARK INTER:                  -4.023
REMARK INTRA:                  -0.240
REMARK UNBOUND:                -0.156
REMARK SMILES [NH3+][C@H](Cc1ccc(O)cc1)C(=O)[O-]
REMARK SMILES IDX 3 1 2 2 1 3 11 7 12 8 13 9 4 10 5 11 10 12 6 13 9 14 7 15
REMARK SMILES IDX 8 16
REMARK H PARENT 1 4 1 5 1 6 8 17
REMARK Flexibility Score: inf
ROOT
ATOM      1  C   UNL     1       0.664 -38.540  -4.788  1.00  0.00     0.107 C 
ENDROOT
BRANCH   1   2
ATOM      2  C   UNL     1       1.963 -38.780  -5.591  1.00  0.00     0.232 C 
BRANCH   2   3
ATOM      3  N   UNL     1       3.137 -38.903  -4.714  1.00  0.00    -0.350 N 
ATOM      4  H   UNL     1       2.953 -39.565  -3.926  1.00  0.00     0.345 HD
ATOM      5  H   UNL     1       3.951 -39.254  -5.268  1.00  0.00     0.345 HD
ATOM      6  H   UNL     1       3.388 -37.965  -4.324  1.00  0.00     0.345 HD
ENDBRANCH   2   3
BRANCH   2   7
ATOM      7  C   UNL     1       1.836 -39.968  -6.511  1.00  0.00     0.099 C 
ATOM      8  O   UNL     1       0.987 -39.975  -7.441  1.00  0.00    -0.544 OA
ATOM      9  O   UNL     1       2.702 -41.045  -6.367  1.00  0.00    -0.544 OA
ENDBRANCH   2   7
ENDBRANCH   1   2
BRANCH   1  10
ATOM     10  C   UNL     1      -0.099 -37.312  -5.223  1.00  0.00    -0.041 A 
ATOM     11  C   UNL     1      -1.373 -37.043  -4.694  1.00  0.00     0.008 A 
ATOM     12  C   UNL     1       0.451 -36.432  -6.169  1.00  0.00     0.008 A 
ATOM     13  C   UNL     1      -2.084 -35.912  -5.109  1.00  0.00     0.046 A 
ATOM     14  C   UNL     1      -0.261 -35.302  -6.581  1.00  0.00     0.046 A 
ATOM     15  C   UNL     1      -1.530 -35.039  -6.055  1.00  0.00     0.115 A 
BRANCH  15  16
ATOM     16  O   UNL     1      -2.229 -33.911  -6.475  1.00  0.00    -0.508 OA
ATOM     17  H   UNL     1      -3.078 -33.988  -7.024  1.00  0.00     0.293 HD
ENDBRANCH  15  16
ENDBRANCH   1  10
TORSDOF 5
ENDMDL
MODEL 6
REMARK VINA RESULT:    -3.294      1.774      2.460
REMARK INTER + INTRA:          -4.220
REMARK INTER:                  -3.969
REMARK INTRA:                  -0.251
REMARK UNBOUND:                -0.156
REMARK SMILES [NH3+][C@H](Cc1ccc(O)cc1)C(=O)[O-]
REMARK SMILES IDX 3 1 2 2 1 3 11 7 12 8 13 9 4 10 5 11 10 12 6 13 9 14 7 15
REMARK SMILES IDX 8 16
REMARK H PARENT 1 4 1 5 1 6 8 17
REMARK Flexibility Score: inf
ROOT
ATOM      1  C   UNL     1       2.353 -35.947  -4.602  1.00  0.00     0.107 C 
ENDROOT
BRANCH   1   2
ATOM      2  C   UNL     1       3.736 -35.506  -4.070  1.00  0.00     0.232 C 
BRANCH   2   3
ATOM      3  N   UNL     1       3.914 -34.049  -4.143  1.00  0.00    -0.350 N 
ATOM      4  H   UNL     1       4.649 -33.791  -4.841  1.00  0.00     0.345 HD
ATOM      5  H   UNL     1       3.012 -33.600  -4.422  1.00  0.00     0.345 HD
ATOM      6  H   UNL     1       4.186 -33.677  -3.203  1.00  0.00     0.345 HD
ENDBRANCH   2   3
BRANCH   2   7
ATOM      7  C   UNL     1       3.983 -36.021  -2.674  1.00  0.00     0.099 C 
ATOM      8  O   UNL     1       3.382 -35.522  -1.686  1.00  0.00    -0.544 OA
ATOM      9  O   UNL     1       4.842 -37.096  -2.480  1.00  0.00    -0.544 OA
ENDBRANCH   2   7
ENDBRANCH   1   2
BRANCH   1  10
ATOM     10  C   UNL     1       2.297 -37.399  -5.010  1.00  0.00    -0.041 A 
ATOM     11  C   UNL     1       1.191 -38.194  -4.660  1.00  0.00     0.008 A 
ATOM     12  C   UNL     1       3.354 -37.976  -5.734  1.00  0.00     0.008 A 
ATOM     13  C   UNL     1       1.147 -39.543  -5.027  1.00  0.00     0.046 A 
ATOM     14  C   UNL     1       3.307 -39.324  -6.100  1.00  0.00     0.046 A 
ATOM     15  C   UNL     1       2.207 -40.112  -5.747  1.00  0.00     0.115 A 
BRANCH  15  16
ATOM     16  O   UNL     1       2.173 -41.453  -6.117  1.00  0.00    -0.508 OA
ATOM     17  H   UNL     1       1.749 -42.157  -5.523  1.00  0.00     0.293 HD
ENDBRANCH  15  16
ENDBRANCH   1  10
TORSDOF 5
ENDMDL
MODEL 7
REMARK VINA RESULT:    -3.285      1.848      2.208
REMARK INTER + INTRA:          -4.209
REMARK INTER:                  -3.977
REMARK INTRA:                  -0.232
REMARK UNBOUND:                -0.156
REMARK SMILES [NH3+][C@H](Cc1ccc(O)cc1)C(=O)[O-]
REMARK SMILES IDX 3 1 2 2 1 3 11 7 12 8 13 9 4 10 5 11 10 12 6 13 9 14 7 15
REMARK SMILES IDX 8 16
REMARK H PARENT 1 4 1 5 1 6 8 17
REMARK Flexibility Score: inf
ROOT
ATOM      1  C   UNL     1       3.476 -37.793  -3.703  1.00  0.00     0.107 C 
ENDROOT
BRANCH   1   2
ATOM      2  C   UNL     1       3.177 -36.279  -3.606  1.00  0.00     0.232 C 
BRANCH   2   3
ATOM      3  N   UNL     1       3.240 -35.794  -2.220  1.00  0.00    -0.350 N 
ATOM      4  H   UNL     1       2.506 -35.072  -2.037  1.00  0.00     0.345 HD
ATOM      5  H   UNL     1       3.096 -36.594  -1.563  1.00  0.00     0.345 HD
ATOM      6  H   UNL     1       4.183 -35.382  -2.031  1.00  0.00     0.345 HD
ENDBRANCH   2   3
BRANCH   2   7
ATOM      7  C   UNL     1       4.076 -35.476  -4.511  1.00  0.00     0.099 C 
ATOM      8  O   UNL     1       5.125 -34.937  -4.067  1.00  0.00    -0.544 OA
ATOM      9  O   UNL     1       3.777 -35.374  -5.864  1.00  0.00    -0.544 OA
ENDBRANCH   2   7
ENDBRANCH   1   2
BRANCH   1  10
ATOM     10  C   UNL     1       2.596 -38.522  -4.688  1.00  0.00    -0.041 A 
ATOM     11  C   UNL     1       1.233 -38.199  -4.799  1.00  0.00     0.008 A 
ATOM     12  C   UNL     1       3.127 -39.540  -5.498  1.00  0.00     0.008 A 
ATOM     13  C   UNL     1       0.415 -38.885  -5.702  1.00  0.00     0.046 A 
ATOM     14  C   UNL     1       2.308 -40.224  -6.401  1.00  0.00     0.046 A 
ATOM     15  C   UNL     1       0.952 -39.901  -6.505  1.00  0.00     0.115 A 
BRANCH  15  16
ATOM     16  O   UNL     1       0.147 -40.591  -7.408  1.00  0.00    -0.508 OA
ATOM     17  H   UNL     1      -0.054 -41.578  -7.292  1.00  0.00     0.293 HD
ENDBRANCH  15  16
ENDBRANCH   1  10
TORSDOF 5
ENDMDL
MODEL 8
REMARK VINA RESULT:    -3.234      9.192      9.988
REMARK INTER + INTRA:          -4.147
REMARK INTER:                  -4.016
REMARK INTRA:                  -0.131
REMARK UNBOUND:                -0.156
REMARK SMILES [NH3+][C@H](Cc1ccc(O)cc1)C(=O)[O-]
REMARK SMILES IDX 3 1 2 2 1 3 11 7 12 8 13 9 4 10 5 11 10 12 6 13 9 14 7 15
REMARK SMILES IDX 8 16
REMARK H PARENT 1 4 1 5 1 6 8 17
REMARK Flexibility Score: inf
ROOT
ATOM      1  C   UNL     1      -6.367 -40.815   0.831  1.00  0.00     0.107 C 
ENDROOT
BRANCH   1   2
ATOM      2  C   UNL     1      -5.327 -40.269   1.837  1.00  0.00     0.232 C 
BRANCH   2   3
ATOM      3  N   UNL     1      -5.876 -39.181   2.658  1.00  0.00    -0.350 N 
ATOM      4  H   UNL     1      -5.353 -38.289   2.505  1.00  0.00     0.345 HD
ATOM      5  H   UNL     1      -6.881 -39.029   2.411  1.00  0.00     0.345 HD
ATOM      6  H   UNL     1      -5.826 -39.441   3.671  1.00  0.00     0.345 HD
ENDBRANCH   2   3
BRANCH   2   7
ATOM      7  C   UNL     1      -4.752 -41.369   2.693  1.00  0.00     0.099 C 
ATOM      8  O   UNL     1      -3.847 -42.125   2.250  1.00  0.00    -0.544 OA
ATOM      9  O   UNL     1      -5.184 -41.517   4.005  1.00  0.00    -0.544 OA
ENDBRANCH   2   7
ENDBRANCH   1   2
BRANCH   1  10
ATOM     10  C   UNL     1      -6.165 -40.316  -0.579  1.00  0.00    -0.041 A 
ATOM     11  C   UNL     1      -6.050 -41.225  -1.645  1.00  0.00     0.008 A 
ATOM     12  C   UNL     1      -6.079 -38.938  -0.839  1.00  0.00     0.008 A 
ATOM     13  C   UNL     1      -5.850 -40.761  -2.949  1.00  0.00     0.046 A 
ATOM     14  C   UNL     1      -5.879 -38.477  -2.144  1.00  0.00     0.046 A 
ATOM     15  C   UNL     1      -5.762 -39.385  -3.202  1.00  0.00     0.115 A 
BRANCH  15  16
ATOM     16  O   UNL     1      -5.562 -38.912  -4.496  1.00  0.00    -0.508 OA
ATOM     17  H   UNL     1      -5.551 -37.919  -4.701  1.00  0.00     0.293 HD
ENDBRANCH  15  16
ENDBRANCH   1  10
TORSDOF 5
ENDMDL
MODEL 9
REMARK VINA RESULT:    -3.151     10.472     12.072
REMARK INTER + INTRA:          -4.044
REMARK INTER:                  -3.862
REMARK INTRA:                  -0.182
REMARK UNBOUND:                -0.156
REMARK SMILES [NH3+][C@H](Cc1ccc(O)cc1)C(=O)[O-]
REMARK SMILES IDX 3 1 2 2 1 3 11 7 12 8 13 9 4 10 5 11 10 12 6 13 9 14 7 15
REMARK SMILES IDX 8 16
REMARK H PARENT 1 4 1 5 1 6 8 17
REMARK Flexibility Score: inf
ROOT
ATOM      1  C   UNL     1      -5.419 -34.677   1.920  1.00  0.00     0.107 C 
ENDROOT
BRANCH   1   2
ATOM      2  C   UNL     1      -5.263 -35.908   2.842  1.00  0.00     0.232 C 
BRANCH   2   3
ATOM      3  N   UNL     1      -6.511 -36.227   3.549  1.00  0.00    -0.350 N 
ATOM      4  H   UNL     1      -6.750 -35.487   4.249  1.00  0.00     0.345 HD
ATOM      5  H   UNL     1      -7.293 -36.304   2.859  1.00  0.00     0.345 HD
ATOM      6  H   UNL     1      -6.416 -37.147   4.039  1.00  0.00     0.345 HD
ENDBRANCH   2   3
BRANCH   2   7
ATOM      7  C   UNL     1      -4.736 -37.103   2.088  1.00  0.00     0.099 C 
ATOM      8  O   UNL     1      -3.506 -37.222   1.846  1.00  0.00    -0.544 OA
ATOM      9  O   UNL     1      -5.609 -38.113   1.702  1.00  0.00    -0.544 OA
ENDBRANCH   2   7
ENDBRANCH   1   2
BRANCH   1  10
ATOM     10  C   UNL     1      -4.609 -33.482   2.363  1.00  0.00    -0.041 A 
ATOM     11  C   UNL     1      -3.849 -32.753   1.432  1.00  0.00     0.008 A 
ATOM     12  C   UNL     1      -4.598 -33.093   3.713  1.00  0.00     0.008 A 
ATOM     13  C   UNL     1      -3.089 -31.655   1.847  1.00  0.00     0.046 A 
ATOM     14  C   UNL     1      -3.838 -31.994   4.125  1.00  0.00     0.046 A 
ATOM     15  C   UNL     1      -3.080 -31.274   3.196  1.00  0.00     0.115 A 
BRANCH  15  16
ATOM     16  O   UNL     1      -2.327 -30.182   3.620  1.00  0.00    -0.508 OA
ATOM     17  H   UNL     1      -2.251 -29.940   4.601  1.00  0.00     0.293 HD
ENDBRANCH  15  16
ENDBRANCH   1  10
TORSDOF 5
ENDMDL
