MODEL 1
REMARK VINA RESULT:    -3.849      0.000      0.000
REMARK INTER + INTRA:          -9.544
REMARK INTER:                  -7.224
REMARK INTRA:                  -2.320
REMARK UNBOUND:                -2.320
REMARK SMILES O=C([O-])CCCCCCCCCCCCCCC(=O)[O-]
REMARK SMILES IDX 10 1 9 2 8 3 7 4 6 5 5 6 4 7 2 8 1 9 3 10 11 11 12 12 13 13
REMARK SMILES IDX 14 14 15 15 16 16 17 17 18 18 19 19 20 20
REMARK H PARENT
REMARK Flexibility Score: inf
ROOT
ATOM      1  C   UNL     1      20.063  -1.534  15.081  1.00  0.00     0.000 C 
ENDROOT
BRANCH   1   2
ATOM      2  C   UNL     1      20.134  -0.857  16.461  1.00  0.00     0.000 C 
BRANCH   2   3
ATOM      3  C   UNL     1      21.014   0.412  16.480  1.00  0.00     0.000 C 
BRANCH   3   4
ATOM      4  C   UNL     1      22.304   0.211  17.294  1.00  0.00     0.000 C 
BRANCH   4   5
ATOM      5  C   UNL     1      23.435   1.154  16.854  1.00  0.00     0.000 C 
BRANCH   5   6
ATOM      6  C   UNL     1      23.820   0.967  15.378  1.00  0.00     0.006 C 
BRANCH   6   7
ATOM      7  C   UNL     1      23.959   2.321  14.674  1.00  0.00     0.053 C 
BRANCH   7   8
ATOM      8  C   UNL     1      22.619   2.829  14.245  1.00  0.00     0.041 C 
ATOM      9  O   UNL     1      22.098   2.417  13.175  1.00  0.00    -0.550 OA
ATOM     10  O   UNL     1      21.963   3.790  15.004  1.00  0.00    -0.550 OA
ENDBRANCH   7   8
ENDBRANCH   6   7
ENDBRANCH   5   6
ENDBRANCH   4   5
ENDBRANCH   3   4
ENDBRANCH   2   3
ENDBRANCH   1   2
BRANCH   1  11
ATOM     11  C   UNL     1      20.783  -0.734  13.986  1.00  0.00     0.000 C 
BRANCH  11  12
ATOM     12  C   UNL     1      21.982  -1.488  13.386  1.00  0.00     0.000 C 
BRANCH  12  13
ATOM     13  C   UNL     1      22.284  -2.827  14.093  1.00  0.00     0.000 C 
BRANCH  13  14
ATOM     14  C   UNL     1      23.748  -2.925  14.554  1.00  0.00     0.000 C 
BRANCH  14  15
ATOM     15  C   UNL     1      23.906  -2.753  16.072  1.00  0.00     0.000 C 
BRANCH  15  16
ATOM     16  C   UNL     1      23.208  -3.865  16.870  1.00  0.00     0.006 C 
BRANCH  16  17
ATOM     17  C   UNL     1      24.232  -4.746  17.592  1.00  0.00     0.053 C 
BRANCH  17  18
ATOM     18  C   UNL     1      24.076  -4.621  19.075  1.00  0.00     0.041 C 
ATOM     19  O   UNL     1      24.105  -3.488  19.623  1.00  0.00    -0.550 OA
ATOM     20  O   UNL     1      23.948  -5.761  19.859  1.00  0.00    -0.550 OA
ENDBRANCH  17  18
ENDBRANCH  16  17
ENDBRANCH  15  16
ENDBRANCH  14  15
ENDBRANCH  13  14
ENDBRANCH  12  13
ENDBRANCH  11  12
ENDBRANCH   1  11
TORSDOF 15
ENDMDL
MODEL 2
REMARK VINA RESULT:    -3.845      3.052      5.933
REMARK INTER + INTRA:          -9.537
REMARK INTER:                  -6.880
REMARK INTRA:                  -2.657
REMARK UNBOUND:                -2.320
REMARK SMILES O=C([O-])CCCCCCCCCCCCCCC(=O)[O-]
REMARK SMILES IDX 10 1 9 2 8 3 7 4 6 5 5 6 4 7 2 8 1 9 3 10 11 11 12 12 13 13
REMARK SMILES IDX 14 14 15 15 16 16 17 17 18 18 19 19 20 20
REMARK H PARENT
REMARK Flexibility Score: inf
ROOT
ATOM      1  C   UNL     1      22.406  -3.120  17.862  1.00  0.00     0.000 C 
ENDROOT
BRANCH   1   2
ATOM      2  C   UNL     1      22.614  -3.726  16.463  1.00  0.00     0.000 C 
BRANCH   2   3
ATOM      3  C   UNL     1      23.877  -3.203  15.747  1.00  0.00     0.000 C 
BRANCH   3   4
ATOM      4  C   UNL     1      23.579  -2.738  14.311  1.00  0.00     0.000 C 
BRANCH   4   5
ATOM      5  C   UNL     1      22.081  -2.504  14.062  1.00  0.00     0.000 C 
BRANCH   5   6
ATOM      6  C   UNL     1      21.818  -1.483  12.945  1.00  0.00     0.006 C 
BRANCH   6   7
ATOM      7  C   UNL     1      20.387  -0.943  13.025  1.00  0.00     0.053 C 
BRANCH   7   8
ATOM      8  C   UNL     1      19.434  -1.881  12.354  1.00  0.00     0.041 C 
ATOM      9  O   UNL     1      18.481  -2.387  13.002  1.00  0.00    -0.550 OA
ATOM     10  O   UNL     1      19.624  -2.231  11.023  1.00  0.00    -0.550 OA
ENDBRANCH   7   8
ENDBRANCH   6   7
ENDBRANCH   5   6
ENDBRANCH   4   5
ENDBRANCH   3   4
ENDBRANCH   2   3
ENDBRANCH   1   2
BRANCH   1  11
ATOM     11  C   UNL     1      20.992  -2.556  18.064  1.00  0.00     0.000 C 
BRANCH  11  12
ATOM     12  C   UNL     1      20.953  -1.018  18.041  1.00  0.00     0.000 C 
BRANCH  12  13
ATOM     13  C   UNL     1      20.422  -0.436  16.714  1.00  0.00     0.000 C 
BRANCH  13  14
ATOM     14  C   UNL     1      21.397   0.580  16.093  1.00  0.00     0.000 C 
BRANCH  14  15
ATOM     15  C   UNL     1      22.847   0.371  16.556  1.00  0.00     0.000 C 
BRANCH  15  16
ATOM     16  C   UNL     1      23.874   0.742  15.475  1.00  0.00     0.006 C 
BRANCH  16  17
ATOM     17  C   UNL     1      23.255   1.674  14.430  1.00  0.00     0.053 C 
BRANCH  17  18
ATOM     18  C   UNL     1      23.822   3.052  14.555  1.00  0.00     0.041 C 
ATOM     19  O   UNL     1      24.021   3.752  13.527  1.00  0.00    -0.550 OA
ATOM     20  O   UNL     1      24.179   3.547  15.803  1.00  0.00    -0.550 OA
ENDBRANCH  17  18
ENDBRANCH  16  17
ENDBRANCH  15  16
ENDBRANCH  14  15
ENDBRANCH  13  14
ENDBRANCH  12  13
ENDBRANCH  11  12
ENDBRANCH   1  11
TORSDOF 15
ENDMDL
MODEL 3
REMARK VINA RESULT:    -3.835      1.631      6.988
REMARK INTER + INTRA:          -9.518
REMARK INTER:                  -7.495
REMARK INTRA:                  -2.023
REMARK UNBOUND:                -2.320
REMARK SMILES O=C([O-])CCCCCCCCCCCCCCC(=O)[O-]
REMARK SMILES IDX 10 1 9 2 8 3 7 4 6 5 5 6 4 7 2 8 1 9 3 10 11 11 12 12 13 13
REMARK SMILES IDX 14 14 15 15 16 16 17 17 18 18 19 19 20 20
REMARK H PARENT
REMARK Flexibility Score: inf
ROOT
ATOM      1  C   UNL     1      20.693  -1.095  16.978  1.00  0.00     0.000 C 
ENDROOT
BRANCH   1   2
ATOM      2  C   UNL     1      20.201  -1.282  15.533  1.00  0.00     0.000 C 
BRANCH   2   3
ATOM      3  C   UNL     1      20.490  -2.687  14.961  1.00  0.00     0.000 C 
BRANCH   3   4
ATOM      4  C   UNL     1      21.521  -2.649  13.820  1.00  0.00     0.000 C 
BRANCH   4   5
ATOM      5  C   UNL     1      22.955  -2.420  14.325  1.00  0.00     0.000 C 
BRANCH   5   6
ATOM      6  C   UNL     1      23.354  -3.400  15.438  1.00  0.00     0.006 C 
BRANCH   6   7
ATOM      7  C   UNL     1      24.092  -2.674  16.567  1.00  0.00     0.053 C 
BRANCH   7   8
ATOM      8  C   UNL     1      24.355  -3.607  17.706  1.00  0.00     0.041 C 
ATOM      9  O   UNL     1      24.477  -3.159  18.877  1.00  0.00    -0.550 OA
ATOM     10  O   UNL     1      24.510  -4.967  17.470  1.00  0.00    -0.550 OA
ENDBRANCH   7   8
ENDBRANCH   6   7
ENDBRANCH   5   6
ENDBRANCH   4   5
ENDBRANCH   3   4
ENDBRANCH   2   3
ENDBRANCH   1   2
BRANCH   1  11
ATOM     11  C   UNL     1      20.618   0.364  17.451  1.00  0.00     0.000 C 
BRANCH  11  12
ATOM     12  C   UNL     1      21.475   1.314  16.596  1.00  0.00     0.000 C 
BRANCH  12  13
ATOM     13  C   UNL     1      22.936   0.844  16.431  1.00  0.00     0.000 C 
BRANCH  13  14
ATOM     14  C   UNL     1      23.466   1.083  15.006  1.00  0.00     0.000 C 
BRANCH  14  15
ATOM     15  C   UNL     1      22.341   1.309  13.984  1.00  0.00     0.000 C 
BRANCH  15  16
ATOM     16  C   UNL     1      22.399   2.701  13.337  1.00  0.00     0.006 C 
BRANCH  16  17
ATOM     17  C   UNL     1      23.651   3.461  13.784  1.00  0.00     0.053 C 
BRANCH  17  18
ATOM     18  C   UNL     1      23.805   4.725  12.999  1.00  0.00     0.041 C 
ATOM     19  O   UNL     1      22.858   5.147  12.285  1.00  0.00    -0.550 OA
ATOM     20  O   UNL     1      25.013   5.412  13.016  1.00  0.00    -0.550 OA
ENDBRANCH  17  18
ENDBRANCH  16  17
ENDBRANCH  15  16
ENDBRANCH  14  15
ENDBRANCH  13  14
ENDBRANCH  12  13
ENDBRANCH  11  12
ENDBRANCH   1  11
TORSDOF 15
ENDMDL
MODEL 4
REMARK VINA RESULT:    -3.831      2.537      6.082
REMARK INTER + INTRA:          -9.510
REMARK INTER:                  -6.987
REMARK INTRA:                  -2.523
REMARK UNBOUND:                -2.320
REMARK SMILES O=C([O-])CCCCCCCCCCCCCCC(=O)[O-]
REMARK SMILES IDX 10 1 9 2 8 3 7 4 6 5 5 6 4 7 2 8 1 9 3 10 11 11 12 12 13 13
REMARK SMILES IDX 14 14 15 15 16 16 17 17 18 18 19 19 20 20
REMARK H PARENT
REMARK Flexibility Score: inf
ROOT
ATOM      1  C   UNL     1      22.070   1.268  16.938  1.00  0.00     0.000 C 
ENDROOT
BRANCH   1   2
ATOM      2  C   UNL     1      21.206   0.182  17.601  1.00  0.00     0.000 C 
BRANCH   2   3
ATOM      3  C   UNL     1      20.069  -0.339  16.696  1.00  0.00     0.000 C 
BRANCH   3   4
ATOM      4  C   UNL     1      20.260  -1.817  16.315  1.00  0.00     0.000 C 
BRANCH   4   5
ATOM      5  C   UNL     1      21.493  -2.446  16.984  1.00  0.00     0.000 C 
BRANCH   5   6
ATOM      6  C   UNL     1      22.351  -3.257  16.001  1.00  0.00     0.006 C 
BRANCH   6   7
ATOM      7  C   UNL     1      23.837  -2.924  16.169  1.00  0.00     0.053 C 
BRANCH   7   8
ATOM      8  C   UNL     1      24.309  -3.309  17.536  1.00  0.00     0.041 C 
ATOM      9  O   UNL     1      24.530  -4.517  17.812  1.00  0.00    -0.550 OA
ATOM     10  O   UNL     1      24.463  -2.339  18.518  1.00  0.00    -0.550 OA
ENDBRANCH   7   8
ENDBRANCH   6   7
ENDBRANCH   5   6
ENDBRANCH   4   5
ENDBRANCH   3   4
ENDBRANCH   2   3
ENDBRANCH   1   2
BRANCH   1  11
ATOM     11  C   UNL     1      23.398   0.723  16.392  1.00  0.00     0.000 C 
BRANCH  11  12
ATOM     12  C   UNL     1      23.452   0.708  14.855  1.00  0.00     0.000 C 
BRANCH  12  13
ATOM     13  C   UNL     1      22.241   1.399  14.190  1.00  0.00     0.000 C 
BRANCH  13  14
ATOM     14  C   UNL     1      21.566   0.502  13.138  1.00  0.00     0.000 C 
BRANCH  14  15
ATOM     15  C   UNL     1      22.002  -0.968  13.242  1.00  0.00     0.000 C 
BRANCH  15  16
ATOM     16  C   UNL     1      20.922  -1.943  12.751  1.00  0.00     0.006 C 
BRANCH  16  17
ATOM     17  C   UNL     1      19.944  -1.244  11.802  1.00  0.00     0.053 C 
BRANCH  17  18
ATOM     18  C   UNL     1      18.593  -1.879  11.881  1.00  0.00     0.041 C 
ATOM     19  O   UNL     1      17.565  -1.227  11.559  1.00  0.00    -0.550 OA
ATOM     20  O   UNL     1      18.461  -3.177  12.359  1.00  0.00    -0.550 OA
ENDBRANCH  17  18
ENDBRANCH  16  17
ENDBRANCH  15  16
ENDBRANCH  14  15
ENDBRANCH  13  14
ENDBRANCH  12  13
ENDBRANCH  11  12
ENDBRANCH   1  11
TORSDOF 15
ENDMDL
MODEL 5
REMARK VINA RESULT:    -3.820      1.203      1.778
REMARK INTER + INTRA:          -9.489
REMARK INTER:                  -7.067
REMARK INTRA:                  -2.422
REMARK UNBOUND:                -2.320
REMARK SMILES O=C([O-])CCCCCCCCCCCCCCC(=O)[O-]
REMARK SMILES IDX 10 1 9 2 8 3 7 4 6 5 5 6 4 7 2 8 1 9 3 10 11 11 12 12 13 13
REMARK SMILES IDX 14 14 15 15 16 16 17 17 18 18 19 19 20 20
REMARK H PARENT
REMARK Flexibility Score: inf
ROOT
ATOM      1  C   UNL     1      20.027  -0.437  16.409  1.00  0.00     0.000 C 
ENDROOT
BRANCH   1   2
ATOM      2  C   UNL     1      21.256  -0.591  17.322  1.00  0.00     0.000 C 
BRANCH   2   3
ATOM      3  C   UNL     1      22.147   0.669  17.373  1.00  0.00     0.000 C 
BRANCH   3   4
ATOM      4  C   UNL     1      23.506   0.447  16.687  1.00  0.00     0.000 C 
BRANCH   4   5
ATOM      5  C   UNL     1      23.827   1.530  15.645  1.00  0.00     0.000 C 
BRANCH   5   6
ATOM      6  C   UNL     1      22.656   2.497  15.415  1.00  0.00     0.006 C 
BRANCH   6   7
ATOM      7  C   UNL     1      23.111   3.728  14.625  1.00  0.00     0.053 C 
BRANCH   7   8
ATOM      8  C   UNL     1      22.729   3.597  13.185  1.00  0.00     0.041 C 
ATOM      9  O   UNL     1      23.298   4.303  12.311  1.00  0.00    -0.550 OA
ATOM     10  O   UNL     1      21.713   2.727  12.811  1.00  0.00    -0.550 OA
ENDBRANCH   7   8
ENDBRANCH   6   7
ENDBRANCH   5   6
ENDBRANCH   4   5
ENDBRANCH   3   4
ENDBRANCH   2   3
ENDBRANCH   1   2
BRANCH   1  11
ATOM     11  C   UNL     1      20.147  -1.241  15.106  1.00  0.00     0.000 C 
BRANCH  11  12
ATOM     12  C   UNL     1      20.994  -0.528  14.039  1.00  0.00     0.000 C 
BRANCH  12  13
ATOM     13  C   UNL     1      22.264  -1.309  13.637  1.00  0.00     0.000 C 
BRANCH  13  14
ATOM     14  C   UNL     1      22.240  -2.760  14.151  1.00  0.00     0.000 C 
BRANCH  14  15
ATOM     15  C   UNL     1      23.592  -3.207  14.729  1.00  0.00     0.000 C 
BRANCH  15  16
ATOM     16  C   UNL     1      23.623  -3.164  16.264  1.00  0.00     0.006 C 
BRANCH  16  17
ATOM     17  C   UNL     1      22.503  -4.023  16.858  1.00  0.00     0.053 C 
BRANCH  17  18
ATOM     18  C   UNL     1      23.066  -5.040  17.799  1.00  0.00     0.041 C 
ATOM     19  O   UNL     1      22.325  -5.591  18.655  1.00  0.00    -0.550 OA
ATOM     20  O   UNL     1      24.421  -5.344  17.765  1.00  0.00    -0.550 OA
ENDBRANCH  17  18
ENDBRANCH  16  17
ENDBRANCH  15  16
ENDBRANCH  14  15
ENDBRANCH  13  14
ENDBRANCH  12  13
ENDBRANCH  11  12
ENDBRANCH   1  11
TORSDOF 15
ENDMDL
MODEL 6
REMARK VINA RESULT:    -3.791      2.158      7.610
REMARK INTER + INTRA:          -9.434
REMARK INTER:                  -7.654
REMARK INTRA:                  -1.780
REMARK UNBOUND:                -2.320
REMARK SMILES O=C([O-])CCCCCCCCCCCCCCC(=O)[O-]
REMARK SMILES IDX 10 1 9 2 8 3 7 4 6 5 5 6 4 7 2 8 1 9 3 10 11 11 12 12 13 13
REMARK SMILES IDX 14 14 15 15 16 16 17 17 18 18 19 19 20 20
REMARK H PARENT
REMARK Flexibility Score: inf
ROOT
ATOM      1  C   UNL     1      21.823   1.101  13.270  1.00  0.00     0.000 C 
ENDROOT
BRANCH   1   2
ATOM      2  C   UNL     1      21.126  -0.239  12.977  1.00  0.00     0.000 C 
BRANCH   2   3
ATOM      3  C   UNL     1      20.883  -1.095  14.238  1.00  0.00     0.000 C 
BRANCH   3   4
ATOM      4  C   UNL     1      21.447  -2.519  14.091  1.00  0.00     0.000 C 
BRANCH   4   5
ATOM      5  C   UNL     1      22.975  -2.536  13.926  1.00  0.00     0.000 C 
BRANCH   5   6
ATOM      6  C   UNL     1      23.717  -2.477  15.270  1.00  0.00     0.006 C 
BRANCH   6   7
ATOM      7  C   UNL     1      23.079  -3.427  16.288  1.00  0.00     0.053 C 
BRANCH   7   8
ATOM      8  C   UNL     1      22.756  -2.698  17.554  1.00  0.00     0.041 C 
ATOM      9  O   UNL     1      22.213  -1.563  17.511  1.00  0.00    -0.550 OA
ATOM     10  O   UNL     1      23.095  -3.252  18.782  1.00  0.00    -0.550 OA
ENDBRANCH   7   8
ENDBRANCH   6   7
ENDBRANCH   5   6
ENDBRANCH   4   5
ENDBRANCH   3   4
ENDBRANCH   2   3
ENDBRANCH   1   2
BRANCH   1  11
ATOM     11  C   UNL     1      22.227   1.255  14.743  1.00  0.00     0.000 C 
BRANCH  11  12
ATOM     12  C   UNL     1      23.749   1.205  14.955  1.00  0.00     0.000 C 
BRANCH  12  13
ATOM     13  C   UNL     1      24.335   2.516  15.522  1.00  0.00     0.000 C 
BRANCH  13  14
ATOM     14  C   UNL     1      23.697   3.762  14.883  1.00  0.00     0.000 C 
BRANCH  14  15
ATOM     15  C   UNL     1      24.664   4.515  13.957  1.00  0.00     0.000 C 
BRANCH  15  16
ATOM     16  C   UNL     1      24.072   4.770  12.562  1.00  0.00     0.006 C 
BRANCH  16  17
ATOM     17  C   UNL     1      22.556   4.549  12.563  1.00  0.00     0.053 C 
BRANCH  17  18
ATOM     18  C   UNL     1      21.838   5.854  12.432  1.00  0.00     0.041 C 
ATOM     19  O   UNL     1      21.650   6.363  11.296  1.00  0.00    -0.550 OA
ATOM     20  O   UNL     1      21.418   6.534  13.568  1.00  0.00    -0.550 OA
ENDBRANCH  17  18
ENDBRANCH  16  17
ENDBRANCH  15  16
ENDBRANCH  14  15
ENDBRANCH  13  14
ENDBRANCH  12  13
ENDBRANCH  11  12
ENDBRANCH   1  11
TORSDOF 15
ENDMDL
MODEL 7
REMARK VINA RESULT:    -3.759      3.247      4.726
REMARK INTER + INTRA:          -9.375
REMARK INTER:                  -6.952
REMARK INTRA:                  -2.423
REMARK UNBOUND:                -2.320
REMARK SMILES O=C([O-])CCCCCCCCCCCCCCC(=O)[O-]
REMARK SMILES IDX 10 1 9 2 8 3 7 4 6 5 5 6 4 7 2 8 1 9 3 10 11 11 12 12 13 13
REMARK SMILES IDX 14 14 15 15 16 16 17 17 18 18 19 19 20 20
REMARK H PARENT
REMARK Flexibility Score: inf
ROOT
ATOM      1  C   UNL     1      23.823  -1.839  18.364  1.00  0.00     0.000 C 
ENDROOT
BRANCH   1   2
ATOM      2  C   UNL     1      22.408  -1.366  17.987  1.00  0.00     0.000 C 
BRANCH   2   3
ATOM      3  C   UNL     1      22.367   0.074  17.434  1.00  0.00     0.000 C 
BRANCH   3   4
ATOM      4  C   UNL     1      23.738   0.534  16.909  1.00  0.00     0.000 C 
BRANCH   4   5
ATOM      5  C   UNL     1      23.694   0.965  15.434  1.00  0.00     0.000 C 
BRANCH   5   6
ATOM      6  C   UNL     1      22.381   1.672  15.063  1.00  0.00     0.006 C 
BRANCH   6   7
ATOM      7  C   UNL     1      22.604   3.176  14.879  1.00  0.00     0.053 C 
BRANCH   7   8
ATOM      8  C   UNL     1      22.810   3.502  13.433  1.00  0.00     0.041 C 
ATOM      9  O   UNL     1      22.016   3.057  12.563  1.00  0.00    -0.550 OA
ATOM     10  O   UNL     1      23.905   4.261  13.041  1.00  0.00    -0.550 OA
ENDBRANCH   7   8
ENDBRANCH   6   7
ENDBRANCH   5   6
ENDBRANCH   4   5
ENDBRANCH   3   4
ENDBRANCH   2   3
ENDBRANCH   1   2
BRANCH   1  11
ATOM     11  C   UNL     1      24.203  -3.172  17.703  1.00  0.00     0.000 C 
BRANCH  11  12
ATOM     12  C   UNL     1      23.264  -3.556  16.548  1.00  0.00     0.000 C 
BRANCH  12  13
ATOM     13  C   UNL     1      23.832  -3.213  15.153  1.00  0.00     0.000 C 
BRANCH  13  14
ATOM     14  C   UNL     1      22.798  -2.500  14.264  1.00  0.00     0.000 C 
BRANCH  14  15
ATOM     15  C   UNL     1      21.353  -2.729  14.733  1.00  0.00     0.000 C 
BRANCH  15  16
ATOM     16  C   UNL     1      20.480  -1.472  14.599  1.00  0.00     0.006 C 
BRANCH  16  17
ATOM     17  C   UNL     1      20.618  -0.856  13.203  1.00  0.00     0.053 C 
BRANCH  17  18
ATOM     18  C   UNL     1      19.748  -1.577  12.224  1.00  0.00     0.041 C 
ATOM     19  O   UNL     1      18.565  -1.882  12.532  1.00  0.00    -0.550 OA
ATOM     20  O   UNL     1      20.257  -1.959  10.989  1.00  0.00    -0.550 OA
ENDBRANCH  17  18
ENDBRANCH  16  17
ENDBRANCH  15  16
ENDBRANCH  14  15
ENDBRANCH  13  14
ENDBRANCH  12  13
ENDBRANCH  11  12
ENDBRANCH   1  11
TORSDOF 15
ENDMDL
MODEL 8
REMARK VINA RESULT:    -3.715      1.717      3.057
REMARK INTER + INTRA:          -9.292
REMARK INTER:                  -7.427
REMARK INTRA:                  -1.865
REMARK UNBOUND:                -2.320
REMARK SMILES O=C([O-])CCCCCCCCCCCCCCC(=O)[O-]
REMARK SMILES IDX 10 1 9 2 8 3 7 4 6 5 5 6 4 7 2 8 1 9 3 10 11 11 12 12 13 13
REMARK SMILES IDX 14 14 15 15 16 16 17 17 18 18 19 19 20 20
REMARK H PARENT
REMARK Flexibility Score: inf
ROOT
ATOM      1  C   UNL     1      22.372   0.140  17.031  1.00  0.00     0.000 C 
ENDROOT
BRANCH   1   2
ATOM      2  C   UNL     1      23.232   1.400  16.827  1.00  0.00     0.000 C 
BRANCH   2   3
ATOM      3  C   UNL     1      22.675   2.359  15.753  1.00  0.00     0.000 C 
BRANCH   3   4
ATOM      4  C   UNL     1      23.132   1.973  14.336  1.00  0.00     0.000 C 
BRANCH   4   5
ATOM      5  C   UNL     1      22.030   2.167  13.284  1.00  0.00     0.000 C 
BRANCH   5   6
ATOM      6  C   UNL     1      21.964   3.607  12.753  1.00  0.00     0.006 C 
BRANCH   6   7
ATOM      7  C   UNL     1      23.371   4.185  12.567  1.00  0.00     0.053 C 
BRANCH   7   8
ATOM      8  C   UNL     1      23.460   5.551  13.169  1.00  0.00     0.041 C 
ATOM      9  O   UNL     1      23.919   5.702  14.332  1.00  0.00    -0.550 OA
ATOM     10  O   UNL     1      22.995   6.654  12.465  1.00  0.00    -0.550 OA
ENDBRANCH   7   8
ENDBRANCH   6   7
ENDBRANCH   5   6
ENDBRANCH   4   5
ENDBRANCH   3   4
ENDBRANCH   2   3
ENDBRANCH   1   2
BRANCH   1  11
ATOM     11  C   UNL     1      20.868   0.414  16.889  1.00  0.00     0.000 C 
BRANCH  11  12
ATOM     12  C   UNL     1      20.126  -0.700  16.133  1.00  0.00     0.000 C 
BRANCH  12  13
ATOM     13  C   UNL     1      20.713  -0.992  14.735  1.00  0.00     0.000 C 
BRANCH  13  14
ATOM     14  C   UNL     1      21.304  -2.410  14.638  1.00  0.00     0.000 C 
BRANCH  14  15
ATOM     15  C   UNL     1      22.749  -2.416  14.118  1.00  0.00     0.000 C 
BRANCH  15  16
ATOM     16  C   UNL     1      23.747  -2.970  15.147  1.00  0.00     0.006 C 
BRANCH  16  17
ATOM     17  C   UNL     1      23.017  -3.523  16.374  1.00  0.00     0.053 C 
BRANCH  17  18
ATOM     18  C   UNL     1      23.994  -3.872  17.451  1.00  0.00     0.041 C 
ATOM     19  O   UNL     1      24.604  -2.962  18.074  1.00  0.00    -0.550 OA
ATOM     20  O   UNL     1      24.271  -5.203  17.734  1.00  0.00    -0.550 OA
ENDBRANCH  17  18
ENDBRANCH  16  17
ENDBRANCH  15  16
ENDBRANCH  14  15
ENDBRANCH  13  14
ENDBRANCH  12  13
ENDBRANCH  11  12
ENDBRANCH   1  11
TORSDOF 15
ENDMDL
MODEL 9
REMARK VINA RESULT:    -3.713      2.980      6.059
REMARK INTER + INTRA:          -9.289
REMARK INTER:                  -6.899
REMARK INTRA:                  -2.390
REMARK UNBOUND:                -2.320
REMARK SMILES O=C([O-])CCCCCCCCCCCCCCC(=O)[O-]
REMARK SMILES IDX 10 1 9 2 8 3 7 4 6 5 5 6 4 7 2 8 1 9 3 10 11 11 12 12 13 13
REMARK SMILES IDX 14 14 15 15 16 16 17 17 18 18 19 19 20 20
REMARK H PARENT
REMARK Flexibility Score: inf
ROOT
ATOM      1  C   UNL     1      23.176  -3.394  15.647  1.00  0.00     0.000 C 
ENDROOT
BRANCH   1   2
ATOM      2  C   UNL     1      23.491  -2.739  14.291  1.00  0.00     0.000 C 
BRANCH   2   3
ATOM      3  C   UNL     1      22.242  -2.193  13.565  1.00  0.00     0.000 C 
BRANCH   3   4
ATOM      4  C   UNL     1      20.935  -2.734  14.172  1.00  0.00     0.000 C 
BRANCH   4   5
ATOM      5  C   UNL     1      19.714  -1.873  13.814  1.00  0.00     0.000 C 
BRANCH   5   6
ATOM      6  C   UNL     1      19.789  -1.302  12.389  1.00  0.00     0.006 C 
BRANCH   6   7
ATOM      7  C   UNL     1      19.215  -2.293  11.372  1.00  0.00     0.053 C 
BRANCH   7   8
ATOM      8  C   UNL     1      17.800  -1.941  11.039  1.00  0.00     0.041 C 
ATOM      9  O   UNL     1      16.880  -2.783  11.211  1.00  0.00    -0.550 OA
ATOM     10  O   UNL     1      17.501  -0.698  10.497  1.00  0.00    -0.550 OA
ENDBRANCH   7   8
ENDBRANCH   6   7
ENDBRANCH   5   6
ENDBRANCH   4   5
ENDBRANCH   3   4
ENDBRANCH   2   3
ENDBRANCH   1   2
BRANCH   1  11
ATOM     11  C   UNL     1      23.541  -2.500  16.841  1.00  0.00     0.000 C 
BRANCH  11  12
ATOM     12  C   UNL     1      22.416  -2.409  17.886  1.00  0.00     0.000 C 
BRANCH  12  13
ATOM     13  C   UNL     1      21.379  -1.307  17.580  1.00  0.00     0.000 C 
BRANCH  13  14
ATOM     14  C   UNL     1      22.043   0.010  17.141  1.00  0.00     0.000 C 
BRANCH  14  15
ATOM     15  C   UNL     1      21.336   0.661  15.943  1.00  0.00     0.000 C 
BRANCH  15  16
ATOM     16  C   UNL     1      22.313   1.086  14.836  1.00  0.00     0.006 C 
BRANCH  16  17
ATOM     17  C   UNL     1      23.765   0.884  15.282  1.00  0.00     0.053 C 
BRANCH  17  18
ATOM     18  C   UNL     1      24.499   2.187  15.281  1.00  0.00     0.041 C 
ATOM     19  O   UNL     1      24.109   3.134  14.549  1.00  0.00    -0.550 OA
ATOM     20  O   UNL     1      25.644   2.340  16.052  1.00  0.00    -0.550 OA
ENDBRANCH  17  18
ENDBRANCH  16  17
ENDBRANCH  15  16
ENDBRANCH  14  15
ENDBRANCH  13  14
ENDBRANCH  12  13
ENDBRANCH  11  12
ENDBRANCH   1  11
TORSDOF 15
ENDMDL
