MODEL 1
REMARK VINA RESULT:    -5.219      0.000      0.000
REMARK INTER + INTRA:         -10.219
REMARK INTER:                  -9.186
REMARK INTRA:                  -1.034
REMARK UNBOUND:                -1.034
REMARK SMILES CCCCCCCCCCCCCCC(=O)[O-]
REMARK SMILES IDX 9 1 10 2 11 3 12 4 13 5 14 6 15 7 16 8 17 9 8 10 7 11 6 12
REMARK SMILES IDX 5 13 4 14 3 15 2 16 1 17
REMARK H PARENT
REMARK Flexibility Score: inf
ROOT
ATOM      1  C   UNL     1      45.172  50.948  10.977  1.00  0.00     0.000 C 
ENDROOT
BRANCH   1   2
ATOM      2  C   UNL     1      44.273  50.440  12.126  1.00  0.00     0.000 C 
BRANCH   2   3
ATOM      3  C   UNL     1      43.464  49.179  11.767  1.00  0.00     0.000 C 
BRANCH   3   4
ATOM      4  C   UNL     1      42.469  48.717  12.848  1.00  0.00     0.000 C 
BRANCH   4   5
ATOM      5  C   UNL     1      41.839  49.852  13.683  1.00  0.00     0.006 C 
BRANCH   5   6
ATOM      6  C   UNL     1      40.489  50.361  13.153  1.00  0.00     0.053 C 
BRANCH   6   7
ATOM      7  C   UNL     1      39.793  51.245  14.142  1.00  0.00     0.041 C 
ATOM      8  O   UNL     1      38.746  51.861  13.812  1.00  0.00    -0.550 OA
ATOM      9  O   UNL     1      40.283  51.363  15.436  1.00  0.00    -0.550 OA
ENDBRANCH   6   7
ENDBRANCH   5   6
ENDBRANCH   4   5
ENDBRANCH   3   4
ENDBRANCH   2   3
ENDBRANCH   1   2
BRANCH   1  10
ATOM     10  C   UNL     1      46.652  51.029  11.386  1.00  0.00     0.000 C 
BRANCH  10  11
ATOM     11  C   UNL     1      47.560  50.147  10.513  1.00  0.00    -0.000 C 
BRANCH  11  12
ATOM     12  C   UNL     1      47.244  48.648  10.655  1.00  0.00    -0.000 C 
BRANCH  12  13
ATOM     13  C   UNL     1      46.687  48.039   9.357  1.00  0.00    -0.000 C 
BRANCH  13  14
ATOM     14  C   UNL     1      46.998  46.537   9.231  1.00  0.00    -0.000 C 
BRANCH  14  15
ATOM     15  C   UNL     1      46.630  45.742  10.498  1.00  0.00    -0.000 C 
BRANCH  15  16
ATOM     16  C   UNL     1      45.249  45.064  10.459  1.00  0.00    -0.003 C 
ATOM     17  C   UNL     1      44.216  45.759  11.345  1.00  0.00     0.004 C 
ENDBRANCH  15  16
ENDBRANCH  14  15
ENDBRANCH  13  14
ENDBRANCH  12  13
ENDBRANCH  11  12
ENDBRANCH  10  11
ENDBRANCH   1  10
TORSDOF 13
ENDMDL
MODEL 2
REMARK VINA RESULT:    -5.204      1.264      3.339
REMARK INTER + INTRA:         -10.192
REMARK INTER:                  -8.040
REMARK INTRA:                  -2.153
REMARK UNBOUND:                -1.034
REMARK SMILES CCCCCCCCCCCCCCC(=O)[O-]
REMARK SMILES IDX 9 1 10 2 11 3 12 4 13 5 14 6 15 7 16 8 17 9 8 10 7 11 6 12
REMARK SMILES IDX 5 13 4 14 3 15 2 16 1 17
REMARK H PARENT
REMARK Flexibility Score: inf
ROOT
ATOM      1  C   UNL     1      44.389  47.401   9.384  1.00  0.00     0.000 C 
ENDROOT
BRANCH   1   2
ATOM      2  C   UNL     1      43.966  46.984  10.809  1.00  0.00     0.000 C 
BRANCH   2   3
ATOM      3  C   UNL     1      42.817  47.831  11.386  1.00  0.00     0.000 C 
BRANCH   3   4
ATOM      4  C   UNL     1      42.884  48.068  12.907  1.00  0.00     0.000 C 
BRANCH   4   5
ATOM      5  C   UNL     1      42.418  49.465  13.370  1.00  0.00     0.006 C 
BRANCH   5   6
ATOM      6  C   UNL     1      41.123  49.958  12.705  1.00  0.00     0.053 C 
BRANCH   6   7
ATOM      7  C   UNL     1      40.244  50.701  13.665  1.00  0.00     0.041 C 
ATOM      8  O   UNL     1      39.011  50.811  13.438  1.00  0.00    -0.550 OA
ATOM      9  O   UNL     1      40.783  51.242  14.826  1.00  0.00    -0.550 OA
ENDBRANCH   6   7
ENDBRANCH   5   6
ENDBRANCH   4   5
ENDBRANCH   3   4
ENDBRANCH   2   3
ENDBRANCH   1   2
BRANCH   1  10
ATOM     10  C   UNL     1      45.916  47.382   9.198  1.00  0.00     0.000 C 
BRANCH  10  11
ATOM     11  C   UNL     1      46.677  47.320  10.533  1.00  0.00    -0.000 C 
BRANCH  11  12
ATOM     12  C   UNL     1      47.649  48.498  10.717  1.00  0.00    -0.000 C 
BRANCH  12  13
ATOM     13  C   UNL     1      47.001  49.853  10.386  1.00  0.00    -0.000 C 
BRANCH  13  14
ATOM     14  C   UNL     1      46.292  50.478  11.600  1.00  0.00    -0.000 C 
BRANCH  14  15
ATOM     15  C   UNL     1      44.855  50.934  11.284  1.00  0.00    -0.000 C 
BRANCH  15  16
ATOM     16  C   UNL     1      44.501  50.971   9.788  1.00  0.00    -0.003 C 
ATOM     17  C   UNL     1      42.997  51.047   9.531  1.00  0.00     0.004 C 
ENDBRANCH  15  16
ENDBRANCH  14  15
ENDBRANCH  13  14
ENDBRANCH  12  13
ENDBRANCH  11  12
ENDBRANCH  10  11
ENDBRANCH   1  10
TORSDOF 13
ENDMDL
MODEL 3
REMARK VINA RESULT:    -5.191      3.675      6.797
REMARK INTER + INTRA:         -10.169
REMARK INTER:                  -8.948
REMARK INTRA:                  -1.221
REMARK UNBOUND:                -1.034
REMARK SMILES CCCCCCCCCCCCCCC(=O)[O-]
REMARK SMILES IDX 9 1 10 2 11 3 12 4 13 5 14 6 15 7 16 8 17 9 8 10 7 11 6 12
REMARK SMILES IDX 5 13 4 14 3 15 2 16 1 17
REMARK H PARENT
REMARK Flexibility Score: inf
ROOT
ATOM      1  C   UNL     1      45.647  51.030   9.678  1.00  0.00     0.000 C 
ENDROOT
BRANCH   1   2
ATOM      2  C   UNL     1      46.969  50.281   9.401  1.00  0.00     0.000 C 
BRANCH   2   3
ATOM      3  C   UNL     1      47.656  49.747  10.671  1.00  0.00     0.000 C 
BRANCH   3   4
ATOM      4  C   UNL     1      47.707  48.211  10.784  1.00  0.00     0.000 C 
BRANCH   4   5
ATOM      5  C   UNL     1      46.644  47.460   9.955  1.00  0.00     0.006 C 
BRANCH   5   6
ATOM      6  C   UNL     1      46.135  46.160  10.596  1.00  0.00     0.053 C 
BRANCH   6   7
ATOM      7  C   UNL     1      45.529  45.234   9.587  1.00  0.00     0.041 C 
ATOM      8  O   UNL     1      44.324  45.368   9.248  1.00  0.00    -0.550 OA
ATOM      9  O   UNL     1      46.304  44.244   8.997  1.00  0.00    -0.550 OA
ENDBRANCH   6   7
ENDBRANCH   5   6
ENDBRANCH   4   5
ENDBRANCH   3   4
ENDBRANCH   2   3
ENDBRANCH   1   2
BRANCH   1  10
ATOM     10  C   UNL     1      45.276  51.028  11.170  1.00  0.00     0.000 C 
BRANCH  10  11
ATOM     11  C   UNL     1      43.881  50.439  11.436  1.00  0.00    -0.000 C 
BRANCH  11  12
ATOM     12  C   UNL     1      43.935  48.976  11.908  1.00  0.00    -0.000 C 
BRANCH  12  13
ATOM     13  C   UNL     1      42.815  48.638  12.906  1.00  0.00    -0.000 C 
BRANCH  13  14
ATOM     14  C   UNL     1      41.875  49.831  13.162  1.00  0.00    -0.000 C 
BRANCH  14  15
ATOM     15  C   UNL     1      42.053  50.442  14.564  1.00  0.00    -0.000 C 
BRANCH  15  16
ATOM     16  C   UNL     1      40.866  51.285  15.059  1.00  0.00    -0.003 C 
ATOM     17  C   UNL     1      39.678  51.269  14.098  1.00  0.00     0.004 C 
ENDBRANCH  15  16
ENDBRANCH  14  15
ENDBRANCH  13  14
ENDBRANCH  12  13
ENDBRANCH  11  12
ENDBRANCH  10  11
ENDBRANCH   1  10
TORSDOF 13
ENDMDL
MODEL 4
REMARK VINA RESULT:    -5.104      2.488      3.095
REMARK INTER + INTRA:         -10.018
REMARK INTER:                  -7.957
REMARK INTRA:                  -2.060
REMARK UNBOUND:                -1.034
REMARK SMILES CCCCCCCCCCCCCCC(=O)[O-]
REMARK SMILES IDX 9 1 10 2 11 3 12 4 13 5 14 6 15 7 16 8 17 9 8 10 7 11 6 12
REMARK SMILES IDX 5 13 4 14 3 15 2 16 1 17
REMARK H PARENT
REMARK Flexibility Score: inf
ROOT
ATOM      1  C   UNL     1      44.717  50.594  12.129  1.00  0.00     0.000 C 
ENDROOT
BRANCH   1   2
ATOM      2  C   UNL     1      43.876  50.286  10.871  1.00  0.00     0.000 C 
BRANCH   2   3
ATOM      3  C   UNL     1      42.887  49.120  11.058  1.00  0.00     0.000 C 
BRANCH   3   4
ATOM      4  C   UNL     1      42.888  48.486  12.461  1.00  0.00     0.000 C 
BRANCH   4   5
ATOM      5  C   UNL     1      42.382  47.029  12.519  1.00  0.00     0.006 C 
BRANCH   5   6
ATOM      6  C   UNL     1      41.634  46.563  11.260  1.00  0.00     0.053 C 
BRANCH   6   7
ATOM      7  C   UNL     1      40.156  46.471  11.485  1.00  0.00     0.041 C 
ATOM      8  O   UNL     1      39.617  47.112  12.425  1.00  0.00    -0.550 OA
ATOM      9  O   UNL     1      39.370  45.703  10.636  1.00  0.00    -0.550 OA
ENDBRANCH   6   7
ENDBRANCH   5   6
ENDBRANCH   4   5
ENDBRANCH   3   4
ENDBRANCH   2   3
ENDBRANCH   1   2
BRANCH   1  10
ATOM     10  C   UNL     1      46.019  51.342  11.793  1.00  0.00     0.000 C 
BRANCH  10  11
ATOM     11  C   UNL     1      46.655  50.867  10.476  1.00  0.00    -0.000 C 
BRANCH  11  12
ATOM     12  C   UNL     1      47.834  49.904  10.700  1.00  0.00    -0.000 C 
BRANCH  12  13
ATOM     13  C   UNL     1      47.459  48.440  10.419  1.00  0.00    -0.000 C 
BRANCH  13  14
ATOM     14  C   UNL     1      46.559  48.290   9.180  1.00  0.00    -0.000 C 
BRANCH  14  15
ATOM     15  C   UNL     1      45.503  47.180   9.339  1.00  0.00    -0.000 C 
BRANCH  15  16
ATOM     16  C   UNL     1      45.538  46.441  10.687  1.00  0.00    -0.003 C 
ATOM     17  C   UNL     1      45.245  44.946  10.558  1.00  0.00     0.004 C 
ENDBRANCH  15  16
ENDBRANCH  14  15
ENDBRANCH  13  14
ENDBRANCH  12  13
ENDBRANCH  11  12
ENDBRANCH  10  11
ENDBRANCH   1  10
TORSDOF 13
ENDMDL
MODEL 5
REMARK VINA RESULT:    -5.042      1.413      2.034
REMARK INTER + INTRA:          -9.907
REMARK INTER:                  -7.889
REMARK INTRA:                  -2.018
REMARK UNBOUND:                -1.034
REMARK SMILES CCCCCCCCCCCCCCC(=O)[O-]
REMARK SMILES IDX 9 1 10 2 11 3 12 4 13 5 14 6 15 7 16 8 17 9 8 10 7 11 6 12
REMARK SMILES IDX 5 13 4 14 3 15 2 16 1 17
REMARK H PARENT
REMARK Flexibility Score: inf
ROOT
ATOM      1  C   UNL     1      45.974  51.458   9.265  1.00  0.00     0.000 C 
ENDROOT
BRANCH   1   2
ATOM      2  C   UNL     1      44.854  51.110  10.271  1.00  0.00     0.000 C 
BRANCH   2   3
ATOM      3  C   UNL     1      43.703  50.292   9.656  1.00  0.00     0.000 C 
BRANCH   3   4
ATOM      4  C   UNL     1      43.347  49.000  10.415  1.00  0.00     0.000 C 
BRANCH   4   5
ATOM      5  C   UNL     1      43.882  48.924  11.861  1.00  0.00     0.006 C 
BRANCH   5   6
ATOM      6  C   UNL     1      42.830  48.538  12.912  1.00  0.00     0.053 C 
BRANCH   6   7
ATOM      7  C   UNL     1      42.000  49.711  13.336  1.00  0.00     0.041 C 
ATOM      8  O   UNL     1      40.917  49.966  12.747  1.00  0.00    -0.550 OA
ATOM      9  O   UNL     1      42.407  50.501  14.403  1.00  0.00    -0.550 OA
ENDBRANCH   6   7
ENDBRANCH   5   6
ENDBRANCH   4   5
ENDBRANCH   3   4
ENDBRANCH   2   3
ENDBRANCH   1   2
BRANCH   1  10
ATOM     10  C   UNL     1      47.236  50.606   9.477  1.00  0.00     0.000 C 
BRANCH  10  11
ATOM     11  C   UNL     1      47.248  49.886  10.835  1.00  0.00    -0.000 C 
BRANCH  11  12
ATOM     12  C   UNL     1      47.403  48.362  10.698  1.00  0.00    -0.000 C 
BRANCH  12  13
ATOM     13  C   UNL     1      46.826  47.829   9.376  1.00  0.00    -0.000 C 
BRANCH  13  14
ATOM     14  C   UNL     1      46.858  46.292   9.297  1.00  0.00    -0.000 C 
BRANCH  14  15
ATOM     15  C   UNL     1      46.406  45.616  10.605  1.00  0.00    -0.000 C 
BRANCH  15  16
ATOM     16  C   UNL     1      44.883  45.510  10.786  1.00  0.00    -0.003 C 
ATOM     17  C   UNL     1      44.126  45.422   9.462  1.00  0.00     0.004 C 
ENDBRANCH  15  16
ENDBRANCH  14  15
ENDBRANCH  13  14
ENDBRANCH  12  13
ENDBRANCH  11  12
ENDBRANCH  10  11
ENDBRANCH   1  10
TORSDOF 13
ENDMDL
MODEL 6
REMARK VINA RESULT:    -5.031      0.942      1.593
REMARK INTER + INTRA:          -9.888
REMARK INTER:                  -8.527
REMARK INTRA:                  -1.361
REMARK UNBOUND:                -1.034
REMARK SMILES CCCCCCCCCCCCCCC(=O)[O-]
REMARK SMILES IDX 9 1 10 2 11 3 12 4 13 5 14 6 15 7 16 8 17 9 8 10 7 11 6 12
REMARK SMILES IDX 5 13 4 14 3 15 2 16 1 17
REMARK H PARENT
REMARK Flexibility Score: inf
ROOT
ATOM      1  C   UNL     1      44.199  50.539  10.591  1.00  0.00     0.000 C 
ENDROOT
BRANCH   1   2
ATOM      2  C   UNL     1      43.552  49.162  10.327  1.00  0.00     0.000 C 
BRANCH   2   3
ATOM      3  C   UNL     1      42.978  48.496  11.591  1.00  0.00     0.000 C 
BRANCH   3   4
ATOM      4  C   UNL     1      41.486  48.776  11.853  1.00  0.00     0.000 C 
BRANCH   4   5
ATOM      5  C   UNL     1      41.201  49.774  12.995  1.00  0.00     0.006 C 
BRANCH   5   6
ATOM      6  C   UNL     1      39.722  50.160  13.150  1.00  0.00     0.053 C 
BRANCH   6   7
ATOM      7  C   UNL     1      39.540  51.347  14.046  1.00  0.00     0.041 C 
ATOM      8  O   UNL     1      40.438  51.661  14.870  1.00  0.00    -0.550 OA
ATOM      9  O   UNL     1      38.393  52.124  13.947  1.00  0.00    -0.550 OA
ENDBRANCH   6   7
ENDBRANCH   5   6
ENDBRANCH   4   5
ENDBRANCH   3   4
ENDBRANCH   2   3
ENDBRANCH   1   2
BRANCH   1  10
ATOM     10  C   UNL     1      45.232  50.493  11.729  1.00  0.00     0.000 C 
BRANCH  10  11
ATOM     11  C   UNL     1      46.605  51.044  11.310  1.00  0.00    -0.000 C 
BRANCH  11  12
ATOM     12  C   UNL     1      47.351  50.107  10.345  1.00  0.00    -0.000 C 
BRANCH  12  13
ATOM     13  C   UNL     1      47.460  48.672  10.885  1.00  0.00    -0.000 C 
BRANCH  13  14
ATOM     14  C   UNL     1      46.845  47.634   9.929  1.00  0.00    -0.000 C 
BRANCH  14  15
ATOM     15  C   UNL     1      46.494  46.309  10.630  1.00  0.00    -0.000 C 
BRANCH  15  16
ATOM     16  C   UNL     1      45.519  45.405   9.858  1.00  0.00    -0.003 C 
ATOM     17  C   UNL     1      45.091  45.996   8.515  1.00  0.00     0.004 C 
ENDBRANCH  15  16
ENDBRANCH  14  15
ENDBRANCH  13  14
ENDBRANCH  12  13
ENDBRANCH  11  12
ENDBRANCH  10  11
ENDBRANCH   1  10
TORSDOF 13
ENDMDL
MODEL 7
REMARK VINA RESULT:    -5.023      1.665      3.840
REMARK INTER + INTRA:          -9.874
REMARK INTER:                  -7.625
REMARK INTRA:                  -2.248
REMARK UNBOUND:                -1.034
REMARK SMILES CCCCCCCCCCCCCCC(=O)[O-]
REMARK SMILES IDX 9 1 10 2 11 3 12 4 13 5 14 6 15 7 16 8 17 9 8 10 7 11 6 12
REMARK SMILES IDX 5 13 4 14 3 15 2 16 1 17
REMARK H PARENT
REMARK Flexibility Score: inf
ROOT
ATOM      1  C   UNL     1      43.183  47.199   9.929  1.00  0.00     0.000 C 
ENDROOT
BRANCH   1   2
ATOM      2  C   UNL     1      43.134  46.719  11.395  1.00  0.00     0.000 C 
BRANCH   2   3
ATOM      3  C   UNL     1      42.093  47.459  12.255  1.00  0.00     0.000 C 
BRANCH   3   4
ATOM      4  C   UNL     1      42.682  48.399  13.323  1.00  0.00     0.000 C 
BRANCH   4   5
ATOM      5  C   UNL     1      42.225  49.870  13.221  1.00  0.00     0.006 C 
BRANCH   5   6
ATOM      6  C   UNL     1      40.881  50.073  12.505  1.00  0.00     0.053 C 
BRANCH   6   7
ATOM      7  C   UNL     1      39.905  50.839  13.345  1.00  0.00     0.041 C 
ATOM      8  O   UNL     1      40.159  51.072  14.556  1.00  0.00    -0.550 OA
ATOM      9  O   UNL     1      38.732  51.325  12.781  1.00  0.00    -0.550 OA
ENDBRANCH   6   7
ENDBRANCH   5   6
ENDBRANCH   4   5
ENDBRANCH   3   4
ENDBRANCH   2   3
ENDBRANCH   1   2
BRANCH   1  10
ATOM     10  C   UNL     1      41.946  48.027   9.542  1.00  0.00     0.000 C 
BRANCH  10  11
ATOM     11  C   UNL     1      42.308  49.344   8.835  1.00  0.00    -0.000 C 
BRANCH  11  12
ATOM     12  C   UNL     1      43.743  49.806   9.141  1.00  0.00    -0.000 C 
BRANCH  12  13
ATOM     13  C   UNL     1      43.783  50.999  10.110  1.00  0.00    -0.000 C 
BRANCH  13  14
ATOM     14  C   UNL     1      45.085  51.048  10.930  1.00  0.00    -0.000 C 
BRANCH  14  15
ATOM     15  C   UNL     1      45.545  49.657  11.404  1.00  0.00    -0.000 C 
BRANCH  15  16
ATOM     16  C   UNL     1      46.802  49.116  10.700  1.00  0.00    -0.003 C 
ATOM     17  C   UNL     1      47.770  50.218  10.273  1.00  0.00     0.004 C 
ENDBRANCH  15  16
ENDBRANCH  14  15
ENDBRANCH  13  14
ENDBRANCH  12  13
ENDBRANCH  11  12
ENDBRANCH  10  11
ENDBRANCH   1  10
TORSDOF 13
ENDMDL
MODEL 8
REMARK VINA RESULT:    -4.998      3.791      7.028
REMARK INTER + INTRA:          -9.829
REMARK INTER:                  -8.430
REMARK INTRA:                  -1.399
REMARK UNBOUND:                -1.034
REMARK SMILES CCCCCCCCCCCCCCC(=O)[O-]
REMARK SMILES IDX 9 1 10 2 11 3 12 4 13 5 14 6 15 7 16 8 17 9 8 10 7 11 6 12
REMARK SMILES IDX 5 13 4 14 3 15 2 16 1 17
REMARK H PARENT
REMARK Flexibility Score: inf
ROOT
ATOM      1  C   UNL     1      43.710  49.821   9.473  1.00  0.00     0.000 C 
ENDROOT
BRANCH   1   2
ATOM      2  C   UNL     1      44.410  50.730  10.506  1.00  0.00     0.000 C 
BRANCH   2   3
ATOM      3  C   UNL     1      45.389  49.980  11.428  1.00  0.00     0.000 C 
BRANCH   3   4
ATOM      4  C   UNL     1      46.841  49.915  10.919  1.00  0.00     0.000 C 
BRANCH   4   5
ATOM      5  C   UNL     1      47.337  48.502  10.542  1.00  0.00     0.006 C 
BRANCH   5   6
ATOM      6  C   UNL     1      46.219  47.485  10.267  1.00  0.00     0.053 C 
BRANCH   6   7
ATOM      7  C   UNL     1      46.753  46.100  10.066  1.00  0.00     0.041 C 
ATOM      8  O   UNL     1      46.530  45.205  10.923  1.00  0.00    -0.550 OA
ATOM      9  O   UNL     1      47.470  45.791   8.917  1.00  0.00    -0.550 OA
ENDBRANCH   6   7
ENDBRANCH   5   6
ENDBRANCH   4   5
ENDBRANCH   3   4
ENDBRANCH   2   3
ENDBRANCH   1   2
BRANCH   1  10
ATOM     10  C   UNL     1      42.373  49.265   9.994  1.00  0.00     0.000 C 
BRANCH  10  11
ATOM     11  C   UNL     1      42.534  47.930  10.740  1.00  0.00    -0.000 C 
BRANCH  11  12
ATOM     12  C   UNL     1      41.796  47.911  12.090  1.00  0.00    -0.000 C 
BRANCH  12  13
ATOM     13  C   UNL     1      42.654  48.469  13.237  1.00  0.00    -0.000 C 
BRANCH  13  14
ATOM     14  C   UNL     1      42.252  49.902  13.630  1.00  0.00    -0.000 C 
BRANCH  14  15
ATOM     15  C   UNL     1      40.808  50.250  13.222  1.00  0.00    -0.000 C 
BRANCH  15  16
ATOM     16  C   UNL     1      40.027  51.083  14.253  1.00  0.00    -0.003 C 
ATOM     17  C   UNL     1      38.855  51.849  13.640  1.00  0.00     0.004 C 
ENDBRANCH  15  16
ENDBRANCH  14  15
ENDBRANCH  13  14
ENDBRANCH  12  13
ENDBRANCH  11  12
ENDBRANCH  10  11
ENDBRANCH   1  10
TORSDOF 13
ENDMDL
MODEL 9
REMARK VINA RESULT:    -4.965      1.491      2.133
REMARK INTER + INTRA:          -9.773
REMARK INTER:                  -8.019
REMARK INTRA:                  -1.754
REMARK UNBOUND:                -1.034
REMARK SMILES CCCCCCCCCCCCCCC(=O)[O-]
REMARK SMILES IDX 9 1 10 2 11 3 12 4 13 5 14 6 15 7 16 8 17 9 8 10 7 11 6 12
REMARK SMILES IDX 5 13 4 14 3 15 2 16 1 17
REMARK H PARENT
REMARK Flexibility Score: inf
ROOT
ATOM      1  C   UNL     1      46.694  50.851  11.088  1.00  0.00     0.000 C 
ENDROOT
BRANCH   1   2
ATOM      2  C   UNL     1      45.160  50.766  10.927  1.00  0.00     0.000 C 
BRANCH   2   3
ATOM      3  C   UNL     1      44.439  50.195  12.163  1.00  0.00     0.000 C 
BRANCH   3   4
ATOM      4  C   UNL     1      42.918  50.018  12.002  1.00  0.00     0.000 C 
BRANCH   4   5
ATOM      5  C   UNL     1      42.191  49.467  13.248  1.00  0.00     0.006 C 
BRANCH   5   6
ATOM      6  C   UNL     1      41.485  50.534  14.099  1.00  0.00     0.053 C 
BRANCH   6   7
ATOM      7  C   UNL     1      40.050  50.709  13.706  1.00  0.00     0.041 C 
ATOM      8  O   UNL     1      39.479  49.844  12.992  1.00  0.00    -0.550 OA
ATOM      9  O   UNL     1      39.335  51.812  14.157  1.00  0.00    -0.550 OA
ENDBRANCH   6   7
ENDBRANCH   5   6
ENDBRANCH   4   5
ENDBRANCH   3   4
ENDBRANCH   2   3
ENDBRANCH   1   2
BRANCH   1  10
ATOM     10  C   UNL     1      47.436  49.913  10.121  1.00  0.00     0.000 C 
BRANCH  10  11
ATOM     11  C   UNL     1      47.572  48.482  10.667  1.00  0.00    -0.000 C 
BRANCH  11  12
ATOM     12  C   UNL     1      46.853  47.441   9.790  1.00  0.00    -0.000 C 
BRANCH  12  13
ATOM     13  C   UNL     1      46.008  46.458  10.618  1.00  0.00    -0.000 C 
BRANCH  13  14
ATOM     14  C   UNL     1      44.518  46.843  10.647  1.00  0.00    -0.000 C 
BRANCH  14  15
ATOM     15  C   UNL     1      44.061  47.564   9.365  1.00  0.00    -0.000 C 
BRANCH  15  16
ATOM     16  C   UNL     1      42.537  47.688   9.199  1.00  0.00    -0.003 C 
ATOM     17  C   UNL     1      41.754  46.927  10.268  1.00  0.00     0.004 C 
ENDBRANCH  15  16
ENDBRANCH  14  15
ENDBRANCH  13  14
ENDBRANCH  12  13
ENDBRANCH  11  12
ENDBRANCH  10  11
ENDBRANCH   1  10
TORSDOF 13
ENDMDL
