MODEL 1
REMARK VINA RESULT:    -5.334      0.000      0.000
REMARK INTER + INTRA:          -6.570
REMARK INTER:                  -6.269
REMARK INTRA:                  -0.300
REMARK UNBOUND:                -0.300
REMARK SMILES O=c1c(O)c(-c2ccc(O)cc2)oc2cc(O)cc(O)c12
REMARK SMILES IDX 5 1 3 2 2 3 1 4 21 5 19 6 18 7 16 8 15 9 14 10 13 11 6 12
REMARK SMILES IDX 7 13 8 14 9 15 12 16 11 17 10 18 4 20 20 22 17 24
REMARK H PARENT 10 19 4 21 20 23 17 25
REMARK Flexibility Score: inf
ROOT
ATOM      1  C   UNL     1     150.745 150.245 157.195  1.00  0.00     0.180 A 
ATOM      2  C   UNL     1     151.360 151.381 157.750  1.00  0.00     0.208 A 
ATOM      3  C   UNL     1     150.691 152.614 157.693  1.00  0.00     0.238 A 
ATOM      4  O   UNL     1     151.221 153.616 158.239  1.00  0.00    -0.285 OA
ATOM      5  C   UNL     1     149.422 152.699 157.068  1.00  0.00     0.111 A 
ATOM      6  C   UNL     1     148.673 153.905 156.918  1.00  0.00     0.134 A 
ATOM      7  C   UNL     1     147.373 153.848 156.401  1.00  0.00     0.093 A 
ATOM      8  C   UNL     1     146.821 152.640 155.967  1.00  0.00     0.123 A 
ATOM      9  C   UNL     1     147.568 151.468 156.056  1.00  0.00     0.094 A 
ATOM     10  C   UNL     1     148.854 151.486 156.600  1.00  0.00     0.146 A 
ATOM     11  O   UNL     1     149.528 150.345 156.675  1.00  0.00    -0.452 OA
ENDROOT
BRANCH   1  12
ATOM     12  C   UNL     1     151.400 148.917 157.195  1.00  0.00     0.021 A 
ATOM     13  C   UNL     1     152.245 148.516 156.144  1.00  0.00     0.016 A 
ATOM     14  C   UNL     1     152.832 147.247 156.154  1.00  0.00     0.047 A 
ATOM     15  C   UNL     1     152.571 146.358 157.205  1.00  0.00     0.115 A 
ATOM     16  C   UNL     1     151.127 148.012 158.235  1.00  0.00     0.016 A 
ATOM     17  C   UNL     1     151.716 146.744 158.242  1.00  0.00     0.047 A 
BRANCH  15  18
ATOM     18  O   UNL     1     153.151 145.092 157.226  1.00  0.00    -0.508 OA
ATOM     19  H   UNL     1     153.376 144.599 156.370  1.00  0.00     0.293 HD
ENDBRANCH  15  18
ENDBRANCH   1  12
BRANCH   2  20
ATOM     20  O   UNL     1     152.603 151.271 158.381  1.00  0.00    -0.502 OA
ATOM     21  H   UNL     1     152.694 151.074 159.370  1.00  0.00     0.293 HD
ENDBRANCH   2  20
BRANCH   6  22
ATOM     22  O   UNL     1     149.165 155.174 157.233  1.00  0.00    -0.507 OA
ATOM     23  H   UNL     1     149.969 155.351 157.816  1.00  0.00     0.293 HD
ENDBRANCH   6  22
BRANCH   8  24
ATOM     24  O   UNL     1     145.533 152.596 155.440  1.00  0.00    -0.508 OA
ATOM     25  H   UNL     1     145.367 152.380 154.464  1.00  0.00     0.293 HD
ENDBRANCH   8  24
TORSDOF 5
ENDMDL
MODEL 2
REMARK VINA RESULT:    -5.318      7.054     10.546
REMARK INTER + INTRA:          -6.551
REMARK INTER:                  -6.275
REMARK INTRA:                  -0.276
REMARK UNBOUND:                -0.300
REMARK SMILES O=c1c(O)c(-c2ccc(O)cc2)oc2cc(O)cc(O)c12
REMARK SMILES IDX 5 1 3 2 2 3 1 4 21 5 19 6 18 7 16 8 15 9 14 10 13 11 6 12
REMARK SMILES IDX 7 13 8 14 9 15 12 16 11 17 10 18 4 20 20 22 17 24
REMARK H PARENT 10 19 4 21 20 23 17 25
REMARK Flexibility Score: inf
ROOT
ATOM      1  C   UNL     1     144.024 145.402 157.497  1.00  0.00     0.180 A 
ATOM      2  C   UNL     1     143.508 144.152 157.881  1.00  0.00     0.208 A 
ATOM      3  C   UNL     1     144.330 143.018 157.784  1.00  0.00     0.238 A 
ATOM      4  O   UNL     1     143.882 141.910 158.180  1.00  0.00    -0.285 OA
ATOM      5  C   UNL     1     145.652 143.145 157.289  1.00  0.00     0.111 A 
ATOM      6  C   UNL     1     146.558 142.057 157.111  1.00  0.00     0.134 A 
ATOM      7  C   UNL     1     147.883 142.317 156.739  1.00  0.00     0.093 A 
ATOM      8  C   UNL     1     148.315 143.618 156.475  1.00  0.00     0.123 A 
ATOM      9  C   UNL     1     147.422 144.680 156.590  1.00  0.00     0.094 A 
ATOM     10  C   UNL     1     146.103 144.457 156.994  1.00  0.00     0.146 A 
ATOM     11  O   UNL     1     145.287 145.499 157.100  1.00  0.00    -0.452 OA
ENDROOT
BRANCH   1  12
ATOM     12  C   UNL     1     143.210 146.638 157.547  1.00  0.00     0.021 A 
ATOM     13  C   UNL     1     142.567 147.140 156.401  1.00  0.00     0.016 A 
ATOM     14  C   UNL     1     141.824 148.323 156.468  1.00  0.00     0.047 A 
ATOM     15  C   UNL     1     141.727 149.026 157.677  1.00  0.00     0.115 A 
ATOM     16  C   UNL     1     143.124 147.361 158.750  1.00  0.00     0.016 A 
ATOM     17  C   UNL     1     142.380 148.543 158.813  1.00  0.00     0.047 A 
BRANCH  15  18
ATOM     18  O   UNL     1     140.988 150.205 157.755  1.00  0.00    -0.508 OA
ATOM     19  H   UNL     1     141.343 151.019 158.242  1.00  0.00     0.293 HD
ENDBRANCH  15  18
ENDBRANCH   1  12
BRANCH   2  20
ATOM     20  O   UNL     1     142.209 144.052 158.387  1.00  0.00    -0.502 OA
ATOM     21  H   UNL     1     141.389 144.122 157.797  1.00  0.00     0.293 HD
ENDBRANCH   2  20
BRANCH   6  22
ATOM     22  O   UNL     1     146.203 140.713 157.258  1.00  0.00    -0.507 OA
ATOM     23  H   UNL     1     145.346 140.305 156.919  1.00  0.00     0.293 HD
ENDBRANCH   6  22
BRANCH   8  24
ATOM     24  O   UNL     1     149.631 143.866 156.091  1.00  0.00    -0.508 OA
ATOM     25  H   UNL     1     149.966 143.631 155.163  1.00  0.00     0.293 HD
ENDBRANCH   8  24
TORSDOF 5
ENDMDL
MODEL 3
REMARK VINA RESULT:    -5.316      4.610      7.485
REMARK INTER + INTRA:          -6.548
REMARK INTER:                  -6.261
REMARK INTRA:                  -0.287
REMARK UNBOUND:                -0.300
REMARK SMILES O=c1c(O)c(-c2ccc(O)cc2)oc2cc(O)cc(O)c12
REMARK SMILES IDX 5 1 3 2 2 3 1 4 21 5 19 6 18 7 16 8 15 9 14 10 13 11 6 12
REMARK SMILES IDX 7 13 8 14 9 15 12 16 11 17 10 18 4 20 20 22 17 24
REMARK H PARENT 10 19 4 21 20 23 17 25
REMARK Flexibility Score: inf
ROOT
ATOM      1  C   UNL     1     145.341 151.375 157.462  1.00  0.00     0.180 A 
ATOM      2  C   UNL     1     144.095 151.889 157.864  1.00  0.00     0.208 A 
ATOM      3  C   UNL     1     142.955 151.079 157.746  1.00  0.00     0.238 A 
ATOM      4  O   UNL     1     141.852 151.523 158.158  1.00  0.00    -0.285 OA
ATOM      5  C   UNL     1     143.071 149.771 157.213  1.00  0.00     0.111 A 
ATOM      6  C   UNL     1     141.975 148.879 157.011  1.00  0.00     0.134 A 
ATOM      7  C   UNL     1     142.224 147.563 156.600  1.00  0.00     0.093 A 
ATOM      8  C   UNL     1     143.522 147.129 156.320  1.00  0.00     0.123 A 
ATOM      9  C   UNL     1     144.591 148.011 156.458  1.00  0.00     0.094 A 
ATOM     10  C   UNL     1     144.378 149.319 156.900  1.00  0.00     0.146 A 
ATOM     11  O   UNL     1     145.427 150.124 157.027  1.00  0.00    -0.452 OA
ENDROOT
BRANCH   1  12
ATOM     12  C   UNL     1     146.583 152.178 157.533  1.00  0.00     0.021 A 
ATOM     13  C   UNL     1     147.362 152.222 158.704  1.00  0.00     0.016 A 
ATOM     14  C   UNL     1     148.518 153.007 158.754  1.00  0.00     0.047 A 
ATOM     15  C   UNL     1     148.903 153.767 157.642  1.00  0.00     0.115 A 
ATOM     16  C   UNL     1     146.966 152.959 156.429  1.00  0.00     0.016 A 
ATOM     17  C   UNL     1     148.123 153.742 156.483  1.00  0.00     0.047 A 
BRANCH  15  18
ATOM     18  O   UNL     1     150.053 154.551 157.681  1.00  0.00    -0.508 OA
ATOM     19  H   UNL     1     150.769 154.406 158.383  1.00  0.00     0.293 HD
ENDBRANCH  15  18
ENDBRANCH   1  12
BRANCH   2  20
ATOM     20  O   UNL     1     144.006 153.173 158.408  1.00  0.00    -0.502 OA
ATOM     21  H   UNL     1     143.454 153.378 159.231  1.00  0.00     0.293 HD
ENDBRANCH   2  20
BRANCH   6  22
ATOM     22  O   UNL     1     140.634 149.240 157.172  1.00  0.00    -0.507 OA
ATOM     23  H   UNL     1     140.287 150.186 157.144  1.00  0.00     0.293 HD
ENDBRANCH   6  22
BRANCH   8  24
ATOM     24  O   UNL     1     143.758 145.823 155.896  1.00  0.00    -0.508 OA
ATOM     25  H   UNL     1     144.364 145.623 155.109  1.00  0.00     0.293 HD
ENDBRANCH   8  24
TORSDOF 5
ENDMDL
MODEL 4
REMARK VINA RESULT:    -5.294      4.227      7.537
REMARK INTER + INTRA:          -6.523
REMARK INTER:                  -6.239
REMARK INTRA:                  -0.285
REMARK UNBOUND:                -0.300
REMARK SMILES O=c1c(O)c(-c2ccc(O)cc2)oc2cc(O)cc(O)c12
REMARK SMILES IDX 5 1 3 2 2 3 1 4 21 5 19 6 18 7 16 8 15 9 14 10 13 11 6 12
REMARK SMILES IDX 7 13 8 14 9 15 12 16 11 17 10 18 4 20 20 22 17 24
REMARK H PARENT 10 19 4 21 20 23 17 25
REMARK Flexibility Score: inf
ROOT
ATOM      1  C   UNL     1     150.169 144.098 157.443  1.00  0.00     0.180 A 
ATOM      2  C   UNL     1     151.426 143.597 157.826  1.00  0.00     0.208 A 
ATOM      3  C   UNL     1     152.554 144.424 157.707  1.00  0.00     0.238 A 
ATOM      4  O   UNL     1     153.667 143.990 158.102  1.00  0.00    -0.285 OA
ATOM      5  C   UNL     1     152.414 145.737 157.193  1.00  0.00     0.111 A 
ATOM      6  C   UNL     1     153.495 146.647 156.992  1.00  0.00     0.134 A 
ATOM      7  C   UNL     1     153.223 147.965 156.602  1.00  0.00     0.093 A 
ATOM      8  C   UNL     1     151.917 148.384 156.341  1.00  0.00     0.123 A 
ATOM      9  C   UNL     1     150.862 147.486 156.477  1.00  0.00     0.094 A 
ATOM     10  C   UNL     1     151.097 146.176 156.900  1.00  0.00     0.146 A 
ATOM     11  O   UNL     1     150.061 145.354 157.027  1.00  0.00    -0.452 OA
ENDROOT
BRANCH   1  12
ATOM     12  C   UNL     1     148.939 143.277 157.515  1.00  0.00     0.021 A 
ATOM     13  C   UNL     1     148.458 142.576 156.394  1.00  0.00     0.016 A 
ATOM     14  C   UNL     1     147.280 141.827 156.481  1.00  0.00     0.047 A 
ATOM     15  C   UNL     1     146.561 141.781 157.683  1.00  0.00     0.115 A 
ATOM     16  C   UNL     1     148.200 143.242 158.711  1.00  0.00     0.016 A 
ATOM     17  C   UNL     1     147.024 142.492 158.794  1.00  0.00     0.047 A 
BRANCH  15  18
ATOM     18  O   UNL     1     145.387 141.038 157.780  1.00  0.00    -0.508 OA
ATOM     19  H   UNL     1     145.006 140.766 158.679  1.00  0.00     0.293 HD
ENDBRANCH  15  18
ENDBRANCH   1  12
BRANCH   2  20
ATOM     20  O   UNL     1     151.538 142.306 158.351  1.00  0.00    -0.502 OA
ATOM     21  H   UNL     1     151.665 142.131 159.340  1.00  0.00     0.293 HD
ENDBRANCH   2  20
BRANCH   6  22
ATOM     22  O   UNL     1     154.842 146.303 157.135  1.00  0.00    -0.507 OA
ATOM     23  H   UNL     1     155.179 145.376 157.341  1.00  0.00     0.293 HD
ENDBRANCH   6  22
BRANCH   8  24
ATOM     24  O   UNL     1     151.658 149.692 155.937  1.00  0.00    -0.508 OA
ATOM     25  H   UNL     1     152.089 150.087 155.110  1.00  0.00     0.293 HD
ENDBRANCH   8  24
TORSDOF 5
ENDMDL
MODEL 5
REMARK VINA RESULT:    -5.161      1.518      3.236
REMARK INTER + INTRA:          -6.367
REMARK INTER:                  -6.066
REMARK INTRA:                  -0.301
REMARK UNBOUND:                -0.300
REMARK SMILES O=c1c(O)c(-c2ccc(O)cc2)oc2cc(O)cc(O)c12
REMARK SMILES IDX 5 1 3 2 2 3 1 4 21 5 19 6 18 7 16 8 15 9 14 10 13 11 6 12
REMARK SMILES IDX 7 13 8 14 9 15 12 16 11 17 10 18 4 20 20 22 17 24
REMARK H PARENT 10 19 4 21 20 23 17 25
REMARK Flexibility Score: inf
ROOT
ATOM      1  C   UNL     1     150.334 149.098 156.949  1.00  0.00     0.180 A 
ATOM      2  C   UNL     1     149.074 148.549 156.651  1.00  0.00     0.208 A 
ATOM      3  C   UNL     1     147.970 149.408 156.523  1.00  0.00     0.238 A 
ATOM      4  O   UNL     1     146.856 148.918 156.203  1.00  0.00    -0.285 OA
ATOM      5  C   UNL     1     148.137 150.802 156.711  1.00  0.00     0.111 A 
ATOM      6  C   UNL     1     147.080 151.760 156.646  1.00  0.00     0.134 A 
ATOM      7  C   UNL     1     147.383 153.126 156.717  1.00  0.00     0.093 A 
ATOM      8  C   UNL     1     148.693 153.564 156.919  1.00  0.00     0.123 A 
ATOM      9  C   UNL     1     149.722 152.634 157.043  1.00  0.00     0.094 A 
ATOM     10  C   UNL     1     149.458 151.267 156.940  1.00  0.00     0.146 A 
ATOM     11  O   UNL     1     150.470 150.414 157.054  1.00  0.00    -0.452 OA
ENDROOT
BRANCH   1  12
ATOM     12  C   UNL     1     151.538 148.255 157.123  1.00  0.00     0.021 A 
ATOM     13  C   UNL     1     151.889 147.728 158.379  1.00  0.00     0.016 A 
ATOM     14  C   UNL     1     153.045 146.954 158.524  1.00  0.00     0.047 A 
ATOM     15  C   UNL     1     153.872 146.709 157.419  1.00  0.00     0.115 A 
ATOM     16  C   UNL     1     152.384 148.021 156.025  1.00  0.00     0.016 A 
ATOM     17  C   UNL     1     153.538 147.247 156.172  1.00  0.00     0.047 A 
BRANCH  15  18
ATOM     18  O   UNL     1     155.025 145.939 157.551  1.00  0.00    -0.508 OA
ATOM     19  H   UNL     1     155.947 146.356 157.507  1.00  0.00     0.293 HD
ENDBRANCH  15  18
ENDBRANCH   1  12
BRANCH   2  20
ATOM     20  O   UNL     1     148.936 147.173 156.448  1.00  0.00    -0.502 OA
ATOM     21  H   UNL     1     148.884 146.762 155.524  1.00  0.00     0.293 HD
ENDBRANCH   2  20
BRANCH   6  22
ATOM     22  O   UNL     1     145.728 151.424 156.539  1.00  0.00    -0.507 OA
ATOM     23  H   UNL     1     145.093 151.808 155.856  1.00  0.00     0.293 HD
ENDBRANCH   6  22
BRANCH   8  24
ATOM     24  O   UNL     1     148.982 154.924 157.004  1.00  0.00    -0.508 OA
ATOM     25  H   UNL     1     148.262 155.608 157.208  1.00  0.00     0.293 HD
ENDBRANCH   8  24
TORSDOF 5
ENDMDL
MODEL 6
REMARK VINA RESULT:    -5.120      3.992      7.165
REMARK INTER + INTRA:          -6.318
REMARK INTER:                  -6.024
REMARK INTRA:                  -0.294
REMARK UNBOUND:                -0.300
REMARK SMILES O=c1c(O)c(-c2ccc(O)cc2)oc2cc(O)cc(O)c12
REMARK SMILES IDX 5 1 3 2 2 3 1 4 21 5 19 6 18 7 16 8 15 9 14 10 13 11 6 12
REMARK SMILES IDX 7 13 8 14 9 15 12 16 11 17 10 18 4 20 20 22 17 24
REMARK H PARENT 10 19 4 21 20 23 17 25
REMARK Flexibility Score: inf
ROOT
ATOM      1  C   UNL     1     146.235 150.584 156.976  1.00  0.00     0.180 A 
ATOM      2  C   UNL     1     146.849 149.323 156.866  1.00  0.00     0.208 A 
ATOM      3  C   UNL     1     146.045 148.172 156.875  1.00  0.00     0.238 A 
ATOM      4  O   UNL     1     146.594 147.050 156.721  1.00  0.00    -0.285 OA
ATOM      5  C   UNL     1     144.640 148.294 157.011  1.00  0.00     0.111 A 
ATOM      6  C   UNL     1     143.734 147.193 157.073  1.00  0.00     0.134 A 
ATOM      7  C   UNL     1     142.355 147.434 157.076  1.00  0.00     0.093 A 
ATOM      8  C   UNL     1     141.851 148.737 157.086  1.00  0.00     0.123 A 
ATOM      9  C   UNL     1     142.729 149.818 157.085  1.00  0.00     0.094 A 
ATOM     10  C   UNL     1     144.110 149.609 157.046  1.00  0.00     0.146 A 
ATOM     11  O   UNL     1     144.912 150.668 157.036  1.00  0.00    -0.452 OA
ENDROOT
BRANCH   1  12
ATOM     12  C   UNL     1     147.018 151.840 156.999  1.00  0.00     0.021 A 
ATOM     13  C   UNL     1     147.444 152.416 158.210  1.00  0.00     0.016 A 
ATOM     14  C   UNL     1     148.161 153.617 158.207  1.00  0.00     0.047 A 
ATOM     15  C   UNL     1     148.448 154.264 156.997  1.00  0.00     0.115 A 
ATOM     16  C   UNL     1     147.291 152.507 155.792  1.00  0.00     0.016 A 
ATOM     17  C   UNL     1     148.009 153.706 155.793  1.00  0.00     0.047 A 
BRANCH  15  18
ATOM     18  O   UNL     1     149.162 155.460 156.983  1.00  0.00    -0.508 OA
ATOM     19  H   UNL     1     149.211 156.037 156.152  1.00  0.00     0.293 HD
ENDBRANCH  15  18
ENDBRANCH   1  12
BRANCH   2  20
ATOM     20  O   UNL     1     148.234 149.226 156.711  1.00  0.00    -0.502 OA
ATOM     21  H   UNL     1     148.716 149.581 155.894  1.00  0.00     0.293 HD
ENDBRANCH   2  20
BRANCH   6  22
ATOM     22  O   UNL     1     144.134 145.856 157.160  1.00  0.00    -0.507 OA
ATOM     23  H   UNL     1     144.392 145.281 156.374  1.00  0.00     0.293 HD
ENDBRANCH   6  22
BRANCH   8  24
ATOM     24  O   UNL     1     140.478 148.968 157.104  1.00  0.00    -0.508 OA
ATOM     25  H   UNL     1     139.929 148.839 157.947  1.00  0.00     0.293 HD
ENDBRANCH   8  24
TORSDOF 5
ENDMDL
MODEL 7
REMARK VINA RESULT:    -5.105      5.993      9.552
REMARK INTER + INTRA:          -6.301
REMARK INTER:                  -6.000
REMARK INTRA:                  -0.300
REMARK UNBOUND:                -0.300
REMARK SMILES O=c1c(O)c(-c2ccc(O)cc2)oc2cc(O)cc(O)c12
REMARK SMILES IDX 5 1 3 2 2 3 1 4 21 5 19 6 18 7 16 8 15 9 14 10 13 11 6 12
REMARK SMILES IDX 7 13 8 14 9 15 12 16 11 17 10 18 4 20 20 22 17 24
REMARK H PARENT 10 19 4 21 20 23 17 25
REMARK Flexibility Score: inf
ROOT
ATOM      1  C   UNL     1     145.020 146.231 156.995  1.00  0.00     0.180 A 
ATOM      2  C   UNL     1     146.285 146.838 156.892  1.00  0.00     0.208 A 
ATOM      3  C   UNL     1     147.431 146.028 156.896  1.00  0.00     0.238 A 
ATOM      4  O   UNL     1     148.557 146.572 156.750  1.00  0.00    -0.285 OA
ATOM      5  C   UNL     1     147.301 144.623 157.018  1.00  0.00     0.111 A 
ATOM      6  C   UNL     1     148.397 143.710 157.073  1.00  0.00     0.134 A 
ATOM      7  C   UNL     1     148.147 142.332 157.062  1.00  0.00     0.093 A 
ATOM      8  C   UNL     1     146.842 141.836 157.065  1.00  0.00     0.123 A 
ATOM      9  C   UNL     1     145.766 142.720 157.071  1.00  0.00     0.094 A 
ATOM     10  C   UNL     1     145.982 144.100 157.045  1.00  0.00     0.146 A 
ATOM     11  O   UNL     1     144.929 144.908 157.041  1.00  0.00    -0.452 OA
ENDROOT
BRANCH   1  12
ATOM     12  C   UNL     1     143.768 147.021 157.023  1.00  0.00     0.021 A 
ATOM     13  C   UNL     1     143.223 147.488 158.233  1.00  0.00     0.016 A 
ATOM     14  C   UNL     1     142.026 148.211 158.236  1.00  0.00     0.047 A 
ATOM     15  C   UNL     1     141.352 148.463 157.033  1.00  0.00     0.115 A 
ATOM     16  C   UNL     1     143.075 147.260 155.824  1.00  0.00     0.016 A 
ATOM     17  C   UNL     1     141.878 147.983 155.831  1.00  0.00     0.047 A 
BRANCH  15  18
ATOM     18  O   UNL     1     140.159 149.182 157.025  1.00  0.00    -0.508 OA
ATOM     19  H   UNL     1     140.153 150.195 156.989  1.00  0.00     0.293 HD
ENDBRANCH  15  18
ENDBRANCH   1  12
BRANCH   2  20
ATOM     20  O   UNL     1     146.390 148.225 156.751  1.00  0.00    -0.502 OA
ATOM     21  H   UNL     1     145.579 148.831 156.717  1.00  0.00     0.293 HD
ENDBRANCH   2  20
BRANCH   6  22
ATOM     22  O   UNL     1     149.735 144.101 157.167  1.00  0.00    -0.507 OA
ATOM     23  H   UNL     1     150.432 143.637 157.729  1.00  0.00     0.293 HD
ENDBRANCH   6  22
BRANCH   8  24
ATOM     24  O   UNL     1     146.603 140.463 157.070  1.00  0.00    -0.508 OA
ATOM     25  H   UNL     1     145.666 140.088 157.169  1.00  0.00     0.293 HD
ENDBRANCH   8  24
TORSDOF 5
ENDMDL
MODEL 8
REMARK VINA RESULT:    -5.096      4.130      7.070
REMARK INTER + INTRA:          -6.290
REMARK INTER:                  -5.998
REMARK INTRA:                  -0.292
REMARK UNBOUND:                -0.300
REMARK SMILES O=c1c(O)c(-c2ccc(O)cc2)oc2cc(O)cc(O)c12
REMARK SMILES IDX 5 1 3 2 2 3 1 4 21 5 19 6 18 7 16 8 15 9 14 10 13 11 6 12
REMARK SMILES IDX 7 13 8 14 9 15 12 16 11 17 10 18 4 20 20 22 17 24
REMARK H PARENT 10 19 4 21 20 23 17 25
REMARK Flexibility Score: inf
ROOT
ATOM      1  C   UNL     1     149.384 145.007 156.986  1.00  0.00     0.180 A 
ATOM      2  C   UNL     1     148.768 146.268 156.901  1.00  0.00     0.208 A 
ATOM      3  C   UNL     1     149.570 147.420 156.910  1.00  0.00     0.238 A 
ATOM      4  O   UNL     1     149.018 148.543 156.779  1.00  0.00    -0.285 OA
ATOM      5  C   UNL     1     150.978 147.298 157.019  1.00  0.00     0.111 A 
ATOM      6  C   UNL     1     151.884 148.399 157.078  1.00  0.00     0.134 A 
ATOM      7  C   UNL     1     153.263 148.159 157.053  1.00  0.00     0.093 A 
ATOM      8  C   UNL     1     153.768 146.857 157.039  1.00  0.00     0.123 A 
ATOM      9  C   UNL     1     152.891 145.775 157.041  1.00  0.00     0.094 A 
ATOM     10  C   UNL     1     151.510 145.983 157.029  1.00  0.00     0.146 A 
ATOM     11  O   UNL     1     150.709 144.924 157.021  1.00  0.00    -0.452 OA
ENDROOT
BRANCH   1  12
ATOM     12  C   UNL     1     148.603 143.749 157.008  1.00  0.00     0.021 A 
ATOM     13  C   UNL     1     148.213 143.150 158.220  1.00  0.00     0.016 A 
ATOM     14  C   UNL     1     147.497 141.949 158.215  1.00  0.00     0.047 A 
ATOM     15  C   UNL     1     147.175 141.325 157.003  1.00  0.00     0.115 A 
ATOM     16  C   UNL     1     148.294 143.106 155.798  1.00  0.00     0.016 A 
ATOM     17  C   UNL     1     147.578 141.905 155.797  1.00  0.00     0.047 A 
BRANCH  15  18
ATOM     18  O   UNL     1     146.461 140.128 156.987  1.00  0.00    -0.508 OA
ATOM     19  H   UNL     1     146.821 139.304 156.520  1.00  0.00     0.293 HD
ENDBRANCH  15  18
ENDBRANCH   1  12
BRANCH   2  20
ATOM     20  O   UNL     1     147.380 146.365 156.773  1.00  0.00    -0.502 OA
ATOM     21  H   UNL     1     146.810 146.902 157.415  1.00  0.00     0.293 HD
ENDBRANCH   2  20
BRANCH   6  22
ATOM     22  O   UNL     1     151.484 149.734 157.188  1.00  0.00    -0.507 OA
ATOM     23  H   UNL     1     150.533 150.040 157.326  1.00  0.00     0.293 HD
ENDBRANCH   6  22
BRANCH   8  24
ATOM     24  O   UNL     1     155.142 146.627 157.030  1.00  0.00    -0.508 OA
ATOM     25  H   UNL     1     155.668 146.525 157.890  1.00  0.00     0.293 HD
ENDBRANCH   8  24
TORSDOF 5
ENDMDL
MODEL 9
REMARK VINA RESULT:    -5.025      4.096      6.907
REMARK INTER + INTRA:          -6.207
REMARK INTER:                  -5.928
REMARK INTRA:                  -0.278
REMARK UNBOUND:                -0.300
REMARK SMILES O=c1c(O)c(-c2ccc(O)cc2)oc2cc(O)cc(O)c12
REMARK SMILES IDX 5 1 3 2 2 3 1 4 21 5 19 6 18 7 16 8 15 9 14 10 13 11 6 12
REMARK SMILES IDX 7 13 8 14 9 15 12 16 11 17 10 18 4 20 20 22 17 24
REMARK H PARENT 10 19 4 21 20 23 17 25
REMARK Flexibility Score: inf
ROOT
ATOM      1  C   UNL     1     145.028 149.843 157.159  1.00  0.00     0.180 A 
ATOM      2  C   UNL     1     146.197 149.102 157.407  1.00  0.00     0.208 A 
ATOM      3  C   UNL     1     147.445 149.728 157.256  1.00  0.00     0.238 A 
ATOM      4  O   UNL     1     148.486 149.077 157.530  1.00  0.00    -0.285 OA
ATOM      5  C   UNL     1     147.509 151.082 156.843  1.00  0.00     0.111 A 
ATOM      6  C   UNL     1     148.720 151.804 156.619  1.00  0.00     0.134 A 
ATOM      7  C   UNL     1     148.663 153.175 156.341  1.00  0.00     0.093 A 
ATOM      8  C   UNL     1     147.439 153.835 156.213  1.00  0.00     0.123 A 
ATOM      9  C   UNL     1     146.251 153.126 156.372  1.00  0.00     0.094 A 
ATOM     10  C   UNL     1     146.275 151.765 156.686  1.00  0.00     0.146 A 
ATOM     11  O   UNL     1     145.120 151.128 156.838  1.00  0.00    -0.452 OA
ENDROOT
BRANCH   1  12
ATOM     12  C   UNL     1     143.678 149.246 157.273  1.00  0.00     0.021 A 
ATOM     13  C   UNL     1     143.135 148.459 156.241  1.00  0.00     0.016 A 
ATOM     14  C   UNL     1     141.848 147.925 156.362  1.00  0.00     0.047 A 
ATOM     15  C   UNL     1     141.083 148.183 157.507  1.00  0.00     0.115 A 
ATOM     16  C   UNL     1     142.896 149.516 158.409  1.00  0.00     0.016 A 
ATOM     17  C   UNL     1     141.610 148.980 158.527  1.00  0.00     0.047 A 
BRANCH  15  18
ATOM     18  O   UNL     1     139.801 147.655 157.638  1.00  0.00    -0.508 OA
ATOM     19  H   UNL     1     139.537 147.099 158.443  1.00  0.00     0.293 HD
ENDBRANCH  15  18
ENDBRANCH   1  12
BRANCH   2  20
ATOM     20  O   UNL     1     146.111 147.774 157.833  1.00  0.00    -0.502 OA
ATOM     21  H   UNL     1     146.607 147.431 158.647  1.00  0.00     0.293 HD
ENDBRANCH   2  20
BRANCH   6  22
ATOM     22  O   UNL     1     149.990 151.221 156.632  1.00  0.00    -0.507 OA
ATOM     23  H   UNL     1     150.698 151.371 155.930  1.00  0.00     0.293 HD
ENDBRANCH   6  22
BRANCH   8  24
ATOM     24  O   UNL     1     147.393 155.196 155.921  1.00  0.00    -0.508 OA
ATOM     25  H   UNL     1     147.259 155.890 156.647  1.00  0.00     0.293 HD
ENDBRANCH   8  24
TORSDOF 5
ENDMDL
