MODEL 1
REMARK VINA RESULT:    -3.226      0.000      0.000
REMARK INTER + INTRA:          -3.845
REMARK INTER:                  -3.792
REMARK INTRA:                  -0.053
REMARK UNBOUND:                -0.053
REMARK SMILES CCCCC(=O)[O-]
REMARK SMILES IDX 4 1 5 2 6 3 7 4 3 5 2 6 1 7
REMARK H PARENT
REMARK Flexibility Score: inf
ROOT
ATOM      1  C   UNL     1       6.743   4.756  18.261  1.00  0.00     0.053 C 
ENDROOT
BRANCH   1   2
ATOM      2  C   UNL     1       5.977   4.297  19.462  1.00  0.00     0.041 C 
ATOM      3  O   UNL     1       5.598   5.130  20.327  1.00  0.00    -0.550 OA
ATOM      4  O   UNL     1       5.639   2.957  19.601  1.00  0.00    -0.550 OA
ENDBRANCH   1   2
BRANCH   1   5
ATOM      5  C   UNL     1       6.476   6.239  17.988  1.00  0.00     0.006 C 
BRANCH   5   6
ATOM      6  C   UNL     1       6.055   6.463  16.531  1.00  0.00    -0.003 C 
ATOM      7  C   UNL     1       5.537   5.172  15.903  1.00  0.00     0.004 C 
ENDBRANCH   5   6
ENDBRANCH   1   5
TORSDOF 3
ENDMDL
MODEL 2
REMARK VINA RESULT:    -3.185      4.328      4.980
REMARK INTER + INTRA:          -3.797
REMARK INTER:                  -3.735
REMARK INTRA:                  -0.062
REMARK UNBOUND:                -0.053
REMARK SMILES CCCCC(=O)[O-]
REMARK SMILES IDX 4 1 5 2 6 3 7 4 3 5 2 6 1 7
REMARK H PARENT
REMARK Flexibility Score: inf
ROOT
ATOM      1  C   UNL     1       8.499   6.072  16.183  1.00  0.00     0.053 C 
ENDROOT
BRANCH   1   2
ATOM      2  C   UNL     1       9.377   6.273  14.987  1.00  0.00     0.041 C 
ATOM      3  O   UNL     1       9.177   5.609  13.936  1.00  0.00    -0.550 OA
ATOM      4  O   UNL     1      10.386   7.227  15.019  1.00  0.00    -0.550 OA
ENDBRANCH   1   2
BRANCH   1   5
ATOM      5  C   UNL     1       7.202   5.363  15.782  1.00  0.00     0.006 C 
BRANCH   5   6
ATOM      6  C   UNL     1       5.976   6.145  16.267  1.00  0.00    -0.003 C 
ATOM      7  C   UNL     1       6.381   7.493  16.858  1.00  0.00     0.004 C 
ENDBRANCH   5   6
ENDBRANCH   1   5
TORSDOF 3
ENDMDL
MODEL 3
REMARK VINA RESULT:    -3.168      0.786      1.277
REMARK INTER + INTRA:          -3.777
REMARK INTER:                  -3.709
REMARK INTRA:                  -0.068
REMARK UNBOUND:                -0.053
REMARK SMILES CCCCC(=O)[O-]
REMARK SMILES IDX 4 1 5 2 6 3 7 4 3 5 2 6 1 7
REMARK H PARENT
REMARK Flexibility Score: inf
ROOT
ATOM      1  C   UNL     1       6.866   4.827  18.142  1.00  0.00     0.053 C 
ENDROOT
BRANCH   1   2
ATOM      2  C   UNL     1       6.015   4.536  19.339  1.00  0.00     0.041 C 
ATOM      3  O   UNL     1       5.618   5.475  20.077  1.00  0.00    -0.550 OA
ATOM      4  O   UNL     1       5.621   3.232  19.611  1.00  0.00    -0.550 OA
ENDBRANCH   1   2
BRANCH   1   5
ATOM      5  C   UNL     1       5.996   5.261  16.959  1.00  0.00     0.006 C 
BRANCH   5   6
ATOM      6  C   UNL     1       6.640   6.428  16.202  1.00  0.00    -0.003 C 
ATOM      7  C   UNL     1       6.364   7.757  16.900  1.00  0.00     0.004 C 
ENDBRANCH   5   6
ENDBRANCH   1   5
TORSDOF 3
ENDMDL
MODEL 4
REMARK VINA RESULT:    -3.158      0.236      1.238
REMARK INTER + INTRA:          -3.765
REMARK INTER:                  -3.709
REMARK INTRA:                  -0.056
REMARK UNBOUND:                -0.053
REMARK SMILES CCCCC(=O)[O-]
REMARK SMILES IDX 4 1 5 2 6 3 7 4 3 5 2 6 1 7
REMARK H PARENT
REMARK Flexibility Score: inf
ROOT
ATOM      1  C   UNL     1       6.828   4.768  18.530  1.00  0.00     0.053 C 
ENDROOT
BRANCH   1   2
ATOM      2  C   UNL     1       5.906   4.178  19.551  1.00  0.00     0.041 C 
ATOM      3  O   UNL     1       5.632   2.950  19.521  1.00  0.00    -0.550 OA
ATOM      4  O   UNL     1       5.388   4.975  20.564  1.00  0.00    -0.550 OA
ENDBRANCH   1   2
BRANCH   1   5
ATOM      5  C   UNL     1       6.328   6.148  18.091  1.00  0.00     0.006 C 
BRANCH   5   6
ATOM      6  C   UNL     1       6.317   6.267  16.562  1.00  0.00    -0.003 C 
ATOM      7  C   UNL     1       5.494   5.149  15.929  1.00  0.00     0.004 C 
ENDBRANCH   5   6
ENDBRANCH   1   5
TORSDOF 3
ENDMDL
MODEL 5
REMARK VINA RESULT:    -3.068      1.739      2.488
REMARK INTER + INTRA:          -3.660
REMARK INTER:                  -3.592
REMARK INTRA:                  -0.068
REMARK UNBOUND:                -0.053
REMARK SMILES CCCCC(=O)[O-]
REMARK SMILES IDX 4 1 5 2 6 3 7 4 3 5 2 6 1 7
REMARK H PARENT
REMARK Flexibility Score: inf
ROOT
ATOM      1  C   UNL     1       6.513   7.037  17.154  1.00  0.00     0.053 C 
ENDROOT
BRANCH   1   2
ATOM      2  C   UNL     1       6.425   6.668  18.602  1.00  0.00     0.041 C 
ATOM      3  O   UNL     1       6.504   7.559  19.487  1.00  0.00    -0.550 OA
ATOM      4  O   UNL     1       6.208   5.346  18.970  1.00  0.00    -0.550 OA
ENDBRANCH   1   2
BRANCH   1   5
ATOM      5  C   UNL     1       6.020   5.882  16.276  1.00  0.00     0.006 C 
BRANCH   5   6
ATOM      6  C   UNL     1       7.191   5.192  15.568  1.00  0.00    -0.003 C 
ATOM      7  C   UNL     1       8.451   6.052  15.620  1.00  0.00     0.004 C 
ENDBRANCH   5   6
ENDBRANCH   1   5
TORSDOF 3
ENDMDL
MODEL 6
REMARK VINA RESULT:    -3.066      3.982      4.677
REMARK INTER + INTRA:          -3.657
REMARK INTER:                  -3.629
REMARK INTRA:                  -0.028
REMARK UNBOUND:                -0.053
REMARK SMILES CCCCC(=O)[O-]
REMARK SMILES IDX 4 1 5 2 6 3 7 4 3 5 2 6 1 7
REMARK H PARENT
REMARK Flexibility Score: inf
ROOT
ATOM      1  C   UNL     1       8.033   5.422  15.524  1.00  0.00     0.053 C 
ENDROOT
BRANCH   1   2
ATOM      2  C   UNL     1       8.435   4.645  14.309  1.00  0.00     0.041 C 
ATOM      3  O   UNL     1       9.608   4.733  13.862  1.00  0.00    -0.550 OA
ATOM      4  O   UNL     1       7.527   3.789  13.700  1.00  0.00    -0.550 OA
ENDBRANCH   1   2
BRANCH   1   5
ATOM      5  C   UNL     1       6.524   5.299  15.763  1.00  0.00     0.006 C 
BRANCH   5   6
ATOM      6  C   UNL     1       6.087   6.154  16.958  1.00  0.00    -0.003 C 
ATOM      7  C   UNL     1       6.472   7.617  16.759  1.00  0.00     0.004 C 
ENDBRANCH   5   6
ENDBRANCH   1   5
TORSDOF 3
ENDMDL
MODEL 7
REMARK VINA RESULT:    -3.049      3.171      3.993
REMARK INTER + INTRA:          -3.637
REMARK INTER:                  -3.590
REMARK INTRA:                  -0.047
REMARK UNBOUND:                -0.053
REMARK SMILES CCCCC(=O)[O-]
REMARK SMILES IDX 4 1 5 2 6 3 7 4 3 5 2 6 1 7
REMARK H PARENT
REMARK Flexibility Score: inf
ROOT
ATOM      1  C   UNL     1       6.206   5.877  16.252  1.00  0.00     0.053 C 
ENDROOT
BRANCH   1   2
ATOM      2  C   UNL     1       7.511   5.578  15.584  1.00  0.00     0.041 C 
ATOM      3  O   UNL     1       8.522   6.289  15.824  1.00  0.00    -0.550 OA
ATOM      4  O   UNL     1       7.622   4.486  14.732  1.00  0.00    -0.550 OA
ENDBRANCH   1   2
BRANCH   1   5
ATOM      5  C   UNL     1       6.398   6.911  17.366  1.00  0.00     0.006 C 
BRANCH   5   6
ATOM      6  C   UNL     1       6.486   6.232  18.737  1.00  0.00    -0.003 C 
ATOM      7  C   UNL     1       6.443   7.260  19.865  1.00  0.00     0.004 C 
ENDBRANCH   5   6
ENDBRANCH   1   5
TORSDOF 3
ENDMDL
MODEL 8
REMARK VINA RESULT:    -2.966      1.375      1.508
REMARK INTER + INTRA:          -3.540
REMARK INTER:                  -3.509
REMARK INTRA:                  -0.030
REMARK UNBOUND:                -0.053
REMARK SMILES CCCCC(=O)[O-]
REMARK SMILES IDX 4 1 5 2 6 3 7 4 3 5 2 6 1 7
REMARK H PARENT
REMARK Flexibility Score: inf
ROOT
ATOM      1  C   UNL     1       6.207   5.237  18.661  1.00  0.00     0.053 C 
ENDROOT
BRANCH   1   2
ATOM      2  C   UNL     1       6.238   5.483  20.137  1.00  0.00     0.041 C 
ATOM      3  O   UNL     1       7.330   5.453  20.761  1.00  0.00    -0.550 OA
ATOM      4  O   UNL     1       5.065   5.793  20.815  1.00  0.00    -0.550 OA
ENDBRANCH   1   2
BRANCH   1   5
ATOM      5  C   UNL     1       6.721   6.464  17.902  1.00  0.00     0.006 C 
BRANCH   5   6
ATOM      6  C   UNL     1       6.014   6.610  16.550  1.00  0.00    -0.003 C 
ATOM      7  C   UNL     1       5.654   5.246  15.967  1.00  0.00     0.004 C 
ENDBRANCH   5   6
ENDBRANCH   1   5
TORSDOF 3
ENDMDL
MODEL 9
REMARK VINA RESULT:    -2.844      3.377      3.778
REMARK INTER + INTRA:          -3.396
REMARK INTER:                  -3.326
REMARK INTRA:                  -0.069
REMARK UNBOUND:                -0.053
REMARK SMILES CCCCC(=O)[O-]
REMARK SMILES IDX 4 1 5 2 6 3 7 4 3 5 2 6 1 7
REMARK H PARENT
REMARK Flexibility Score: inf
ROOT
ATOM      1  C   UNL     1       7.970   5.167  15.404  1.00  0.00     0.053 C 
ENDROOT
BRANCH   1   2
ATOM      2  C   UNL     1       9.192   4.564  16.022  1.00  0.00     0.041 C 
ATOM      3  O   UNL     1      10.334   4.850  15.576  1.00  0.00    -0.550 OA
ATOM      4  O   UNL     1       9.072   3.723  17.121  1.00  0.00    -0.550 OA
ENDBRANCH   1   2
BRANCH   1   5
ATOM      5  C   UNL     1       7.484   6.360  16.232  1.00  0.00     0.006 C 
BRANCH   5   6
ATOM      6  C   UNL     1       5.972   6.281  16.474  1.00  0.00    -0.003 C 
ATOM      7  C   UNL     1       5.377   5.028  15.838  1.00  0.00     0.004 C 
ENDBRANCH   5   6
ENDBRANCH   1   5
TORSDOF 3
ENDMDL
