MODEL 1
REMARK VINA RESULT:    -4.668      0.000      0.000
REMARK INTER + INTRA:          -9.481
REMARK INTER:                  -7.942
REMARK INTRA:                  -1.539
REMARK UNBOUND:                -1.539
REMARK SMILES CCCCCCCCCCCCCC(=O)[O-]
REMARK SMILES IDX 8 1 9 2 10 3 11 4 12 5 13 6 14 7 15 8 16 9 7 10 6 11 5 12
REMARK SMILES IDX 4 13 3 14 2 15 1 16
REMARK H PARENT
REMARK Flexibility Score: inf
ROOT
ATOM      1  C   UNL     1     -12.026 -27.916 -35.119  1.00  0.00     0.000 C 
ENDROOT
BRANCH   1   2
ATOM      2  C   UNL     1     -13.484 -27.567 -35.468  1.00  0.00     0.000 C 
BRANCH   2   3
ATOM      3  C   UNL     1     -13.707 -26.088 -35.840  1.00  0.00     0.000 C 
BRANCH   3   4
ATOM      4  C   UNL     1     -12.510 -25.195 -35.465  1.00  0.00     0.000 C 
BRANCH   4   5
ATOM      5  C   UNL     1     -12.706 -23.733 -35.896  1.00  0.00     0.006 C 
BRANCH   5   6
ATOM      6  C   UNL     1     -12.749 -22.765 -34.707  1.00  0.00     0.053 C 
BRANCH   6   7
ATOM      7  C   UNL     1     -13.002 -21.368 -35.180  1.00  0.00     0.041 C 
ATOM      8  O   UNL     1     -14.065 -20.775 -34.860  1.00  0.00    -0.550 OA
ATOM      9  O   UNL     1     -12.041 -20.704 -35.931  1.00  0.00    -0.550 OA
ENDBRANCH   6   7
ENDBRANCH   5   6
ENDBRANCH   4   5
ENDBRANCH   3   4
ENDBRANCH   2   3
ENDBRANCH   1   2
BRANCH   1  10
ATOM     10  C   UNL     1     -11.858 -28.365 -33.657  1.00  0.00     0.000 C 
BRANCH  10  11
ATOM     11  C   UNL     1     -13.153 -28.181 -32.836  1.00  0.00    -0.000 C 
BRANCH  11  12
ATOM     12  C   UNL     1     -12.927 -28.208 -31.312  1.00  0.00    -0.000 C 
BRANCH  12  13
ATOM     13  C   UNL     1     -12.622 -26.837 -30.675  1.00  0.00    -0.000 C 
BRANCH  13  14
ATOM     14  C   UNL     1     -12.934 -25.625 -31.573  1.00  0.00    -0.000 C 
BRANCH  14  15
ATOM     15  C   UNL     1     -11.705 -24.743 -31.832  1.00  0.00    -0.003 C 
ATOM     16  C   UNL     1     -10.418 -25.558 -31.756  1.00  0.00     0.004 C 
ENDBRANCH  14  15
ENDBRANCH  13  14
ENDBRANCH  12  13
ENDBRANCH  11  12
ENDBRANCH  10  11
ENDBRANCH   1  10
TORSDOF 12
ENDMDL
MODEL 2
REMARK VINA RESULT:    -4.659      1.612      3.980
REMARK INTER + INTRA:          -9.467
REMARK INTER:                  -8.109
REMARK INTRA:                  -1.357
REMARK UNBOUND:                -1.539
REMARK SMILES CCCCCCCCCCCCCC(=O)[O-]
REMARK SMILES IDX 8 1 9 2 10 3 11 4 12 5 13 6 14 7 15 8 16 9 7 10 6 11 5 12
REMARK SMILES IDX 4 13 3 14 2 15 1 16
REMARK H PARENT
REMARK Flexibility Score: inf
ROOT
ATOM      1  C   UNL     1     -11.457 -26.808 -30.103  1.00  0.00     0.000 C 
ENDROOT
BRANCH   1   2
ATOM      2  C   UNL     1     -10.373 -26.183 -30.997  1.00  0.00     0.000 C 
BRANCH   2   3
ATOM      3  C   UNL     1     -10.657 -24.725 -31.409  1.00  0.00     0.000 C 
BRANCH   3   4
ATOM      4  C   UNL     1     -12.132 -24.493 -31.787  1.00  0.00     0.000 C 
BRANCH   4   5
ATOM      5  C   UNL     1     -12.289 -23.759 -33.127  1.00  0.00     0.006 C 
BRANCH   5   6
ATOM      6  C   UNL     1     -12.080 -24.680 -34.336  1.00  0.00     0.053 C 
BRANCH   6   7
ATOM      7  C   UNL     1     -12.643 -24.053 -35.573  1.00  0.00     0.041 C 
ATOM      8  O   UNL     1     -13.180 -24.771 -36.457  1.00  0.00    -0.550 OA
ATOM      9  O   UNL     1     -12.621 -22.673 -35.726  1.00  0.00    -0.550 OA
ENDBRANCH   6   7
ENDBRANCH   5   6
ENDBRANCH   4   5
ENDBRANCH   3   4
ENDBRANCH   2   3
ENDBRANCH   1   2
BRANCH   1  10
ATOM     10  C   UNL     1     -11.376 -28.345 -30.061  1.00  0.00     0.000 C 
BRANCH  10  11
ATOM     11  C   UNL     1     -12.548 -29.013 -30.811  1.00  0.00    -0.000 C 
BRANCH  11  12
ATOM     12  C   UNL     1     -12.992 -28.244 -32.071  1.00  0.00    -0.000 C 
BRANCH  12  13
ATOM     13  C   UNL     1     -12.114 -28.473 -33.317  1.00  0.00    -0.000 C 
BRANCH  13  14
ATOM     14  C   UNL     1     -12.781 -28.098 -34.654  1.00  0.00    -0.000 C 
BRANCH  14  15
ATOM     15  C   UNL     1     -14.205 -27.554 -34.478  1.00  0.00    -0.003 C 
ATOM     16  C   UNL     1     -14.992 -27.642 -35.781  1.00  0.00     0.004 C 
ENDBRANCH  14  15
ENDBRANCH  13  14
ENDBRANCH  12  13
ENDBRANCH  11  12
ENDBRANCH  10  11
ENDBRANCH   1  10
TORSDOF 12
ENDMDL
MODEL 3
REMARK VINA RESULT:    -4.615      1.851      3.242
REMARK INTER + INTRA:          -9.391
REMARK INTER:                  -7.780
REMARK INTRA:                  -1.611
REMARK UNBOUND:                -1.539
REMARK SMILES CCCCCCCCCCCCCC(=O)[O-]
REMARK SMILES IDX 8 1 9 2 10 3 11 4 12 5 13 6 14 7 15 8 16 9 7 10 6 11 5 12
REMARK SMILES IDX 4 13 3 14 2 15 1 16
REMARK H PARENT
REMARK Flexibility Score: inf
ROOT
ATOM      1  C   UNL     1     -13.248 -28.601 -31.556  1.00  0.00     0.000 C 
ENDROOT
BRANCH   1   2
ATOM      2  C   UNL     1     -12.917 -27.718 -32.772  1.00  0.00     0.000 C 
BRANCH   2   3
ATOM      3  C   UNL     1     -12.578 -28.506 -34.052  1.00  0.00     0.000 C 
BRANCH   3   4
ATOM      4  C   UNL     1     -11.390 -27.902 -34.823  1.00  0.00     0.000 C 
BRANCH   4   5
ATOM      5  C   UNL     1     -11.235 -26.392 -34.580  1.00  0.00     0.006 C 
BRANCH   5   6
ATOM      6  C   UNL     1     -11.310 -25.573 -35.875  1.00  0.00     0.053 C 
BRANCH   6   7
ATOM      7  C   UNL     1     -12.644 -24.907 -35.995  1.00  0.00     0.041 C 
ATOM      8  O   UNL     1     -13.678 -25.594 -36.206  1.00  0.00    -0.550 OA
ATOM      9  O   UNL     1     -12.753 -23.533 -35.824  1.00  0.00    -0.550 OA
ENDBRANCH   6   7
ENDBRANCH   5   6
ENDBRANCH   4   5
ENDBRANCH   3   4
ENDBRANCH   2   3
ENDBRANCH   1   2
BRANCH   1  10
ATOM     10  C   UNL     1     -12.578 -28.104 -30.263  1.00  0.00     0.000 C 
BRANCH  10  11
ATOM     11  C   UNL     1     -11.038 -28.122 -30.358  1.00  0.00    -0.000 C 
BRANCH  11  12
ATOM     12  C   UNL     1     -10.386 -26.754 -30.077  1.00  0.00    -0.000 C 
BRANCH  12  13
ATOM     13  C   UNL     1     -10.014 -25.940 -31.332  1.00  0.00    -0.000 C 
BRANCH  13  14
ATOM     14  C   UNL     1     -10.356 -24.440 -31.253  1.00  0.00    -0.000 C 
BRANCH  14  15
ATOM     15  C   UNL     1     -11.738 -24.112 -31.837  1.00  0.00    -0.003 C 
ATOM     16  C   UNL     1     -12.849 -24.482 -30.859  1.00  0.00     0.004 C 
ENDBRANCH  14  15
ENDBRANCH  13  14
ENDBRANCH  12  13
ENDBRANCH  11  12
ENDBRANCH  10  11
ENDBRANCH   1  10
TORSDOF 12
ENDMDL
MODEL 4
REMARK VINA RESULT:    -4.590      1.870      4.336
REMARK INTER + INTRA:          -9.349
REMARK INTER:                  -7.594
REMARK INTRA:                  -1.755
REMARK UNBOUND:                -1.539
REMARK SMILES CCCCCCCCCCCCCC(=O)[O-]
REMARK SMILES IDX 8 1 9 2 10 3 11 4 12 5 13 6 14 7 15 8 16 9 7 10 6 11 5 12
REMARK SMILES IDX 4 13 3 14 2 15 1 16
REMARK H PARENT
REMARK Flexibility Score: inf
ROOT
ATOM      1  C   UNL     1     -12.970 -28.674 -31.125  1.00  0.00     0.000 C 
ENDROOT
BRANCH   1   2
ATOM      2  C   UNL     1     -11.626 -28.253 -30.507  1.00  0.00     0.000 C 
BRANCH   2   3
ATOM      3  C   UNL     1     -11.437 -26.728 -30.386  1.00  0.00     0.000 C 
BRANCH   3   4
ATOM      4  C   UNL     1     -10.314 -26.197 -31.296  1.00  0.00     0.000 C 
BRANCH   4   5
ATOM      5  C   UNL     1     -10.825 -25.186 -32.335  1.00  0.00     0.006 C 
BRANCH   5   6
ATOM      6  C   UNL     1     -12.158 -24.544 -31.932  1.00  0.00     0.053 C 
BRANCH   6   7
ATOM      7  C   UNL     1     -11.936 -23.156 -31.417  1.00  0.00     0.041 C 
ATOM      8  O   UNL     1     -12.053 -22.911 -30.188  1.00  0.00    -0.550 OA
ATOM      9  O   UNL     1     -11.549 -22.146 -32.288  1.00  0.00    -0.550 OA
ENDBRANCH   6   7
ENDBRANCH   5   6
ENDBRANCH   4   5
ENDBRANCH   3   4
ENDBRANCH   2   3
ENDBRANCH   1   2
BRANCH   1  10
ATOM     10  C   UNL     1     -13.254 -27.969 -32.463  1.00  0.00     0.000 C 
BRANCH  10  11
ATOM     11  C   UNL     1     -12.397 -28.534 -33.616  1.00  0.00    -0.000 C 
BRANCH  11  12
ATOM     12  C   UNL     1     -12.236 -27.562 -34.800  1.00  0.00    -0.000 C 
BRANCH  12  13
ATOM     13  C   UNL     1     -13.546 -26.916 -35.294  1.00  0.00    -0.000 C 
BRANCH  13  14
ATOM     14  C   UNL     1     -13.357 -25.720 -36.247  1.00  0.00    -0.000 C 
BRANCH  14  15
ATOM     15  C   UNL     1     -12.220 -24.785 -35.812  1.00  0.00    -0.003 C 
ATOM     16  C   UNL     1     -12.749 -23.391 -35.488  1.00  0.00     0.004 C 
ENDBRANCH  14  15
ENDBRANCH  13  14
ENDBRANCH  12  13
ENDBRANCH  11  12
ENDBRANCH  10  11
ENDBRANCH   1  10
TORSDOF 12
ENDMDL
MODEL 5
REMARK VINA RESULT:    -4.573      2.464      5.105
REMARK INTER + INTRA:          -9.320
REMARK INTER:                  -8.083
REMARK INTRA:                  -1.238
REMARK UNBOUND:                -1.539
REMARK SMILES CCCCCCCCCCCCCC(=O)[O-]
REMARK SMILES IDX 8 1 9 2 10 3 11 4 12 5 13 6 14 7 15 8 16 9 7 10 6 11 5 12
REMARK SMILES IDX 4 13 3 14 2 15 1 16
REMARK H PARENT
REMARK Flexibility Score: inf
ROOT
ATOM      1  C   UNL     1     -11.776 -27.451 -35.084  1.00  0.00     0.000 C 
ENDROOT
BRANCH   1   2
ATOM      2  C   UNL     1     -13.278 -27.766 -34.974  1.00  0.00     0.000 C 
BRANCH   2   3
ATOM      3  C   UNL     1     -13.833 -27.701 -33.537  1.00  0.00     0.000 C 
BRANCH   3   4
ATOM      4  C   UNL     1     -12.843 -28.252 -32.494  1.00  0.00     0.000 C 
BRANCH   4   5
ATOM      5  C   UNL     1     -12.589 -27.266 -31.343  1.00  0.00     0.006 C 
BRANCH   5   6
ATOM      6  C   UNL     1     -12.432 -25.819 -31.826  1.00  0.00     0.053 C 
BRANCH   6   7
ATOM      7  C   UNL     1     -10.997 -25.399 -31.759  1.00  0.00     0.041 C 
ATOM      8  O   UNL     1     -10.675 -24.205 -31.994  1.00  0.00    -0.550 OA
ATOM      9  O   UNL     1     -10.021 -26.316 -31.388  1.00  0.00    -0.550 OA
ENDBRANCH   6   7
ENDBRANCH   5   6
ENDBRANCH   4   5
ENDBRANCH   3   4
ENDBRANCH   2   3
ENDBRANCH   1   2
BRANCH   1  10
ATOM     10  C   UNL     1     -11.504 -25.972 -35.408  1.00  0.00     0.000 C 
BRANCH  10  11
ATOM     11  C   UNL     1     -12.774 -25.233 -35.880  1.00  0.00    -0.000 C 
BRANCH  11  12
ATOM     12  C   UNL     1     -12.624 -23.699 -35.901  1.00  0.00    -0.000 C 
BRANCH  12  13
ATOM     13  C   UNL     1     -12.843 -23.004 -34.543  1.00  0.00    -0.000 C 
BRANCH  13  14
ATOM     14  C   UNL     1     -13.100 -21.488 -34.628  1.00  0.00    -0.000 C 
BRANCH  14  15
ATOM     15  C   UNL     1     -12.537 -20.858 -35.909  1.00  0.00    -0.003 C 
ATOM     16  C   UNL     1     -12.919 -19.386 -36.012  1.00  0.00     0.004 C 
ENDBRANCH  14  15
ENDBRANCH  13  14
ENDBRANCH  12  13
ENDBRANCH  11  12
ENDBRANCH  10  11
ENDBRANCH   1  10
TORSDOF 12
ENDMDL
MODEL 6
REMARK VINA RESULT:    -4.485      1.476      3.547
REMARK INTER + INTRA:          -9.169
REMARK INTER:                  -7.605
REMARK INTRA:                  -1.564
REMARK UNBOUND:                -1.539
REMARK SMILES CCCCCCCCCCCCCC(=O)[O-]
REMARK SMILES IDX 8 1 9 2 10 3 11 4 12 5 13 6 14 7 15 8 16 9 7 10 6 11 5 12
REMARK SMILES IDX 4 13 3 14 2 15 1 16
REMARK H PARENT
REMARK Flexibility Score: inf
ROOT
ATOM      1  C   UNL     1     -11.164 -26.766 -30.152  1.00  0.00     0.000 C 
ENDROOT
BRANCH   1   2
ATOM      2  C   UNL     1     -10.140 -26.199 -31.150  1.00  0.00     0.000 C 
BRANCH   2   3
ATOM      3  C   UNL     1     -10.275 -24.684 -31.401  1.00  0.00     0.000 C 
BRANCH   3   4
ATOM      4  C   UNL     1     -11.741 -24.213 -31.410  1.00  0.00     0.000 C 
BRANCH   4   5
ATOM      5  C   UNL     1     -12.273 -23.971 -32.831  1.00  0.00     0.006 C 
BRANCH   5   6
ATOM      6  C   UNL     1     -12.207 -22.495 -33.245  1.00  0.00     0.053 C 
BRANCH   6   7
ATOM      7  C   UNL     1     -12.893 -22.290 -34.559  1.00  0.00     0.041 C 
ATOM      8  O   UNL     1     -13.607 -21.270 -34.748  1.00  0.00    -0.550 OA
ATOM      9  O   UNL     1     -12.705 -23.200 -35.591  1.00  0.00    -0.550 OA
ENDBRANCH   6   7
ENDBRANCH   5   6
ENDBRANCH   4   5
ENDBRANCH   3   4
ENDBRANCH   2   3
ENDBRANCH   1   2
BRANCH   1  10
ATOM     10  C   UNL     1     -11.328 -28.292 -30.275  1.00  0.00     0.000 C 
BRANCH  10  11
ATOM     11  C   UNL     1     -12.646 -28.684 -30.977  1.00  0.00    -0.000 C 
BRANCH  11  12
ATOM     12  C   UNL     1     -13.322 -27.513 -31.717  1.00  0.00    -0.000 C 
BRANCH  12  13
ATOM     13  C   UNL     1     -13.178 -27.542 -33.252  1.00  0.00    -0.000 C 
BRANCH  13  14
ATOM     14  C   UNL     1     -12.183 -28.589 -33.786  1.00  0.00    -0.000 C 
BRANCH  14  15
ATOM     15  C   UNL     1     -11.353 -28.073 -34.970  1.00  0.00    -0.003 C 
ATOM     16  C   UNL     1     -11.191 -26.558 -34.908  1.00  0.00     0.004 C 
ENDBRANCH  14  15
ENDBRANCH  13  14
ENDBRANCH  12  13
ENDBRANCH  11  12
ENDBRANCH  10  11
ENDBRANCH   1  10
TORSDOF 12
ENDMDL
MODEL 7
REMARK VINA RESULT:    -4.437      2.111      4.601
REMARK INTER + INTRA:          -9.089
REMARK INTER:                  -7.727
REMARK INTRA:                  -1.362
REMARK UNBOUND:                -1.539
REMARK SMILES CCCCCCCCCCCCCC(=O)[O-]
REMARK SMILES IDX 8 1 9 2 10 3 11 4 12 5 13 6 14 7 15 8 16 9 7 10 6 11 5 12
REMARK SMILES IDX 4 13 3 14 2 15 1 16
REMARK H PARENT
REMARK Flexibility Score: inf
ROOT
ATOM      1  C   UNL     1     -10.622 -27.514 -31.071  1.00  0.00     0.000 C 
ENDROOT
BRANCH   1   2
ATOM      2  C   UNL     1     -11.894 -28.025 -30.372  1.00  0.00     0.000 C 
BRANCH   2   3
ATOM      3  C   UNL     1     -12.991 -28.516 -31.338  1.00  0.00     0.000 C 
BRANCH   3   4
ATOM      4  C   UNL     1     -12.592 -28.357 -32.817  1.00  0.00     0.000 C 
BRANCH   4   5
ATOM      5  C   UNL     1     -13.518 -27.395 -33.578  1.00  0.00     0.006 C 
BRANCH   5   6
ATOM      6  C   UNL     1     -13.351 -27.492 -35.099  1.00  0.00     0.053 C 
BRANCH   6   7
ATOM      7  C   UNL     1     -12.788 -26.217 -35.644  1.00  0.00     0.041 C 
ATOM      8  O   UNL     1     -11.588 -25.908 -35.420  1.00  0.00    -0.550 OA
ATOM      9  O   UNL     1     -13.573 -25.394 -36.441  1.00  0.00    -0.550 OA
ENDBRANCH   6   7
ENDBRANCH   5   6
ENDBRANCH   4   5
ENDBRANCH   3   4
ENDBRANCH   2   3
ENDBRANCH   1   2
BRANCH   1  10
ATOM     10  C   UNL     1     -10.431 -25.994 -30.915  1.00  0.00     0.000 C 
BRANCH  10  11
ATOM     11  C   UNL     1     -10.820 -25.222 -32.194  1.00  0.00    -0.000 C 
BRANCH  11  12
ATOM     12  C   UNL     1     -12.017 -24.272 -32.001  1.00  0.00    -0.000 C 
BRANCH  12  13
ATOM     13  C   UNL     1     -11.651 -22.779 -31.885  1.00  0.00    -0.000 C 
BRANCH  13  14
ATOM     14  C   UNL     1     -11.932 -21.945 -33.149  1.00  0.00    -0.000 C 
BRANCH  14  15
ATOM     15  C   UNL     1     -12.725 -22.721 -34.210  1.00  0.00    -0.003 C 
ATOM     16  C   UNL     1     -12.520 -22.120 -35.597  1.00  0.00     0.004 C 
ENDBRANCH  14  15
ENDBRANCH  13  14
ENDBRANCH  12  13
ENDBRANCH  11  12
ENDBRANCH  10  11
ENDBRANCH   1  10
TORSDOF 12
ENDMDL
MODEL 8
REMARK VINA RESULT:    -4.436      1.168      1.990
REMARK INTER + INTRA:          -9.087
REMARK INTER:                  -7.722
REMARK INTRA:                  -1.364
REMARK UNBOUND:                -1.539
REMARK SMILES CCCCCCCCCCCCCC(=O)[O-]
REMARK SMILES IDX 8 1 9 2 10 3 11 4 12 5 13 6 14 7 15 8 16 9 7 10 6 11 5 12
REMARK SMILES IDX 4 13 3 14 2 15 1 16
REMARK H PARENT
REMARK Flexibility Score: inf
ROOT
ATOM      1  C   UNL     1     -13.749 -26.489 -35.590  1.00  0.00     0.000 C 
ENDROOT
BRANCH   1   2
ATOM      2  C   UNL     1     -13.283 -25.304 -36.453  1.00  0.00     0.000 C 
BRANCH   2   3
ATOM      3  C   UNL     1     -12.176 -24.448 -35.806  1.00  0.00     0.000 C 
BRANCH   3   4
ATOM      4  C   UNL     1     -12.649 -23.740 -34.523  1.00  0.00     0.000 C 
BRANCH   4   5
ATOM      5  C   UNL     1     -13.072 -22.284 -34.774  1.00  0.00     0.006 C 
BRANCH   5   6
ATOM      6  C   UNL     1     -12.130 -21.551 -35.737  1.00  0.00     0.053 C 
BRANCH   6   7
ATOM      7  C   UNL     1     -12.663 -20.188 -36.052  1.00  0.00     0.041 C 
ATOM      8  O   UNL     1     -13.823 -19.862 -35.686  1.00  0.00    -0.550 OA
ATOM      9  O   UNL     1     -11.861 -19.262 -36.706  1.00  0.00    -0.550 OA
ENDBRANCH   6   7
ENDBRANCH   5   6
ENDBRANCH   4   5
ENDBRANCH   3   4
ENDBRANCH   2   3
ENDBRANCH   1   2
BRANCH   1  10
ATOM     10  C   UNL     1     -12.669 -27.576 -35.444  1.00  0.00     0.000 C 
BRANCH  10  11
ATOM     11  C   UNL     1     -12.524 -28.064 -33.987  1.00  0.00    -0.000 C 
BRANCH  11  12
ATOM     12  C   UNL     1     -13.394 -27.280 -32.985  1.00  0.00    -0.000 C 
BRANCH  12  13
ATOM     13  C   UNL     1     -12.610 -26.400 -31.992  1.00  0.00    -0.000 C 
BRANCH  13  14
ATOM     14  C   UNL     1     -11.094 -26.325 -32.254  1.00  0.00    -0.000 C 
BRANCH  14  15
ATOM     15  C   UNL     1     -10.257 -26.739 -31.036  1.00  0.00    -0.003 C 
ATOM     16  C   UNL     1     -10.880 -27.935 -30.322  1.00  0.00     0.004 C 
ENDBRANCH  14  15
ENDBRANCH  13  14
ENDBRANCH  12  13
ENDBRANCH  11  12
ENDBRANCH  10  11
ENDBRANCH   1  10
TORSDOF 12
ENDMDL
MODEL 9
REMARK VINA RESULT:    -4.410      2.611      5.527
REMARK INTER + INTRA:          -9.042
REMARK INTER:                  -7.763
REMARK INTRA:                  -1.278
REMARK UNBOUND:                -1.539
REMARK SMILES CCCCCCCCCCCCCC(=O)[O-]
REMARK SMILES IDX 8 1 9 2 10 3 11 4 12 5 13 6 14 7 15 8 16 9 7 10 6 11 5 12
REMARK SMILES IDX 4 13 3 14 2 15 1 16
REMARK H PARENT
REMARK Flexibility Score: inf
ROOT
ATOM      1  C   UNL     1     -10.224 -26.045 -30.957  1.00  0.00     0.000 C 
ENDROOT
BRANCH   1   2
ATOM      2  C   UNL     1     -11.304 -26.830 -30.194  1.00  0.00     0.000 C 
BRANCH   2   3
ATOM      3  C   UNL     1     -11.514 -28.271 -30.702  1.00  0.00     0.000 C 
BRANCH   3   4
ATOM      4  C   UNL     1     -12.965 -28.537 -31.143  1.00  0.00     0.000 C 
BRANCH   4   5
ATOM      5  C   UNL     1     -13.219 -28.141 -32.606  1.00  0.00     0.006 C 
BRANCH   5   6
ATOM      6  C   UNL     1     -12.099 -28.603 -33.548  1.00  0.00     0.053 C 
BRANCH   6   7
ATOM      7  C   UNL     1     -12.061 -27.745 -34.774  1.00  0.00     0.041 C 
ATOM      8  O   UNL     1     -13.129 -27.446 -35.370  1.00  0.00    -0.550 OA
ATOM      9  O   UNL     1     -10.852 -27.235 -35.229  1.00  0.00    -0.550 OA
ENDBRANCH   6   7
ENDBRANCH   5   6
ENDBRANCH   4   5
ENDBRANCH   3   4
ENDBRANCH   2   3
ENDBRANCH   1   2
BRANCH   1  10
ATOM     10  C   UNL     1     -10.769 -25.367 -32.227  1.00  0.00     0.000 C 
BRANCH  10  11
ATOM     11  C   UNL     1     -11.975 -24.450 -31.928  1.00  0.00    -0.000 C 
BRANCH  11  12
ATOM     12  C   UNL     1     -12.294 -23.461 -33.065  1.00  0.00    -0.000 C 
BRANCH  12  13
ATOM     13  C   UNL     1     -12.280 -24.070 -34.481  1.00  0.00    -0.000 C 
BRANCH  13  14
ATOM     14  C   UNL     1     -12.825 -23.147 -35.587  1.00  0.00    -0.000 C 
BRANCH  14  15
ATOM     15  C   UNL     1     -12.335 -21.698 -35.449  1.00  0.00    -0.003 C 
ATOM     16  C   UNL     1     -13.509 -20.730 -35.334  1.00  0.00     0.004 C 
ENDBRANCH  14  15
ENDBRANCH  13  14
ENDBRANCH  12  13
ENDBRANCH  11  12
ENDBRANCH  10  11
ENDBRANCH   1  10
TORSDOF 12
ENDMDL
