MODEL 1
REMARK VINA RESULT:    -5.960      0.000      0.000
REMARK INTER + INTRA:          -7.706
REMARK INTER:                  -7.180
REMARK INTRA:                  -0.526
REMARK UNBOUND:                -0.526
REMARK SMILES CCCCc1oc(O)c2ccccc12
REMARK SMILES IDX 4 1 5 2 7 3 6 4 9 5 14 6 10 7 13 8 11 9 12 10 8 11 3 13 2 14
REMARK SMILES IDX 1 15
REMARK H PARENT 8 12
REMARK Flexibility Score: inf
ROOT
ATOM      1  C   UNL     1     -14.559 -27.214  13.033  1.00  0.00     0.076 C 
ENDROOT
BRANCH   1   2
ATOM      2  C   UNL     1     -13.602 -27.400  11.896  1.00  0.00     0.116 A 
ATOM      3  C   UNL     1     -12.673 -27.129   9.984  1.00  0.00     0.290 A 
ATOM      4  O   UNL     1     -13.631 -26.694  10.780  1.00  0.00    -0.430 OA
ATOM      5  C   UNL     1     -11.992 -28.157  10.592  1.00  0.00     0.066 A 
ATOM      6  C   UNL     1     -12.584 -28.335  11.813  1.00  0.00     0.027 A 
ATOM      7  C   UNL     1     -10.920 -28.940  10.169  1.00  0.00     0.016 A 
ATOM      8  C   UNL     1     -12.148 -29.316  12.704  1.00  0.00     0.012 A 
ATOM      9  C   UNL     1     -10.455 -29.937  11.046  1.00  0.00     0.001 A 
ATOM     10  C   UNL     1     -11.065 -30.125  12.307  1.00  0.00     0.001 A 
BRANCH   3  11
ATOM     11  O   UNL     1     -12.409 -26.614   8.719  1.00  0.00    -0.480 OA
ATOM     12  H   UNL     1     -11.580 -26.899   8.213  1.00  0.00     0.297 HD
ENDBRANCH   3  11
ENDBRANCH   1   2
BRANCH   1  13
ATOM     13  C   UNL     1     -15.947 -27.747  12.658  1.00  0.00     0.008 C 
BRANCH  13  14
ATOM     14  C   UNL     1     -16.091 -29.253  12.919  1.00  0.00    -0.003 C 
ATOM     15  C   UNL     1     -15.585 -29.663  14.301  1.00  0.00     0.004 C 
ENDBRANCH  13  14
ENDBRANCH   1  13
TORSDOF 4
ENDMDL
MODEL 2
REMARK VINA RESULT:    -5.859      2.113      5.051
REMARK INTER + INTRA:          -7.583
REMARK INTER:                  -7.067
REMARK INTRA:                  -0.516
REMARK UNBOUND:                -0.526
REMARK SMILES CCCCc1oc(O)c2ccccc12
REMARK SMILES IDX 4 1 5 2 7 3 6 4 9 5 14 6 10 7 13 8 11 9 12 10 8 11 3 13 2 14
REMARK SMILES IDX 1 15
REMARK H PARENT 8 12
REMARK Flexibility Score: inf
ROOT
ATOM      1  C   UNL     1     -11.547 -29.418   9.770  1.00  0.00     0.076 C 
ENDROOT
BRANCH   1   2
ATOM      2  C   UNL     1     -12.116 -29.113  11.121  1.00  0.00     0.116 A 
ATOM      3  C   UNL     1     -12.337 -29.091  13.253  1.00  0.00     0.290 A 
ATOM      4  O   UNL     1     -11.573 -29.504  12.260  1.00  0.00    -0.430 OA
ATOM      5  C   UNL     1     -13.422 -28.408  12.754  1.00  0.00     0.066 A 
ATOM      6  C   UNL     1     -13.285 -28.421  11.392  1.00  0.00     0.027 A 
ATOM      7  C   UNL     1     -14.502 -27.793  13.383  1.00  0.00     0.016 A 
ATOM      8  C   UNL     1     -14.225 -27.821  10.555  1.00  0.00     0.012 A 
ATOM      9  C   UNL     1     -15.466 -27.176  12.565  1.00  0.00     0.001 A 
ATOM     10  C   UNL     1     -15.330 -27.189  11.159  1.00  0.00     0.001 A 
BRANCH   3  11
ATOM     11  O   UNL     1     -12.072 -29.324  14.598  1.00  0.00    -0.480 OA
ATOM     12  H   UNL     1     -12.177 -28.581  15.277  1.00  0.00     0.297 HD
ENDBRANCH   3  11
ENDBRANCH   1   2
BRANCH   1  13
ATOM     13  C   UNL     1     -10.599 -28.299   9.323  1.00  0.00     0.008 C 
BRANCH  13  14
ATOM     14  C   UNL     1     -11.284 -27.277   8.404  1.00  0.00    -0.003 C 
ATOM     15  C   UNL     1     -12.214 -27.932   7.384  1.00  0.00     0.004 C 
ENDBRANCH  13  14
ENDBRANCH   1  13
TORSDOF 4
ENDMDL
MODEL 3
REMARK VINA RESULT:    -5.815      2.189      3.380
REMARK INTER + INTRA:          -7.530
REMARK INTER:                  -7.087
REMARK INTRA:                  -0.443
REMARK UNBOUND:                -0.526
REMARK SMILES CCCCc1oc(O)c2ccccc12
REMARK SMILES IDX 4 1 5 2 7 3 6 4 9 5 14 6 10 7 13 8 11 9 12 10 8 11 3 13 2 14
REMARK SMILES IDX 1 15
REMARK H PARENT 8 12
REMARK Flexibility Score: inf
ROOT
ATOM      1  C   UNL     1     -15.169 -27.013  11.476  1.00  0.00     0.076 C 
ENDROOT
BRANCH   1   2
ATOM      2  C   UNL     1     -14.006 -27.813  11.977  1.00  0.00     0.116 A 
ATOM      3  C   UNL     1     -12.726 -28.869  13.334  1.00  0.00     0.290 A 
ATOM      4  O   UNL     1     -13.866 -28.213  13.229  1.00  0.00    -0.430 OA
ATOM      5  C   UNL     1     -12.092 -28.900  12.114  1.00  0.00     0.066 A 
ATOM      6  C   UNL     1     -12.906 -28.225  11.245  1.00  0.00     0.027 A 
ATOM      7  C   UNL     1     -10.879 -29.455  11.712  1.00  0.00     0.016 A 
ATOM      8  C   UNL     1     -12.563 -28.051   9.904  1.00  0.00     0.012 A 
ATOM      9  C   UNL     1     -10.507 -29.299  10.364  1.00  0.00     0.001 A 
ATOM     10  C   UNL     1     -11.344 -28.601   9.464  1.00  0.00     0.001 A 
BRANCH   3  11
ATOM     11  O   UNL     1     -12.251 -29.434  14.512  1.00  0.00    -0.480 OA
ATOM     12  H   UNL     1     -11.451 -30.053  14.497  1.00  0.00     0.297 HD
ENDBRANCH   3  11
ENDBRANCH   1   2
BRANCH   1  13
ATOM     13  C   UNL     1     -16.011 -27.845  10.501  1.00  0.00     0.008 C 
BRANCH  13  14
ATOM     14  C   UNL     1     -16.147 -27.179   9.124  1.00  0.00    -0.003 C 
ATOM     15  C   UNL     1     -15.463 -25.815   9.058  1.00  0.00     0.004 C 
ENDBRANCH  13  14
ENDBRANCH   1  13
TORSDOF 4
ENDMDL
MODEL 4
REMARK VINA RESULT:    -5.792      1.414      1.762
REMARK INTER + INTRA:          -7.502
REMARK INTER:                  -6.981
REMARK INTRA:                  -0.521
REMARK UNBOUND:                -0.526
REMARK SMILES CCCCc1oc(O)c2ccccc12
REMARK SMILES IDX 4 1 5 2 7 3 6 4 9 5 14 6 10 7 13 8 11 9 12 10 8 11 3 13 2 14
REMARK SMILES IDX 1 15
REMARK H PARENT 8 12
REMARK Flexibility Score: inf
ROOT
ATOM      1  C   UNL     1     -14.825 -27.028  10.675  1.00  0.00     0.076 C 
ENDROOT
BRANCH   1   2
ATOM      2  C   UNL     1     -13.463 -27.298  10.113  1.00  0.00     0.116 A 
ATOM      3  C   UNL     1     -11.782 -27.218   8.786  1.00  0.00     0.290 A 
ATOM      4  O   UNL     1     -12.994 -26.747   9.007  1.00  0.00    -0.430 OA
ATOM      5  C   UNL     1     -11.440 -28.111   9.775  1.00  0.00     0.066 A 
ATOM      6  C   UNL     1     -12.513 -28.166  10.623  1.00  0.00     0.027 A 
ATOM      7  C   UNL     1     -10.291 -28.870   9.984  1.00  0.00     0.016 A 
ATOM      8  C   UNL     1     -12.516 -28.992  11.748  1.00  0.00     0.012 A 
ATOM      9  C   UNL     1     -10.263 -29.711  11.112  1.00  0.00     0.001 A 
ATOM     10  C   UNL     1     -11.369 -29.773  11.989  1.00  0.00     0.001 A 
BRANCH   3  11
ATOM     11  O   UNL     1     -10.984 -26.856   7.706  1.00  0.00    -0.480 OA
ATOM     12  H   UNL     1     -11.216 -26.045   7.148  1.00  0.00     0.297 HD
ENDBRANCH   3  11
ENDBRANCH   1   2
BRANCH   1  13
ATOM     13  C   UNL     1     -15.898 -27.733   9.836  1.00  0.00     0.008 C 
BRANCH  13  14
ATOM     14  C   UNL     1     -16.189 -29.159  10.326  1.00  0.00    -0.003 C 
ATOM     15  C   UNL     1     -16.211 -29.265  11.850  1.00  0.00     0.004 C 
ENDBRANCH  13  14
ENDBRANCH   1  13
TORSDOF 4
ENDMDL
MODEL 5
REMARK VINA RESULT:    -5.789      1.997      4.925
REMARK INTER + INTRA:          -7.499
REMARK INTER:                  -7.217
REMARK INTRA:                  -0.282
REMARK UNBOUND:                -0.526
REMARK SMILES CCCCc1oc(O)c2ccccc12
REMARK SMILES IDX 4 1 5 2 7 3 6 4 9 5 14 6 10 7 13 8 11 9 12 10 8 11 3 13 2 14
REMARK SMILES IDX 1 15
REMARK H PARENT 8 12
REMARK Flexibility Score: inf
ROOT
ATOM      1  C   UNL     1     -13.397 -27.143  10.353  1.00  0.00     0.076 C 
ENDROOT
BRANCH   1   2
ATOM      2  C   UNL     1     -13.521 -27.839  11.673  1.00  0.00     0.116 A 
ATOM      3  C   UNL     1     -12.951 -28.802  13.502  1.00  0.00     0.290 A 
ATOM      4  O   UNL     1     -12.494 -28.191  12.426  1.00  0.00    -0.430 OA
ATOM      5  C   UNL     1     -14.325 -28.860  13.456  1.00  0.00     0.066 A 
ATOM      6  C   UNL     1     -14.692 -28.248  12.289  1.00  0.00     0.027 A 
ATOM      7  C   UNL     1     -15.261 -29.401  14.335  1.00  0.00     0.016 A 
ATOM      8  C   UNL     1     -16.030 -28.134  11.910  1.00  0.00     0.012 A 
ATOM      9  C   UNL     1     -16.619 -29.300  13.982  1.00  0.00     0.001 A 
ATOM     10  C   UNL     1     -17.003 -28.670  12.776  1.00  0.00     0.001 A 
BRANCH   3  11
ATOM     11  O   UNL     1     -12.149 -29.309  14.518  1.00  0.00    -0.480 OA
ATOM     12  H   UNL     1     -11.145 -29.187  14.487  1.00  0.00     0.297 HD
ENDBRANCH   3  11
ENDBRANCH   1   2
BRANCH   1  13
ATOM     13  C   UNL     1     -13.573 -28.143   9.203  1.00  0.00     0.008 C 
BRANCH  13  14
ATOM     14  C   UNL     1     -12.521 -27.961   8.098  1.00  0.00    -0.003 C 
ATOM     15  C   UNL     1     -11.155 -27.553   8.646  1.00  0.00     0.004 C 
ENDBRANCH  13  14
ENDBRANCH   1  13
TORSDOF 4
ENDMDL
MODEL 6
REMARK VINA RESULT:    -5.707      2.052      2.887
REMARK INTER + INTRA:          -7.401
REMARK INTER:                  -7.078
REMARK INTRA:                  -0.323
REMARK UNBOUND:                -0.526
REMARK SMILES CCCCc1oc(O)c2ccccc12
REMARK SMILES IDX 4 1 5 2 7 3 6 4 9 5 14 6 10 7 13 8 11 9 12 10 8 11 3 13 2 14
REMARK SMILES IDX 1 15
REMARK H PARENT 8 12
REMARK Flexibility Score: inf
ROOT
ATOM      1  C   UNL     1     -15.683 -27.381  12.630  1.00  0.00     0.076 C 
ENDROOT
BRANCH   1   2
ATOM      2  C   UNL     1     -14.350 -28.056  12.728  1.00  0.00     0.116 A 
ATOM      3  C   UNL     1     -12.687 -29.112  13.573  1.00  0.00     0.290 A 
ATOM      4  O   UNL     1     -13.895 -28.644  13.821  1.00  0.00    -0.430 OA
ATOM      5  C   UNL     1     -12.331 -28.821  12.276  1.00  0.00     0.066 A 
ATOM      6  C   UNL     1     -13.390 -28.145  11.734  1.00  0.00     0.027 A 
ATOM      7  C   UNL     1     -11.174 -29.089  11.548  1.00  0.00     0.016 A 
ATOM      8  C   UNL     1     -13.369 -27.682  10.418  1.00  0.00     0.012 A 
ATOM      9  C   UNL     1     -11.123 -28.637  10.217  1.00  0.00     0.001 A 
ATOM     10  C   UNL     1     -12.214 -27.936   9.654  1.00  0.00     0.001 A 
BRANCH   3  11
ATOM     11  O   UNL     1     -11.903 -29.792  14.498  1.00  0.00    -0.480 OA
ATOM     12  H   UNL     1     -11.093 -30.318  14.195  1.00  0.00     0.297 HD
ENDBRANCH   3  11
ENDBRANCH   1   2
BRANCH   1  13
ATOM     13  C   UNL     1     -16.722 -28.333  12.023  1.00  0.00     0.008 C 
BRANCH  13  14
ATOM     14  C   UNL     1     -17.869 -28.650  12.993  1.00  0.00    -0.003 C 
ATOM     15  C   UNL     1     -17.452 -29.611  14.105  1.00  0.00     0.004 C 
ENDBRANCH  13  14
ENDBRANCH   1  13
TORSDOF 4
ENDMDL
MODEL 7
REMARK VINA RESULT:    -5.653      1.211      1.705
REMARK INTER + INTRA:          -7.336
REMARK INTER:                  -7.096
REMARK INTRA:                  -0.239
REMARK UNBOUND:                -0.526
REMARK SMILES CCCCc1oc(O)c2ccccc12
REMARK SMILES IDX 4 1 5 2 7 3 6 4 9 5 14 6 10 7 13 8 11 9 12 10 8 11 3 13 2 14
REMARK SMILES IDX 1 15
REMARK H PARENT 8 12
REMARK Flexibility Score: inf
ROOT
ATOM      1  C   UNL     1     -14.498 -27.833  12.975  1.00  0.00     0.076 C 
ENDROOT
BRANCH   1   2
ATOM      2  C   UNL     1     -14.063 -27.469  11.589  1.00  0.00     0.116 A 
ATOM      3  C   UNL     1     -14.128 -26.644   9.611  1.00  0.00     0.290 A 
ATOM      4  O   UNL     1     -14.792 -26.760  10.746  1.00  0.00    -0.430 OA
ATOM      5  C   UNL     1     -12.924 -27.303   9.707  1.00  0.00     0.066 A 
ATOM      6  C   UNL     1     -12.880 -27.833  10.968  1.00  0.00     0.027 A 
ATOM      7  C   UNL     1     -11.886 -27.478   8.795  1.00  0.00     0.016 A 
ATOM      8  C   UNL     1     -11.791 -28.584  11.411  1.00  0.00     0.012 A 
ATOM      9  C   UNL     1     -10.772 -28.230   9.211  1.00  0.00     0.001 A 
ATOM     10  C   UNL     1     -10.724 -28.780  10.512  1.00  0.00     0.001 A 
BRANCH   3  11
ATOM     11  O   UNL     1     -14.594 -25.960   8.495  1.00  0.00    -0.480 OA
ATOM     12  H   UNL     1     -15.229 -25.180   8.601  1.00  0.00     0.297 HD
ENDBRANCH   3  11
ENDBRANCH   1   2
BRANCH   1  13
ATOM     13  C   UNL     1     -15.106 -29.241  12.993  1.00  0.00     0.008 C 
BRANCH  13  14
ATOM     14  C   UNL     1     -16.002 -29.481  14.217  1.00  0.00    -0.003 C 
ATOM     15  C   UNL     1     -17.490 -29.483  13.868  1.00  0.00     0.004 C 
ENDBRANCH  13  14
ENDBRANCH   1  13
TORSDOF 4
ENDMDL
MODEL 8
REMARK VINA RESULT:    -5.600      9.852     11.304
REMARK INTER + INTRA:          -7.271
REMARK INTER:                  -6.913
REMARK INTRA:                  -0.358
REMARK UNBOUND:                -0.526
REMARK SMILES CCCCc1oc(O)c2ccccc12
REMARK SMILES IDX 4 1 5 2 7 3 6 4 9 5 14 6 10 7 13 8 11 9 12 10 8 11 3 13 2 14
REMARK SMILES IDX 1 15
REMARK H PARENT 8 12
REMARK Flexibility Score: inf
ROOT
ATOM      1  C   UNL     1      -6.202 -20.701  14.148  1.00  0.00     0.076 C 
ENDROOT
BRANCH   1   2
ATOM      2  C   UNL     1      -7.614 -20.351  13.793  1.00  0.00     0.116 A 
ATOM      3  C   UNL     1      -9.368 -20.026  12.604  1.00  0.00     0.290 A 
ATOM      4  O   UNL     1      -8.112 -20.429  12.571  1.00  0.00    -0.430 OA
ATOM      5  C   UNL     1      -9.709 -19.667  13.887  1.00  0.00     0.066 A 
ATOM      6  C   UNL     1      -8.591 -19.871  14.649  1.00  0.00     0.027 A 
ATOM      7  C   UNL     1     -10.895 -19.179  14.430  1.00  0.00     0.016 A 
ATOM      8  C   UNL     1      -8.575 -19.597  16.017  1.00  0.00     0.012 A 
ATOM      9  C   UNL     1     -10.912 -18.895  15.808  1.00  0.00     0.001 A 
ATOM     10  C   UNL     1      -9.758 -19.102  16.598  1.00  0.00     0.001 A 
BRANCH   3  11
ATOM     11  O   UNL     1     -10.205 -19.975  11.495  1.00  0.00    -0.480 OA
ATOM     12  H   UNL     1     -11.202 -19.851  11.612  1.00  0.00     0.297 HD
ENDBRANCH   3  11
ENDBRANCH   1   2
BRANCH   1  13
ATOM     13  C   UNL     1      -5.219 -19.828  13.358  1.00  0.00     0.008 C 
BRANCH  13  14
ATOM     14  C   UNL     1      -5.503 -18.328  13.517  1.00  0.00    -0.003 C 
ATOM     15  C   UNL     1      -4.367 -17.453  12.989  1.00  0.00     0.004 C 
ENDBRANCH  13  14
ENDBRANCH   1  13
TORSDOF 4
ENDMDL
MODEL 9
REMARK VINA RESULT:    -5.586      2.189      3.186
REMARK INTER + INTRA:          -7.255
REMARK INTER:                  -6.754
REMARK INTRA:                  -0.500
REMARK UNBOUND:                -0.526
REMARK SMILES CCCCc1oc(O)c2ccccc12
REMARK SMILES IDX 4 1 5 2 7 3 6 4 9 5 14 6 10 7 13 8 11 9 12 10 8 11 3 13 2 14
REMARK SMILES IDX 1 15
REMARK H PARENT 8 12
REMARK Flexibility Score: inf
ROOT
ATOM      1  C   UNL     1     -14.086 -30.108  12.388  1.00  0.00     0.076 C 
ENDROOT
BRANCH   1   2
ATOM      2  C   UNL     1     -12.771 -29.736  11.775  1.00  0.00     0.116 A 
ATOM      3  C   UNL     1     -10.651 -29.539  11.528  1.00  0.00     0.290 A 
ATOM      4  O   UNL     1     -11.597 -30.032  12.304  1.00  0.00    -0.430 OA
ATOM      5  C   UNL     1     -11.218 -28.893  10.455  1.00  0.00     0.066 A 
ATOM      6  C   UNL     1     -12.573 -29.015  10.610  1.00  0.00     0.027 A 
ATOM      7  C   UNL     1     -10.656 -28.214   9.376  1.00  0.00     0.016 A 
ATOM      8  C   UNL     1     -13.469 -28.461   9.696  1.00  0.00     0.012 A 
ATOM      9  C   UNL     1     -11.534 -27.646   8.435  1.00  0.00     0.001 A 
ATOM     10  C   UNL     1     -12.933 -27.768   8.593  1.00  0.00     0.001 A 
BRANCH   3  11
ATOM     11  O   UNL     1      -9.288 -29.660  11.777  1.00  0.00    -0.480 OA
ATOM     12  H   UNL     1      -8.625 -29.066  11.296  1.00  0.00     0.297 HD
ENDBRANCH   3  11
ENDBRANCH   1   2
BRANCH   1  13
ATOM     13  C   UNL     1     -14.475 -29.098  13.474  1.00  0.00     0.008 C 
BRANCH  13  14
ATOM     14  C   UNL     1     -15.657 -28.211  13.059  1.00  0.00    -0.003 C 
ATOM     15  C   UNL     1     -15.243 -26.765  12.790  1.00  0.00     0.004 C 
ENDBRANCH  13  14
ENDBRANCH   1  13
TORSDOF 4
ENDMDL
