MODEL 1
REMARK VINA RESULT:    -6.338      0.000      0.000
REMARK INTER + INTRA:          -6.338
REMARK INTER:                  -6.338
REMARK INTRA:                   0.000
REMARK UNBOUND:                 0.000
REMARK SMILES CC1=CC[C@H]2[C@@H](C1)C2(C)C
REMARK SMILES IDX 1 1 2 2 3 3 4 4 5 5 6 6 7 7 8 8 9 9 10 10
REMARK H PARENT
REMARK Flexibility Score: inf
ROOT
ATOM      1  C   UNL     1      -5.373 -15.580   5.756  1.00  0.00     0.039 C 
ATOM      2  C   UNL     1      -4.382 -15.741   6.876  1.00  0.00    -0.077 C 
ATOM      3  C   UNL     1      -4.313 -16.910   7.534  1.00  0.00    -0.028 C 
ATOM      4  C   UNL     1      -3.345 -17.123   8.664  1.00  0.00     0.031 C 
ATOM      5  C   UNL     1      -1.991 -16.431   8.398  1.00  0.00     0.003 C 
ATOM      6  C   UNL     1      -2.059 -15.083   7.646  1.00  0.00     0.003 C 
ATOM      7  C   UNL     1      -3.474 -14.596   7.257  1.00  0.00     0.034 C 
ATOM      8  C   UNL     1      -1.627 -15.124   9.120  1.00  0.00    -0.029 C 
ATOM      9  C   UNL     1      -0.125 -14.919   9.351  1.00  0.00     0.012 C 
ATOM     10  C   UNL     1      -2.549 -14.559  10.218  1.00  0.00     0.012 C 
ENDROOT
TORSDOF 0
ENDMDL
MODEL 2
REMARK VINA RESULT:    -6.331      1.311      3.937
REMARK INTER + INTRA:          -6.331
REMARK INTER:                  -6.331
REMARK INTRA:                   0.000
REMARK UNBOUND:                 0.000
REMARK SMILES CC1=CC[C@H]2[C@@H](C1)C2(C)C
REMARK SMILES IDX 1 1 2 2 3 3 4 4 5 5 6 6 7 7 8 8 9 9 10 10
REMARK H PARENT
REMARK Flexibility Score: inf
ROOT
ATOM      1  C   UNL     1      -2.951 -16.851  11.036  1.00  0.00     0.039 C 
ATOM      2  C   UNL     1      -3.163 -16.170   9.710  1.00  0.00    -0.077 C 
ATOM      3  C   UNL     1      -2.106 -15.666   9.051  1.00  0.00    -0.028 C 
ATOM      4  C   UNL     1      -2.261 -14.972   7.727  1.00  0.00     0.031 C 
ATOM      5  C   UNL     1      -3.330 -15.651   6.845  1.00  0.00     0.003 C 
ATOM      6  C   UNL     1      -4.553 -16.229   7.593  1.00  0.00     0.003 C 
ATOM      7  C   UNL     1      -4.551 -16.054   9.128  1.00  0.00     0.034 C 
ATOM      8  C   UNL     1      -4.717 -15.012   6.669  1.00  0.00    -0.029 C 
ATOM      9  C   UNL     1      -5.395 -15.316   5.328  1.00  0.00     0.012 C 
ATOM     10  C   UNL     1      -5.014 -13.621   7.261  1.00  0.00     0.012 C 
ENDROOT
TORSDOF 0
ENDMDL
MODEL 3
REMARK VINA RESULT:    -6.328      1.485      3.708
REMARK INTER + INTRA:          -6.328
REMARK INTER:                  -6.328
REMARK INTRA:                   0.000
REMARK UNBOUND:                 0.000
REMARK SMILES CC1=CC[C@H]2[C@@H](C1)C2(C)C
REMARK SMILES IDX 1 1 2 2 3 3 4 4 5 5 6 6 7 7 8 8 9 9 10 10
REMARK H PARENT
REMARK Flexibility Score: inf
ROOT
ATOM      1  C   UNL     1      -1.629 -12.917  10.270  1.00  0.00     0.039 C 
ATOM      2  C   UNL     1      -2.387 -14.020   9.583  1.00  0.00    -0.077 C 
ATOM      3  C   UNL     1      -3.118 -13.738   8.492  1.00  0.00    -0.028 C 
ATOM      4  C   UNL     1      -3.899 -14.801   7.771  1.00  0.00     0.031 C 
ATOM      5  C   UNL     1      -3.140 -16.144   7.731  1.00  0.00     0.003 C 
ATOM      6  C   UNL     1      -2.300 -16.481   8.983  1.00  0.00     0.003 C 
ATOM      7  C   UNL     1      -2.327 -15.432  10.118  1.00  0.00     0.034 C 
ATOM      8  C   UNL     1      -3.555 -17.303   8.652  1.00  0.00    -0.029 C 
ATOM      9  C   UNL     1      -3.272 -18.700   8.087  1.00  0.00     0.012 C 
ATOM     10  C   UNL     1      -4.817 -17.185   9.529  1.00  0.00     0.012 C 
ENDROOT
TORSDOF 0
ENDMDL
MODEL 4
REMARK VINA RESULT:    -6.298      1.500      4.218
REMARK INTER + INTRA:          -6.298
REMARK INTER:                  -6.298
REMARK INTRA:                   0.000
REMARK UNBOUND:                 0.000
REMARK SMILES CC1=CC[C@H]2[C@@H](C1)C2(C)C
REMARK SMILES IDX 1 1 2 2 3 3 4 4 5 5 6 6 7 7 8 8 9 9 10 10
REMARK H PARENT
REMARK Flexibility Score: inf
ROOT
ATOM      1  C   UNL     1      -2.384 -14.231  12.488  1.00  0.00     0.039 C 
ATOM      2  C   UNL     1      -2.579 -14.905  11.157  1.00  0.00    -0.077 C 
ATOM      3  C   UNL     1      -2.011 -14.376  10.060  1.00  0.00    -0.028 C 
ATOM      4  C   UNL     1      -2.178 -15.004   8.705  1.00  0.00     0.031 C 
ATOM      5  C   UNL     1      -2.163 -16.545   8.781  1.00  0.00     0.003 C 
ATOM      6  C   UNL     1      -2.820 -17.164  10.036  1.00  0.00     0.003 C 
ATOM      7  C   UNL     1      -3.408 -16.163  11.055  1.00  0.00     0.034 C 
ATOM      8  C   UNL     1      -3.470 -17.345   8.656  1.00  0.00    -0.029 C 
ATOM      9  C   UNL     1      -3.306 -18.745   8.052  1.00  0.00     0.012 C 
ATOM     10  C   UNL     1      -4.792 -16.628   8.318  1.00  0.00     0.012 C 
ENDROOT
TORSDOF 0
ENDMDL
MODEL 5
REMARK VINA RESULT:    -6.099      1.425      3.124
REMARK INTER + INTRA:          -6.099
REMARK INTER:                  -6.099
REMARK INTRA:                   0.000
REMARK UNBOUND:                 0.000
REMARK SMILES CC1=CC[C@H]2[C@@H](C1)C2(C)C
REMARK SMILES IDX 1 1 2 2 3 3 4 4 5 5 6 6 7 7 8 8 9 9 10 10
REMARK H PARENT
REMARK Flexibility Score: inf
ROOT
ATOM      1  C   UNL     1      -5.007 -13.912   6.533  1.00  0.00     0.039 C 
ATOM      2  C   UNL     1      -4.283 -14.983   7.302  1.00  0.00    -0.077 C 
ATOM      3  C   UNL     1      -3.001 -14.790   7.656  1.00  0.00    -0.028 C 
ATOM      4  C   UNL     1      -2.230 -15.830   8.420  1.00  0.00     0.031 C 
ATOM      5  C   UNL     1      -3.108 -16.539   9.472  1.00  0.00     0.003 C 
ATOM      6  C   UNL     1      -4.583 -16.771   9.072  1.00  0.00     0.003 C 
ATOM      7  C   UNL     1      -4.992 -16.265   7.671  1.00  0.00     0.034 C 
ATOM      8  C   UNL     1      -3.626 -17.964   9.222  1.00  0.00    -0.029 C 
ATOM      9  C   UNL     1      -3.840 -18.797  10.492  1.00  0.00     0.012 C 
ATOM     10  C   UNL     1      -3.166 -18.754   7.981  1.00  0.00     0.012 C 
ENDROOT
TORSDOF 0
ENDMDL
MODEL 6
REMARK VINA RESULT:    -6.048      1.809      4.143
REMARK INTER + INTRA:          -6.048
REMARK INTER:                  -6.048
REMARK INTRA:                   0.000
REMARK UNBOUND:                 0.000
REMARK SMILES CC1=CC[C@H]2[C@@H](C1)C2(C)C
REMARK SMILES IDX 1 1 2 2 3 3 4 4 5 5 6 6 7 7 8 8 9 9 10 10
REMARK H PARENT
REMARK Flexibility Score: inf
ROOT
ATOM      1  C   UNL     1      -2.674 -15.243  12.511  1.00  0.00     0.039 C 
ATOM      2  C   UNL     1      -3.331 -15.796  11.275  1.00  0.00    -0.077 C 
ATOM      3  C   UNL     1      -4.600 -16.233  11.342  1.00  0.00    -0.028 C 
ATOM      4  C   UNL     1      -5.302 -16.799  10.139  1.00  0.00     0.031 C 
ATOM      5  C   UNL     1      -4.928 -16.043   8.847  1.00  0.00     0.003 C 
ATOM      6  C   UNL     1      -3.469 -15.541   8.758  1.00  0.00     0.003 C 
ATOM      7  C   UNL     1      -2.568 -15.860   9.973  1.00  0.00     0.034 C 
ATOM      8  C   UNL     1      -3.956 -16.666   7.832  1.00  0.00    -0.029 C 
ATOM      9  C   UNL     1      -4.191 -16.239   6.378  1.00  0.00     0.012 C 
ATOM     10  C   UNL     1      -3.448 -18.108   8.025  1.00  0.00     0.012 C 
ENDROOT
TORSDOF 0
ENDMDL
MODEL 7
REMARK VINA RESULT:    -5.895      1.919      2.732
REMARK INTER + INTRA:          -5.895
REMARK INTER:                  -5.895
REMARK INTRA:                   0.000
REMARK UNBOUND:                 0.000
REMARK SMILES CC1=CC[C@H]2[C@@H](C1)C2(C)C
REMARK SMILES IDX 1 1 2 2 3 3 4 4 5 5 6 6 7 7 8 8 9 9 10 10
REMARK H PARENT
REMARK Flexibility Score: inf
ROOT
ATOM      1  C   UNL     1      -2.911 -19.123   7.626  1.00  0.00     0.039 C 
ATOM      2  C   UNL     1      -3.199 -17.816   8.313  1.00  0.00    -0.077 C 
ATOM      3  C   UNL     1      -4.474 -17.434   8.498  1.00  0.00    -0.028 C 
ATOM      4  C   UNL     1      -4.818 -16.136   9.173  1.00  0.00     0.031 C 
ATOM      5  C   UNL     1      -3.857 -15.823  10.339  1.00  0.00     0.003 C 
ATOM      6  C   UNL     1      -2.386 -16.254  10.135  1.00  0.00     0.003 C 
ATOM      7  C   UNL     1      -2.064 -16.941   8.789  1.00  0.00     0.034 C 
ATOM      8  C   UNL     1      -2.755 -14.763  10.180  1.00  0.00    -0.029 C 
ATOM      9  C   UNL     1      -2.365 -14.048  11.480  1.00  0.00     0.012 C 
ATOM     10  C   UNL     1      -2.681 -13.903   8.903  1.00  0.00     0.012 C 
ENDROOT
TORSDOF 0
ENDMDL
MODEL 8
REMARK VINA RESULT:    -5.853      1.533      1.867
REMARK INTER + INTRA:          -5.853
REMARK INTER:                  -5.853
REMARK INTRA:                   0.000
REMARK UNBOUND:                 0.000
REMARK SMILES CC1=CC[C@H]2[C@@H](C1)C2(C)C
REMARK SMILES IDX 1 1 2 2 3 3 4 4 5 5 6 6 7 7 8 8 9 9 10 10
REMARK H PARENT
REMARK Flexibility Score: inf
ROOT
ATOM      1  C   UNL     1      -4.999 -15.377   5.750  1.00  0.00     0.039 C 
ATOM      2  C   UNL     1      -4.532 -15.934   7.068  1.00  0.00    -0.077 C 
ATOM      3  C   UNL     1      -4.188 -17.230   7.152  1.00  0.00    -0.028 C 
ATOM      4  C   UNL     1      -3.719 -17.839   8.444  1.00  0.00     0.031 C 
ATOM      5  C   UNL     1      -2.834 -16.865   9.250  1.00  0.00     0.003 C 
ATOM      6  C   UNL     1      -3.225 -15.372   9.164  1.00  0.00     0.003 C 
ATOM      7  C   UNL     1      -4.452 -15.043   8.284  1.00  0.00     0.034 C 
ATOM      8  C   UNL     1      -3.395 -16.141  10.484  1.00  0.00    -0.029 C 
ATOM      9  C   UNL     1      -2.352 -15.806  11.556  1.00  0.00     0.012 C 
ATOM     10  C   UNL     1      -4.803 -16.479  11.012  1.00  0.00     0.012 C 
ENDROOT
TORSDOF 0
ENDMDL
MODEL 9
REMARK VINA RESULT:    -5.744      1.022      3.963
REMARK INTER + INTRA:          -5.744
REMARK INTER:                  -5.744
REMARK INTRA:                   0.000
REMARK UNBOUND:                 0.000
REMARK SMILES CC1=CC[C@H]2[C@@H](C1)C2(C)C
REMARK SMILES IDX 1 1 2 2 3 3 4 4 5 5 6 6 7 7 8 8 9 9 10 10
REMARK H PARENT
REMARK Flexibility Score: inf
ROOT
ATOM      1  C   UNL     1       0.291 -14.604   9.417  1.00  0.00     0.039 C 
ATOM      2  C   UNL     1      -1.096 -15.147   9.209  1.00  0.00    -0.077 C 
ATOM      3  C   UNL     1      -1.944 -15.207  10.250  1.00  0.00    -0.028 C 
ATOM      4  C   UNL     1      -3.340 -15.745  10.100  1.00  0.00     0.031 C 
ATOM      5  C   UNL     1      -3.971 -15.336   8.753  1.00  0.00     0.003 C 
ATOM      6  C   UNL     1      -3.006 -15.270   7.548  1.00  0.00     0.003 C 
ATOM      7  C   UNL     1      -1.531 -15.623   7.843  1.00  0.00     0.034 C 
ATOM      8  C   UNL     1      -4.094 -16.353   7.607  1.00  0.00    -0.029 C 
ATOM      9  C   UNL     1      -5.282 -16.116   6.667  1.00  0.00     0.012 C 
ATOM     10  C   UNL     1      -3.712 -17.829   7.833  1.00  0.00     0.012 C 
ENDROOT
TORSDOF 0
ENDMDL
