MODEL 1
REMARK VINA RESULT:    -3.400      0.000      0.000
REMARK INTER + INTRA:         -13.173
REMARK INTER:                  -8.568
REMARK INTRA:                  -4.604
REMARK UNBOUND:                -4.604
REMARK SMILES CCCCCCCCCCCCCCCCCCCCCCCCCCCC(=O)[O-]
REMARK SMILES IDX 15 1 16 2 17 3 18 4 19 5 20 6 21 7 22 8 23 9 24 10 25 11
REMARK SMILES IDX 26 12 27 13 28 14 29 15 30 16 14 17 13 18 12 19 11 20 10 21
REMARK SMILES IDX 9 22 8 23 7 24 6 25 5 26 4 27 3 28 2 29 1 30
REMARK H PARENT
REMARK Flexibility Score: inf
ROOT
ATOM      1  C   UNL     1      30.612  31.864  53.277  1.00  0.00     0.000 C 
ENDROOT
BRANCH   1   2
ATOM      2  C   UNL     1      31.928  31.853  54.080  1.00  0.00     0.000 C 
BRANCH   2   3
ATOM      3  C   UNL     1      31.846  31.172  55.459  1.00  0.00     0.000 C 
BRANCH   3   4
ATOM      4  C   UNL     1      31.430  32.142  56.577  1.00  0.00     0.000 C 
BRANCH   4   5
ATOM      5  C   UNL     1      29.967  31.951  57.008  1.00  0.00     0.000 C 
BRANCH   5   6
ATOM      6  C   UNL     1      29.438  30.546  56.667  1.00  0.00     0.000 C 
BRANCH   6   7
ATOM      7  C   UNL     1      28.001  30.561  56.122  1.00  0.00     0.000 C 
BRANCH   7   8
ATOM      8  C   UNL     1      27.094  29.459  56.712  1.00  0.00     0.000 C 
BRANCH   8   9
ATOM      9  C   UNL     1      25.737  29.960  57.248  1.00  0.00     0.000 C 
BRANCH   9  10
ATOM     10  C   UNL     1      24.487  29.327  56.601  1.00  0.00     0.000 C 
BRANCH  10  11
ATOM     11  C   UNL     1      23.298  30.297  56.428  1.00  0.00     0.000 C 
BRANCH  11  12
ATOM     12  C   UNL     1      22.445  30.402  57.701  1.00  0.00     0.006 C 
BRANCH  12  13
ATOM     13  C   UNL     1      21.007  29.939  57.447  1.00  0.00     0.053 C 
BRANCH  13  14
ATOM     14  C   UNL     1      20.591  28.939  58.478  1.00  0.00     0.041 C 
ATOM     15  O   UNL     1      21.365  28.649  59.429  1.00  0.00    -0.550 OA
ATOM     16  O   UNL     1      19.322  28.373  58.428  1.00  0.00    -0.550 OA
ENDBRANCH  13  14
ENDBRANCH  12  13
ENDBRANCH  11  12
ENDBRANCH  10  11
ENDBRANCH   9  10
ENDBRANCH   8   9
ENDBRANCH   7   8
ENDBRANCH   6   7
ENDBRANCH   5   6
ENDBRANCH   4   5
ENDBRANCH   3   4
ENDBRANCH   2   3
ENDBRANCH   1   2
BRANCH   1  17
ATOM     17  C   UNL     1      30.127  33.251  52.806  1.00  0.00     0.000 C 
BRANCH  17  18
ATOM     18  C   UNL     1      29.308  34.024  53.861  1.00  0.00     0.000 C 
BRANCH  18  19
ATOM     19  C   UNL     1      27.936  33.388  54.141  1.00  0.00     0.000 C 
BRANCH  19  20
ATOM     20  C   UNL     1      26.765  34.314  53.768  1.00  0.00     0.000 C 
BRANCH  20  21
ATOM     21  C   UNL     1      25.476  33.556  53.385  1.00  0.00     0.000 C 
BRANCH  21  22
ATOM     22  C   UNL     1      25.379  32.182  54.066  1.00  0.00    -0.000 C 
BRANCH  22  23
ATOM     23  C   UNL     1      24.980  31.095  53.057  1.00  0.00    -0.000 C 
BRANCH  23  24
ATOM     24  C   UNL     1      25.962  29.910  53.033  1.00  0.00    -0.000 C 
BRANCH  24  25
ATOM     25  C   UNL     1      27.350  30.232  52.449  1.00  0.00    -0.000 C 
BRANCH  25  26
ATOM     26  C   UNL     1      27.305  30.558  50.949  1.00  0.00    -0.000 C 
BRANCH  26  27
ATOM     27  C   UNL     1      27.795  31.987  50.684  1.00  0.00    -0.000 C 
BRANCH  27  28
ATOM     28  C   UNL     1      27.696  32.336  49.191  1.00  0.00    -0.000 C 
BRANCH  28  29
ATOM     29  C   UNL     1      26.577  33.351  48.901  1.00  0.00    -0.003 C 
ATOM     30  C   UNL     1      25.402  33.224  49.870  1.00  0.00     0.004 C 
ENDBRANCH  28  29
ENDBRANCH  27  28
ENDBRANCH  26  27
ENDBRANCH  25  26
ENDBRANCH  24  25
ENDBRANCH  23  24
ENDBRANCH  22  23
ENDBRANCH  21  22
ENDBRANCH  20  21
ENDBRANCH  19  20
ENDBRANCH  18  19
ENDBRANCH  17  18
ENDBRANCH   1  17
TORSDOF 26
ENDMDL
MODEL 2
REMARK VINA RESULT:    -3.384      1.441      3.248
REMARK INTER + INTRA:         -13.131
REMARK INTER:                  -7.937
REMARK INTRA:                  -5.195
REMARK UNBOUND:                -4.604
REMARK SMILES CCCCCCCCCCCCCCCCCCCCCCCCCCCC(=O)[O-]
REMARK SMILES IDX 15 1 16 2 17 3 18 4 19 5 20 6 21 7 22 8 23 9 24 10 25 11
REMARK SMILES IDX 26 12 27 13 28 14 29 15 30 16 14 17 13 18 12 19 11 20 10 21
REMARK SMILES IDX 9 22 8 23 7 24 6 25 5 26 4 27 3 28 2 29 1 30
REMARK H PARENT
REMARK Flexibility Score: inf
ROOT
ATOM      1  C   UNL     1      28.024  33.399  54.128  1.00  0.00     0.000 C 
ENDROOT
BRANCH   1   2
ATOM      2  C   UNL     1      29.413  33.828  53.615  1.00  0.00     0.000 C 
BRANCH   2   3
ATOM      3  C   UNL     1      30.606  33.173  54.338  1.00  0.00     0.000 C 
BRANCH   3   4
ATOM      4  C   UNL     1      30.487  33.246  55.868  1.00  0.00     0.000 C 
BRANCH   4   5
ATOM      5  C   UNL     1      31.053  31.997  56.563  1.00  0.00     0.000 C 
BRANCH   5   6
ATOM      6  C   UNL     1      30.063  30.818  56.542  1.00  0.00     0.000 C 
BRANCH   6   7
ATOM      7  C   UNL     1      28.638  31.222  56.955  1.00  0.00     0.000 C 
BRANCH   7   8
ATOM      8  C   UNL     1      27.982  30.257  57.966  1.00  0.00     0.000 C 
BRANCH   8   9
ATOM      9  C   UNL     1      26.513  29.899  57.655  1.00  0.00     0.000 C 
BRANCH   9  10
ATOM     10  C   UNL     1      26.157  29.775  56.159  1.00  0.00     0.000 C 
BRANCH  10  11
ATOM     11  C   UNL     1      24.649  29.607  55.875  1.00  0.00     0.000 C 
BRANCH  11  12
ATOM     12  C   UNL     1      23.779  30.144  57.022  1.00  0.00     0.006 C 
BRANCH  12  13
ATOM     13  C   UNL     1      22.289  30.029  56.689  1.00  0.00     0.053 C 
BRANCH  13  14
ATOM     14  C   UNL     1      21.468  30.107  57.938  1.00  0.00     0.041 C 
ATOM     15  O   UNL     1      20.539  29.280  58.139  1.00  0.00    -0.550 OA
ATOM     16  O   UNL     1      21.769  31.052  58.913  1.00  0.00    -0.550 OA
ENDBRANCH  13  14
ENDBRANCH  12  13
ENDBRANCH  11  12
ENDBRANCH  10  11
ENDBRANCH   9  10
ENDBRANCH   8   9
ENDBRANCH   7   8
ENDBRANCH   6   7
ENDBRANCH   5   6
ENDBRANCH   4   5
ENDBRANCH   3   4
ENDBRANCH   2   3
ENDBRANCH   1   2
BRANCH   1  17
ATOM     17  C   UNL     1      26.878  34.401  53.873  1.00  0.00     0.000 C 
BRANCH  17  18
ATOM     18  C   UNL     1      25.626  33.776  53.224  1.00  0.00     0.000 C 
BRANCH  18  19
ATOM     19  C   UNL     1      25.484  32.273  53.516  1.00  0.00     0.000 C 
BRANCH  19  20
ATOM     20  C   UNL     1      25.207  31.445  52.249  1.00  0.00     0.000 C 
BRANCH  20  21
ATOM     21  C   UNL     1      25.657  32.138  50.946  1.00  0.00     0.000 C 
BRANCH  21  22
ATOM     22  C   UNL     1      27.051  31.679  50.488  1.00  0.00    -0.000 C 
BRANCH  22  23
ATOM     23  C   UNL     1      28.015  32.870  50.384  1.00  0.00    -0.000 C 
BRANCH  23  24
ATOM     24  C   UNL     1      29.484  32.440  50.226  1.00  0.00    -0.000 C 
BRANCH  24  25
ATOM     25  C   UNL     1      29.686  31.038  49.623  1.00  0.00    -0.000 C 
BRANCH  25  26
ATOM     26  C   UNL     1      30.644  30.166  50.448  1.00  0.00    -0.000 C 
BRANCH  26  27
ATOM     27  C   UNL     1      30.719  30.656  51.899  1.00  0.00    -0.000 C 
BRANCH  27  28
ATOM     28  C   UNL     1      30.097  29.632  52.861  1.00  0.00    -0.000 C 
BRANCH  28  29
ATOM     29  C   UNL     1      28.639  29.969  53.213  1.00  0.00    -0.003 C 
ATOM     30  C   UNL     1      27.694  28.785  53.004  1.00  0.00     0.004 C 
ENDBRANCH  28  29
ENDBRANCH  27  28
ENDBRANCH  26  27
ENDBRANCH  25  26
ENDBRANCH  24  25
ENDBRANCH  23  24
ENDBRANCH  22  23
ENDBRANCH  21  22
ENDBRANCH  20  21
ENDBRANCH  19  20
ENDBRANCH  18  19
ENDBRANCH  17  18
ENDBRANCH   1  17
TORSDOF 26
ENDMDL
MODEL 3
REMARK VINA RESULT:    -3.308      2.707      6.453
REMARK INTER + INTRA:         -12.940
REMARK INTER:                  -8.377
REMARK INTRA:                  -4.563
REMARK UNBOUND:                -4.604
REMARK SMILES CCCCCCCCCCCCCCCCCCCCCCCCCCCC(=O)[O-]
REMARK SMILES IDX 15 1 16 2 17 3 18 4 19 5 20 6 21 7 22 8 23 9 24 10 25 11
REMARK SMILES IDX 26 12 27 13 28 14 29 15 30 16 14 17 13 18 12 19 11 20 10 21
REMARK SMILES IDX 9 22 8 23 7 24 6 25 5 26 4 27 3 28 2 29 1 30
REMARK H PARENT
REMARK Flexibility Score: inf
ROOT
ATOM      1  C   UNL     1      24.140  29.274  55.897  1.00  0.00     0.000 C 
ENDROOT
BRANCH   1   2
ATOM      2  C   UNL     1      23.024  30.270  56.271  1.00  0.00     0.000 C 
BRANCH   2   3
ATOM      3  C   UNL     1      22.746  30.400  57.781  1.00  0.00     0.000 C 
BRANCH   3   4
ATOM      4  C   UNL     1      21.246  30.493  58.103  1.00  0.00     0.000 C 
BRANCH   4   5
ATOM      5  C   UNL     1      20.788  29.409  59.092  1.00  0.00     0.000 C 
BRANCH   5   6
ATOM      6  C   UNL     1      21.540  28.081  58.890  1.00  0.00     0.000 C 
BRANCH   6   7
ATOM      7  C   UNL     1      20.779  27.089  57.995  1.00  0.00     0.000 C 
BRANCH   7   8
ATOM      8  C   UNL     1      21.268  27.064  56.530  1.00  0.00     0.000 C 
BRANCH   8   9
ATOM      9  C   UNL     1      20.178  27.372  55.482  1.00  0.00     0.000 C 
BRANCH   9  10
ATOM     10  C   UNL     1      19.162  28.465  55.875  1.00  0.00     0.000 C 
BRANCH  10  11
ATOM     11  C   UNL     1      19.210  29.728  54.988  1.00  0.00     0.000 C 
BRANCH  11  12
ATOM     12  C   UNL     1      17.915  29.924  54.186  1.00  0.00     0.006 C 
BRANCH  12  13
ATOM     13  C   UNL     1      16.688  29.505  55.000  1.00  0.00     0.053 C 
BRANCH  13  14
ATOM     14  C   UNL     1      15.885  28.491  54.249  1.00  0.00     0.041 C 
ATOM     15  O   UNL     1      14.626  28.531  54.278  1.00  0.00    -0.550 OA
ATOM     16  O   UNL     1      16.524  27.539  53.462  1.00  0.00    -0.550 OA
ENDBRANCH  13  14
ENDBRANCH  12  13
ENDBRANCH  11  12
ENDBRANCH  10  11
ENDBRANCH   9  10
ENDBRANCH   8   9
ENDBRANCH   7   8
ENDBRANCH   6   7
ENDBRANCH   5   6
ENDBRANCH   4   5
ENDBRANCH   3   4
ENDBRANCH   2   3
ENDBRANCH   1   2
BRANCH   1  17
ATOM     17  C   UNL     1      24.867  28.607  57.085  1.00  0.00     0.000 C 
BRANCH  17  18
ATOM     18  C   UNL     1      26.287  29.153  57.342  1.00  0.00     0.000 C 
BRANCH  18  19
ATOM     19  C   UNL     1      26.760  30.134  56.256  1.00  0.00     0.000 C 
BRANCH  19  20
ATOM     20  C   UNL     1      27.793  29.510  55.301  1.00  0.00     0.000 C 
BRANCH  20  21
ATOM     21  C   UNL     1      28.791  30.532  54.717  1.00  0.00     0.000 C 
BRANCH  21  22
ATOM     22  C   UNL     1      28.633  31.928  55.341  1.00  0.00    -0.000 C 
BRANCH  22  23
ATOM     23  C   UNL     1      29.141  33.018  54.385  1.00  0.00    -0.000 C 
BRANCH  23  24
ATOM     24  C   UNL     1      28.074  34.081  54.068  1.00  0.00    -0.000 C 
BRANCH  24  25
ATOM     25  C   UNL     1      27.061  33.678  52.982  1.00  0.00    -0.000 C 
BRANCH  25  26
ATOM     26  C   UNL     1      25.624  33.579  53.514  1.00  0.00    -0.000 C 
BRANCH  26  27
ATOM     27  C   UNL     1      25.179  32.116  53.625  1.00  0.00    -0.000 C 
BRANCH  27  28
ATOM     28  C   UNL     1      25.871  31.246  52.565  1.00  0.00    -0.000 C 
BRANCH  28  29
ATOM     29  C   UNL     1      25.258  29.840  52.470  1.00  0.00    -0.003 C 
ATOM     30  C   UNL     1      23.996  29.807  51.608  1.00  0.00     0.004 C 
ENDBRANCH  28  29
ENDBRANCH  27  28
ENDBRANCH  26  27
ENDBRANCH  25  26
ENDBRANCH  24  25
ENDBRANCH  23  24
ENDBRANCH  22  23
ENDBRANCH  21  22
ENDBRANCH  20  21
ENDBRANCH  19  20
ENDBRANCH  18  19
ENDBRANCH  17  18
ENDBRANCH   1  17
TORSDOF 26
ENDMDL
MODEL 4
REMARK VINA RESULT:    -3.305     14.445     17.236
REMARK INTER + INTRA:         -12.934
REMARK INTER:                  -7.955
REMARK INTRA:                  -4.979
REMARK UNBOUND:                -4.604
REMARK SMILES CCCCCCCCCCCCCCCCCCCCCCCCCCCC(=O)[O-]
REMARK SMILES IDX 15 1 16 2 17 3 18 4 19 5 20 6 21 7 22 8 23 9 24 10 25 11
REMARK SMILES IDX 26 12 27 13 28 14 29 15 30 16 14 17 13 18 12 19 11 20 10 21
REMARK SMILES IDX 9 22 8 23 7 24 6 25 5 26 4 27 3 28 2 29 1 30
REMARK H PARENT
REMARK Flexibility Score: inf
ROOT
ATOM      1  C   UNL     1      21.953  19.826  45.233  1.00  0.00     0.000 C 
ENDROOT
BRANCH   1   2
ATOM      2  C   UNL     1      22.673  21.060  44.653  1.00  0.00     0.000 C 
BRANCH   2   3
ATOM      3  C   UNL     1      21.788  21.993  43.805  1.00  0.00     0.000 C 
BRANCH   3   4
ATOM      4  C   UNL     1      22.355  22.233  42.397  1.00  0.00     0.000 C 
BRANCH   4   5
ATOM      5  C   UNL     1      21.362  21.847  41.289  1.00  0.00     0.000 C 
BRANCH   5   6
ATOM      6  C   UNL     1      19.901  21.900  41.771  1.00  0.00     0.000 C 
BRANCH   6   7
ATOM      7  C   UNL     1      19.036  20.765  41.198  1.00  0.00     0.000 C 
BRANCH   7   8
ATOM      8  C   UNL     1      17.951  20.252  42.170  1.00  0.00     0.000 C 
BRANCH   8   9
ATOM      9  C   UNL     1      18.293  20.420  43.665  1.00  0.00     0.000 C 
BRANCH   9  10
ATOM     10  C   UNL     1      17.375  19.667  44.651  1.00  0.00     0.000 C 
BRANCH  10  11
ATOM     11  C   UNL     1      18.066  19.232  45.960  1.00  0.00     0.000 C 
BRANCH  11  12
ATOM     12  C   UNL     1      17.213  18.239  46.765  1.00  0.00     0.006 C 
BRANCH  12  13
ATOM     13  C   UNL     1      15.928  18.897  47.275  1.00  0.00     0.053 C 
BRANCH  13  14
ATOM     14  C   UNL     1      14.729  18.165  46.762  1.00  0.00     0.041 C 
ATOM     15  O   UNL     1      13.591  18.705  46.802  1.00  0.00    -0.550 OA
ATOM     16  O   UNL     1      14.873  16.911  46.178  1.00  0.00    -0.550 OA
ENDBRANCH  13  14
ENDBRANCH  12  13
ENDBRANCH  11  12
ENDBRANCH  10  11
ENDBRANCH   9  10
ENDBRANCH   8   9
ENDBRANCH   7   8
ENDBRANCH   6   7
ENDBRANCH   5   6
ENDBRANCH   4   5
ENDBRANCH   3   4
ENDBRANCH   2   3
ENDBRANCH   1   2
BRANCH   1  17
ATOM     17  C   UNL     1      21.435  18.806  44.196  1.00  0.00     0.000 C 
BRANCH  17  18
ATOM     18  C   UNL     1      22.252  17.499  44.135  1.00  0.00     0.000 C 
BRANCH  18  19
ATOM     19  C   UNL     1      22.827  17.214  42.737  1.00  0.00     0.000 C 
BRANCH  19  20
ATOM     20  C   UNL     1      22.490  18.317  41.719  1.00  0.00     0.000 C 
BRANCH  20  21
ATOM     21  C   UNL     1      23.728  18.903  41.009  1.00  0.00     0.000 C 
BRANCH  21  22
ATOM     22  C   UNL     1      24.684  19.608  41.985  1.00  0.00    -0.000 C 
BRANCH  22  23
ATOM     23  C   UNL     1      25.801  20.341  41.227  1.00  0.00    -0.000 C 
BRANCH  23  24
ATOM     24  C   UNL     1      26.778  21.075  42.162  1.00  0.00    -0.000 C 
BRANCH  24  25
ATOM     25  C   UNL     1      26.311  22.467  42.622  1.00  0.00    -0.000 C 
BRANCH  25  26
ATOM     26  C   UNL     1      26.068  22.545  44.136  1.00  0.00    -0.000 C 
BRANCH  26  27
ATOM     27  C   UNL     1      26.623  21.304  44.846  1.00  0.00    -0.000 C 
BRANCH  27  28
ATOM     28  C   UNL     1      26.074  21.193  46.276  1.00  0.00    -0.000 C 
BRANCH  28  29
ATOM     29  C   UNL     1      25.504  19.798  46.579  1.00  0.00    -0.003 C 
ATOM     30  C   UNL     1      25.605  18.849  45.384  1.00  0.00     0.004 C 
ENDBRANCH  28  29
ENDBRANCH  27  28
ENDBRANCH  26  27
ENDBRANCH  25  26
ENDBRANCH  24  25
ENDBRANCH  23  24
ENDBRANCH  22  23
ENDBRANCH  21  22
ENDBRANCH  20  21
ENDBRANCH  19  20
ENDBRANCH  18  19
ENDBRANCH  17  18
ENDBRANCH   1  17
TORSDOF 26
ENDMDL
MODEL 5
REMARK VINA RESULT:    -3.217      2.500      5.487
REMARK INTER + INTRA:         -12.711
REMARK INTER:                  -6.689
REMARK INTRA:                  -6.023
REMARK UNBOUND:                -4.604
REMARK SMILES CCCCCCCCCCCCCCCCCCCCCCCCCCCC(=O)[O-]
REMARK SMILES IDX 15 1 16 2 17 3 18 4 19 5 20 6 21 7 22 8 23 9 24 10 25 11
REMARK SMILES IDX 26 12 27 13 28 14 29 15 30 16 14 17 13 18 12 19 11 20 10 21
REMARK SMILES IDX 9 22 8 23 7 24 6 25 5 26 4 27 3 28 2 29 1 30
REMARK H PARENT
REMARK Flexibility Score: inf
ROOT
ATOM      1  C   UNL     1      25.746  32.842  52.066  1.00  0.00     0.000 C 
ENDROOT
BRANCH   1   2
ATOM      2  C   UNL     1      25.746  33.782  53.288  1.00  0.00     0.000 C 
BRANCH   2   3
ATOM      3  C   UNL     1      27.141  34.137  53.838  1.00  0.00     0.000 C 
BRANCH   3   4
ATOM      4  C   UNL     1      28.280  33.666  52.920  1.00  0.00     0.000 C 
BRANCH   4   5
ATOM      5  C   UNL     1      29.665  34.083  53.438  1.00  0.00     0.000 C 
BRANCH   5   6
ATOM      6  C   UNL     1      29.857  33.743  54.927  1.00  0.00     0.000 C 
BRANCH   6   7
ATOM      7  C   UNL     1      30.934  32.672  55.166  1.00  0.00     0.000 C 
BRANCH   7   8
ATOM      8  C   UNL     1      31.540  32.093  53.869  1.00  0.00     0.000 C 
BRANCH   8   9
ATOM      9  C   UNL     1      31.095  30.653  53.536  1.00  0.00     0.000 C 
BRANCH   9  10
ATOM     10  C   UNL     1      30.316  29.920  54.648  1.00  0.00     0.000 C 
BRANCH  10  11
ATOM     11  C   UNL     1      28.859  29.569  54.280  1.00  0.00     0.000 C 
BRANCH  11  12
ATOM     12  C   UNL     1      27.864  30.635  54.765  1.00  0.00     0.006 C 
BRANCH  12  13
ATOM     13  C   UNL     1      26.419  30.148  54.631  1.00  0.00     0.053 C 
BRANCH  13  14
ATOM     14  C   UNL     1      25.830  29.886  55.981  1.00  0.00     0.041 C 
ATOM     15  O   UNL     1      26.569  29.861  57.001  1.00  0.00    -0.550 OA
ATOM     16  O   UNL     1      24.455  29.734  56.125  1.00  0.00    -0.550 OA
ENDBRANCH  13  14
ENDBRANCH  12  13
ENDBRANCH  11  12
ENDBRANCH  10  11
ENDBRANCH   9  10
ENDBRANCH   8   9
ENDBRANCH   7   8
ENDBRANCH   6   7
ENDBRANCH   5   6
ENDBRANCH   4   5
ENDBRANCH   3   4
ENDBRANCH   2   3
ENDBRANCH   1   2
BRANCH   1  17
ATOM     17  C   UNL     1      25.280  33.473  50.737  1.00  0.00     0.000 C 
BRANCH  17  18
ATOM     18  C   UNL     1      26.287  33.321  49.579  1.00  0.00     0.000 C 
BRANCH  18  19
ATOM     19  C   UNL     1      25.782  32.393  48.461  1.00  0.00     0.000 C 
BRANCH  19  20
ATOM     20  C   UNL     1      26.714  32.374  47.237  1.00  0.00     0.000 C 
BRANCH  20  21
ATOM     21  C   UNL     1      27.950  33.286  47.387  1.00  0.00     0.000 C 
BRANCH  21  22
ATOM     22  C   UNL     1      29.262  32.489  47.457  1.00  0.00    -0.000 C 
BRANCH  22  23
ATOM     23  C   UNL     1      30.269  33.168  48.398  1.00  0.00    -0.000 C 
BRANCH  23  24
ATOM     24  C   UNL     1      30.161  32.670  49.850  1.00  0.00    -0.000 C 
BRANCH  24  25
ATOM     25  C   UNL     1      29.954  31.153  50.000  1.00  0.00    -0.000 C 
BRANCH  25  26
ATOM     26  C   UNL     1      28.739  30.800  50.870  1.00  0.00    -0.000 C 
BRANCH  26  27
ATOM     27  C   UNL     1      27.804  29.828  50.140  1.00  0.00    -0.000 C 
BRANCH  27  28
ATOM     28  C   UNL     1      26.675  29.349  51.065  1.00  0.00    -0.000 C 
BRANCH  28  29
ATOM     29  C   UNL     1      25.385  29.026  50.294  1.00  0.00    -0.003 C 
ATOM     30  C   UNL     1      24.182  29.822  50.801  1.00  0.00     0.004 C 
ENDBRANCH  28  29
ENDBRANCH  27  28
ENDBRANCH  26  27
ENDBRANCH  25  26
ENDBRANCH  24  25
ENDBRANCH  23  24
ENDBRANCH  22  23
ENDBRANCH  21  22
ENDBRANCH  20  21
ENDBRANCH  19  20
ENDBRANCH  18  19
ENDBRANCH  17  18
ENDBRANCH   1  17
TORSDOF 26
ENDMDL
MODEL 6
REMARK VINA RESULT:    -3.216      3.957      8.050
REMARK INTER + INTRA:         -12.708
REMARK INTER:                  -8.773
REMARK INTRA:                  -3.935
REMARK UNBOUND:                -4.604
REMARK SMILES CCCCCCCCCCCCCCCCCCCCCCCCCCCC(=O)[O-]
REMARK SMILES IDX 15 1 16 2 17 3 18 4 19 5 20 6 21 7 22 8 23 9 24 10 25 11
REMARK SMILES IDX 26 12 27 13 28 14 29 15 30 16 14 17 13 18 12 19 11 20 10 21
REMARK SMILES IDX 9 22 8 23 7 24 6 25 5 26 4 27 3 28 2 29 1 30
REMARK H PARENT
REMARK Flexibility Score: inf
ROOT
ATOM      1  C   UNL     1      24.726  30.599  53.918  1.00  0.00     0.000 C 
ENDROOT
BRANCH   1   2
ATOM      2  C   UNL     1      25.760  31.715  54.170  1.00  0.00     0.000 C 
BRANCH   2   3
ATOM      3  C   UNL     1      25.585  32.975  53.301  1.00  0.00     0.000 C 
BRANCH   3   4
ATOM      4  C   UNL     1      26.908  33.465  52.690  1.00  0.00     0.000 C 
BRANCH   4   5
ATOM      5  C   UNL     1      27.882  34.002  53.750  1.00  0.00     0.000 C 
BRANCH   5   6
ATOM      6  C   UNL     1      29.341  33.998  53.257  1.00  0.00     0.000 C 
BRANCH   6   7
ATOM      7  C   UNL     1      29.564  33.078  52.047  1.00  0.00     0.000 C 
BRANCH   7   8
ATOM      8  C   UNL     1      30.228  31.729  52.398  1.00  0.00     0.000 C 
BRANCH   8   9
ATOM      9  C   UNL     1      29.286  30.509  52.330  1.00  0.00     0.000 C 
BRANCH   9  10
ATOM     10  C   UNL     1      28.736  30.011  53.683  1.00  0.00     0.000 C 
BRANCH  10  11
ATOM     11  C   UNL     1      29.668  30.273  54.885  1.00  0.00     0.000 C 
BRANCH  11  12
ATOM     12  C   UNL     1      29.086  31.313  55.855  1.00  0.00     0.006 C 
BRANCH  12  13
ATOM     13  C   UNL     1      29.991  31.503  57.075  1.00  0.00     0.053 C 
BRANCH  13  14
ATOM     14  C   UNL     1      31.112  32.439  56.751  1.00  0.00     0.041 C 
ATOM     15  O   UNL     1      30.875  33.544  56.192  1.00  0.00    -0.550 OA
ATOM     16  O   UNL     1      32.415  32.124  57.123  1.00  0.00    -0.550 OA
ENDBRANCH  13  14
ENDBRANCH  12  13
ENDBRANCH  11  12
ENDBRANCH  10  11
ENDBRANCH   9  10
ENDBRANCH   8   9
ENDBRANCH   7   8
ENDBRANCH   6   7
ENDBRANCH   5   6
ENDBRANCH   4   5
ENDBRANCH   3   4
ENDBRANCH   2   3
ENDBRANCH   1   2
BRANCH   1  17
ATOM     17  C   UNL     1      25.013  29.253  54.615  1.00  0.00     0.000 C 
BRANCH  17  18
ATOM     18  C   UNL     1      25.829  29.378  55.918  1.00  0.00     0.000 C 
BRANCH  18  19
ATOM     19  C   UNL     1      24.990  29.875  57.107  1.00  0.00     0.000 C 
BRANCH  19  20
ATOM     20  C   UNL     1      23.594  29.231  57.160  1.00  0.00     0.000 C 
BRANCH  20  21
ATOM     21  C   UNL     1      22.449  30.250  57.338  1.00  0.00     0.000 C 
BRANCH  21  22
ATOM     22  C   UNL     1      21.377  30.124  56.244  1.00  0.00    -0.000 C 
BRANCH  22  23
ATOM     23  C   UNL     1      21.350  28.703  55.661  1.00  0.00    -0.000 C 
BRANCH  23  24
ATOM     24  C   UNL     1      21.014  28.678  54.159  1.00  0.00    -0.000 C 
BRANCH  24  25
ATOM     25  C   UNL     1      19.751  27.880  53.792  1.00  0.00    -0.000 C 
BRANCH  25  26
ATOM     26  C   UNL     1      18.665  28.750  53.141  1.00  0.00    -0.000 C 
BRANCH  26  27
ATOM     27  C   UNL     1      18.145  29.806  54.125  1.00  0.00    -0.000 C 
BRANCH  27  28
ATOM     28  C   UNL     1      17.386  29.150  55.288  1.00  0.00    -0.000 C 
BRANCH  28  29
ATOM     29  C   UNL     1      15.878  29.449  55.245  1.00  0.00    -0.003 C 
ATOM     30  C   UNL     1      15.088  28.380  54.489  1.00  0.00     0.004 C 
ENDBRANCH  28  29
ENDBRANCH  27  28
ENDBRANCH  26  27
ENDBRANCH  25  26
ENDBRANCH  24  25
ENDBRANCH  23  24
ENDBRANCH  22  23
ENDBRANCH  21  22
ENDBRANCH  20  21
ENDBRANCH  19  20
ENDBRANCH  18  19
ENDBRANCH  17  18
ENDBRANCH   1  17
TORSDOF 26
ENDMDL
MODEL 7
REMARK VINA RESULT:    -3.199      2.079      4.325
REMARK INTER + INTRA:         -12.667
REMARK INTER:                  -6.478
REMARK INTRA:                  -6.188
REMARK UNBOUND:                -4.604
REMARK SMILES CCCCCCCCCCCCCCCCCCCCCCCCCCCC(=O)[O-]
REMARK SMILES IDX 15 1 16 2 17 3 18 4 19 5 20 6 21 7 22 8 23 9 24 10 25 11
REMARK SMILES IDX 26 12 27 13 28 14 29 15 30 16 14 17 13 18 12 19 11 20 10 21
REMARK SMILES IDX 9 22 8 23 7 24 6 25 5 26 4 27 3 28 2 29 1 30
REMARK H PARENT
REMARK Flexibility Score: inf
ROOT
ATOM      1  C   UNL     1      31.010  26.810  54.438  1.00  0.00     0.000 C 
ENDROOT
BRANCH   1   2
ATOM      2  C   UNL     1      31.781  27.791  53.533  1.00  0.00     0.000 C 
BRANCH   2   3
ATOM      3  C   UNL     1      32.325  29.045  54.244  1.00  0.00     0.000 C 
BRANCH   3   4
ATOM      4  C   UNL     1      32.166  30.321  53.402  1.00  0.00     0.000 C 
BRANCH   4   5
ATOM      5  C   UNL     1      31.851  31.557  54.261  1.00  0.00     0.000 C 
BRANCH   5   6
ATOM      6  C   UNL     1      31.378  31.178  55.676  1.00  0.00     0.000 C 
BRANCH   6   7
ATOM      7  C   UNL     1      30.365  32.176  56.260  1.00  0.00     0.000 C 
BRANCH   7   8
ATOM      8  C   UNL     1      29.290  31.526  57.159  1.00  0.00     0.000 C 
BRANCH   8   9
ATOM      9  C   UNL     1      29.664  30.131  57.704  1.00  0.00     0.000 C 
BRANCH   9  10
ATOM     10  C   UNL     1      28.479  29.239  58.129  1.00  0.00     0.000 C 
BRANCH  10  11
ATOM     11  C   UNL     1      27.128  29.979  58.227  1.00  0.00     0.000 C 
BRANCH  11  12
ATOM     12  C   UNL     1      25.976  29.167  57.614  1.00  0.00     0.006 C 
BRANCH  12  13
ATOM     13  C   UNL     1      25.238  29.973  56.542  1.00  0.00     0.053 C 
BRANCH  13  14
ATOM     14  C   UNL     1      23.758  29.877  56.744  1.00  0.00     0.041 C 
ATOM     15  O   UNL     1      22.992  30.740  56.237  1.00  0.00    -0.550 OA
ATOM     16  O   UNL     1      23.217  28.800  57.437  1.00  0.00    -0.550 OA
ENDBRANCH  13  14
ENDBRANCH  12  13
ENDBRANCH  11  12
ENDBRANCH  10  11
ENDBRANCH   9  10
ENDBRANCH   8   9
ENDBRANCH   7   8
ENDBRANCH   6   7
ENDBRANCH   5   6
ENDBRANCH   4   5
ENDBRANCH   3   4
ENDBRANCH   2   3
ENDBRANCH   1   2
BRANCH   1  17
ATOM     17  C   UNL     1      29.852  27.423  55.255  1.00  0.00     0.000 C 
BRANCH  17  18
ATOM     18  C   UNL     1      28.511  27.487  54.496  1.00  0.00     0.000 C 
BRANCH  18  19
ATOM     19  C   UNL     1      27.883  28.891  54.501  1.00  0.00     0.000 C 
BRANCH  19  20
ATOM     20  C   UNL     1      28.620  29.875  53.575  1.00  0.00     0.000 C 
BRANCH  20  21
ATOM     21  C   UNL     1      28.718  29.392  52.113  1.00  0.00     0.000 C 
BRANCH  21  22
ATOM     22  C   UNL     1      28.454  30.522  51.104  1.00  0.00    -0.000 C 
BRANCH  22  23
ATOM     23  C   UNL     1      29.771  31.156  50.631  1.00  0.00    -0.000 C 
BRANCH  23  24
ATOM     24  C   UNL     1      30.014  32.551  51.233  1.00  0.00    -0.000 C 
BRANCH  24  25
ATOM     25  C   UNL     1      28.755  33.250  51.776  1.00  0.00    -0.000 C 
BRANCH  25  26
ATOM     26  C   UNL     1      28.852  33.575  53.273  1.00  0.00    -0.000 C 
BRANCH  26  27
ATOM     27  C   UNL     1      27.458  33.751  53.888  1.00  0.00    -0.000 C 
BRANCH  27  28
ATOM     28  C   UNL     1      26.365  33.258  52.928  1.00  0.00    -0.000 C 
BRANCH  28  29
ATOM     29  C   UNL     1      25.306  32.399  53.637  1.00  0.00    -0.003 C 
ATOM     30  C   UNL     1      25.099  31.044  52.961  1.00  0.00     0.004 C 
ENDBRANCH  28  29
ENDBRANCH  27  28
ENDBRANCH  26  27
ENDBRANCH  25  26
ENDBRANCH  24  25
ENDBRANCH  23  24
ENDBRANCH  22  23
ENDBRANCH  21  22
ENDBRANCH  20  21
ENDBRANCH  19  20
ENDBRANCH  18  19
ENDBRANCH  17  18
ENDBRANCH   1  17
TORSDOF 26
ENDMDL
MODEL 8
REMARK VINA RESULT:    -3.190      2.922      5.007
REMARK INTER + INTRA:         -12.644
REMARK INTER:                  -6.691
REMARK INTRA:                  -5.953
REMARK UNBOUND:                -4.604
REMARK SMILES CCCCCCCCCCCCCCCCCCCCCCCCCCCC(=O)[O-]
REMARK SMILES IDX 15 1 16 2 17 3 18 4 19 5 20 6 21 7 22 8 23 9 24 10 25 11
REMARK SMILES IDX 26 12 27 13 28 14 29 15 30 16 14 17 13 18 12 19 11 20 10 21
REMARK SMILES IDX 9 22 8 23 7 24 6 25 5 26 4 27 3 28 2 29 1 30
REMARK H PARENT
REMARK Flexibility Score: inf
ROOT
ATOM      1  C   UNL     1      30.996  30.246  49.127  1.00  0.00     0.000 C 
ENDROOT
BRANCH   1   2
ATOM      2  C   UNL     1      30.146  29.245  49.935  1.00  0.00     0.000 C 
BRANCH   2   3
ATOM      3  C   UNL     1      30.764  28.797  51.273  1.00  0.00     0.000 C 
BRANCH   3   4
ATOM      4  C   UNL     1      31.627  29.889  51.925  1.00  0.00     0.000 C 
BRANCH   4   5
ATOM      5  C   UNL     1      31.153  30.245  53.343  1.00  0.00     0.000 C 
BRANCH   5   6
ATOM      6  C   UNL     1      32.083  31.262  54.030  1.00  0.00     0.000 C 
BRANCH   6   7
ATOM      7  C   UNL     1      32.520  30.824  55.437  1.00  0.00     0.000 C 
BRANCH   7   8
ATOM      8  C   UNL     1      32.097  31.798  56.558  1.00  0.00     0.000 C 
BRANCH   8   9
ATOM      9  C   UNL     1      30.691  32.408  56.385  1.00  0.00     0.000 C 
BRANCH   9  10
ATOM     10  C   UNL     1      29.553  31.695  57.145  1.00  0.00     0.000 C 
BRANCH  10  11
ATOM     11  C   UNL     1      28.414  31.173  56.244  1.00  0.00     0.000 C 
BRANCH  11  12
ATOM     12  C   UNL     1      28.488  29.653  56.035  1.00  0.00     0.006 C 
BRANCH  12  13
ATOM     13  C   UNL     1      27.129  28.991  56.277  1.00  0.00     0.053 C 
BRANCH  13  14
ATOM     14  C   UNL     1      27.080  28.386  57.645  1.00  0.00     0.041 C 
ATOM     15  O   UNL     1      27.432  29.060  58.649  1.00  0.00    -0.550 OA
ATOM     16  O   UNL     1      26.585  27.098  57.820  1.00  0.00    -0.550 OA
ENDBRANCH  13  14
ENDBRANCH  12  13
ENDBRANCH  11  12
ENDBRANCH  10  11
ENDBRANCH   9  10
ENDBRANCH   8   9
ENDBRANCH   7   8
ENDBRANCH   6   7
ENDBRANCH   5   6
ENDBRANCH   4   5
ENDBRANCH   3   4
ENDBRANCH   2   3
ENDBRANCH   1   2
BRANCH   1  17
ATOM     17  C   UNL     1      30.331  31.611  48.843  1.00  0.00     0.000 C 
BRANCH  17  18
ATOM     18  C   UNL     1      28.881  31.724  49.355  1.00  0.00     0.000 C 
BRANCH  18  19
ATOM     19  C   UNL     1      28.726  32.729  50.508  1.00  0.00     0.000 C 
BRANCH  19  20
ATOM     20  C   UNL     1      30.077  33.257  51.022  1.00  0.00     0.000 C 
BRANCH  20  21
ATOM     21  C   UNL     1      30.027  33.771  52.476  1.00  0.00     0.000 C 
BRANCH  21  22
ATOM     22  C   UNL     1      28.862  33.164  53.273  1.00  0.00    -0.000 C 
BRANCH  22  23
ATOM     23  C   UNL     1      28.164  34.232  54.128  1.00  0.00    -0.000 C 
BRANCH  23  24
ATOM     24  C   UNL     1      26.667  34.378  53.801  1.00  0.00    -0.000 C 
BRANCH  24  25
ATOM     25  C   UNL     1      25.890  33.052  53.724  1.00  0.00    -0.000 C 
BRANCH  25  26
ATOM     26  C   UNL     1      25.231  32.826  52.356  1.00  0.00    -0.000 C 
BRANCH  26  27
ATOM     27  C   UNL     1      25.609  31.453  51.785  1.00  0.00    -0.000 C 
BRANCH  27  28
ATOM     28  C   UNL     1      26.123  30.518  52.891  1.00  0.00    -0.000 C 
BRANCH  28  29
ATOM     29  C   UNL     1      27.458  29.853  52.521  1.00  0.00    -0.003 C 
ATOM     30  C   UNL     1      27.367  28.327  52.493  1.00  0.00     0.004 C 
ENDBRANCH  28  29
ENDBRANCH  27  28
ENDBRANCH  26  27
ENDBRANCH  25  26
ENDBRANCH  24  25
ENDBRANCH  23  24
ENDBRANCH  22  23
ENDBRANCH  21  22
ENDBRANCH  20  21
ENDBRANCH  19  20
ENDBRANCH  18  19
ENDBRANCH  17  18
ENDBRANCH   1  17
TORSDOF 26
ENDMDL
MODEL 9
REMARK VINA RESULT:    -3.174      2.139      4.624
REMARK INTER + INTRA:         -12.603
REMARK INTER:                  -7.240
REMARK INTRA:                  -5.363
REMARK UNBOUND:                -4.604
REMARK SMILES CCCCCCCCCCCCCCCCCCCCCCCCCCCC(=O)[O-]
REMARK SMILES IDX 15 1 16 2 17 3 18 4 19 5 20 6 21 7 22 8 23 9 24 10 25 11
REMARK SMILES IDX 26 12 27 13 28 14 29 15 30 16 14 17 13 18 12 19 11 20 10 21
REMARK SMILES IDX 9 22 8 23 7 24 6 25 5 26 4 27 3 28 2 29 1 30
REMARK H PARENT
REMARK Flexibility Score: inf
ROOT
ATOM      1  C   UNL     1      28.314  30.880  55.731  1.00  0.00     0.000 C 
ENDROOT
BRANCH   1   2
ATOM      2  C   UNL     1      29.201  31.376  56.891  1.00  0.00     0.000 C 
BRANCH   2   3
ATOM      3  C   UNL     1      30.703  31.066  56.742  1.00  0.00     0.000 C 
BRANCH   3   4
ATOM      4  C   UNL     1      31.471  32.184  56.019  1.00  0.00     0.000 C 
BRANCH   4   5
ATOM      5  C   UNL     1      30.944  33.584  56.373  1.00  0.00     0.000 C 
BRANCH   5   6
ATOM      6  C   UNL     1      30.653  34.432  55.122  1.00  0.00     0.000 C 
BRANCH   6   7
ATOM      7  C   UNL     1      30.490  33.587  53.848  1.00  0.00     0.000 C 
BRANCH   7   8
ATOM      8  C   UNL     1      29.108  33.727  53.174  1.00  0.00     0.000 C 
BRANCH   8   9
ATOM      9  C   UNL     1      27.991  34.258  54.098  1.00  0.00     0.000 C 
BRANCH   9  10
ATOM     10  C   UNL     1      26.548  34.035  53.600  1.00  0.00     0.000 C 
BRANCH  10  11
ATOM     11  C   UNL     1      26.215  32.570  53.245  1.00  0.00     0.000 C 
BRANCH  11  12
ATOM     12  C   UNL     1      24.982  32.055  54.003  1.00  0.00     0.006 C 
BRANCH  12  13
ATOM     13  C   UNL     1      25.029  30.534  54.170  1.00  0.00     0.053 C 
BRANCH  13  14
ATOM     14  C   UNL     1      24.270  30.120  55.392  1.00  0.00     0.041 C 
ATOM     15  O   UNL     1      24.806  30.202  56.529  1.00  0.00    -0.550 OA
ATOM     16  O   UNL     1      22.947  29.705  55.284  1.00  0.00    -0.550 OA
ENDBRANCH  13  14
ENDBRANCH  12  13
ENDBRANCH  11  12
ENDBRANCH  10  11
ENDBRANCH   9  10
ENDBRANCH   8   9
ENDBRANCH   7   8
ENDBRANCH   6   7
ENDBRANCH   5   6
ENDBRANCH   4   5
ENDBRANCH   3   4
ENDBRANCH   2   3
ENDBRANCH   1   2
BRANCH   1  17
ATOM     17  C   UNL     1      28.887  29.709  54.905  1.00  0.00     0.000 C 
BRANCH  17  18
ATOM     18  C   UNL     1      29.402  30.114  53.509  1.00  0.00     0.000 C 
BRANCH  18  19
ATOM     19  C   UNL     1      28.341  29.958  52.407  1.00  0.00     0.000 C 
BRANCH  19  20
ATOM     20  C   UNL     1      28.937  30.046  50.991  1.00  0.00     0.000 C 
BRANCH  20  21
ATOM     21  C   UNL     1      30.078  31.077  50.863  1.00  0.00     0.000 C 
BRANCH  21  22
ATOM     22  C   UNL     1      30.340  31.484  49.404  1.00  0.00    -0.000 C 
BRANCH  22  23
ATOM     23  C   UNL     1      29.436  30.698  48.443  1.00  0.00    -0.000 C 
BRANCH  23  24
ATOM     24  C   UNL     1      28.980  31.531  47.232  1.00  0.00    -0.000 C 
BRANCH  24  25
ATOM     25  C   UNL     1      28.630  32.995  47.549  1.00  0.00    -0.000 C 
BRANCH  25  26
ATOM     26  C   UNL     1      27.160  33.183  47.954  1.00  0.00    -0.000 C 
BRANCH  26  27
ATOM     27  C   UNL     1      27.013  33.228  49.480  1.00  0.00    -0.000 C 
BRANCH  27  28
ATOM     28  C   UNL     1      25.535  33.166  49.894  1.00  0.00    -0.000 C 
BRANCH  28  29
ATOM     29  C   UNL     1      24.829  31.909  49.360  1.00  0.00    -0.003 C 
ATOM     30  C   UNL     1      25.240  30.641  50.108  1.00  0.00     0.004 C 
ENDBRANCH  28  29
ENDBRANCH  27  28
ENDBRANCH  26  27
ENDBRANCH  25  26
ENDBRANCH  24  25
ENDBRANCH  23  24
ENDBRANCH  22  23
ENDBRANCH  21  22
ENDBRANCH  20  21
ENDBRANCH  19  20
ENDBRANCH  18  19
ENDBRANCH  17  18
ENDBRANCH   1  17
TORSDOF 26
ENDMDL
