MODEL 1
REMARK VINA RESULT:    -5.926      0.000      0.000
REMARK INTER + INTRA:          -6.099
REMARK INTER:                  -6.099
REMARK INTRA:                   0.000
REMARK UNBOUND:                 0.000
REMARK SMILES C=C1[C@H](O)C[C@]23C[C@H]1C(C)(C)[C@H]2CC[C@H]3C
REMARK SMILES IDX 16 1 15 2 14 3 13 4 12 5 6 6 7 7 8 8 9 9 10 10 11 11 2 12
REMARK SMILES IDX 1 13 3 14 5 15 4 16
REMARK H PARENT 4 17
REMARK Flexibility Score: inf
ROOT
ATOM      1  C   UNL     1     111.625 116.510 128.087  1.00  0.00     0.008 C 
ATOM      2  C   UNL     1     112.659 116.375 126.956  1.00  0.00    -0.008 C 
ATOM      3  C   UNL     1     114.084 116.608 127.473  1.00  0.00     0.004 C 
ATOM      4  C   UNL     1     114.453 118.015 127.041  1.00  0.00     0.005 C 
ATOM      5  C   UNL     1     113.772 118.195 125.679  1.00  0.00     0.002 C 
ATOM      6  C   UNL     1     112.477 117.360 125.754  1.00  0.00    -0.020 C 
ATOM      7  C   UNL     1     111.367 118.415 125.876  1.00  0.00     0.016 C 
ATOM      8  C   UNL     1     111.840 119.475 124.892  1.00  0.00     0.023 C 
ATOM      9  C   UNL     1     113.350 119.644 125.245  1.00  0.00    -0.025 C 
ATOM     10  C   UNL     1     114.207 120.133 124.049  1.00  0.00     0.012 C 
ATOM     11  C   UNL     1     113.491 120.717 126.358  1.00  0.00     0.012 C 
ATOM     12  C   UNL     1     111.631 118.921 123.488  1.00  0.00    -0.045 C 
ATOM     13  C   UNL     1     111.252 119.744 122.497  1.00  0.00     0.011 C 
ATOM     14  C   UNL     1     112.016 117.472 123.174  1.00  0.00     0.140 C 
ATOM     15  C   UNL     1     112.227 116.575 124.432  1.00  0.00     0.044 C 
ENDROOT
BRANCH  14  16
ATOM     16  O   UNL     1     111.070 116.879 122.320  1.00  0.00    -0.389 OA
ATOM     17  H   UNL     1     111.541 116.178 121.795  1.00  0.00     0.211 HD
ENDBRANCH  14  16
TORSDOF 1
ENDMDL
MODEL 2
REMARK VINA RESULT:    -5.688      2.219      3.847
REMARK INTER + INTRA:          -5.854
REMARK INTER:                  -5.854
REMARK INTRA:                   0.000
REMARK UNBOUND:                 0.000
REMARK SMILES C=C1[C@H](O)C[C@]23C[C@H]1C(C)(C)[C@H]2CC[C@H]3C
REMARK SMILES IDX 16 1 15 2 14 3 13 4 12 5 6 6 7 7 8 8 9 9 10 10 11 11 2 12
REMARK SMILES IDX 1 13 3 14 5 15 4 16
REMARK H PARENT 4 17
REMARK Flexibility Score: inf
ROOT
ATOM      1  C   UNL     1     114.417 117.274 130.258  1.00  0.00     0.008 C 
ATOM      2  C   UNL     1     113.128 117.829 129.628  1.00  0.00    -0.008 C 
ATOM      3  C   UNL     1     112.009 116.781 129.636  1.00  0.00     0.004 C 
ATOM      4  C   UNL     1     111.941 116.240 128.221  1.00  0.00     0.005 C 
ATOM      5  C   UNL     1     112.265 117.444 127.328  1.00  0.00     0.002 C 
ATOM      6  C   UNL     1     113.254 118.304 128.143  1.00  0.00    -0.020 C 
ATOM      7  C   UNL     1     114.602 118.072 127.445  1.00  0.00     0.016 C 
ATOM      8  C   UNL     1     114.199 118.097 125.978  1.00  0.00     0.023 C 
ATOM      9  C   UNL     1     112.940 117.177 125.936  1.00  0.00    -0.025 C 
ATOM     10  C   UNL     1     111.970 117.521 124.777  1.00  0.00     0.012 C 
ATOM     11  C   UNL     1     113.395 115.710 125.711  1.00  0.00     0.012 C 
ATOM     12  C   UNL     1     113.874 119.542 125.619  1.00  0.00    -0.045 C 
ATOM     13  C   UNL     1     114.191 120.014 124.402  1.00  0.00     0.011 C 
ATOM     14  C   UNL     1     113.037 120.397 126.575  1.00  0.00     0.140 C 
ATOM     15  C   UNL     1     112.925 119.822 128.021  1.00  0.00     0.044 C 
ENDROOT
BRANCH  14  16
ATOM     16  O   UNL     1     113.527 121.714 126.625  1.00  0.00    -0.389 OA
ATOM     17  H   UNL     1     112.860 122.261 127.119  1.00  0.00     0.211 HD
ENDBRANCH  14  16
TORSDOF 1
ENDMDL
MODEL 3
REMARK VINA RESULT:    -5.595      1.692      2.479
REMARK INTER + INTRA:          -5.759
REMARK INTER:                  -5.759
REMARK INTRA:                   0.000
REMARK UNBOUND:                 0.000
REMARK SMILES C=C1[C@H](O)C[C@]23C[C@H]1C(C)(C)[C@H]2CC[C@H]3C
REMARK SMILES IDX 16 1 15 2 14 3 13 4 12 5 6 6 7 7 8 8 9 9 10 10 11 11 2 12
REMARK SMILES IDX 1 13 3 14 5 15 4 16
REMARK H PARENT 4 17
REMARK Flexibility Score: inf
ROOT
ATOM      1  C   UNL     1     113.115 115.982 129.279  1.00  0.00     0.008 C 
ATOM      2  C   UNL     1     114.045 116.830 128.395  1.00  0.00    -0.008 C 
ATOM      3  C   UNL     1     114.182 118.257 128.939  1.00  0.00     0.004 C 
ATOM      4  C   UNL     1     113.294 119.119 128.062  1.00  0.00     0.005 C 
ATOM      5  C   UNL     1     113.406 118.497 126.665  1.00  0.00     0.002 C 
ATOM      6  C   UNL     1     113.601 116.985 126.903  1.00  0.00    -0.020 C 
ATOM      7  C   UNL     1     112.248 116.375 126.508  1.00  0.00     0.016 C 
ATOM      8  C   UNL     1     111.902 117.173 125.260  1.00  0.00     0.023 C 
ATOM      9  C   UNL     1     112.188 118.646 125.686  1.00  0.00    -0.025 C 
ATOM     10  C   UNL     1     112.548 119.569 124.493  1.00  0.00     0.012 C 
ATOM     11  C   UNL     1     110.909 119.242 126.333  1.00  0.00     0.012 C 
ATOM     12  C   UNL     1     112.827 116.702 124.145  1.00  0.00    -0.045 C 
ATOM     13  C   UNL     1     112.367 116.623 122.886  1.00  0.00     0.011 C 
ATOM     14  C   UNL     1     114.316 116.484 124.429  1.00  0.00     0.140 C 
ATOM     15  C   UNL     1     114.675 116.391 125.944  1.00  0.00     0.044 C 
ENDROOT
BRANCH  14  16
ATOM     16  O   UNL     1     114.790 115.343 123.757  1.00  0.00    -0.389 OA
ATOM     17  H   UNL     1     115.649 115.590 123.322  1.00  0.00     0.211 HD
ENDBRANCH  14  16
TORSDOF 1
ENDMDL
MODEL 4
REMARK VINA RESULT:    -5.570     13.420     15.163
REMARK INTER + INTRA:          -5.733
REMARK INTER:                  -5.733
REMARK INTRA:                   0.000
REMARK UNBOUND:                 0.000
REMARK SMILES C=C1[C@H](O)C[C@]23C[C@H]1C(C)(C)[C@H]2CC[C@H]3C
REMARK SMILES IDX 16 1 15 2 14 3 13 4 12 5 6 6 7 7 8 8 9 9 10 10 11 11 2 12
REMARK SMILES IDX 1 13 3 14 5 15 4 16
REMARK H PARENT 4 17
REMARK Flexibility Score: inf
ROOT
ATOM      1  C   UNL     1     121.122 117.133 117.519  1.00  0.00     0.008 C 
ATOM      2  C   UNL     1     121.924 116.966 116.217  1.00  0.00    -0.008 C 
ATOM      3  C   UNL     1     121.955 115.500 115.767  1.00  0.00     0.004 C 
ATOM      4  C   UNL     1     123.326 114.981 116.156  1.00  0.00     0.005 C 
ATOM      5  C   UNL     1     124.267 116.176 115.957  1.00  0.00     0.002 C 
ATOM      6  C   UNL     1     123.418 117.423 116.282  1.00  0.00    -0.020 C 
ATOM      7  C   UNL     1     123.951 117.883 117.647  1.00  0.00     0.016 C 
ATOM      8  C   UNL     1     125.450 117.687 117.475  1.00  0.00     0.023 C 
ATOM      9  C   UNL     1     125.556 116.263 116.849  1.00  0.00    -0.025 C 
ATOM     10  C   UNL     1     126.833 116.065 115.992  1.00  0.00     0.012 C 
ATOM     11  C   UNL     1     125.623 115.213 117.991  1.00  0.00     0.012 C 
ATOM     12  C   UNL     1     125.948 118.775 116.531  1.00  0.00    -0.045 C 
ATOM     13  C   UNL     1     127.155 119.327 116.729  1.00  0.00     0.011 C 
ATOM     14  C   UNL     1     125.150 119.113 115.268  1.00  0.00     0.140 C 
ATOM     15  C   UNL     1     123.687 118.575 115.268  1.00  0.00     0.044 C 
ENDROOT
BRANCH  14  16
ATOM     16  O   UNL     1     125.148 120.500 115.036  1.00  0.00    -0.389 OA
ATOM     17  H   UNL     1     125.366 120.945 115.897  1.00  0.00     0.211 HD
ENDBRANCH  14  16
TORSDOF 1
ENDMDL
MODEL 5
REMARK VINA RESULT:    -5.537      2.334      4.410
REMARK INTER + INTRA:          -5.699
REMARK INTER:                  -5.699
REMARK INTRA:                   0.000
REMARK UNBOUND:                 0.000
REMARK SMILES C=C1[C@H](O)C[C@]23C[C@H]1C(C)(C)[C@H]2CC[C@H]3C
REMARK SMILES IDX 16 1 15 2 14 3 13 4 12 5 6 6 7 7 8 8 9 9 10 10 11 11 2 12
REMARK SMILES IDX 1 13 3 14 5 15 4 16
REMARK H PARENT 4 17
REMARK Flexibility Score: inf
ROOT
ATOM      1  C   UNL     1     113.541 115.286 124.061  1.00  0.00     0.008 C 
ATOM      2  C   UNL     1     112.436 115.973 124.881  1.00  0.00    -0.008 C 
ATOM      3  C   UNL     1     111.719 117.050 124.057  1.00  0.00     0.004 C 
ATOM      4  C   UNL     1     112.282 118.375 124.534  1.00  0.00     0.005 C 
ATOM      5  C   UNL     1     112.534 118.174 126.034  1.00  0.00     0.002 C 
ATOM      6  C   UNL     1     112.911 116.686 126.190  1.00  0.00    -0.020 C 
ATOM      7  C   UNL     1     114.423 116.718 126.460  1.00  0.00     0.016 C 
ATOM      8  C   UNL     1     114.542 117.904 127.406  1.00  0.00     0.023 C 
ATOM      9  C   UNL     1     113.682 119.004 126.712  1.00  0.00    -0.025 C 
ATOM     10  C   UNL     1     113.098 120.041 127.706  1.00  0.00     0.012 C 
ATOM     11  C   UNL     1     114.577 119.796 125.722  1.00  0.00     0.012 C 
ATOM     12  C   UNL     1     113.965 117.477 128.750  1.00  0.00    -0.045 C 
ATOM     13  C   UNL     1     114.525 117.920 129.887  1.00  0.00     0.011 C 
ATOM     14  C   UNL     1     112.653 116.687 128.801  1.00  0.00     0.140 C 
ATOM     15  C   UNL     1     112.231 116.054 127.440  1.00  0.00     0.044 C 
ENDROOT
BRANCH  14  16
ATOM     16  O   UNL     1     112.709 115.692 129.793  1.00  0.00    -0.389 OA
ATOM     17  H   UNL     1     112.570 114.817 129.343  1.00  0.00     0.211 HD
ENDBRANCH  14  16
TORSDOF 1
ENDMDL
MODEL 6
REMARK VINA RESULT:    -5.490      2.403      4.624
REMARK INTER + INTRA:          -5.650
REMARK INTER:                  -5.650
REMARK INTRA:                   0.000
REMARK UNBOUND:                 0.000
REMARK SMILES C=C1[C@H](O)C[C@]23C[C@H]1C(C)(C)[C@H]2CC[C@H]3C
REMARK SMILES IDX 16 1 15 2 14 3 13 4 12 5 6 6 7 7 8 8 9 9 10 10 11 11 2 12
REMARK SMILES IDX 1 13 3 14 5 15 4 16
REMARK H PARENT 4 17
REMARK Flexibility Score: inf
ROOT
ATOM      1  C   UNL     1     114.192 122.074 127.720  1.00  0.00     0.008 C 
ATOM      2  C   UNL     1     114.793 120.794 127.115  1.00  0.00    -0.008 C 
ATOM      3  C   UNL     1     115.004 120.940 125.603  1.00  0.00     0.004 C 
ATOM      4  C   UNL     1     113.862 120.180 124.954  1.00  0.00     0.005 C 
ATOM      5  C   UNL     1     113.611 118.986 125.884  1.00  0.00     0.002 C 
ATOM      6  C   UNL     1     113.942 119.495 127.303  1.00  0.00    -0.020 C 
ATOM      7  C   UNL     1     112.566 119.650 127.967  1.00  0.00     0.016 C 
ATOM      8  C   UNL     1     111.844 118.404 127.474  1.00  0.00     0.023 C 
ATOM      9  C   UNL     1     112.161 118.386 125.947  1.00  0.00    -0.025 C 
ATOM     10  C   UNL     1     112.126 116.963 125.332  1.00  0.00     0.012 C 
ATOM     11  C   UNL     1     111.085 119.218 125.198  1.00  0.00     0.012 C 
ATOM     12  C   UNL     1     112.443 117.209 128.206  1.00  0.00    -0.045 C 
ATOM     13  C   UNL     1     111.654 116.185 128.566  1.00  0.00     0.011 C 
ATOM     14  C   UNL     1     113.962 117.101 128.375  1.00  0.00     0.140 C 
ATOM     15  C   UNL     1     114.734 118.431 128.119  1.00  0.00     0.044 C 
ENDROOT
BRANCH  14  16
ATOM     16  O   UNL     1     114.287 116.598 129.647  1.00  0.00    -0.389 OA
ATOM     17  H   UNL     1     115.278 116.574 129.712  1.00  0.00     0.211 HD
ENDBRANCH  14  16
TORSDOF 1
ENDMDL
MODEL 7
REMARK VINA RESULT:    -5.429      2.447      4.097
REMARK INTER + INTRA:          -5.588
REMARK INTER:                  -5.588
REMARK INTRA:                   0.000
REMARK UNBOUND:                 0.000
REMARK SMILES C=C1[C@H](O)C[C@]23C[C@H]1C(C)(C)[C@H]2CC[C@H]3C
REMARK SMILES IDX 16 1 15 2 14 3 13 4 12 5 6 6 7 7 8 8 9 9 10 10 11 11 2 12
REMARK SMILES IDX 1 13 3 14 5 15 4 16
REMARK H PARENT 4 17
REMARK Flexibility Score: inf
ROOT
ATOM      1  C   UNL     1     115.339 115.611 124.427  1.00  0.00     0.008 C 
ATOM      2  C   UNL     1     114.129 115.561 125.376  1.00  0.00    -0.008 C 
ATOM      3  C   UNL     1     112.874 115.058 124.651  1.00  0.00     0.004 C 
ATOM      4  C   UNL     1     112.040 116.293 124.368  1.00  0.00     0.005 C 
ATOM      5  C   UNL     1     112.277 117.207 125.577  1.00  0.00     0.002 C 
ATOM      6  C   UNL     1     113.726 116.924 126.027  1.00  0.00    -0.020 C 
ATOM      7  C   UNL     1     114.500 118.172 125.577  1.00  0.00     0.016 C 
ATOM      8  C   UNL     1     113.523 119.284 125.927  1.00  0.00     0.023 C 
ATOM      9  C   UNL     1     112.165 118.759 125.367  1.00  0.00    -0.025 C 
ATOM     10  C   UNL     1     110.933 119.330 126.116  1.00  0.00     0.012 C 
ATOM     11  C   UNL     1     112.025 119.202 123.886  1.00  0.00     0.012 C 
ATOM     12  C   UNL     1     113.511 119.421 127.444  1.00  0.00    -0.045 C 
ATOM     13  C   UNL     1     113.387 120.635 128.003  1.00  0.00     0.011 C 
ATOM     14  C   UNL     1     113.467 118.167 128.323  1.00  0.00     0.140 C 
ATOM     15  C   UNL     1     113.835 116.847 127.579  1.00  0.00     0.044 C 
ENDROOT
BRANCH  14  16
ATOM     16  O   UNL     1     114.290 118.321 129.453  1.00  0.00    -0.389 OA
ATOM     17  H   UNL     1     115.148 117.859 129.261  1.00  0.00     0.211 HD
ENDBRANCH  14  16
TORSDOF 1
ENDMDL
MODEL 8
REMARK VINA RESULT:    -5.391      1.319      3.431
REMARK INTER + INTRA:          -5.549
REMARK INTER:                  -5.549
REMARK INTRA:                   0.000
REMARK UNBOUND:                 0.000
REMARK SMILES C=C1[C@H](O)C[C@]23C[C@H]1C(C)(C)[C@H]2CC[C@H]3C
REMARK SMILES IDX 16 1 15 2 14 3 13 4 12 5 6 6 7 7 8 8 9 9 10 10 11 11 2 12
REMARK SMILES IDX 1 13 3 14 5 15 4 16
REMARK H PARENT 4 17
REMARK Flexibility Score: inf
ROOT
ATOM      1  C   UNL     1     115.098 121.444 125.758  1.00  0.00     0.008 C 
ATOM      2  C   UNL     1     113.660 120.994 126.070  1.00  0.00    -0.008 C 
ATOM      3  C   UNL     1     113.500 120.628 127.551  1.00  0.00     0.004 C 
ATOM      4  C   UNL     1     113.512 119.113 127.603  1.00  0.00     0.005 C 
ATOM      5  C   UNL     1     112.805 118.672 126.315  1.00  0.00     0.002 C 
ATOM      6  C   UNL     1     113.153 119.751 125.268  1.00  0.00    -0.020 C 
ATOM      7  C   UNL     1     114.164 119.053 124.346  1.00  0.00     0.016 C 
ATOM      8  C   UNL     1     113.556 117.665 124.216  1.00  0.00     0.023 C 
ATOM      9  C   UNL     1     113.200 117.289 125.687  1.00  0.00    -0.025 C 
ATOM     10  C   UNL     1     112.028 116.280 125.794  1.00  0.00     0.012 C 
ATOM     11  C   UNL     1     114.430 116.608 126.345  1.00  0.00     0.012 C 
ATOM     12  C   UNL     1     112.319 117.789 123.333  1.00  0.00    -0.045 C 
ATOM     13  C   UNL     1     112.011 116.803 122.475  1.00  0.00     0.011 C 
ATOM     14  C   UNL     1     111.343 118.949 123.547  1.00  0.00     0.140 C 
ATOM     15  C   UNL     1     111.915 120.123 124.399  1.00  0.00     0.044 C 
ENDROOT
BRANCH  14  16
ATOM     16  O   UNL     1     110.875 119.440 122.315  1.00  0.00    -0.389 OA
ATOM     17  H   UNL     1     110.173 118.814 121.993  1.00  0.00     0.211 HD
ENDBRANCH  14  16
TORSDOF 1
ENDMDL
MODEL 9
REMARK VINA RESULT:    -5.327      2.582      4.861
REMARK INTER + INTRA:          -5.482
REMARK INTER:                  -5.482
REMARK INTRA:                   0.000
REMARK UNBOUND:                 0.000
REMARK SMILES C=C1[C@H](O)C[C@]23C[C@H]1C(C)(C)[C@H]2CC[C@H]3C
REMARK SMILES IDX 16 1 15 2 14 3 13 4 12 5 6 6 7 7 8 8 9 9 10 10 11 11 2 12
REMARK SMILES IDX 1 13 3 14 5 15 4 16
REMARK H PARENT 4 17
REMARK Flexibility Score: inf
ROOT
ATOM      1  C   UNL     1     110.887 119.332 125.010  1.00  0.00     0.008 C 
ATOM      2  C   UNL     1     112.202 119.669 125.733  1.00  0.00    -0.008 C 
ATOM      3  C   UNL     1     113.327 119.964 124.734  1.00  0.00     0.004 C 
ATOM      4  C   UNL     1     114.184 118.714 124.699  1.00  0.00     0.005 C 
ATOM      5  C   UNL     1     114.150 118.178 126.136  1.00  0.00     0.002 C 
ATOM      6  C   UNL     1     112.756 118.555 126.680  1.00  0.00    -0.020 C 
ATOM      7  C   UNL     1     111.999 117.218 126.706  1.00  0.00     0.016 C 
ATOM      8  C   UNL     1     113.071 116.267 127.219  1.00  0.00     0.023 C 
ATOM      9  C   UNL     1     114.317 116.632 126.356  1.00  0.00    -0.025 C 
ATOM     10  C   UNL     1     115.662 116.319 127.061  1.00  0.00     0.012 C 
ATOM     11  C   UNL     1     114.295 115.788 125.054  1.00  0.00     0.012 C 
ATOM     12  C   UNL     1     113.280 116.569 128.698  1.00  0.00    -0.045 C 
ATOM     13  C   UNL     1     113.538 115.567 129.553  1.00  0.00     0.011 C 
ATOM     14  C   UNL     1     113.366 118.022 129.176  1.00  0.00     0.140 C 
ATOM     15  C   UNL     1     112.838 119.069 128.148  1.00  0.00     0.044 C 
ENDROOT
BRANCH  14  16
ATOM     16  O   UNL     1     112.701 118.183 130.404  1.00  0.00    -0.389 OA
ATOM     17  H   UNL     1     112.574 117.278 130.794  1.00  0.00     0.211 HD
ENDBRANCH  14  16
TORSDOF 1
ENDMDL
