MODEL 1
REMARK VINA RESULT:    -4.632      0.000      0.000
REMARK INTER + INTRA:          -6.810
REMARK INTER:                  -6.527
REMARK INTRA:                  -0.283
REMARK UNBOUND:                -0.283
REMARK SMILES C=CCCCCCCC(=O)[O-]
REMARK SMILES IDX 6 1 7 2 8 3 9 4 10 5 11 6 5 7 4 8 3 9 2 10 1 11
REMARK H PARENT
REMARK Flexibility Score: inf
ROOT
ATOM      1  C   UNL     1      21.820 -10.643  22.620  1.00  0.00     0.000 C 
ENDROOT
BRANCH   1   2
ATOM      2  C   UNL     1      22.507 -11.770  21.826  1.00  0.00     0.006 C 
BRANCH   2   3
ATOM      3  C   UNL     1      21.537 -12.776  21.188  1.00  0.00     0.053 C 
BRANCH   3   4
ATOM      4  C   UNL     1      22.247 -13.986  20.661  1.00  0.00     0.041 C 
ATOM      5  O   UNL     1      23.164 -14.525  21.334  1.00  0.00    -0.550 OA
ATOM      6  O   UNL     1      21.871 -14.537  19.442  1.00  0.00    -0.550 OA
ENDBRANCH   3   4
ENDBRANCH   2   3
ENDBRANCH   1   2
BRANCH   1   7
ATOM      7  C   UNL     1      20.707 -11.159  23.543  1.00  0.00     0.000 C 
BRANCH   7   8
ATOM      8  C   UNL     1      20.480 -10.197  24.719  1.00  0.00     0.004 C 
BRANCH   8   9
ATOM      9  C   UNL     1      21.252  -8.883  24.549  1.00  0.00     0.027 C 
BRANCH   9  10
ATOM     10  C   UNL     1      20.816  -7.852  25.556  1.00  0.00    -0.035 C 
ATOM     11  C   UNL     1      19.657  -7.198  25.438  1.00  0.00     0.004 C 
ENDBRANCH   9  10
ENDBRANCH   8   9
ENDBRANCH   7   8
ENDBRANCH   1   7
TORSDOF 7
ENDMDL
MODEL 2
REMARK VINA RESULT:    -4.465      3.173      6.832
REMARK INTER + INTRA:          -6.575
REMARK INTER:                  -6.284
REMARK INTRA:                  -0.291
REMARK UNBOUND:                -0.283
REMARK SMILES C=CCCCCCCC(=O)[O-]
REMARK SMILES IDX 6 1 7 2 8 3 9 4 10 5 11 6 5 7 4 8 3 9 2 10 1 11
REMARK H PARENT
REMARK Flexibility Score: inf
ROOT
ATOM      1  C   UNL     1      20.967 -12.669  21.247  1.00  0.00     0.000 C 
ENDROOT
BRANCH   1   2
ATOM      2  C   UNL     1      22.169 -11.884  21.806  1.00  0.00     0.006 C 
BRANCH   2   3
ATOM      3  C   UNL     1      21.828 -10.960  22.985  1.00  0.00     0.053 C 
BRANCH   3   4
ATOM      4  C   UNL     1      22.269  -9.549  22.740  1.00  0.00     0.041 C 
ATOM      5  O   UNL     1      23.400  -9.318  22.238  1.00  0.00    -0.550 OA
ATOM      6  O   UNL     1      21.417  -8.492  23.035  1.00  0.00    -0.550 OA
ENDBRANCH   3   4
ENDBRANCH   2   3
ENDBRANCH   1   2
BRANCH   1   7
ATOM      7  C   UNL     1      21.367 -13.674  20.158  1.00  0.00     0.000 C 
BRANCH   7   8
ATOM      8  C   UNL     1      22.613 -14.468  20.575  1.00  0.00     0.004 C 
BRANCH   8   9
ATOM      9  C   UNL     1      22.957 -15.576  19.571  1.00  0.00     0.027 C 
BRANCH   9  10
ATOM     10  C   UNL     1      22.503 -15.221  18.180  1.00  0.00    -0.035 C 
ATOM     11  C   UNL     1      22.868 -15.940  17.114  1.00  0.00     0.004 C 
ENDBRANCH   9  10
ENDBRANCH   8   9
ENDBRANCH   7   8
ENDBRANCH   1   7
TORSDOF 7
ENDMDL
MODEL 3
REMARK VINA RESULT:    -4.455      3.941      6.658
REMARK INTER + INTRA:          -6.560
REMARK INTER:                  -6.350
REMARK INTRA:                  -0.210
REMARK UNBOUND:                -0.283
REMARK SMILES C=CCCCCCCC(=O)[O-]
REMARK SMILES IDX 6 1 7 2 8 3 9 4 10 5 11 6 5 7 4 8 3 9 2 10 1 11
REMARK H PARENT
REMARK Flexibility Score: inf
ROOT
ATOM      1  C   UNL     1      20.786 -11.175  23.288  1.00  0.00     0.000 C 
ENDROOT
BRANCH   1   2
ATOM      2  C   UNL     1      20.650 -10.244  24.507  1.00  0.00     0.006 C 
BRANCH   2   3
ATOM      3  C   UNL     1      20.988  -8.772  24.221  1.00  0.00     0.053 C 
BRANCH   3   4
ATOM      4  C   UNL     1      20.690  -7.888  25.393  1.00  0.00     0.041 C 
ATOM      5  O   UNL     1      21.594  -7.615  26.226  1.00  0.00    -0.550 OA
ATOM      6  O   UNL     1      19.423  -7.338  25.545  1.00  0.00    -0.550 OA
ENDBRANCH   3   4
ENDBRANCH   2   3
ENDBRANCH   1   2
BRANCH   1   7
ATOM      7  C   UNL     1      21.916 -10.749  22.337  1.00  0.00     0.000 C 
BRANCH   7   8
ATOM      8  C   UNL     1      22.759 -11.960  21.911  1.00  0.00     0.004 C 
BRANCH   8   9
ATOM      9  C   UNL     1      21.934 -12.999  21.142  1.00  0.00     0.027 C 
BRANCH   9  10
ATOM     10  C   UNL     1      22.754 -14.215  20.804  1.00  0.00    -0.035 C 
ATOM     11  C   UNL     1      22.574 -14.893  19.666  1.00  0.00     0.004 C 
ENDBRANCH   9  10
ENDBRANCH   8   9
ENDBRANCH   7   8
ENDBRANCH   1   7
TORSDOF 7
ENDMDL
MODEL 4
REMARK VINA RESULT:    -4.426      3.154      6.717
REMARK INTER + INTRA:          -6.520
REMARK INTER:                  -6.302
REMARK INTRA:                  -0.218
REMARK UNBOUND:                -0.283
REMARK SMILES C=CCCCCCCC(=O)[O-]
REMARK SMILES IDX 6 1 7 2 8 3 9 4 10 5 11 6 5 7 4 8 3 9 2 10 1 11
REMARK H PARENT
REMARK Flexibility Score: inf
ROOT
ATOM      1  C   UNL     1      23.246 -12.010  21.600  1.00  0.00     0.000 C 
ENDROOT
BRANCH   1   2
ATOM      2  C   UNL     1      22.568 -10.786  22.245  1.00  0.00     0.006 C 
BRANCH   2   3
ATOM      3  C   UNL     1      21.160 -11.060  22.795  1.00  0.00     0.053 C 
BRANCH   3   4
ATOM      4  C   UNL     1      20.889 -10.294  24.054  1.00  0.00     0.041 C 
ATOM      5  O   UNL     1      20.444 -10.887  25.072  1.00  0.00    -0.550 OA
ATOM      6  O   UNL     1      21.160  -8.933  24.113  1.00  0.00    -0.550 OA
ENDBRANCH   3   4
ENDBRANCH   2   3
ENDBRANCH   1   2
BRANCH   1   7
ATOM      7  C   UNL     1      22.252 -13.133  21.265  1.00  0.00     0.000 C 
BRANCH   7   8
ATOM      8  C   UNL     1      22.991 -14.432  20.913  1.00  0.00     0.004 C 
BRANCH   8   9
ATOM      9  C   UNL     1      22.594 -14.967  19.531  1.00  0.00     0.027 C 
BRANCH   9  10
ATOM     10  C   UNL     1      23.007 -16.405  19.357  1.00  0.00    -0.035 C 
ATOM     11  C   UNL     1      23.384 -17.161  20.392  1.00  0.00     0.004 C 
ENDBRANCH   9  10
ENDBRANCH   8   9
ENDBRANCH   7   8
ENDBRANCH   1   7
TORSDOF 7
ENDMDL
MODEL 5
REMARK VINA RESULT:    -4.409      4.365      6.719
REMARK INTER + INTRA:          -6.495
REMARK INTER:                  -6.200
REMARK INTRA:                  -0.295
REMARK UNBOUND:                -0.283
REMARK SMILES C=CCCCCCCC(=O)[O-]
REMARK SMILES IDX 6 1 7 2 8 3 9 4 10 5 11 6 5 7 4 8 3 9 2 10 1 11
REMARK H PARENT
REMARK Flexibility Score: inf
ROOT
ATOM      1  C   UNL     1      20.536 -10.272  24.727  1.00  0.00     0.000 C 
ENDROOT
BRANCH   1   2
ATOM      2  C   UNL     1      20.928  -8.798  24.515  1.00  0.00     0.006 C 
BRANCH   2   3
ATOM      3  C   UNL     1      20.136  -7.803  25.377  1.00  0.00     0.053 C 
BRANCH   3   4
ATOM      4  C   UNL     1      21.035  -6.888  26.151  1.00  0.00     0.041 C 
ATOM      5  O   UNL     1      21.294  -7.130  27.359  1.00  0.00    -0.550 OA
ATOM      6  O   UNL     1      21.612  -5.789  25.529  1.00  0.00    -0.550 OA
ENDBRANCH   3   4
ENDBRANCH   2   3
ENDBRANCH   1   2
BRANCH   1   7
ATOM      7  C   UNL     1      20.742 -11.129  23.469  1.00  0.00     0.000 C 
BRANCH   7   8
ATOM      8  C   UNL     1      21.892 -10.579  22.612  1.00  0.00     0.004 C 
BRANCH   8   9
ATOM      9  C   UNL     1      22.531 -11.663  21.736  1.00  0.00     0.027 C 
BRANCH   9  10
ATOM     10  C   UNL     1      21.508 -12.655  21.250  1.00  0.00    -0.035 C 
ATOM     11  C   UNL     1      21.859 -13.773  20.608  1.00  0.00     0.004 C 
ENDBRANCH   9  10
ENDBRANCH   8   9
ENDBRANCH   7   8
ENDBRANCH   1   7
TORSDOF 7
ENDMDL
MODEL 6
REMARK VINA RESULT:    -4.393      1.128      1.817
REMARK INTER + INTRA:          -6.473
REMARK INTER:                  -6.130
REMARK INTRA:                  -0.344
REMARK UNBOUND:                -0.283
REMARK SMILES C=CCCCCCCC(=O)[O-]
REMARK SMILES IDX 6 1 7 2 8 3 9 4 10 5 11 6 5 7 4 8 3 9 2 10 1 11
REMARK H PARENT
REMARK Flexibility Score: inf
ROOT
ATOM      1  C   UNL     1      20.869 -10.388  23.874  1.00  0.00     0.000 C 
ENDROOT
BRANCH   1   2
ATOM      2  C   UNL     1      20.761 -11.474  22.788  1.00  0.00     0.006 C 
BRANCH   2   3
ATOM      3  C   UNL     1      22.050 -11.691  21.979  1.00  0.00     0.053 C 
BRANCH   3   4
ATOM      4  C   UNL     1      22.007 -12.958  21.181  1.00  0.00     0.041 C 
ATOM      5  O   UNL     1      22.957 -13.781  21.250  1.00  0.00    -0.550 OA
ATOM      6  O   UNL     1      20.902 -13.244  20.389  1.00  0.00    -0.550 OA
ENDBRANCH   3   4
ENDBRANCH   2   3
ENDBRANCH   1   2
BRANCH   1   7
ATOM      7  C   UNL     1      21.694  -9.174  23.423  1.00  0.00     0.000 C 
BRANCH   7   8
ATOM      8  C   UNL     1      21.085  -7.868  23.953  1.00  0.00     0.004 C 
BRANCH   8   9
ATOM      9  C   UNL     1      20.348  -8.071  25.283  1.00  0.00     0.027 C 
BRANCH   9  10
ATOM     10  C   UNL     1      20.966  -7.256  26.388  1.00  0.00    -0.035 C 
ATOM     11  C   UNL     1      22.261  -6.927  26.381  1.00  0.00     0.004 C 
ENDBRANCH   9  10
ENDBRANCH   8   9
ENDBRANCH   7   8
ENDBRANCH   1   7
TORSDOF 7
ENDMDL
MODEL 7
REMARK VINA RESULT:    -4.365      1.286      2.475
REMARK INTER + INTRA:          -6.433
REMARK INTER:                  -6.170
REMARK INTRA:                  -0.263
REMARK UNBOUND:                -0.283
REMARK SMILES C=CCCCCCCC(=O)[O-]
REMARK SMILES IDX 6 1 7 2 8 3 9 4 10 5 11 6 5 7 4 8 3 9 2 10 1 11
REMARK H PARENT
REMARK Flexibility Score: inf
ROOT
ATOM      1  C   UNL     1      20.677 -10.260  24.630  1.00  0.00     0.000 C 
ENDROOT
BRANCH   1   2
ATOM      2  C   UNL     1      20.603 -11.164  23.385  1.00  0.00     0.006 C 
BRANCH   2   3
ATOM      3  C   UNL     1      21.784 -11.002  22.415  1.00  0.00     0.053 C 
BRANCH   3   4
ATOM      4  C   UNL     1      22.038 -12.250  21.625  1.00  0.00     0.041 C 
ATOM      5  O   UNL     1      21.097 -12.803  20.997  1.00  0.00    -0.550 OA
ATOM      6  O   UNL     1      23.320 -12.780  21.554  1.00  0.00    -0.550 OA
ENDBRANCH   3   4
ENDBRANCH   2   3
ENDBRANCH   1   2
BRANCH   1   7
ATOM      7  C   UNL     1      21.294  -8.886  24.333  1.00  0.00     0.000 C 
BRANCH   7   8
ATOM      8  C   UNL     1      21.067  -7.918  25.503  1.00  0.00     0.004 C 
BRANCH   8   9
ATOM      9  C   UNL     1      19.694  -7.237  25.432  1.00  0.00     0.027 C 
BRANCH   9  10
ATOM     10  C   UNL     1      19.618  -6.266  24.284  1.00  0.00    -0.035 C 
ATOM     11  C   UNL     1      18.822  -5.193  24.319  1.00  0.00     0.004 C 
ENDBRANCH   9  10
ENDBRANCH   8   9
ENDBRANCH   7   8
ENDBRANCH   1   7
TORSDOF 7
ENDMDL
MODEL 8
REMARK VINA RESULT:    -4.280      1.205      1.901
REMARK INTER + INTRA:          -6.314
REMARK INTER:                  -5.991
REMARK INTRA:                  -0.323
REMARK UNBOUND:                -0.283
REMARK SMILES C=CCCCCCCC(=O)[O-]
REMARK SMILES IDX 6 1 7 2 8 3 9 4 10 5 11 6 5 7 4 8 3 9 2 10 1 11
REMARK H PARENT
REMARK Flexibility Score: inf
ROOT
ATOM      1  C   UNL     1      21.052 -10.985  23.864  1.00  0.00     0.000 C 
ENDROOT
BRANCH   1   2
ATOM      2  C   UNL     1      21.498 -10.832  22.398  1.00  0.00     0.006 C 
BRANCH   2   3
ATOM      3  C   UNL     1      22.571 -11.839  21.954  1.00  0.00     0.053 C 
BRANCH   3   4
ATOM      4  C   UNL     1      21.979 -13.009  21.229  1.00  0.00     0.041 C 
ATOM      5  O   UNL     1      20.763 -13.003  20.905  1.00  0.00    -0.550 OA
ATOM      6  O   UNL     1      22.780 -14.089  20.880  1.00  0.00    -0.550 OA
ENDBRANCH   3   4
ENDBRANCH   2   3
ENDBRANCH   1   2
BRANCH   1   7
ATOM      7  C   UNL     1      20.735  -9.640  24.534  1.00  0.00     0.000 C 
BRANCH   7   8
ATOM      8  C   UNL     1      21.663  -8.534  24.009  1.00  0.00     0.004 C 
BRANCH   8   9
ATOM      9  C   UNL     1      21.412  -7.190  24.703  1.00  0.00     0.027 C 
BRANCH   9  10
ATOM     10  C   UNL     1      22.160  -7.093  26.006  1.00  0.00    -0.035 C 
ATOM     11  C   UNL     1      21.526  -6.986  27.178  1.00  0.00     0.004 C 
ENDBRANCH   9  10
ENDBRANCH   8   9
ENDBRANCH   7   8
ENDBRANCH   1   7
TORSDOF 7
ENDMDL
MODEL 9
REMARK VINA RESULT:    -4.248      4.383      9.063
REMARK INTER + INTRA:          -6.269
REMARK INTER:                  -6.034
REMARK INTRA:                  -0.235
REMARK UNBOUND:                -0.283
REMARK SMILES C=CCCCCCCC(=O)[O-]
REMARK SMILES IDX 6 1 7 2 8 3 9 4 10 5 11 6 5 7 4 8 3 9 2 10 1 11
REMARK H PARENT
REMARK Flexibility Score: inf
ROOT
ATOM      1  C   UNL     1      22.983 -16.394  19.236  1.00  0.00     0.000 C 
ENDROOT
BRANCH   1   2
ATOM      2  C   UNL     1      22.621 -14.914  19.468  1.00  0.00     0.006 C 
BRANCH   2   3
ATOM      3  C   UNL     1      22.835 -14.429  20.910  1.00  0.00     0.053 C 
BRANCH   3   4
ATOM      4  C   UNL     1      22.158 -13.118  21.169  1.00  0.00     0.041 C 
ATOM      5  O   UNL     1      20.916 -13.003  20.998  1.00  0.00    -0.550 OA
ATOM      6  O   UNL     1      22.894 -12.035  21.632  1.00  0.00    -0.550 OA
ENDBRANCH   3   4
ENDBRANCH   2   3
ENDBRANCH   1   2
BRANCH   1   7
ATOM      7  C   UNL     1      23.013 -16.773  17.748  1.00  0.00     0.000 C 
BRANCH   7   8
ATOM      8  C   UNL     1      23.262 -18.278  17.570  1.00  0.00     0.004 C 
BRANCH   8   9
ATOM      9  C   UNL     1      22.623 -18.823  16.287  1.00  0.00     0.027 C 
BRANCH   9  10
ATOM     10  C   UNL     1      21.619 -19.904  16.585  1.00  0.00    -0.035 C 
ATOM     11  C   UNL     1      21.160 -20.118  17.822  1.00  0.00     0.004 C 
ENDBRANCH   9  10
ENDBRANCH   8   9
ENDBRANCH   7   8
ENDBRANCH   1   7
TORSDOF 7
ENDMDL
