MODEL 1
REMARK VINA RESULT:    -3.115      0.000      0.000
REMARK INTER + INTRA:          -3.802
REMARK INTER:                  -3.661
REMARK INTRA:                  -0.141
REMARK UNBOUND:                -0.141
REMARK SMILES O=C([O-])C=Cc1ccc(O)c(O)c1
REMARK SMILES IDX 6 1 13 2 7 3 11 4 8 5 9 6 5 7 4 8 2 9 1 10 3 11 12 12 10 14
REMARK H PARENT 12 13 10 15
REMARK Flexibility Score: inf
ROOT
ATOM      1  C   UNL     1       8.135  17.504  39.550  1.00  0.00    -0.022 A 
ATOM      2  C   UNL     1       8.121  16.795  40.762  1.00  0.00     0.058 A 
ATOM      3  C   UNL     1       7.731  18.850  39.548  1.00  0.00     0.012 A 
ATOM      4  C   UNL     1       7.737  17.413  41.959  1.00  0.00     0.157 A 
ATOM      5  C   UNL     1       7.346  19.475  40.736  1.00  0.00     0.051 A 
ATOM      6  C   UNL     1       7.348  18.773  41.947  1.00  0.00     0.157 A 
ENDROOT
BRANCH   1   7
ATOM      7  C   UNL     1       8.542  16.789  38.315  1.00  0.00     0.010 C 
ATOM      8  C   UNL     1       8.545  17.350  37.096  1.00  0.00     0.025 C 
BRANCH   8   9
ATOM      9  C   UNL     1       8.966  16.613  35.894  1.00  0.00     0.064 C 
ATOM     10  O   UNL     1       9.001  15.354  35.878  1.00  0.00    -0.545 OA
ATOM     11  O   UNL     1       9.330  17.318  34.754  1.00  0.00    -0.545 OA
ENDBRANCH   8   9
ENDBRANCH   1   7
BRANCH   4  12
ATOM     12  O   UNL     1       7.757  16.645  43.125  1.00  0.00    -0.504 OA
ATOM     13  H   UNL     1       7.258  16.888  43.970  1.00  0.00     0.293 HD
ENDBRANCH   4  12
BRANCH   6  14
ATOM     14  O   UNL     1       6.956  19.457  43.098  1.00  0.00    -0.504 OA
ATOM     15  H   UNL     1       7.591  19.963  43.699  1.00  0.00     0.293 HD
ENDBRANCH   6  14
TORSDOF 4
ENDMDL
MODEL 2
REMARK VINA RESULT:    -3.075      1.145      6.117
REMARK INTER + INTRA:          -3.756
REMARK INTER:                  -3.616
REMARK INTRA:                  -0.140
REMARK UNBOUND:                -0.141
REMARK SMILES O=C([O-])C=Cc1ccc(O)c(O)c1
REMARK SMILES IDX 6 1 13 2 7 3 11 4 8 5 9 6 5 7 4 8 2 9 1 10 3 11 12 12 10 14
REMARK H PARENT 12 13 10 15
REMARK Flexibility Score: inf
ROOT
ATOM      1  C   UNL     1       8.347  17.693  38.752  1.00  0.00    -0.022 A 
ATOM      2  C   UNL     1       8.601  18.216  37.474  1.00  0.00     0.058 A 
ATOM      3  C   UNL     1       8.472  16.307  38.955  1.00  0.00     0.012 A 
ATOM      4  C   UNL     1       8.998  17.385  36.417  1.00  0.00     0.157 A 
ATOM      5  C   UNL     1       8.866  15.472  37.908  1.00  0.00     0.051 A 
ATOM      6  C   UNL     1       9.136  15.995  36.638  1.00  0.00     0.157 A 
ENDROOT
BRANCH   1   7
ATOM      7  C   UNL     1       7.921  18.623  39.827  1.00  0.00     0.010 C 
ATOM      8  C   UNL     1       7.756  18.257  41.107  1.00  0.00     0.025 C 
BRANCH   8   9
ATOM      9  C   UNL     1       7.342  19.211  42.149  1.00  0.00     0.064 C 
ATOM     10  O   UNL     1       7.789  20.389  42.171  1.00  0.00    -0.545 OA
ATOM     11  O   UNL     1       6.441  18.806  43.125  1.00  0.00    -0.545 OA
ENDBRANCH   8   9
ENDBRANCH   1   7
BRANCH   4  12
ATOM     12  O   UNL     1       9.242  17.980  35.178  1.00  0.00    -0.504 OA
ATOM     13  H   UNL     1       9.308  18.978  35.033  1.00  0.00     0.293 HD
ENDBRANCH   4  12
BRANCH   6  14
ATOM     14  O   UNL     1       9.529  15.106  35.636  1.00  0.00    -0.504 OA
ATOM     15  H   UNL     1       9.640  14.112  35.774  1.00  0.00     0.293 HD
ENDBRANCH   6  14
TORSDOF 4
ENDMDL
MODEL 3
REMARK VINA RESULT:    -2.946      1.543      2.298
REMARK INTER + INTRA:          -3.604
REMARK INTER:                  -3.475
REMARK INTRA:                  -0.130
REMARK UNBOUND:                -0.141
REMARK SMILES O=C([O-])C=Cc1ccc(O)c(O)c1
REMARK SMILES IDX 6 1 13 2 7 3 11 4 8 5 9 6 5 7 4 8 2 9 1 10 3 11 12 12 10 14
REMARK H PARENT 12 13 10 15
REMARK Flexibility Score: inf
ROOT
ATOM      1  C   UNL     1       8.660  17.339  37.895  1.00  0.00    -0.022 A 
ATOM      2  C   UNL     1       8.912  16.131  38.564  1.00  0.00     0.058 A 
ATOM      3  C   UNL     1       8.091  18.405  38.613  1.00  0.00     0.012 A 
ATOM      4  C   UNL     1       8.632  15.986  39.929  1.00  0.00     0.157 A 
ATOM      5  C   UNL     1       7.809  18.270  39.974  1.00  0.00     0.051 A 
ATOM      6  C   UNL     1       8.076  17.072  40.645  1.00  0.00     0.157 A 
ENDROOT
BRANCH   1   7
ATOM      7  C   UNL     1       8.969  17.426  36.446  1.00  0.00     0.010 C 
ATOM      8  C   UNL     1       8.573  16.516  35.543  1.00  0.00     0.025 C 
BRANCH   8   9
ATOM      9  C   UNL     1       8.890  16.642  34.111  1.00  0.00     0.064 C 
ATOM     10  O   UNL     1       9.996  17.104  33.725  1.00  0.00    -0.545 OA
ATOM     11  O   UNL     1       7.951  16.243  33.168  1.00  0.00    -0.545 OA
ENDBRANCH   8   9
ENDBRANCH   1   7
BRANCH   4  12
ATOM     12  O   UNL     1       8.920  14.757  40.526  1.00  0.00    -0.504 OA
ATOM     13  H   UNL     1       9.631  14.121  40.195  1.00  0.00     0.293 HD
ENDBRANCH   4  12
BRANCH   6  14
ATOM     14  O   UNL     1       7.773  17.004  42.005  1.00  0.00    -0.504 OA
ATOM     15  H   UNL     1       8.290  16.449  42.672  1.00  0.00     0.293 HD
ENDBRANCH   6  14
TORSDOF 4
ENDMDL
MODEL 4
REMARK VINA RESULT:    -2.814      1.394      5.663
REMARK INTER + INTRA:          -3.449
REMARK INTER:                  -3.317
REMARK INTRA:                  -0.132
REMARK UNBOUND:                -0.141
REMARK SMILES O=C([O-])C=Cc1ccc(O)c(O)c1
REMARK SMILES IDX 6 1 13 2 7 3 11 4 8 5 9 6 5 7 4 8 2 9 1 10 3 11 12 12 10 14
REMARK H PARENT 12 13 10 15
REMARK Flexibility Score: inf
ROOT
ATOM      1  C   UNL     1       8.102  18.051  39.147  1.00  0.00    -0.022 A 
ATOM      2  C   UNL     1       8.499  16.737  39.439  1.00  0.00     0.058 A 
ATOM      3  C   UNL     1       8.125  18.485  37.810  1.00  0.00     0.012 A 
ATOM      4  C   UNL     1       8.890  15.855  38.423  1.00  0.00     0.157 A 
ATOM      5  C   UNL     1       8.513  17.614  36.791  1.00  0.00     0.051 A 
ATOM      6  C   UNL     1       8.892  16.298  37.079  1.00  0.00     0.157 A 
ENDROOT
BRANCH   1   7
ATOM      7  C   UNL     1       7.709  18.940  40.269  1.00  0.00     0.010 C 
ATOM      8  C   UNL     1       7.398  18.498  41.497  1.00  0.00     0.025 C 
BRANCH   8   9
ATOM      9  C   UNL     1       7.024  19.411  42.589  1.00  0.00     0.064 C 
ATOM     10  O   UNL     1       5.875  19.378  43.103  1.00  0.00    -0.545 OA
ATOM     11  O   UNL     1       7.957  20.324  43.063  1.00  0.00    -0.545 OA
ENDBRANCH   8   9
ENDBRANCH   1   7
BRANCH   4  12
ATOM     12  O   UNL     1       9.262  14.561  38.790  1.00  0.00    -0.504 OA
ATOM     13  H   UNL     1      10.192  14.184  38.667  1.00  0.00     0.293 HD
ENDBRANCH   4  12
BRANCH   6  14
ATOM     14  O   UNL     1       9.266  15.478  36.014  1.00  0.00    -0.504 OA
ATOM     15  H   UNL     1      10.038  15.673  35.394  1.00  0.00     0.293 HD
ENDBRANCH   6  14
TORSDOF 4
ENDMDL
MODEL 5
REMARK VINA RESULT:    -1.477      1.523      6.197
REMARK INTER + INTRA:          -1.877
REMARK INTER:                  -1.750
REMARK INTRA:                  -0.127
REMARK UNBOUND:                -0.141
REMARK SMILES O=C([O-])C=Cc1ccc(O)c(O)c1
REMARK SMILES IDX 6 1 13 2 7 3 11 4 8 5 9 6 5 7 4 8 2 9 1 10 3 11 12 12 10 14
REMARK H PARENT 12 13 10 15
REMARK Flexibility Score: inf
ROOT
ATOM      1  C   UNL     1       8.565  17.200  37.352  1.00  0.00    -0.022 A 
ATOM      2  C   UNL     1       7.507  16.611  36.641  1.00  0.00     0.058 A 
ATOM      3  C   UNL     1       9.744  17.532  36.662  1.00  0.00     0.012 A 
ATOM      4  C   UNL     1       7.602  16.378  35.263  1.00  0.00     0.157 A 
ATOM      5  C   UNL     1       9.848  17.303  35.289  1.00  0.00     0.051 A 
ATOM      6  C   UNL     1       8.788  16.732  34.576  1.00  0.00     0.157 A 
ENDROOT
BRANCH   1   7
ATOM      7  C   UNL     1       8.407  17.412  38.813  1.00  0.00     0.010 C 
ATOM      8  C   UNL     1       7.790  18.475  39.349  1.00  0.00     0.025 C 
BRANCH   8   9
ATOM      9  C   UNL     1       7.642  18.645  40.804  1.00  0.00     0.064 C 
ATOM     10  O   UNL     1       7.602  17.652  41.577  1.00  0.00    -0.545 OA
ATOM     11  O   UNL     1       7.548  19.926  41.334  1.00  0.00    -0.545 OA
ENDBRANCH   8   9
ENDBRANCH   1   7
BRANCH   4  12
ATOM     12  O   UNL     1       6.505  15.798  34.623  1.00  0.00    -0.504 OA
ATOM     13  H   UNL     1       6.425  14.810  34.424  1.00  0.00     0.293 HD
ENDBRANCH   4  12
BRANCH   6  14
ATOM     14  O   UNL     1       8.955  16.532  33.205  1.00  0.00    -0.504 OA
ATOM     15  H   UNL     1       8.528  17.109  32.494  1.00  0.00     0.293 HD
ENDBRANCH   6  14
TORSDOF 4
ENDMDL
MODEL 6
REMARK VINA RESULT:    -0.916      1.611      2.729
REMARK INTER + INTRA:          -1.218
REMARK INTER:                  -1.084
REMARK INTRA:                  -0.133
REMARK UNBOUND:                -0.141
REMARK SMILES O=C([O-])C=Cc1ccc(O)c(O)c1
REMARK SMILES IDX 6 1 13 2 7 3 11 4 8 5 9 6 5 7 4 8 2 9 1 10 3 11 12 12 10 14
REMARK H PARENT 12 13 10 15
REMARK Flexibility Score: inf
ROOT
ATOM      1  C   UNL     1       8.546  16.431  37.835  1.00  0.00    -0.022 A 
ATOM      2  C   UNL     1       8.156  17.716  38.244  1.00  0.00     0.058 A 
ATOM      3  C   UNL     1       8.774  15.448  38.814  1.00  0.00     0.012 A 
ATOM      4  C   UNL     1       7.969  18.020  39.599  1.00  0.00     0.157 A 
ATOM      5  C   UNL     1       8.591  15.742  40.166  1.00  0.00     0.051 A 
ATOM      6  C   UNL     1       8.186  17.018  40.573  1.00  0.00     0.157 A 
ENDROOT
BRANCH   1   7
ATOM      7  C   UNL     1       8.737  16.175  36.385  1.00  0.00     0.010 C 
ATOM      8  C   UNL     1       8.812  17.143  35.460  1.00  0.00     0.025 C 
BRANCH   8   9
ATOM      9  C   UNL     1       9.014  16.851  34.032  1.00  0.00     0.064 C 
ATOM     10  O   UNL     1       8.296  16.009  33.430  1.00  0.00    -0.545 OA
ATOM     11  O   UNL     1      10.013  17.517  33.335  1.00  0.00    -0.545 OA
ENDBRANCH   8   9
ENDBRANCH   1   7
BRANCH   4  12
ATOM     12  O   UNL     1       7.572  19.318  39.927  1.00  0.00    -0.504 OA
ATOM     13  H   UNL     1       7.458  20.061  39.252  1.00  0.00     0.293 HD
ENDBRANCH   4  12
BRANCH   6  14
ATOM     14  O   UNL     1       8.018  17.245  41.940  1.00  0.00    -0.504 OA
ATOM     15  H   UNL     1       7.678  16.551  42.591  1.00  0.00     0.293 HD
ENDBRANCH   6  14
TORSDOF 4
ENDMDL
MODEL 7
REMARK VINA RESULT:    -0.282     22.435     24.375
REMARK INTER + INTRA:          -0.473
REMARK INTER:                  -0.343
REMARK INTRA:                  -0.129
REMARK UNBOUND:                -0.141
REMARK SMILES O=C([O-])C=Cc1ccc(O)c(O)c1
REMARK SMILES IDX 6 1 13 2 7 3 11 4 8 5 9 6 5 7 4 8 2 9 1 10 3 11 12 12 10 14
REMARK H PARENT 12 13 10 15
REMARK Flexibility Score: inf
ROOT
ATOM      1  C   UNL     1      25.394   4.794  27.273  1.00  0.00    -0.022 A 
ATOM      2  C   UNL     1      24.665   5.800  27.927  1.00  0.00     0.058 A 
ATOM      3  C   UNL     1      26.125   3.875  28.047  1.00  0.00     0.012 A 
ATOM      4  C   UNL     1      24.637   5.883  29.325  1.00  0.00     0.157 A 
ATOM      5  C   UNL     1      26.103   3.950  29.441  1.00  0.00     0.051 A 
ATOM      6  C   UNL     1      25.364   4.942  30.093  1.00  0.00     0.157 A 
ENDROOT
BRANCH   1   7
ATOM      7  C   UNL     1      25.391   4.765  25.790  1.00  0.00     0.010 C 
ATOM      8  C   UNL     1      24.314   5.043  25.040  1.00  0.00     0.025 C 
BRANCH   8   9
ATOM      9  C   UNL     1      24.353   5.016  23.569  1.00  0.00     0.064 C 
ATOM     10  O   UNL     1      25.099   5.796  22.921  1.00  0.00    -0.545 OA
ATOM     11  O   UNL     1      23.553   4.111  22.883  1.00  0.00    -0.545 OA
ENDBRANCH   8   9
ENDBRANCH   1   7
BRANCH   4  12
ATOM     12  O   UNL     1      23.882   6.905  29.903  1.00  0.00    -0.504 OA
ATOM     13  H   UNL     1      23.542   7.711  29.397  1.00  0.00     0.293 HD
ENDBRANCH   4  12
BRANCH   6  14
ATOM     14  O   UNL     1      25.382   4.959  31.489  1.00  0.00    -0.504 OA
ATOM     15  H   UNL     1      24.553   4.993  32.064  1.00  0.00     0.293 HD
ENDBRANCH   6  14
TORSDOF 4
ENDMDL
