MODEL 1
REMARK VINA RESULT:     1.504      0.000      0.000
REMARK INTER + INTRA:           2.727
REMARK INTER:                   2.470
REMARK INTRA:                   0.256
REMARK UNBOUND:                 0.256
REMARK SMILES C[C@@H]1O[C@H](OC[C@H]2O[C@@H](Oc3c(-c4ccc(O)c(O)c4)oc4cc(O)cc(O)c4c3=O)[C@@H](O)[C@H](O)[C@@H]2O)[C@@H](O)[C@H](O)[C@@H]1O
REMARK SMILES IDX 7 1 36 2 34 3 32 4 9 5 8 6 6 7 5 8 4 9 1 10 2 11 42 12 3 13
REMARK SMILES IDX 40 14 38 15 43 16 41 18 39 20 37 22 35 24 10 26 11 27 12 28
REMARK SMILES IDX 30 29 21 30 29 31 31 32 22 33 27 34 23 35 26 36 24 37 13 38
REMARK SMILES IDX 20 39 14 40 18 41 15 42 16 43 19 44 17 46 28 48 25 50 33 52
REMARK H PARENT 43 17 41 19 39 21 37 23 35 25 19 45 17 47 28 49 25 51 33 53
REMARK Flexibility Score: inf
ROOT
ATOM      1  C   UNL     1     365.985 242.931 277.052  1.00  0.00     0.180 C 
ATOM      2  C   UNL     1     365.843 241.342 276.740  1.00  0.00     0.177 C 
ATOM      3  C   UNL     1     366.052 241.105 275.224  1.00  0.00     0.180 C 
ATOM      4  C   UNL     1     364.923 241.798 274.310  1.00  0.00     0.214 C 
ATOM      5  C   UNL     1     364.903 243.345 274.763  1.00  0.00     0.339 C 
ATOM      6  O   UNL     1     365.009 243.640 276.222  1.00  0.00    -0.332 OA
ENDROOT
BRANCH   1   7
ATOM      7  C   UNL     1     367.482 243.471 276.829  1.00  0.00     0.198 C 
BRANCH   7   8
ATOM      8  O   UNL     1     368.200 243.366 275.637  1.00  0.00    -0.347 OA
BRANCH   8   9
ATOM      9  C   UNL     1     369.400 242.697 276.083  1.00  0.00     0.281 C 
ATOM     10  C   UNL     1     371.963 240.802 274.075  1.00  0.00     0.041 C 
ATOM     11  C   UNL     1     370.978 241.088 275.319  1.00  0.00     0.150 C 
ATOM     12  C   UNL     1     371.747 241.455 276.569  1.00  0.00     0.174 C 
ATOM     13  O   UNL     1     370.045 242.117 274.942  1.00  0.00    -0.344 OA
ATOM     14  C   UNL     1     371.879 243.080 276.495  1.00  0.00     0.179 C 
ATOM     15  C   UNL     1     370.440 243.708 276.672  1.00  0.00     0.202 C 
BRANCH  12  16
ATOM     16  O   UNL     1     372.872 240.635 276.772  1.00  0.00    -0.388 OA
ATOM     17  H   UNL     1     372.556 239.724 276.358  1.00  0.00     0.211 HD
ENDBRANCH  12  16
BRANCH  14  18
ATOM     18  O   UNL     1     372.310 243.549 275.222  1.00  0.00    -0.387 OA
ATOM     19  H   UNL     1     371.685 244.287 274.907  1.00  0.00     0.211 HD
ENDBRANCH  14  18
BRANCH  15  20
ATOM     20  O   UNL     1     370.110 243.939 278.030  1.00  0.00    -0.385 OA
ATOM     21  H   UNL     1     370.793 243.390 278.548  1.00  0.00     0.211 HD
ENDBRANCH  15  20
ENDBRANCH   8   9
ENDBRANCH   7   8
ENDBRANCH   1   7
BRANCH   2  22
ATOM     22  O   UNL     1     364.952 240.439 277.425  1.00  0.00    -0.387 OA
ATOM     23  H   UNL     1     365.035 240.645 278.411  1.00  0.00     0.211 HD
ENDBRANCH   2  22
BRANCH   3  24
ATOM     24  O   UNL     1     366.738 239.911 274.929  1.00  0.00    -0.387 OA
ATOM     25  H   UNL     1     366.153 239.195 275.259  1.00  0.00     0.211 HD
ENDBRANCH   3  24
BRANCH   5  26
ATOM     26  O   UNL     1     365.878 244.226 274.031  1.00  0.00    -0.454 OA
BRANCH  26  27
ATOM     27  C   UNL     1     365.670 244.982 272.934  1.00  0.00     0.214 A 
ATOM     28  C   UNL     1     365.429 246.420 273.077  1.00  0.00     0.180 A 
ATOM     29  C   UNL     1     365.986 244.532 271.614  1.00  0.00     0.239 A 
ATOM     30  O   UNL     1     365.193 247.167 272.032  1.00  0.00    -0.452 OA
ATOM     31  C   UNL     1     365.945 245.432 270.561  1.00  0.00     0.111 A 
ATOM     32  O   UNL     1     366.394 243.324 271.490  1.00  0.00    -0.285 OA
ATOM     33  C   UNL     1     365.440 246.765 270.822  1.00  0.00     0.146 A 
ATOM     34  C   UNL     1     366.163 245.115 269.184  1.00  0.00     0.134 A 
ATOM     35  C   UNL     1     365.081 247.641 269.791  1.00  0.00     0.094 A 
ATOM     36  C   UNL     1     366.020 246.133 268.207  1.00  0.00     0.093 A 
ATOM     37  C   UNL     1     365.215 247.270 268.386  1.00  0.00     0.123 A 
BRANCH  28  38
ATOM     38  C   UNL     1     365.705 247.090 274.392  1.00  0.00     0.025 A 
ATOM     39  C   UNL     1     366.561 248.212 274.489  1.00  0.00     0.062 A 
ATOM     40  C   UNL     1     365.314 246.484 275.520  1.00  0.00     0.016 A 
ATOM     41  C   UNL     1     367.252 248.411 275.648  1.00  0.00     0.158 A 
ATOM     42  C   UNL     1     366.382 246.278 276.353  1.00  0.00     0.051 A 
ATOM     43  C   UNL     1     367.300 247.324 276.555  1.00  0.00     0.157 A 
BRANCH  41  44
ATOM     44  O   UNL     1     367.997 249.537 275.904  1.00  0.00    -0.504 OA
ATOM     45  H   UNL     1     368.752 249.819 275.283  1.00  0.00     0.293 HD
ENDBRANCH  41  44
BRANCH  43  46
ATOM     46  O   UNL     1     368.252 247.274 277.575  1.00  0.00    -0.504 OA
ATOM     47  H   UNL     1     368.084 247.166 278.587  1.00  0.00     0.293 HD
ENDBRANCH  43  46
ENDBRANCH  28  38
BRANCH  34  48
ATOM     48  O   UNL     1     366.425 243.793 268.756  1.00  0.00    -0.507 OA
ATOM     49  H   UNL     1     365.868 243.090 269.236  1.00  0.00     0.293 HD
ENDBRANCH  34  48
BRANCH  37  50
ATOM     50  O   UNL     1     364.875 248.182 267.352  1.00  0.00    -0.508 OA
ATOM     51  H   UNL     1     365.594 248.722 266.847  1.00  0.00     0.293 HD
ENDBRANCH  37  50
ENDBRANCH  26  27
ENDBRANCH   5  26
BRANCH   4  52
ATOM     52  O   UNL     1     364.989 241.396 272.955  1.00  0.00    -0.384 OA
ATOM     53  H   UNL     1     365.950 241.117 272.789  1.00  0.00     0.211 HD
ENDBRANCH   4  52
TORSDOF 16
ENDMDL
MODEL 2
REMARK VINA RESULT:     1.777      0.843      1.327
REMARK INTER + INTRA:           3.176
REMARK INTER:                   3.072
REMARK INTRA:                   0.104
REMARK UNBOUND:                 0.256
REMARK SMILES C[C@@H]1O[C@H](OC[C@H]2O[C@@H](Oc3c(-c4ccc(O)c(O)c4)oc4cc(O)cc(O)c4c3=O)[C@@H](O)[C@H](O)[C@@H]2O)[C@@H](O)[C@H](O)[C@@H]1O
REMARK SMILES IDX 7 1 36 2 34 3 32 4 9 5 8 6 6 7 5 8 4 9 1 10 2 11 42 12 3 13
REMARK SMILES IDX 40 14 38 15 43 16 41 18 39 20 37 22 35 24 10 26 11 27 12 28
REMARK SMILES IDX 30 29 21 30 29 31 31 32 22 33 27 34 23 35 26 36 24 37 13 38
REMARK SMILES IDX 20 39 14 40 18 41 15 42 16 43 19 44 17 46 28 48 25 50 33 52
REMARK H PARENT 43 17 41 19 39 21 37 23 35 25 19 45 17 47 28 49 25 51 33 53
REMARK Flexibility Score: inf
ROOT
ATOM      1  C   UNL     1     365.947 242.970 277.032  1.00  0.00     0.180 C 
ATOM      2  C   UNL     1     365.782 241.378 276.751  1.00  0.00     0.177 C 
ATOM      3  C   UNL     1     365.992 241.107 275.241  1.00  0.00     0.180 C 
ATOM      4  C   UNL     1     364.875 241.799 274.310  1.00  0.00     0.214 C 
ATOM      5  C   UNL     1     364.877 243.355 274.732  1.00  0.00     0.339 C 
ATOM      6  O   UNL     1     364.983 243.677 276.186  1.00  0.00    -0.332 OA
ENDROOT
BRANCH   1   7
ATOM      7  C   UNL     1     367.452 243.485 276.803  1.00  0.00     0.198 C 
BRANCH   7   8
ATOM      8  O   UNL     1     368.544 243.139 277.600  1.00  0.00    -0.347 OA
BRANCH   8   9
ATOM      9  C   UNL     1     369.391 242.460 276.648  1.00  0.00     0.281 C 
ATOM     10  C   UNL     1     372.920 243.261 275.597  1.00  0.00     0.041 C 
ATOM     11  C   UNL     1     371.379 242.830 275.393  1.00  0.00     0.150 C 
ATOM     12  C   UNL     1     371.251 241.369 275.023  1.00  0.00     0.174 C 
ATOM     13  O   UNL     1     370.649 243.146 276.591  1.00  0.00    -0.344 OA
ATOM     14  C   UNL     1     371.117 240.603 276.458  1.00  0.00     0.179 C 
ATOM     15  C   UNL     1     369.738 241.007 277.114  1.00  0.00     0.202 C 
BRANCH  12  16
ATOM     16  O   UNL     1     372.198 240.970 274.062  1.00  0.00    -0.388 OA
ATOM     17  H   UNL     1     372.489 240.028 274.419  1.00  0.00     0.211 HD
ENDBRANCH  12  16
BRANCH  14  18
ATOM     18  O   UNL     1     372.092 241.022 277.408  1.00  0.00    -0.387 OA
ATOM     19  H   UNL     1     371.658 241.653 278.077  1.00  0.00     0.211 HD
ENDBRANCH  14  18
BRANCH  15  20
ATOM     20  O   UNL     1     368.678 240.153 276.721  1.00  0.00    -0.385 OA
ATOM     21  H   UNL     1     368.041 240.168 277.514  1.00  0.00     0.211 HD
ENDBRANCH  15  20
ENDBRANCH   8   9
ENDBRANCH   7   8
ENDBRANCH   1   7
BRANCH   2  22
ATOM     22  O   UNL     1     364.877 240.501 277.451  1.00  0.00    -0.387 OA
ATOM     23  H   UNL     1     364.054 241.048 277.664  1.00  0.00     0.211 HD
ENDBRANCH   2  22
BRANCH   3  24
ATOM     24  O   UNL     1     366.661 239.898 274.972  1.00  0.00    -0.387 OA
ATOM     25  H   UNL     1     366.564 239.766 274.004  1.00  0.00     0.211 HD
ENDBRANCH   3  24
BRANCH   5  26
ATOM     26  O   UNL     1     365.867 244.206 273.986  1.00  0.00    -0.454 OA
BRANCH  26  27
ATOM     27  C   UNL     1     365.661 244.981 272.901  1.00  0.00     0.214 A 
ATOM     28  C   UNL     1     365.421 246.416 273.066  1.00  0.00     0.180 A 
ATOM     29  C   UNL     1     365.979 244.551 271.574  1.00  0.00     0.239 A 
ATOM     30  O   UNL     1     365.188 247.180 272.033  1.00  0.00    -0.452 OA
ATOM     31  C   UNL     1     365.941 245.468 270.536  1.00  0.00     0.111 A 
ATOM     32  O   UNL     1     366.386 243.345 271.432  1.00  0.00    -0.285 OA
ATOM     33  C   UNL     1     365.437 246.797 270.818  1.00  0.00     0.146 A 
ATOM     34  C   UNL     1     366.161 245.173 269.154  1.00  0.00     0.134 A 
ATOM     35  C   UNL     1     365.080 247.690 269.800  1.00  0.00     0.094 A 
ATOM     36  C   UNL     1     366.021 246.207 268.194  1.00  0.00     0.093 A 
ATOM     37  C   UNL     1     365.217 247.341 268.389  1.00  0.00     0.123 A 
BRANCH  28  38
ATOM     38  C   UNL     1     365.695 247.065 274.392  1.00  0.00     0.025 A 
ATOM     39  C   UNL     1     366.501 248.222 274.501  1.00  0.00     0.062 A 
ATOM     40  C   UNL     1     365.356 246.413 275.512  1.00  0.00     0.016 A 
ATOM     41  C   UNL     1     367.208 248.423 275.651  1.00  0.00     0.158 A 
ATOM     42  C   UNL     1     366.451 246.236 276.318  1.00  0.00     0.051 A 
ATOM     43  C   UNL     1     367.325 247.316 276.528  1.00  0.00     0.157 A 
BRANCH  41  44
ATOM     44  O   UNL     1     367.907 249.575 275.920  1.00  0.00    -0.504 OA
ATOM     45  H   UNL     1     368.240 249.779 276.860  1.00  0.00     0.293 HD
ENDBRANCH  41  44
BRANCH  43  46
ATOM     46  O   UNL     1     368.300 247.284 277.526  1.00  0.00    -0.504 OA
ATOM     47  H   UNL     1     368.345 247.861 278.379  1.00  0.00     0.293 HD
ENDBRANCH  43  46
ENDBRANCH  28  38
BRANCH  34  48
ATOM     48  O   UNL     1     366.423 243.858 268.705  1.00  0.00    -0.507 OA
ATOM     49  H   UNL     1     365.828 243.564 267.934  1.00  0.00     0.293 HD
ENDBRANCH  34  48
BRANCH  37  50
ATOM     50  O   UNL     1     364.880 248.270 267.369  1.00  0.00    -0.508 OA
ATOM     51  H   UNL     1     364.081 248.114 266.735  1.00  0.00     0.293 HD
ENDBRANCH  37  50
ENDBRANCH  26  27
ENDBRANCH   5  26
BRANCH   4  52
ATOM     52  O   UNL     1     364.939 241.369 272.964  1.00  0.00    -0.384 OA
ATOM     53  H   UNL     1     365.146 242.195 272.412  1.00  0.00     0.211 HD
ENDBRANCH   4  52
TORSDOF 16
ENDMDL
MODEL 3
REMARK VINA RESULT:     2.034      2.040      8.045
REMARK INTER + INTRA:           3.599
REMARK INTER:                   3.487
REMARK INTRA:                   0.112
REMARK UNBOUND:                 0.256
REMARK SMILES C[C@@H]1O[C@H](OC[C@H]2O[C@@H](Oc3c(-c4ccc(O)c(O)c4)oc4cc(O)cc(O)c4c3=O)[C@@H](O)[C@H](O)[C@@H]2O)[C@@H](O)[C@H](O)[C@@H]1O
REMARK SMILES IDX 7 1 36 2 34 3 32 4 9 5 8 6 6 7 5 8 4 9 1 10 2 11 42 12 3 13
REMARK SMILES IDX 40 14 38 15 43 16 41 18 39 20 37 22 35 24 10 26 11 27 12 28
REMARK SMILES IDX 30 29 21 30 29 31 31 32 22 33 27 34 23 35 26 36 24 37 13 38
REMARK SMILES IDX 20 39 14 40 18 41 15 42 16 43 19 44 17 46 28 48 25 50 33 52
REMARK H PARENT 43 17 41 19 39 21 37 23 35 25 19 45 17 47 28 49 25 51 33 53
REMARK Flexibility Score: inf
ROOT
ATOM      1  C   UNL     1     365.720 244.387 274.798  1.00  0.00     0.180 C 
ATOM      2  C   UNL     1     366.120 245.631 275.763  1.00  0.00     0.177 C 
ATOM      3  C   UNL     1     367.458 245.310 276.473  1.00  0.00     0.180 C 
ATOM      4  C   UNL     1     367.365 244.045 277.464  1.00  0.00     0.214 C 
ATOM      5  C   UNL     1     366.764 242.848 276.566  1.00  0.00     0.339 C 
ATOM      6  O   UNL     1     365.653 243.181 275.625  1.00  0.00    -0.332 OA
ENDROOT
BRANCH   1   7
ATOM      7  C   UNL     1     366.729 244.220 273.557  1.00  0.00     0.198 C 
BRANCH   7   8
ATOM      8  O   UNL     1     367.808 245.062 273.287  1.00  0.00    -0.347 OA
BRANCH   8   9
ATOM      9  C   UNL     1     367.632 245.311 271.876  1.00  0.00     0.281 C 
ATOM     10  C   UNL     1     365.478 243.487 269.380  1.00  0.00     0.041 C 
ATOM     11  C   UNL     1     366.802 244.229 269.926  1.00  0.00     0.150 C 
ATOM     12  C   UNL     1     367.004 245.573 269.263  1.00  0.00     0.174 C 
ATOM     13  O   UNL     1     366.710 244.344 271.357  1.00  0.00    -0.344 OA
ATOM     14  C   UNL     1     366.204 246.619 270.228  1.00  0.00     0.179 C 
ATOM     15  C   UNL     1     366.960 246.700 271.613  1.00  0.00     0.202 C 
BRANCH  12  16
ATOM     16  O   UNL     1     366.776 245.532 267.875  1.00  0.00    -0.388 OA
ATOM     17  H   UNL     1     367.614 246.037 267.500  1.00  0.00     0.211 HD
ENDBRANCH  12  16
BRANCH  14  18
ATOM     18  O   UNL     1     364.896 246.175 270.570  1.00  0.00    -0.387 OA
ATOM     19  H   UNL     1     364.889 245.868 271.539  1.00  0.00     0.211 HD
ENDBRANCH  14  18
BRANCH  15  20
ATOM     20  O   UNL     1     367.975 247.689 271.621  1.00  0.00    -0.385 OA
ATOM     21  H   UNL     1     368.456 247.559 270.734  1.00  0.00     0.211 HD
ENDBRANCH  15  20
ENDBRANCH   8   9
ENDBRANCH   7   8
ENDBRANCH   1   7
BRANCH   2  22
ATOM     22  O   UNL     1     365.183 246.458 276.482  1.00  0.00    -0.387 OA
ATOM     23  H   UNL     1     365.729 247.031 277.111  1.00  0.00     0.211 HD
ENDBRANCH   2  22
BRANCH   3  24
ATOM     24  O   UNL     1     368.292 246.432 276.640  1.00  0.00    -0.387 OA
ATOM     25  H   UNL     1     367.740 247.199 276.375  1.00  0.00     0.211 HD
ENDBRANCH   3  24
BRANCH   5  26
ATOM     26  O   UNL     1     367.792 242.046 275.817  1.00  0.00    -0.454 OA
BRANCH  26  27
ATOM     27  C   UNL     1     369.105 241.897 276.091  1.00  0.00     0.214 A 
ATOM     28  C   UNL     1     369.520 241.178 277.298  1.00  0.00     0.180 A 
ATOM     29  C   UNL     1     370.127 242.117 275.115  1.00  0.00     0.239 A 
ATOM     30  O   UNL     1     370.784 241.048 277.600  1.00  0.00    -0.452 OA
ATOM     31  C   UNL     1     371.431 241.743 275.400  1.00  0.00     0.111 A 
ATOM     32  O   UNL     1     369.758 242.562 273.972  1.00  0.00    -0.285 OA
ATOM     33  C   UNL     1     371.729 241.276 276.739  1.00  0.00     0.146 A 
ATOM     34  C   UNL     1     372.565 241.965 274.558  1.00  0.00     0.134 A 
ATOM     35  C   UNL     1     373.042 241.161 277.213  1.00  0.00     0.094 A 
ATOM     36  C   UNL     1     373.852 241.586 275.016  1.00  0.00     0.093 A 
ATOM     37  C   UNL     1     374.192 241.484 276.374  1.00  0.00     0.123 A 
BRANCH  28  38
ATOM     38  C   UNL     1     368.512 240.365 278.058  1.00  0.00     0.025 A 
ATOM     39  C   UNL     1     367.158 240.297 277.658  1.00  0.00     0.062 A 
ATOM     40  C   UNL     1     368.851 239.875 279.258  1.00  0.00     0.016 A 
ATOM     41  C   UNL     1     366.202 240.099 278.612  1.00  0.00     0.158 A 
ATOM     42  C   UNL     1     367.981 240.313 280.221  1.00  0.00     0.051 A 
ATOM     43  C   UNL     1     366.600 240.278 279.959  1.00  0.00     0.157 A 
BRANCH  41  44
ATOM     44  O   UNL     1     364.877 239.875 278.323  1.00  0.00    -0.504 OA
ATOM     45  H   UNL     1     364.140 240.352 278.839  1.00  0.00     0.293 HD
ENDBRANCH  41  44
BRANCH  43  46
ATOM     46  O   UNL     1     365.659 240.461 280.974  1.00  0.00    -0.504 OA
ATOM     47  H   UNL     1     365.362 239.777 281.686  1.00  0.00     0.293 HD
ENDBRANCH  43  46
ENDBRANCH  28  38
BRANCH  34  48
ATOM     48  O   UNL     1     372.454 242.636 273.319  1.00  0.00    -0.507 OA
ATOM     49  H   UNL     1     372.479 242.014 272.513  1.00  0.00     0.293 HD
ENDBRANCH  34  48
BRANCH  37  50
ATOM     50  O   UNL     1     375.517 241.332 276.861  1.00  0.00    -0.508 OA
ATOM     51  H   UNL     1     376.338 241.462 276.249  1.00  0.00     0.293 HD
ENDBRANCH  37  50
ENDBRANCH  26  27
ENDBRANCH   5  26
BRANCH   4  52
ATOM     52  O   UNL     1     368.517 243.893 278.271  1.00  0.00    -0.384 OA
ATOM     53  H   UNL     1     369.273 244.353 277.776  1.00  0.00     0.211 HD
ENDBRANCH   4  52
TORSDOF 16
ENDMDL
MODEL 4
REMARK VINA RESULT:     2.659      1.977      7.148
REMARK INTER + INTRA:           4.625
REMARK INTER:                   3.718
REMARK INTRA:                   0.907
REMARK UNBOUND:                 0.256
REMARK SMILES C[C@@H]1O[C@H](OC[C@H]2O[C@@H](Oc3c(-c4ccc(O)c(O)c4)oc4cc(O)cc(O)c4c3=O)[C@@H](O)[C@H](O)[C@@H]2O)[C@@H](O)[C@H](O)[C@@H]1O
REMARK SMILES IDX 7 1 36 2 34 3 32 4 9 5 8 6 6 7 5 8 4 9 1 10 2 11 42 12 3 13
REMARK SMILES IDX 40 14 38 15 43 16 41 18 39 20 37 22 35 24 10 26 11 27 12 28
REMARK SMILES IDX 30 29 21 30 29 31 31 32 22 33 27 34 23 35 26 36 24 37 13 38
REMARK SMILES IDX 20 39 14 40 18 41 15 42 16 43 19 44 17 46 28 48 25 50 33 52
REMARK H PARENT 43 17 41 19 39 21 37 23 35 25 19 45 17 47 28 49 25 51 33 53
REMARK Flexibility Score: inf
ROOT
ATOM      1  C   UNL     1     365.808 241.493 276.328  1.00  0.00     0.180 C 
ATOM      2  C   UNL     1     366.046 240.992 277.855  1.00  0.00     0.177 C 
ATOM      3  C   UNL     1     367.530 241.215 278.235  1.00  0.00     0.180 C 
ATOM      4  C   UNL     1     368.551 240.333 277.358  1.00  0.00     0.214 C 
ATOM      5  C   UNL     1     368.182 240.660 275.823  1.00  0.00     0.339 C 
ATOM      6  O   UNL     1     366.736 240.758 275.465  1.00  0.00    -0.332 OA
ENDROOT
BRANCH   1   7
ATOM      7  C   UNL     1     365.960 243.085 276.171  1.00  0.00     0.198 C 
BRANCH   7   8
ATOM      8  O   UNL     1     364.896 243.984 276.082  1.00  0.00    -0.347 OA
BRANCH   8   9
ATOM      9  C   UNL     1     364.875 244.264 274.665  1.00  0.00     0.281 C 
ATOM     10  C   UNL     1     366.120 247.301 272.813  1.00  0.00     0.041 C 
ATOM     11  C   UNL     1     365.102 246.101 273.169  1.00  0.00     0.150 C 
ATOM     12  C   UNL     1     365.084 245.043 272.088  1.00  0.00     0.174 C 
ATOM     13  O   UNL     1     365.463 245.554 274.450  1.00  0.00    -0.344 OA
ATOM     14  C   UNL     1     366.245 243.989 272.541  1.00  0.00     0.179 C 
ATOM     15  C   UNL     1     365.776 243.265 273.864  1.00  0.00     0.202 C 
BRANCH  12  16
ATOM     16  O   UNL     1     365.054 245.593 270.794  1.00  0.00    -0.388 OA
ATOM     17  H   UNL     1     366.064 245.824 270.631  1.00  0.00     0.211 HD
ENDBRANCH  12  16
BRANCH  14  18
ATOM     18  O   UNL     1     367.466 244.625 272.905  1.00  0.00    -0.387 OA
ATOM     19  H   UNL     1     367.676 244.413 273.877  1.00  0.00     0.211 HD
ENDBRANCH  14  18
BRANCH  15  20
ATOM     20  O   UNL     1     365.016 242.097 273.605  1.00  0.00    -0.385 OA
ATOM     21  H   UNL     1     364.165 242.229 274.148  1.00  0.00     0.211 HD
ENDBRANCH  15  20
ENDBRANCH   8   9
ENDBRANCH   7   8
ENDBRANCH   1   7
BRANCH   2  22
ATOM     22  O   UNL     1     365.374 239.877 278.476  1.00  0.00    -0.387 OA
ATOM     23  H   UNL     1     364.904 239.375 277.736  1.00  0.00     0.211 HD
ENDBRANCH   2  22
BRANCH   3  24
ATOM     24  O   UNL     1     367.717 241.610 279.573  1.00  0.00    -0.387 OA
ATOM     25  H   UNL     1     367.596 242.584 279.568  1.00  0.00     0.211 HD
ENDBRANCH   3  24
BRANCH   5  26
ATOM     26  O   UNL     1     368.892 241.854 275.247  1.00  0.00    -0.454 OA
BRANCH  26  27
ATOM     27  C   UNL     1     370.137 242.301 275.512  1.00  0.00     0.214 A 
ATOM     28  C   UNL     1     370.325 243.636 276.085  1.00  0.00     0.180 A 
ATOM     29  C   UNL     1     371.273 241.434 275.569  1.00  0.00     0.239 A 
ATOM     30  O   UNL     1     371.521 244.103 276.320  1.00  0.00    -0.452 OA
ATOM     31  C   UNL     1     372.477 241.922 276.051  1.00  0.00     0.111 A 
ATOM     32  O   UNL     1     371.087 240.204 275.260  1.00  0.00    -0.285 OA
ATOM     33  C   UNL     1     372.571 243.338 276.343  1.00  0.00     0.146 A 
ATOM     34  C   UNL     1     373.711 241.200 276.100  1.00  0.00     0.134 A 
ATOM     35  C   UNL     1     373.801 243.978 276.544  1.00  0.00     0.094 A 
ATOM     36  C   UNL     1     374.881 241.857 276.559  1.00  0.00     0.093 A 
ATOM     37  C   UNL     1     375.064 243.247 276.494  1.00  0.00     0.123 A 
BRANCH  28  38
ATOM     38  C   UNL     1     369.143 244.374 276.645  1.00  0.00     0.025 A 
ATOM     39  C   UNL     1     368.324 245.192 275.832  1.00  0.00     0.062 A 
ATOM     40  C   UNL     1     368.992 244.435 277.974  1.00  0.00     0.016 A 
ATOM     41  C   UNL     1     367.698 246.262 276.401  1.00  0.00     0.158 A 
ATOM     42  C   UNL     1     368.944 245.739 278.394  1.00  0.00     0.051 A 
ATOM     43  C   UNL     1     368.148 246.655 277.685  1.00  0.00     0.157 A 
BRANCH  41  44
ATOM     44  O   UNL     1     366.772 247.037 275.743  1.00  0.00    -0.504 OA
ATOM     45  H   UNL     1     365.837 247.172 276.122  1.00  0.00     0.293 HD
ENDBRANCH  41  44
BRANCH  43  46
ATOM     46  O   UNL     1     367.851 247.918 278.201  1.00  0.00    -0.504 OA
ATOM     47  H   UNL     1     366.993 248.470 278.056  1.00  0.00     0.293 HD
ENDBRANCH  43  46
ENDBRANCH  28  38
BRANCH  34  48
ATOM     48  O   UNL     1     373.819 239.876 275.615  1.00  0.00    -0.507 OA
ATOM     49  H   UNL     1     374.293 239.807 274.717  1.00  0.00     0.293 HD
ENDBRANCH  34  48
BRANCH  37  50
ATOM     50  O   UNL     1     376.299 243.905 276.731  1.00  0.00    -0.508 OA
ATOM     51  H   UNL     1     377.115 243.406 277.117  1.00  0.00     0.293 HD
ENDBRANCH  37  50
ENDBRANCH  26  27
ENDBRANCH   5  26
BRANCH   4  52
ATOM     52  O   UNL     1     369.876 240.371 277.853  1.00  0.00    -0.384 OA
ATOM     53  H   UNL     1     370.011 241.303 278.230  1.00  0.00     0.211 HD
ENDBRANCH   4  52
TORSDOF 16
ENDMDL
MODEL 5
REMARK VINA RESULT:     2.663      2.083      4.734
REMARK INTER + INTRA:           4.631
REMARK INTER:                   3.851
REMARK INTRA:                   0.780
REMARK UNBOUND:                 0.256
REMARK SMILES C[C@@H]1O[C@H](OC[C@H]2O[C@@H](Oc3c(-c4ccc(O)c(O)c4)oc4cc(O)cc(O)c4c3=O)[C@@H](O)[C@H](O)[C@@H]2O)[C@@H](O)[C@H](O)[C@@H]1O
REMARK SMILES IDX 7 1 36 2 34 3 32 4 9 5 8 6 6 7 5 8 4 9 1 10 2 11 42 12 3 13
REMARK SMILES IDX 40 14 38 15 43 16 41 18 39 20 37 22 35 24 10 26 11 27 12 28
REMARK SMILES IDX 30 29 21 30 29 31 31 32 22 33 27 34 23 35 26 36 24 37 13 38
REMARK SMILES IDX 20 39 14 40 18 41 15 42 16 43 19 44 17 46 28 48 25 50 33 52
REMARK H PARENT 43 17 41 19 39 21 37 23 35 25 19 45 17 47 28 49 25 51 33 53
REMARK Flexibility Score: inf
ROOT
ATOM      1  C   UNL     1     366.447 244.107 276.179  1.00  0.00     0.180 C 
ATOM      2  C   UNL     1     365.929 242.671 276.737  1.00  0.00     0.177 C 
ATOM      3  C   UNL     1     365.985 241.634 275.589  1.00  0.00     0.180 C 
ATOM      4  C   UNL     1     364.988 241.977 274.372  1.00  0.00     0.214 C 
ATOM      5  C   UNL     1     365.349 243.489 273.944  1.00  0.00     0.339 C 
ATOM      6  O   UNL     1     365.608 244.473 275.036  1.00  0.00    -0.332 OA
ENDROOT
BRANCH   1   7
ATOM      7  C   UNL     1     368.011 244.097 275.810  1.00  0.00     0.198 C 
BRANCH   7   8
ATOM      8  O   UNL     1     369.023 244.632 276.608  1.00  0.00    -0.347 OA
BRANCH   8   9
ATOM      9  C   UNL     1     369.906 243.498 276.749  1.00  0.00     0.281 C 
ATOM     10  C   UNL     1     369.499 239.980 275.464  1.00  0.00     0.041 C 
ATOM     11  C   UNL     1     369.876 241.129 276.532  1.00  0.00     0.150 C 
ATOM     12  C   UNL     1     371.371 241.230 276.741  1.00  0.00     0.174 C 
ATOM     13  O   UNL     1     369.310 242.375 276.087  1.00  0.00    -0.344 OA
ATOM     14  C   UNL     1     371.858 242.318 275.626  1.00  0.00     0.179 C 
ATOM     15  C   UNL     1     371.269 243.731 276.015  1.00  0.00     0.202 C 
BRANCH  12  16
ATOM     16  O   UNL     1     371.986 239.971 276.858  1.00  0.00    -0.388 OA
ATOM     17  H   UNL     1     372.076 239.866 277.897  1.00  0.00     0.211 HD
ENDBRANCH  12  16
BRANCH  14  18
ATOM     18  O   UNL     1     371.328 242.064 274.329  1.00  0.00    -0.387 OA
ATOM     19  H   UNL     1     371.790 242.669 273.655  1.00  0.00     0.211 HD
ENDBRANCH  14  18
BRANCH  15  20
ATOM     20  O   UNL     1     372.121 244.455 276.885  1.00  0.00    -0.385 OA
ATOM     21  H   UNL     1     372.728 243.743 277.287  1.00  0.00     0.211 HD
ENDBRANCH  15  20
ENDBRANCH   8   9
ENDBRANCH   7   8
ENDBRANCH   1   7
BRANCH   2  22
ATOM     22  O   UNL     1     364.900 242.489 277.730  1.00  0.00    -0.387 OA
ATOM     23  H   UNL     1     364.823 241.493 277.885  1.00  0.00     0.211 HD
ENDBRANCH   2  22
BRANCH   3  24
ATOM     24  O   UNL     1     366.362 240.345 276.011  1.00  0.00    -0.387 OA
ATOM     25  H   UNL     1     367.005 240.495 276.737  1.00  0.00     0.211 HD
ENDBRANCH   3  24
BRANCH   5  26
ATOM     26  O   UNL     1     366.452 243.609 272.929  1.00  0.00    -0.454 OA
BRANCH  26  27
ATOM     27  C   UNL     1     366.857 244.703 272.252  1.00  0.00     0.214 A 
ATOM     28  C   UNL     1     366.937 244.666 270.790  1.00  0.00     0.180 A 
ATOM     29  C   UNL     1     366.910 246.003 272.845  1.00  0.00     0.239 A 
ATOM     30  O   UNL     1     367.357 245.702 270.114  1.00  0.00    -0.452 OA
ATOM     31  C   UNL     1     367.131 247.109 272.040  1.00  0.00     0.111 A 
ATOM     32  O   UNL     1     366.645 246.086 274.096  1.00  0.00    -0.285 OA
ATOM     33  C   UNL     1     367.445 246.884 270.644  1.00  0.00     0.146 A 
ATOM     34  C   UNL     1     367.281 248.456 272.497  1.00  0.00     0.134 A 
ATOM     35  C   UNL     1     367.971 247.893 269.827  1.00  0.00     0.094 A 
ATOM     36  C   UNL     1     367.572 249.478 271.557  1.00  0.00     0.093 A 
ATOM     37  C   UNL     1     368.212 249.241 270.330  1.00  0.00     0.123 A 
BRANCH  28  38
ATOM     38  C   UNL     1     366.295 243.533 270.042  1.00  0.00     0.025 A 
ATOM     39  C   UNL     1     367.057 242.468 269.509  1.00  0.00     0.062 A 
ATOM     40  C   UNL     1     365.010 243.644 269.682  1.00  0.00     0.016 A 
ATOM     41  C   UNL     1     366.602 241.832 268.391  1.00  0.00     0.158 A 
ATOM     42  C   UNL     1     364.875 243.510 268.325  1.00  0.00     0.051 A 
ATOM     43  C   UNL     1     365.564 242.474 267.671  1.00  0.00     0.157 A 
BRANCH  41  44
ATOM     44  O   UNL     1     367.183 240.699 267.872  1.00  0.00    -0.504 OA
ATOM     45  H   UNL     1     366.638 240.029 267.334  1.00  0.00     0.293 HD
ENDBRANCH  41  44
BRANCH  43  46
ATOM     46  O   UNL     1     365.275 242.122 266.351  1.00  0.00    -0.504 OA
ATOM     47  H   UNL     1     365.025 241.189 265.989  1.00  0.00     0.293 HD
ENDBRANCH  43  46
ENDBRANCH  28  38
BRANCH  34  48
ATOM     48  O   UNL     1     367.241 248.787 273.870  1.00  0.00    -0.507 OA
ATOM     49  H   UNL     1     366.396 248.471 274.342  1.00  0.00     0.293 HD
ENDBRANCH  34  48
BRANCH  37  50
ATOM     50  O   UNL     1     368.717 250.260 269.480  1.00  0.00    -0.508 OA
ATOM     51  H   UNL     1     368.204 251.141 269.324  1.00  0.00     0.293 HD
ENDBRANCH  37  50
ENDBRANCH  26  27
ENDBRANCH   5  26
BRANCH   4  52
ATOM     52  O   UNL     1     364.879 240.921 273.436  1.00  0.00    -0.384 OA
ATOM     53  H   UNL     1     363.899 240.872 273.177  1.00  0.00     0.211 HD
ENDBRANCH   4  52
TORSDOF 16
ENDMDL
MODEL 6
REMARK VINA RESULT:     2.963      2.147      3.259
REMARK INTER + INTRA:           5.125
REMARK INTER:                   5.257
REMARK INTRA:                  -0.133
REMARK UNBOUND:                 0.256
REMARK SMILES C[C@@H]1O[C@H](OC[C@H]2O[C@@H](Oc3c(-c4ccc(O)c(O)c4)oc4cc(O)cc(O)c4c3=O)[C@@H](O)[C@H](O)[C@@H]2O)[C@@H](O)[C@H](O)[C@@H]1O
REMARK SMILES IDX 7 1 36 2 34 3 32 4 9 5 8 6 6 7 5 8 4 9 1 10 2 11 42 12 3 13
REMARK SMILES IDX 40 14 38 15 43 16 41 18 39 20 37 22 35 24 10 26 11 27 12 28
REMARK SMILES IDX 30 29 21 30 29 31 31 32 22 33 27 34 23 35 26 36 24 37 13 38
REMARK SMILES IDX 20 39 14 40 18 41 15 42 16 43 19 44 17 46 28 48 25 50 33 52
REMARK H PARENT 43 17 41 19 39 21 37 23 35 25 19 45 17 47 28 49 25 51 33 53
REMARK Flexibility Score: inf
ROOT
ATOM      1  C   UNL     1     366.031 245.087 275.364  1.00  0.00     0.180 C 
ATOM      2  C   UNL     1     365.867 243.654 276.113  1.00  0.00     0.177 C 
ATOM      3  C   UNL     1     366.033 242.519 275.073  1.00  0.00     0.180 C 
ATOM      4  C   UNL     1     364.886 242.518 273.943  1.00  0.00     0.214 C 
ATOM      5  C   UNL     1     364.893 244.010 273.333  1.00  0.00     0.339 C 
ATOM      6  O   UNL     1     365.040 245.148 274.288  1.00  0.00    -0.332 OA
ENDROOT
BRANCH   1   7
ATOM      7  C   UNL     1     367.527 245.336 274.830  1.00  0.00     0.198 C 
BRANCH   7   8
ATOM      8  O   UNL     1     368.425 244.329 274.474  1.00  0.00    -0.347 OA
BRANCH   8   9
ATOM      9  C   UNL     1     368.734 243.752 275.762  1.00  0.00     0.281 C 
ATOM     10  C   UNL     1     370.586 240.573 276.571  1.00  0.00     0.041 C 
ATOM     11  C   UNL     1     369.424 241.682 276.710  1.00  0.00     0.150 C 
ATOM     12  C   UNL     1     369.557 242.473 277.993  1.00  0.00     0.174 C 
ATOM     13  O   UNL     1     369.454 242.531 275.550  1.00  0.00    -0.344 OA
ATOM     14  C   UNL     1     370.505 243.738 277.585  1.00  0.00     0.179 C 
ATOM     15  C   UNL     1     369.704 244.663 276.586  1.00  0.00     0.202 C 
BRANCH  12  16
ATOM     16  O   UNL     1     369.852 241.660 279.102  1.00  0.00    -0.388 OA
ATOM     17  H   UNL     1     368.896 241.376 279.426  1.00  0.00     0.211 HD
ENDBRANCH  12  16
BRANCH  14  18
ATOM     18  O   UNL     1     371.664 243.354 276.853  1.00  0.00    -0.387 OA
ATOM     19  H   UNL     1     371.454 243.376 275.859  1.00  0.00     0.211 HD
ENDBRANCH  14  18
BRANCH  15  20
ATOM     20  O   UNL     1     368.929 245.643 277.254  1.00  0.00    -0.385 OA
ATOM     21  H   UNL     1     368.055 245.166 277.466  1.00  0.00     0.211 HD
ENDBRANCH  15  20
ENDBRANCH   8   9
ENDBRANCH   7   8
ENDBRANCH   1   7
BRANCH   2  22
ATOM     22  O   UNL     1     364.987 243.395 277.225  1.00  0.00    -0.387 OA
ATOM     23  H   UNL     1     364.891 242.391 277.287  1.00  0.00     0.211 HD
ENDBRANCH   2  22
BRANCH   3  24
ATOM     24  O   UNL     1     366.700 241.386 275.576  1.00  0.00    -0.387 OA
ATOM     25  H   UNL     1     366.008 240.693 275.640  1.00  0.00     0.211 HD
ENDBRANCH   3  24
BRANCH   5  26
ATOM     26  O   UNL     1     365.856 244.220 272.197  1.00  0.00    -0.454 OA
BRANCH  26  27
ATOM     27  C   UNL     1     365.659 244.018 270.878  1.00  0.00     0.214 A 
ATOM     28  C   UNL     1     365.485 245.164 269.983  1.00  0.00     0.180 A 
ATOM     29  C   UNL     1     365.926 242.766 270.241  1.00  0.00     0.239 A 
ATOM     30  O   UNL     1     365.262 244.993 268.708  1.00  0.00    -0.452 OA
ATOM     31  C   UNL     1     365.903 242.689 268.857  1.00  0.00     0.111 A 
ATOM     32  O   UNL     1     366.276 241.790 270.993  1.00  0.00    -0.285 OA
ATOM     33  C   UNL     1     365.465 243.855 268.116  1.00  0.00     0.146 A 
ATOM     34  C   UNL     1     366.078 241.498 268.085  1.00  0.00     0.134 A 
ATOM     35  C   UNL     1     365.124 243.791 266.760  1.00  0.00     0.094 A 
ATOM     36  C   UNL     1     365.961 241.564 266.673  1.00  0.00     0.093 A 
ATOM     37  C   UNL     1     365.212 242.546 266.004  1.00  0.00     0.123 A 
BRANCH  28  38
ATOM     38  C   UNL     1     365.820 246.544 270.475  1.00  0.00     0.025 A 
ATOM     39  C   UNL     1     367.148 247.028 270.482  1.00  0.00     0.062 A 
ATOM     40  C   UNL     1     364.879 247.244 271.122  1.00  0.00     0.016 A 
ATOM     41  C   UNL     1     367.506 247.946 271.426  1.00  0.00     0.158 A 
ATOM     42  C   UNL     1     365.317 247.602 272.370  1.00  0.00     0.051 A 
ATOM     43  C   UNL     1     366.616 248.121 272.514  1.00  0.00     0.157 A 
BRANCH  41  44
ATOM     44  O   UNL     1     368.721 248.588 271.438  1.00  0.00    -0.504 OA
ATOM     45  H   UNL     1     369.528 248.194 270.958  1.00  0.00     0.293 HD
ENDBRANCH  41  44
BRANCH  43  46
ATOM     46  O   UNL     1     367.029 248.739 273.695  1.00  0.00    -0.504 OA
ATOM     47  H   UNL     1     366.824 248.447 274.663  1.00  0.00     0.293 HD
ENDBRANCH  43  46
ENDBRANCH  28  38
BRANCH  34  48
ATOM     48  O   UNL     1     366.271 240.237 268.693  1.00  0.00    -0.507 OA
ATOM     49  H   UNL     1     367.249 239.970 268.779  1.00  0.00     0.293 HD
ENDBRANCH  34  48
BRANCH  37  50
ATOM     50  O   UNL     1     364.892 242.505 264.621  1.00  0.00    -0.508 OA
ATOM     51  H   UNL     1     365.607 242.653 263.893  1.00  0.00     0.293 HD
ENDBRANCH  37  50
ENDBRANCH  26  27
ENDBRANCH   5  26
BRANCH   4  52
ATOM     52  O   UNL     1     364.914 241.358 273.133  1.00  0.00    -0.384 OA
ATOM     53  H   UNL     1     365.701 241.471 272.503  1.00  0.00     0.211 HD
ENDBRANCH   4  52
TORSDOF 16
ENDMDL
MODEL 7
REMARK VINA RESULT:     3.327      2.179      4.862
REMARK INTER + INTRA:           5.723
REMARK INTER:                   5.629
REMARK INTRA:                   0.094
REMARK UNBOUND:                 0.256
REMARK SMILES C[C@@H]1O[C@H](OC[C@H]2O[C@@H](Oc3c(-c4ccc(O)c(O)c4)oc4cc(O)cc(O)c4c3=O)[C@@H](O)[C@H](O)[C@@H]2O)[C@@H](O)[C@H](O)[C@@H]1O
REMARK SMILES IDX 7 1 36 2 34 3 32 4 9 5 8 6 6 7 5 8 4 9 1 10 2 11 42 12 3 13
REMARK SMILES IDX 40 14 38 15 43 16 41 18 39 20 37 22 35 24 10 26 11 27 12 28
REMARK SMILES IDX 30 29 21 30 29 31 31 32 22 33 27 34 23 35 26 36 24 37 13 38
REMARK SMILES IDX 20 39 14 40 18 41 15 42 16 43 19 44 17 46 28 48 25 50 33 52
REMARK H PARENT 43 17 41 19 39 21 37 23 35 25 19 45 17 47 28 49 25 51 33 53
REMARK Flexibility Score: inf
ROOT
ATOM      1  C   UNL     1     366.789 243.922 276.048  1.00  0.00     0.180 C 
ATOM      2  C   UNL     1     366.096 242.500 276.418  1.00  0.00     0.177 C 
ATOM      3  C   UNL     1     366.038 241.620 275.145  1.00  0.00     0.180 C 
ATOM      4  C   UNL     1     365.103 242.236 273.988  1.00  0.00     0.214 C 
ATOM      5  C   UNL     1     365.648 243.736 273.758  1.00  0.00     0.339 C 
ATOM      6  O   UNL     1     366.013 244.532 274.967  1.00  0.00    -0.332 OA
ENDROOT
BRANCH   1   7
ATOM      7  C   UNL     1     368.345 243.771 275.672  1.00  0.00     0.198 C 
BRANCH   7   8
ATOM      8  O   UNL     1     369.373 243.575 276.595  1.00  0.00    -0.347 OA
BRANCH   8   9
ATOM      9  C   UNL     1     370.145 242.540 275.949  1.00  0.00     0.281 C 
ATOM     10  C   UNL     1     373.860 241.920 276.042  1.00  0.00     0.041 C 
ATOM     11  C   UNL     1     372.399 242.041 275.371  1.00  0.00     0.150 C 
ATOM     12  C   UNL     1     371.851 240.688 274.975  1.00  0.00     0.174 C 
ATOM     13  O   UNL     1     371.526 242.727 276.286  1.00  0.00    -0.344 OA
ATOM     14  C   UNL     1     371.036 240.184 276.296  1.00  0.00     0.179 C 
ATOM     15  C   UNL     1     369.779 241.119 276.495  1.00  0.00     0.202 C 
BRANCH  12  16
ATOM     16  O   UNL     1     372.816 239.875 274.352  1.00  0.00    -0.388 OA
ATOM     17  H   UNL     1     373.624 240.536 274.247  1.00  0.00     0.211 HD
ENDBRANCH  12  16
BRANCH  14  18
ATOM     18  O   UNL     1     371.777 240.335 277.502  1.00  0.00    -0.387 OA
ATOM     19  H   UNL     1     371.960 241.323 277.661  1.00  0.00     0.211 HD
ENDBRANCH  14  18
BRANCH  15  20
ATOM     20  O   UNL     1     368.639 240.656 275.791  1.00  0.00    -0.385 OA
ATOM     21  H   UNL     1     368.070 241.491 275.664  1.00  0.00     0.211 HD
ENDBRANCH  15  20
ENDBRANCH   8   9
ENDBRANCH   7   8
ENDBRANCH   1   7
BRANCH   2  22
ATOM     22  O   UNL     1     365.042 242.317 277.385  1.00  0.00    -0.387 OA
ATOM     23  H   UNL     1     364.783 243.240 277.707  1.00  0.00     0.211 HD
ENDBRANCH   2  22
BRANCH   3  24
ATOM     24  O   UNL     1     366.253 240.251 275.395  1.00  0.00    -0.387 OA
ATOM     25  H   UNL     1     365.355 239.872 275.511  1.00  0.00     0.211 HD
ENDBRANCH   3  24
BRANCH   5  26
ATOM     26  O   UNL     1     366.768 243.851 272.761  1.00  0.00    -0.454 OA
BRANCH  26  27
ATOM     27  C   UNL     1     367.100 244.904 271.986  1.00  0.00     0.214 A 
ATOM     28  C   UNL     1     367.068 244.774 270.528  1.00  0.00     0.180 A 
ATOM     29  C   UNL     1     367.173 246.241 272.490  1.00  0.00     0.239 A 
ATOM     30  O   UNL     1     367.416 245.769 269.757  1.00  0.00    -0.452 OA
ATOM     31  C   UNL     1     367.311 247.295 271.601  1.00  0.00     0.111 A 
ATOM     32  O   UNL     1     367.004 246.401 273.749  1.00  0.00    -0.285 OA
ATOM     33  C   UNL     1     367.522 246.985 270.201  1.00  0.00     0.146 A 
ATOM     34  C   UNL     1     367.471 248.671 271.958  1.00  0.00     0.134 A 
ATOM     35  C   UNL     1     367.964 247.945 269.283  1.00  0.00     0.094 A 
ATOM     36  C   UNL     1     367.669 249.633 270.935  1.00  0.00     0.093 A 
ATOM     37  C   UNL     1     368.218 249.327 269.679  1.00  0.00     0.123 A 
BRANCH  28  38
ATOM     38  C   UNL     1     366.392 243.585 269.905  1.00  0.00     0.025 A 
ATOM     39  C   UNL     1     367.129 242.481 269.420  1.00  0.00     0.062 A 
ATOM     40  C   UNL     1     365.089 243.669 269.605  1.00  0.00     0.016 A 
ATOM     41  C   UNL     1     366.619 241.759 268.380  1.00  0.00     0.158 A 
ATOM     42  C   UNL     1     364.886 243.428 268.271  1.00  0.00     0.051 A 
ATOM     43  C   UNL     1     365.544 242.343 267.666  1.00  0.00     0.157 A 
BRANCH  41  44
ATOM     44  O   UNL     1     367.176 240.588 267.924  1.00  0.00    -0.504 OA
ATOM     45  H   UNL     1     366.593 239.833 267.569  1.00  0.00     0.293 HD
ENDBRANCH  41  44
BRANCH  43  46
ATOM     46  O   UNL     1     365.188 241.888 266.395  1.00  0.00    -0.504 OA
ATOM     47  H   UNL     1     364.941 240.927 266.118  1.00  0.00     0.293 HD
ENDBRANCH  43  46
ENDBRANCH  28  38
BRANCH  34  48
ATOM     48  O   UNL     1     367.530 249.090 273.306  1.00  0.00    -0.507 OA
ATOM     49  H   UNL     1     368.470 249.089 273.694  1.00  0.00     0.293 HD
ENDBRANCH  34  48
BRANCH  37  50
ATOM     50  O   UNL     1     368.637 250.295 268.729  1.00  0.00    -0.508 OA
ATOM     51  H   UNL     1     369.598 250.669 268.723  1.00  0.00     0.293 HD
ENDBRANCH  37  50
ENDBRANCH  26  27
ENDBRANCH   5  26
BRANCH   4  52
ATOM     52  O   UNL     1     364.877 241.331 272.925  1.00  0.00    -0.384 OA
ATOM     53  H   UNL     1     364.115 240.730 273.221  1.00  0.00     0.211 HD
ENDBRANCH   4  52
TORSDOF 16
ENDMDL
