MODEL 1
REMARK VINA RESULT:    -4.526      0.000      0.000
REMARK INTER + INTRA:          -5.756
REMARK INTER:                  -5.452
REMARK INTRA:                  -0.305
REMARK UNBOUND:                -0.305
REMARK SMILES O=c1c(O)c(-c2ccc(O)c(O)c2)oc2cc(O)cc(O)c12
REMARK SMILES IDX 5 1 3 2 2 3 1 4 22 5 20 6 19 7 17 8 16 9 15 10 14 11 6 12
REMARK SMILES IDX 7 13 8 14 9 15 13 16 11 17 10 18 12 20 4 22 21 24 18 26
REMARK H PARENT 10 19 12 21 4 23 21 25 18 27
REMARK Flexibility Score: inf
ROOT
ATOM      1  C   UNL     1      -0.624  23.239 -15.108  1.00  0.00     0.180 A 
ATOM      2  C   UNL     1      -0.125  24.004 -16.181  1.00  0.00     0.208 A 
ATOM      3  C   UNL     1       1.190  24.490 -16.115  1.00  0.00     0.238 A 
ATOM      4  O   UNL     1       1.651  25.165 -17.074  1.00  0.00    -0.285 OA
ATOM      5  C   UNL     1       1.974  24.222 -14.973  1.00  0.00     0.111 A 
ATOM      6  C   UNL     1       3.307  24.679 -14.826  1.00  0.00     0.134 A 
ATOM      7  C   UNL     1       4.019  24.379 -13.655  1.00  0.00     0.093 A 
ATOM      8  C   UNL     1       3.427  23.635 -12.631  1.00  0.00     0.123 A 
ATOM      9  C   UNL     1       2.111  23.181 -12.771  1.00  0.00     0.094 A 
ATOM     10  C   UNL     1       1.385  23.468 -13.931  1.00  0.00     0.146 A 
ATOM     11  O   UNL     1       0.140  23.021 -14.041  1.00  0.00    -0.452 OA
ENDROOT
BRANCH   1  12
ATOM     12  C   UNL     1      -1.994  22.678 -15.113  1.00  0.00     0.025 A 
ATOM     13  C   UNL     1      -3.071  23.483 -14.718  1.00  0.00     0.016 A 
ATOM     14  C   UNL     1      -4.368  22.968 -14.696  1.00  0.00     0.051 A 
ATOM     15  C   UNL     1      -4.614  21.636 -15.051  1.00  0.00     0.157 A 
ATOM     16  C   UNL     1      -2.233  21.334 -15.448  1.00  0.00     0.062 A 
ATOM     17  C   UNL     1      -3.531  20.807 -15.426  1.00  0.00     0.158 A 
BRANCH  15  18
ATOM     18  O   UNL     1      -5.934  21.184 -15.015  1.00  0.00    -0.504 OA
ATOM     19  H   UNL     1      -6.614  21.478 -14.329  1.00  0.00     0.293 HD
ENDBRANCH  15  18
BRANCH  17  20
ATOM     20  O   UNL     1      -3.695  19.465 -15.773  1.00  0.00    -0.504 OA
ATOM     21  H   UNL     1      -2.936  18.801 -15.836  1.00  0.00     0.293 HD
ENDBRANCH  17  20
ENDBRANCH   1  12
BRANCH   2  22
ATOM     22  O   UNL     1      -0.939  24.295 -17.279  1.00  0.00    -0.502 OA
ATOM     23  H   UNL     1      -1.925  24.504 -17.183  1.00  0.00     0.293 HD
ENDBRANCH   2  22
BRANCH   6  24
ATOM     24  O   UNL     1       3.926  25.425 -15.829  1.00  0.00    -0.507 OA
ATOM     25  H   UNL     1       4.749  25.986 -15.645  1.00  0.00     0.293 HD
ENDBRANCH   6  24
BRANCH   8  26
ATOM     26  O   UNL     1       4.155  23.352 -11.478  1.00  0.00    -0.508 OA
ATOM     27  H   UNL     1       3.703  23.249 -10.577  1.00  0.00     0.293 HD
ENDBRANCH   8  26
TORSDOF 6
ENDMDL
MODEL 2
REMARK VINA RESULT:    -4.519      1.307      3.212
REMARK INTER + INTRA:          -5.748
REMARK INTER:                  -5.420
REMARK INTRA:                  -0.328
REMARK UNBOUND:                -0.305
REMARK SMILES O=c1c(O)c(-c2ccc(O)c(O)c2)oc2cc(O)cc(O)c12
REMARK SMILES IDX 5 1 3 2 2 3 1 4 22 5 20 6 19 7 17 8 16 9 15 10 14 11 6 12
REMARK SMILES IDX 7 13 8 14 9 15 13 16 11 17 10 18 12 20 4 22 21 24 18 26
REMARK H PARENT 10 19 12 21 4 23 21 25 18 27
REMARK Flexibility Score: inf
ROOT
ATOM      1  C   UNL     1      -0.355  22.338 -14.444  1.00  0.00     0.180 A 
ATOM      2  C   UNL     1       0.254  21.934 -13.240  1.00  0.00     0.208 A 
ATOM      3  C   UNL     1       1.464  22.532 -12.857  1.00  0.00     0.238 A 
ATOM      4  O   UNL     1       2.012  22.186 -11.775  1.00  0.00    -0.285 OA
ATOM      5  C   UNL     1       2.055  23.504 -13.690  1.00  0.00     0.111 A 
ATOM      6  C   UNL     1       3.276  24.151 -13.379  1.00  0.00     0.134 A 
ATOM      7  C   UNL     1       3.804  25.102 -14.265  1.00  0.00     0.093 A 
ATOM      8  C   UNL     1       3.140  25.417 -15.453  1.00  0.00     0.123 A 
ATOM      9  C   UNL     1       1.933  24.781 -15.765  1.00  0.00     0.094 A 
ATOM     10  C   UNL     1       1.389  23.832 -14.895  1.00  0.00     0.146 A 
ATOM     11  O   UNL     1       0.240  23.247 -15.212  1.00  0.00    -0.452 OA
ENDROOT
BRANCH   1  12
ATOM     12  C   UNL     1      -1.641  21.768 -14.906  1.00  0.00     0.025 A 
ATOM     13  C   UNL     1      -1.636  20.623 -15.714  1.00  0.00     0.016 A 
ATOM     14  C   UNL     1      -2.836  20.079 -16.177  1.00  0.00     0.051 A 
ATOM     15  C   UNL     1      -4.061  20.677 -15.857  1.00  0.00     0.157 A 
ATOM     16  C   UNL     1      -2.866  22.384 -14.601  1.00  0.00     0.062 A 
ATOM     17  C   UNL     1      -4.076  21.848 -15.064  1.00  0.00     0.158 A 
BRANCH  15  18
ATOM     18  O   UNL     1      -5.225  20.081 -16.345  1.00  0.00    -0.504 OA
ATOM     19  H   UNL     1      -5.368  19.083 -16.402  1.00  0.00     0.293 HD
ENDBRANCH  15  18
BRANCH  17  20
ATOM     20  O   UNL     1      -5.255  22.511 -14.721  1.00  0.00    -0.504 OA
ATOM     21  H   UNL     1      -6.028  22.075 -14.239  1.00  0.00     0.293 HD
ENDBRANCH  17  20
ENDBRANCH   1  12
BRANCH   2  22
ATOM     22  O   UNL     1      -0.328  20.934 -12.456  1.00  0.00    -0.502 OA
ATOM     23  H   UNL     1      -0.518  20.006 -12.814  1.00  0.00     0.293 HD
ENDBRANCH   2  22
BRANCH   6  24
ATOM     24  O   UNL     1       3.965  23.858 -12.202  1.00  0.00    -0.507 OA
ATOM     25  H   UNL     1       3.489  23.783 -11.311  1.00  0.00     0.293 HD
ENDBRANCH   6  24
BRANCH   8  26
ATOM     26  O   UNL     1       3.686  26.363 -16.316  1.00  0.00    -0.508 OA
ATOM     27  H   UNL     1       3.168  27.189 -16.594  1.00  0.00     0.293 HD
ENDBRANCH   8  26
TORSDOF 6
ENDMDL
MODEL 3
REMARK VINA RESULT:    -4.453      2.187      3.666
REMARK INTER + INTRA:          -5.669
REMARK INTER:                  -5.533
REMARK INTRA:                  -0.136
REMARK UNBOUND:                -0.305
REMARK SMILES O=c1c(O)c(-c2ccc(O)c(O)c2)oc2cc(O)cc(O)c12
REMARK SMILES IDX 5 1 3 2 2 3 1 4 22 5 20 6 19 7 17 8 16 9 15 10 14 11 6 12
REMARK SMILES IDX 7 13 8 14 9 15 13 16 11 17 10 18 12 20 4 22 21 24 18 26
REMARK H PARENT 10 19 12 21 4 23 21 25 18 27
REMARK Flexibility Score: inf
ROOT
ATOM      1  C   UNL     1       0.327  22.335 -13.911  1.00  0.00     0.180 A 
ATOM      2  C   UNL     1       0.514  20.998 -13.510  1.00  0.00     0.208 A 
ATOM      3  C   UNL     1       1.682  20.654 -12.813  1.00  0.00     0.238 A 
ATOM      4  O   UNL     1       1.855  19.462 -12.440  1.00  0.00    -0.285 OA
ATOM      5  C   UNL     1       2.650  21.644 -12.546  1.00  0.00     0.111 A 
ATOM      6  C   UNL     1       3.857  21.380 -11.852  1.00  0.00     0.134 A 
ATOM      7  C   UNL     1       4.774  22.418 -11.634  1.00  0.00     0.093 A 
ATOM      8  C   UNL     1       4.512  23.710 -12.095  1.00  0.00     0.123 A 
ATOM      9  C   UNL     1       3.322  23.977 -12.780  1.00  0.00     0.094 A 
ATOM     10  C   UNL     1       2.393  22.957 -13.006  1.00  0.00     0.146 A 
ATOM     11  O   UNL     1       1.270  23.239 -13.654  1.00  0.00    -0.452 OA
ENDROOT
BRANCH   1  12
ATOM     12  C   UNL     1      -0.887  22.778 -14.633  1.00  0.00     0.025 A 
ATOM     13  C   UNL     1      -0.756  23.403 -15.881  1.00  0.00     0.016 A 
ATOM     14  C   UNL     1      -1.886  23.847 -16.571  1.00  0.00     0.051 A 
ATOM     15  C   UNL     1      -3.165  23.690 -16.023  1.00  0.00     0.157 A 
ATOM     16  C   UNL     1      -2.166  22.639 -14.069  1.00  0.00     0.062 A 
ATOM     17  C   UNL     1      -3.306  23.084 -14.752  1.00  0.00     0.158 A 
BRANCH  15  18
ATOM     18  O   UNL     1      -4.254  24.148 -16.766  1.00  0.00    -0.504 OA
ATOM     19  H   UNL     1      -4.311  24.102 -17.772  1.00  0.00     0.293 HD
ENDBRANCH  15  18
BRANCH  17  20
ATOM     20  O   UNL     1      -4.545  22.912 -14.133  1.00  0.00    -0.504 OA
ATOM     21  H   UNL     1      -4.730  23.141 -13.166  1.00  0.00     0.293 HD
ENDBRANCH  17  20
ENDBRANCH   1  12
BRANCH   2  22
ATOM     22  O   UNL     1      -0.438  20.026 -13.830  1.00  0.00    -0.502 OA
ATOM     23  H   UNL     1      -1.369  20.026 -13.431  1.00  0.00     0.293 HD
ENDBRANCH   2  22
BRANCH   6  24
ATOM     24  O   UNL     1       4.149  20.100 -11.381  1.00  0.00    -0.507 OA
ATOM     25  H   UNL     1       3.654  19.696 -10.594  1.00  0.00     0.293 HD
ENDBRANCH   6  24
BRANCH   8  26
ATOM     26  O   UNL     1       5.441  24.723 -11.866  1.00  0.00    -0.508 OA
ATOM     27  H   UNL     1       5.527  25.515 -12.492  1.00  0.00     0.293 HD
ENDBRANCH   8  26
TORSDOF 6
ENDMDL
MODEL 4
REMARK VINA RESULT:    -4.416      1.625      7.236
REMARK INTER + INTRA:          -5.625
REMARK INTER:                  -5.483
REMARK INTRA:                  -0.142
REMARK UNBOUND:                -0.305
REMARK SMILES O=c1c(O)c(-c2ccc(O)c(O)c2)oc2cc(O)cc(O)c12
REMARK SMILES IDX 5 1 3 2 2 3 1 4 22 5 20 6 19 7 17 8 16 9 15 10 14 11 6 12
REMARK SMILES IDX 7 13 8 14 9 15 13 16 11 17 10 18 12 20 4 22 21 24 18 26
REMARK H PARENT 10 19 12 21 4 23 21 25 18 27
REMARK Flexibility Score: inf
ROOT
ATOM      1  C   UNL     1      -0.926  22.377 -14.732  1.00  0.00     0.180 A 
ATOM      2  C   UNL     1      -1.069  20.977 -14.807  1.00  0.00     0.208 A 
ATOM      3  C   UNL     1      -2.326  20.438 -15.120  1.00  0.00     0.238 A 
ATOM      4  O   UNL     1      -2.463  19.187 -15.201  1.00  0.00    -0.285 OA
ATOM      5  C   UNL     1      -3.421  21.303 -15.332  1.00  0.00     0.111 A 
ATOM      6  C   UNL     1      -4.722  20.840 -15.648  1.00  0.00     0.134 A 
ATOM      7  C   UNL     1      -5.761  21.764 -15.836  1.00  0.00     0.093 A 
ATOM      8  C   UNL     1      -5.527  23.135 -15.713  1.00  0.00     0.123 A 
ATOM      9  C   UNL     1      -4.244  23.597 -15.401  1.00  0.00     0.094 A 
ATOM     10  C   UNL     1      -3.194  22.694 -15.213  1.00  0.00     0.146 A 
ATOM     11  O   UNL     1      -1.985  23.159 -14.924  1.00  0.00    -0.452 OA
ENDROOT
BRANCH   1  12
ATOM     12  C   UNL     1       0.371  23.020 -14.426  1.00  0.00     0.025 A 
ATOM     13  C   UNL     1       0.998  23.807 -15.402  1.00  0.00     0.016 A 
ATOM     14  C   UNL     1       2.232  24.406 -15.141  1.00  0.00     0.051 A 
ATOM     15  C   UNL     1       2.871  24.218 -13.910  1.00  0.00     0.157 A 
ATOM     16  C   UNL     1       1.020  22.810 -13.197  1.00  0.00     0.062 A 
ATOM     17  C   UNL     1       2.261  23.404 -12.928  1.00  0.00     0.158 A 
BRANCH  15  18
ATOM     18  O   UNL     1       4.100  24.850 -13.710  1.00  0.00    -0.504 OA
ATOM     19  H   UNL     1       4.931  24.653 -14.247  1.00  0.00     0.293 HD
ENDBRANCH  15  18
BRANCH  17  20
ATOM     20  O   UNL     1       2.846  23.154 -11.685  1.00  0.00    -0.504 OA
ATOM     21  H   UNL     1       3.124  23.877 -11.037  1.00  0.00     0.293 HD
ENDBRANCH  17  20
ENDBRANCH   1  12
BRANCH   2  22
ATOM     22  O   UNL     1       0.020  20.142 -14.545  1.00  0.00    -0.502 OA
ATOM     23  H   UNL     1      -0.029  19.376 -13.884  1.00  0.00     0.293 HD
ENDBRANCH   2  22
BRANCH   6  24
ATOM     24  O   UNL     1      -4.988  19.477 -15.776  1.00  0.00    -0.507 OA
ATOM     25  H   UNL     1      -5.557  18.979 -15.101  1.00  0.00     0.293 HD
ENDBRANCH   6  24
BRANCH   8  26
ATOM     26  O   UNL     1      -6.577  24.031 -15.903  1.00  0.00    -0.508 OA
ATOM     27  H   UNL     1      -6.523  24.988 -15.574  1.00  0.00     0.293 HD
ENDBRANCH   8  26
TORSDOF 6
ENDMDL
MODEL 5
REMARK VINA RESULT:    -4.349      3.499      8.878
REMARK INTER + INTRA:          -5.543
REMARK INTER:                  -5.613
REMARK INTRA:                   0.070
REMARK UNBOUND:                -0.305
REMARK SMILES O=c1c(O)c(-c2ccc(O)c(O)c2)oc2cc(O)cc(O)c12
REMARK SMILES IDX 5 1 3 2 2 3 1 4 22 5 20 6 19 7 17 8 16 9 15 10 14 11 6 12
REMARK SMILES IDX 7 13 8 14 9 15 13 16 11 17 10 18 12 20 4 22 21 24 18 26
REMARK H PARENT 10 19 12 21 4 23 21 25 18 27
REMARK Flexibility Score: inf
ROOT
ATOM      1  C   UNL     1       5.636  23.812 -11.993  1.00  0.00     0.180 A 
ATOM      2  C   UNL     1       5.971  24.502 -13.175  1.00  0.00     0.208 A 
ATOM      3  C   UNL     1       4.983  24.691 -14.154  1.00  0.00     0.238 A 
ATOM      4  O   UNL     1       5.268  25.317 -15.211  1.00  0.00    -0.285 OA
ATOM      5  C   UNL     1       3.689  24.172 -13.946  1.00  0.00     0.111 A 
ATOM      6  C   UNL     1       2.637  24.315 -14.885  1.00  0.00     0.134 A 
ATOM      7  C   UNL     1       1.378  23.762 -14.608  1.00  0.00     0.093 A 
ATOM      8  C   UNL     1       1.150  23.069 -13.417  1.00  0.00     0.123 A 
ATOM      9  C   UNL     1       2.184  22.925 -12.486  1.00  0.00     0.094 A 
ATOM     10  C   UNL     1       3.446  23.470 -12.742  1.00  0.00     0.146 A 
ATOM     11  O   UNL     1       4.408  23.324 -11.839  1.00  0.00    -0.452 OA
ENDROOT
BRANCH   1  12
ATOM     12  C   UNL     1       6.617  23.590 -10.908  1.00  0.00     0.025 A 
ATOM     13  C   UNL     1       6.646  22.354 -10.247  1.00  0.00     0.016 A 
ATOM     14  C   UNL     1       7.550  22.130  -9.207  1.00  0.00     0.051 A 
ATOM     15  C   UNL     1       8.430  23.138  -8.795  1.00  0.00     0.157 A 
ATOM     16  C   UNL     1       7.483  24.612 -10.482  1.00  0.00     0.062 A 
ATOM     17  C   UNL     1       8.391  24.398  -9.437  1.00  0.00     0.158 A 
BRANCH  15  18
ATOM     18  O   UNL     1       9.314  22.848  -7.754  1.00  0.00    -0.504 OA
ATOM     19  H   UNL     1       9.501  23.470  -6.982  1.00  0.00     0.293 HD
ENDBRANCH  15  18
BRANCH  17  20
ATOM     20  O   UNL     1       9.222  25.457  -9.068  1.00  0.00    -0.504 OA
ATOM     21  H   UNL     1       9.287  26.327  -9.577  1.00  0.00     0.293 HD
ENDBRANCH  17  20
ENDBRANCH   1  12
BRANCH   2  22
ATOM     22  O   UNL     1       7.274  24.964 -13.378  1.00  0.00    -0.502 OA
ATOM     23  H   UNL     1       7.500  25.666 -14.072  1.00  0.00     0.293 HD
ENDBRANCH   2  22
BRANCH   6  24
ATOM     24  O   UNL     1       2.834  25.000 -16.084  1.00  0.00    -0.507 OA
ATOM     25  H   UNL     1       2.279  24.801 -16.908  1.00  0.00     0.293 HD
ENDBRANCH   6  24
BRANCH   8  26
ATOM     26  O   UNL     1      -0.109  22.528 -13.167  1.00  0.00    -0.508 OA
ATOM     27  H   UNL     1      -0.887  23.108 -12.877  1.00  0.00     0.293 HD
ENDBRANCH   8  26
TORSDOF 6
ENDMDL
MODEL 6
REMARK VINA RESULT:    -4.346      6.647     11.636
REMARK INTER + INTRA:          -5.541
REMARK INTER:                  -5.209
REMARK INTRA:                  -0.332
REMARK UNBOUND:                -0.305
REMARK SMILES O=c1c(O)c(-c2ccc(O)c(O)c2)oc2cc(O)cc(O)c12
REMARK SMILES IDX 5 1 3 2 2 3 1 4 22 5 20 6 19 7 17 8 16 9 15 10 14 11 6 12
REMARK SMILES IDX 7 13 8 14 9 15 13 16 11 17 10 18 12 20 4 22 21 24 18 26
REMARK H PARENT 10 19 12 21 4 23 21 25 18 27
REMARK Flexibility Score: inf
ROOT
ATOM      1  C   UNL     1       8.628  24.374  -9.312  1.00  0.00     0.180 A 
ATOM      2  C   UNL     1       9.553  24.990 -10.178  1.00  0.00     0.208 A 
ATOM      3  C   UNL     1       9.173  25.247 -11.504  1.00  0.00     0.238 A 
ATOM      4  O   UNL     1       9.988  25.809 -12.286  1.00  0.00    -0.285 OA
ATOM      5  C   UNL     1       7.889  24.867 -11.947  1.00  0.00     0.111 A 
ATOM      6  C   UNL     1       7.430  25.087 -13.269  1.00  0.00     0.134 A 
ATOM      7  C   UNL     1       6.141  24.672 -13.635  1.00  0.00     0.093 A 
ATOM      8  C   UNL     1       5.305  24.042 -12.711  1.00  0.00     0.123 A 
ATOM      9  C   UNL     1       5.753  23.823 -11.403  1.00  0.00     0.094 A 
ATOM     10  C   UNL     1       7.033  24.231 -11.018  1.00  0.00     0.146 A 
ATOM     11  O   UNL     1       7.432  24.016  -9.770  1.00  0.00    -0.452 OA
ENDROOT
BRANCH   1  12
ATOM     12  C   UNL     1       8.949  24.087  -7.895  1.00  0.00     0.025 A 
ATOM     13  C   UNL     1       9.411  22.813  -7.537  1.00  0.00     0.016 A 
ATOM     14  C   UNL     1       9.700  22.515  -6.205  1.00  0.00     0.051 A 
ATOM     15  C   UNL     1       9.518  23.475  -5.202  1.00  0.00     0.157 A 
ATOM     16  C   UNL     1       8.742  25.046  -6.889  1.00  0.00     0.062 A 
ATOM     17  C   UNL     1       9.026  24.755  -5.548  1.00  0.00     0.158 A 
BRANCH  15  18
ATOM     18  O   UNL     1       9.832  23.116  -3.890  1.00  0.00    -0.504 OA
ATOM     19  H   UNL     1       9.415  23.538  -3.073  1.00  0.00     0.293 HD
ENDBRANCH  15  18
BRANCH  17  20
ATOM     20  O   UNL     1       8.799  25.757  -4.602  1.00  0.00    -0.504 OA
ATOM     21  H   UNL     1       8.949  25.640  -3.610  1.00  0.00     0.293 HD
ENDBRANCH  17  20
ENDBRANCH   1  12
BRANCH   2  22
ATOM     22  O   UNL     1      10.836  25.313  -9.728  1.00  0.00    -0.502 OA
ATOM     23  H   UNL     1      11.645  24.742  -9.940  1.00  0.00     0.293 HD
ENDBRANCH   2  22
BRANCH   6  24
ATOM     24  O   UNL     1       8.241  25.712 -14.217  1.00  0.00    -0.507 OA
ATOM     25  H   UNL     1       9.252  25.695 -14.147  1.00  0.00     0.293 HD
ENDBRANCH   6  24
BRANCH   8  26
ATOM     26  O   UNL     1       4.031  23.638 -13.100  1.00  0.00    -0.508 OA
ATOM     27  H   UNL     1       3.700  23.769 -14.049  1.00  0.00     0.293 HD
ENDBRANCH   8  26
TORSDOF 6
ENDMDL
MODEL 7
REMARK VINA RESULT:    -4.339      4.141      7.052
REMARK INTER + INTRA:          -5.531
REMARK INTER:                  -5.908
REMARK INTRA:                   0.376
REMARK UNBOUND:                -0.305
REMARK SMILES O=c1c(O)c(-c2ccc(O)c(O)c2)oc2cc(O)cc(O)c12
REMARK SMILES IDX 5 1 3 2 2 3 1 4 22 5 20 6 19 7 17 8 16 9 15 10 14 11 6 12
REMARK SMILES IDX 7 13 8 14 9 15 13 16 11 17 10 18 12 20 4 22 21 24 18 26
REMARK H PARENT 10 19 12 21 4 23 21 25 18 27
REMARK Flexibility Score: inf
ROOT
ATOM      1  C   UNL     1       5.655  24.173 -12.202  1.00  0.00     0.180 A 
ATOM      2  C   UNL     1       6.463  24.743 -13.205  1.00  0.00     0.208 A 
ATOM      3  C   UNL     1       7.773  25.128 -12.884  1.00  0.00     0.238 A 
ATOM      4  O   UNL     1       8.510  25.629 -13.777  1.00  0.00    -0.285 OA
ATOM      5  C   UNL     1       8.246  24.959 -11.566  1.00  0.00     0.111 A 
ATOM      6  C   UNL     1       9.552  25.326 -11.158  1.00  0.00     0.134 A 
ATOM      7  C   UNL     1       9.944  25.133  -9.826  1.00  0.00     0.093 A 
ATOM      8  C   UNL     1       9.060  24.584  -8.894  1.00  0.00     0.123 A 
ATOM      9  C   UNL     1       7.768  24.220  -9.291  1.00  0.00     0.094 A 
ATOM     10  C   UNL     1       7.359  24.402 -10.615  1.00  0.00     0.146 A 
ATOM     11  O   UNL     1       6.130  24.042 -10.966  1.00  0.00    -0.452 OA
ENDROOT
BRANCH   1  12
ATOM     12  C   UNL     1       4.269  23.724 -12.468  1.00  0.00     0.025 A 
ATOM     13  C   UNL     1       3.536  24.328 -13.500  1.00  0.00     0.016 A 
ATOM     14  C   UNL     1       2.221  23.934 -13.756  1.00  0.00     0.051 A 
ATOM     15  C   UNL     1       1.608  22.945 -12.978  1.00  0.00     0.157 A 
ATOM     16  C   UNL     1       3.649  22.747 -11.671  1.00  0.00     0.062 A 
ATOM     17  C   UNL     1       2.329  22.348 -11.918  1.00  0.00     0.158 A 
BRANCH  15  18
ATOM     18  O   UNL     1       0.293  22.592 -13.290  1.00  0.00    -0.504 OA
ATOM     19  H   UNL     1      -0.226  22.974 -14.067  1.00  0.00     0.293 HD
ENDBRANCH  15  18
BRANCH  17  20
ATOM     20  O   UNL     1       1.778  21.370 -11.088  1.00  0.00    -0.504 OA
ATOM     21  H   UNL     1       2.324  20.703 -10.562  1.00  0.00     0.293 HD
ENDBRANCH  17  20
ENDBRANCH   1  12
BRANCH   2  22
ATOM     22  O   UNL     1       5.954  24.945 -14.491  1.00  0.00    -0.502 OA
ATOM     23  H   UNL     1       6.374  25.594 -15.145  1.00  0.00     0.293 HD
ENDBRANCH   2  22
BRANCH   6  24
ATOM     24  O   UNL     1      10.458  25.877 -12.064  1.00  0.00    -0.507 OA
ATOM     25  H   UNL     1      11.459  25.811 -11.923  1.00  0.00     0.293 HD
ENDBRANCH   6  24
BRANCH   8  26
ATOM     26  O   UNL     1       9.474  24.404  -7.577  1.00  0.00    -0.508 OA
ATOM     27  H   UNL     1       9.786  23.502  -7.237  1.00  0.00     0.293 HD
ENDBRANCH   8  26
TORSDOF 6
ENDMDL
MODEL 8
REMARK VINA RESULT:    -4.290      1.509      7.139
REMARK INTER + INTRA:          -5.473
REMARK INTER:                  -5.192
REMARK INTRA:                  -0.281
REMARK UNBOUND:                -0.305
REMARK SMILES O=c1c(O)c(-c2ccc(O)c(O)c2)oc2cc(O)cc(O)c12
REMARK SMILES IDX 5 1 3 2 2 3 1 4 22 5 20 6 19 7 17 8 16 9 15 10 14 11 6 12
REMARK SMILES IDX 7 13 8 14 9 15 13 16 11 17 10 18 12 20 4 22 21 24 18 26
REMARK H PARENT 10 19 12 21 4 23 21 25 18 27
REMARK Flexibility Score: inf
ROOT
ATOM      1  C   UNL     1       0.318  22.088 -14.272  1.00  0.00     0.180 A 
ATOM      2  C   UNL     1       0.388  20.729 -14.635  1.00  0.00     0.208 A 
ATOM      3  C   UNL     1      -0.784  20.070 -15.034  1.00  0.00     0.238 A 
ATOM      4  O   UNL     1      -0.731  18.856 -15.372  1.00  0.00    -0.285 OA
ATOM      5  C   UNL     1      -2.008  20.772 -15.044  1.00  0.00     0.111 A 
ATOM      6  C   UNL     1      -3.236  20.181 -15.429  1.00  0.00     0.134 A 
ATOM      7  C   UNL     1      -4.413  20.944 -15.405  1.00  0.00     0.093 A 
ATOM      8  C   UNL     1      -4.387  22.281 -15.002  1.00  0.00     0.123 A 
ATOM      9  C   UNL     1      -3.177  22.871 -14.621  1.00  0.00     0.094 A 
ATOM     10  C   UNL     1      -1.992  22.128 -14.641  1.00  0.00     0.146 A 
ATOM     11  O   UNL     1      -0.857  22.713 -14.279  1.00  0.00    -0.452 OA
ENDROOT
BRANCH   1  12
ATOM     12  C   UNL     1       1.514  22.855 -13.858  1.00  0.00     0.025 A 
ATOM     13  C   UNL     1       2.013  22.705 -12.556  1.00  0.00     0.016 A 
ATOM     14  C   UNL     1       3.128  23.433 -12.138  1.00  0.00     0.051 A 
ATOM     15  C   UNL     1       3.756  24.336 -13.003  1.00  0.00     0.157 A 
ATOM     16  C   UNL     1       2.128  23.777 -14.722  1.00  0.00     0.062 A 
ATOM     17  C   UNL     1       3.246  24.516 -14.310  1.00  0.00     0.158 A 
BRANCH  15  18
ATOM     18  O   UNL     1       4.871  25.028 -12.527  1.00  0.00    -0.504 OA
ATOM     19  H   UNL     1       5.690  24.583 -12.140  1.00  0.00     0.293 HD
ENDBRANCH  15  18
BRANCH  17  20
ATOM     20  O   UNL     1       3.806  25.412 -15.222  1.00  0.00    -0.504 OA
ATOM     21  H   UNL     1       4.450  26.148 -14.967  1.00  0.00     0.293 HD
ENDBRANCH  17  20
ENDBRANCH   1  12
BRANCH   2  22
ATOM     22  O   UNL     1       1.605  20.043 -14.569  1.00  0.00    -0.502 OA
ATOM     23  H   UNL     1       1.659  19.051 -14.374  1.00  0.00     0.293 HD
ENDBRANCH   2  22
BRANCH   6  24
ATOM     24  O   UNL     1      -3.295  18.848 -15.835  1.00  0.00    -0.507 OA
ATOM     25  H   UNL     1      -3.449  18.096 -15.174  1.00  0.00     0.293 HD
ENDBRANCH   6  24
BRANCH   8  26
ATOM     26  O   UNL     1      -5.570  23.017 -14.985  1.00  0.00    -0.508 OA
ATOM     27  H   UNL     1      -5.975  23.350 -14.118  1.00  0.00     0.293 HD
ENDBRANCH   8  26
TORSDOF 6
ENDMDL
MODEL 9
REMARK VINA RESULT:    -4.218      6.289      9.554
REMARK INTER + INTRA:          -5.386
REMARK INTER:                  -5.061
REMARK INTRA:                  -0.326
REMARK UNBOUND:                -0.305
REMARK SMILES O=c1c(O)c(-c2ccc(O)c(O)c2)oc2cc(O)cc(O)c12
REMARK SMILES IDX 5 1 3 2 2 3 1 4 22 5 20 6 19 7 17 8 16 9 15 10 14 11 6 12
REMARK SMILES IDX 7 13 8 14 9 15 13 16 11 17 10 18 12 20 4 22 21 24 18 26
REMARK H PARENT 10 19 12 21 4 23 21 25 18 27
REMARK Flexibility Score: inf
ROOT
ATOM      1  C   UNL     1      -3.687  15.631 -14.188  1.00  0.00     0.180 A 
ATOM      2  C   UNL     1      -2.502  16.393 -14.170  1.00  0.00     0.208 A 
ATOM      3  C   UNL     1      -2.416  17.535 -14.981  1.00  0.00     0.238 A 
ATOM      4  O   UNL     1      -1.364  18.230 -14.965  1.00  0.00    -0.285 OA
ATOM      5  C   UNL     1      -3.504  17.884 -15.808  1.00  0.00     0.111 A 
ATOM      6  C   UNL     1      -3.496  19.017 -16.659  1.00  0.00     0.134 A 
ATOM      7  C   UNL     1      -4.615  19.292 -17.459  1.00  0.00     0.093 A 
ATOM      8  C   UNL     1      -5.737  18.460 -17.428  1.00  0.00     0.123 A 
ATOM      9  C   UNL     1      -5.749  17.340 -16.589  1.00  0.00     0.094 A 
ATOM     10  C   UNL     1      -4.646  17.049 -15.783  1.00  0.00     0.146 A 
ATOM     11  O   UNL     1      -4.686  15.983 -14.992  1.00  0.00    -0.452 OA
ENDROOT
BRANCH   1  12
ATOM     12  C   UNL     1      -3.859  14.425 -13.347  1.00  0.00     0.025 A 
ATOM     13  C   UNL     1      -3.457  13.177 -13.841  1.00  0.00     0.016 A 
ATOM     14  C   UNL     1      -3.629  12.023 -13.074  1.00  0.00     0.051 A 
ATOM     15  C   UNL     1      -4.219  12.091 -11.806  1.00  0.00     0.157 A 
ATOM     16  C   UNL     1      -4.473  14.494 -12.084  1.00  0.00     0.062 A 
ATOM     17  C   UNL     1      -4.652  13.341 -11.308  1.00  0.00     0.158 A 
BRANCH  15  18
ATOM     18  O   UNL     1      -4.355  10.903 -11.086  1.00  0.00    -0.504 OA
ATOM     19  H   UNL     1      -5.142  10.689 -10.491  1.00  0.00     0.293 HD
ENDBRANCH  15  18
BRANCH  17  20
ATOM     20  O   UNL     1      -5.267  13.484 -10.062  1.00  0.00    -0.504 OA
ATOM     21  H   UNL     1      -5.619  12.712  -9.515  1.00  0.00     0.293 HD
ENDBRANCH  17  20
ENDBRANCH   1  12
BRANCH   2  22
ATOM     22  O   UNL     1      -1.420  15.998 -13.378  1.00  0.00    -0.502 OA
ATOM     23  H   UNL     1      -1.511  15.819 -12.385  1.00  0.00     0.293 HD
ENDBRANCH   2  22
BRANCH   6  24
ATOM     24  O   UNL     1      -2.391  19.866 -16.714  1.00  0.00    -0.507 OA
ATOM     25  H   UNL     1      -2.372  20.676 -17.322  1.00  0.00     0.293 HD
ENDBRANCH   6  24
BRANCH   8  26
ATOM     26  O   UNL     1      -6.834  18.755 -18.233  1.00  0.00    -0.508 OA
ATOM     27  H   UNL     1      -7.754  18.380 -18.034  1.00  0.00     0.293 HD
ENDBRANCH   8  26
TORSDOF 6
ENDMDL
