MODEL 1
REMARK VINA RESULT:    -3.565      0.000      0.000
REMARK INTER + INTRA:          -5.664
REMARK INTER:                  -5.233
REMARK INTRA:                  -0.431
REMARK UNBOUND:                -0.431
REMARK SMILES O=C([O-])CCCCCCCC(=O)[O-]
REMARK SMILES IDX 7 1 6 2 5 3 4 4 2 5 1 6 3 7 8 8 9 9 10 10 11 11 12 12 13 13
REMARK H PARENT
REMARK Flexibility Score: inf
ROOT
ATOM      1  C   UNL     1      56.915  27.625  50.722  1.00  0.00     0.000 C 
ENDROOT
BRANCH   1   2
ATOM      2  C   UNL     1      58.071  28.547  50.303  1.00  0.00     0.000 C 
BRANCH   2   3
ATOM      3  C   UNL     1      59.221  27.784  49.623  1.00  0.00     0.006 C 
BRANCH   3   4
ATOM      4  C   UNL     1      59.043  26.263  49.722  1.00  0.00     0.053 C 
BRANCH   4   5
ATOM      5  C   UNL     1      60.258  25.598  50.294  1.00  0.00     0.041 C 
ATOM      6  O   UNL     1      61.403  26.076  50.076  1.00  0.00    -0.550 OA
ATOM      7  O   UNL     1      60.129  24.431  51.036  1.00  0.00    -0.550 OA
ENDBRANCH   4   5
ENDBRANCH   3   4
ENDBRANCH   2   3
ENDBRANCH   1   2
BRANCH   1   8
ATOM      8  C   UNL     1      55.564  28.354  50.766  1.00  0.00     0.000 C 
BRANCH   8   9
ATOM      9  C   UNL     1      54.431  27.441  50.275  1.00  0.00     0.006 C 
BRANCH   9  10
ATOM     10  C   UNL     1      54.875  25.977  50.154  1.00  0.00     0.053 C 
BRANCH  10  11
ATOM     11  C   UNL     1      53.735  25.078  49.787  1.00  0.00     0.041 C 
ATOM     12  O   UNL     1      52.988  25.367  48.816  1.00  0.00    -0.550 OA
ATOM     13  O   UNL     1      53.518  23.903  50.497  1.00  0.00    -0.550 OA
ENDBRANCH  10  11
ENDBRANCH   9  10
ENDBRANCH   8   9
ENDBRANCH   1   8
TORSDOF 8
ENDMDL
MODEL 2
REMARK VINA RESULT:    -3.486     13.029     14.988
REMARK INTER + INTRA:          -5.548
REMARK INTER:                  -5.194
REMARK INTRA:                  -0.354
REMARK UNBOUND:                -0.431
REMARK SMILES O=C([O-])CCCCCCCC(=O)[O-]
REMARK SMILES IDX 7 1 6 2 5 3 4 4 2 5 1 6 3 7 8 8 9 9 10 10 11 11 12 12 13 13
REMARK H PARENT
REMARK Flexibility Score: inf
ROOT
ATOM      1  C   UNL     1      60.839  33.911  60.247  1.00  0.00     0.000 C 
ENDROOT
BRANCH   1   2
ATOM      2  C   UNL     1      61.809  32.816  60.721  1.00  0.00     0.000 C 
BRANCH   2   3
ATOM      3  C   UNL     1      61.242  31.399  60.525  1.00  0.00     0.006 C 
BRANCH   3   4
ATOM      4  C   UNL     1      61.346  30.554  61.801  1.00  0.00     0.053 C 
BRANCH   4   5
ATOM      5  C   UNL     1      62.453  29.547  61.713  1.00  0.00     0.041 C 
ATOM      6  O   UNL     1      63.647  29.930  61.590  1.00  0.00    -0.550 OA
ATOM      7  O   UNL     1      62.162  28.189  61.729  1.00  0.00    -0.550 OA
ENDBRANCH   4   5
ENDBRANCH   3   4
ENDBRANCH   2   3
ENDBRANCH   1   2
BRANCH   1   8
ATOM      8  C   UNL     1      61.275  35.317  60.685  1.00  0.00     0.000 C 
BRANCH   8   9
ATOM      9  C   UNL     1      62.740  35.582  60.305  1.00  0.00     0.006 C 
BRANCH   9  10
ATOM     10  C   UNL     1      63.582  36.026  61.508  1.00  0.00     0.053 C 
BRANCH  10  11
ATOM     11  C   UNL     1      64.848  35.235  61.623  1.00  0.00     0.041 C 
ATOM     12  O   UNL     1      64.803  33.993  61.826  1.00  0.00    -0.550 OA
ATOM     13  O   UNL     1      66.078  35.863  61.474  1.00  0.00    -0.550 OA
ENDBRANCH  10  11
ENDBRANCH   9  10
ENDBRANCH   8   9
ENDBRANCH   1   8
TORSDOF 8
ENDMDL
MODEL 3
REMARK VINA RESULT:    -3.341      1.078      5.676
REMARK INTER + INTRA:          -5.335
REMARK INTER:                  -4.715
REMARK INTRA:                  -0.620
REMARK UNBOUND:                -0.431
REMARK SMILES O=C([O-])CCCCCCCC(=O)[O-]
REMARK SMILES IDX 7 1 6 2 5 3 4 4 2 5 1 6 3 7 8 8 9 9 10 10 11 11 12 12 13 13
REMARK H PARENT
REMARK Flexibility Score: inf
ROOT
ATOM      1  C   UNL     1      57.748  28.070  51.739  1.00  0.00     0.000 C 
ENDROOT
BRANCH   1   2
ATOM      2  C   UNL     1      56.287  28.515  51.911  1.00  0.00     0.000 C 
BRANCH   2   3
ATOM      3  C   UNL     1      55.410  28.149  50.701  1.00  0.00     0.006 C 
BRANCH   3   4
ATOM      4  C   UNL     1      55.447  26.646  50.394  1.00  0.00     0.053 C 
BRANCH   4   5
ATOM      5  C   UNL     1      54.128  26.151  49.882  1.00  0.00     0.041 C 
ATOM      6  O   UNL     1      53.114  26.897  49.922  1.00  0.00    -0.550 OA
ATOM      7  O   UNL     1      54.011  24.855  49.396  1.00  0.00    -0.550 OA
ENDBRANCH   4   5
ENDBRANCH   3   4
ENDBRANCH   2   3
ENDBRANCH   1   2
BRANCH   1   8
ATOM      8  C   UNL     1      58.530  28.968  50.769  1.00  0.00     0.000 C 
BRANCH   8   9
ATOM      9  C   UNL     1      58.974  28.181  49.527  1.00  0.00     0.006 C 
BRANCH   9  10
ATOM     10  C   UNL     1      59.187  26.691  49.829  1.00  0.00     0.053 C 
BRANCH  10  11
ATOM     11  C   UNL     1      60.639  26.351  49.956  1.00  0.00     0.041 C 
ATOM     12  O   UNL     1      61.518  27.206  49.668  1.00  0.00    -0.550 OA
ATOM     13  O   UNL     1      61.024  25.100  50.422  1.00  0.00    -0.550 OA
ENDBRANCH  10  11
ENDBRANCH   9  10
ENDBRANCH   8   9
ENDBRANCH   1   8
TORSDOF 8
ENDMDL
MODEL 4
REMARK VINA RESULT:    -3.340      1.282      5.578
REMARK INTER + INTRA:          -5.333
REMARK INTER:                  -4.895
REMARK INTRA:                  -0.437
REMARK UNBOUND:                -0.431
REMARK SMILES O=C([O-])CCCCCCCC(=O)[O-]
REMARK SMILES IDX 7 1 6 2 5 3 4 4 2 5 1 6 3 7 8 8 9 9 10 10 11 11 12 12 13 13
REMARK H PARENT
REMARK Flexibility Score: inf
ROOT
ATOM      1  C   UNL     1      55.782  28.603  51.539  1.00  0.00     0.000 C 
ENDROOT
BRANCH   1   2
ATOM      2  C   UNL     1      54.533  28.742  50.655  1.00  0.00     0.000 C 
BRANCH   2   3
ATOM      3  C   UNL     1      54.062  27.395  50.079  1.00  0.00     0.006 C 
BRANCH   3   4
ATOM      4  C   UNL     1      53.490  26.472  51.162  1.00  0.00     0.053 C 
BRANCH   4   5
ATOM      5  C   UNL     1      54.076  25.095  51.084  1.00  0.00     0.041 C 
ATOM      6  O   UNL     1      55.024  24.767  51.847  1.00  0.00    -0.550 OA
ATOM      7  O   UNL     1      53.601  24.187  50.147  1.00  0.00    -0.550 OA
ENDBRANCH   4   5
ENDBRANCH   3   4
ENDBRANCH   2   3
ENDBRANCH   1   2
BRANCH   1   8
ATOM      8  C   UNL     1      56.897  27.790  50.864  1.00  0.00     0.000 C 
BRANCH   8   9
ATOM      9  C   UNL     1      58.160  28.642  50.671  1.00  0.00     0.006 C 
BRANCH   9  10
ATOM     10  C   UNL     1      58.910  28.288  49.380  1.00  0.00     0.053 C 
BRANCH  10  11
ATOM     11  C   UNL     1      59.925  27.211  49.604  1.00  0.00     0.041 C 
ATOM     12  O   UNL     1      59.583  26.000  49.567  1.00  0.00    -0.550 OA
ATOM     13  O   UNL     1      61.257  27.544  49.820  1.00  0.00    -0.550 OA
ENDBRANCH  10  11
ENDBRANCH   9  10
ENDBRANCH   8   9
ENDBRANCH   1   8
TORSDOF 8
ENDMDL
MODEL 5
REMARK VINA RESULT:    -3.336     13.054     14.464
REMARK INTER + INTRA:          -5.327
REMARK INTER:                  -4.796
REMARK INTRA:                  -0.531
REMARK UNBOUND:                -0.431
REMARK SMILES O=C([O-])CCCCCCCC(=O)[O-]
REMARK SMILES IDX 7 1 6 2 5 3 4 4 2 5 1 6 3 7 8 8 9 9 10 10 11 11 12 12 13 13
REMARK H PARENT
REMARK Flexibility Score: inf
ROOT
ATOM      1  C   UNL     1      61.164  31.311  60.527  1.00  0.00     0.000 C 
ENDROOT
BRANCH   1   2
ATOM      2  C   UNL     1      61.274  30.523  61.842  1.00  0.00     0.000 C 
BRANCH   2   3
ATOM      3  C   UNL     1      62.270  29.354  61.749  1.00  0.00     0.006 C 
BRANCH   3   4
ATOM      4  C   UNL     1      63.122  29.419  60.475  1.00  0.00     0.053 C 
BRANCH   4   5
ATOM      5  C   UNL     1      64.526  29.856  60.769  1.00  0.00     0.041 C 
ATOM      6  O   UNL     1      65.447  29.002  60.862  1.00  0.00    -0.550 OA
ATOM      7  O   UNL     1      64.809  31.200  60.973  1.00  0.00    -0.550 OA
ENDBRANCH   4   5
ENDBRANCH   3   4
ENDBRANCH   2   3
ENDBRANCH   1   2
BRANCH   1   8
ATOM      8  C   UNL     1      61.174  32.831  60.746  1.00  0.00     0.000 C 
BRANCH   8   9
ATOM      9  C   UNL     1      62.437  33.465  60.145  1.00  0.00     0.006 C 
BRANCH   9  10
ATOM     10  C   UNL     1      62.908  34.691  60.940  1.00  0.00     0.053 C 
BRANCH  10  11
ATOM     11  C   UNL     1      64.401  34.757  61.027  1.00  0.00     0.041 C 
ATOM     12  O   UNL     1      64.959  35.062  62.114  1.00  0.00    -0.550 OA
ATOM     13  O   UNL     1      65.178  34.451  59.917  1.00  0.00    -0.550 OA
ENDBRANCH  10  11
ENDBRANCH   9  10
ENDBRANCH   8   9
ENDBRANCH   1   8
TORSDOF 8
ENDMDL
MODEL 6
REMARK VINA RESULT:    -3.319     12.766     14.377
REMARK INTER + INTRA:          -5.302
REMARK INTER:                  -4.740
REMARK INTRA:                  -0.563
REMARK UNBOUND:                -0.431
REMARK SMILES O=C([O-])CCCCCCCC(=O)[O-]
REMARK SMILES IDX 7 1 6 2 5 3 4 4 2 5 1 6 3 7 8 8 9 9 10 10 11 11 12 12 13 13
REMARK H PARENT
REMARK Flexibility Score: inf
ROOT
ATOM      1  C   UNL     1      60.554  34.062  60.423  1.00  0.00     0.000 C 
ENDROOT
BRANCH   1   2
ATOM      2  C   UNL     1      61.688  34.992  59.965  1.00  0.00     0.000 C 
BRANCH   2   3
ATOM      3  C   UNL     1      62.625  35.396  61.117  1.00  0.00     0.006 C 
BRANCH   3   4
ATOM      4  C   UNL     1      63.875  34.509  61.184  1.00  0.00     0.053 C 
BRANCH   4   5
ATOM      5  C   UNL     1      65.096  35.235  60.706  1.00  0.00     0.041 C 
ATOM      6  O   UNL     1      65.976  35.603  61.529  1.00  0.00    -0.550 OA
ATOM      7  O   UNL     1      65.245  35.535  59.358  1.00  0.00    -0.550 OA
ENDBRANCH   4   5
ENDBRANCH   3   4
ENDBRANCH   2   3
ENDBRANCH   1   2
BRANCH   1   8
ATOM      8  C   UNL     1      60.713  32.629  59.894  1.00  0.00     0.000 C 
BRANCH   8   9
ATOM      9  C   UNL     1      61.302  31.708  60.972  1.00  0.00     0.006 C 
BRANCH   9  10
ATOM     10  C   UNL     1      62.640  31.090  60.543  1.00  0.00     0.053 C 
BRANCH  10  11
ATOM     11  C   UNL     1      62.975  29.873  61.348  1.00  0.00     0.041 C 
ATOM     12  O   UNL     1      62.058  29.195  61.883  1.00  0.00    -0.550 OA
ATOM     13  O   UNL     1      64.297  29.468  61.482  1.00  0.00    -0.550 OA
ENDBRANCH  10  11
ENDBRANCH   9  10
ENDBRANCH   8   9
ENDBRANCH   1   8
TORSDOF 8
ENDMDL
MODEL 7
REMARK VINA RESULT:    -3.260      2.399      5.426
REMARK INTER + INTRA:          -5.215
REMARK INTER:                  -4.473
REMARK INTRA:                  -0.743
REMARK UNBOUND:                -0.431
REMARK SMILES O=C([O-])CCCCCCCC(=O)[O-]
REMARK SMILES IDX 7 1 6 2 5 3 4 4 2 5 1 6 3 7 8 8 9 9 10 10 11 11 12 12 13 13
REMARK H PARENT
REMARK Flexibility Score: inf
ROOT
ATOM      1  C   UNL     1      54.140  28.419  50.415  1.00  0.00     0.000 C 
ENDROOT
BRANCH   1   2
ATOM      2  C   UNL     1      52.941  27.465  50.539  1.00  0.00     0.000 C 
BRANCH   2   3
ATOM      3  C   UNL     1      53.080  26.221  49.644  1.00  0.00     0.006 C 
BRANCH   3   4
ATOM      4  C   UNL     1      54.404  25.483  49.880  1.00  0.00     0.053 C 
BRANCH   4   5
ATOM      5  C   UNL     1      54.457  24.861  51.243  1.00  0.00     0.041 C 
ATOM      6  O   UNL     1      53.518  24.120  51.637  1.00  0.00    -0.550 OA
ATOM      7  O   UNL     1      55.525  25.129  52.090  1.00  0.00    -0.550 OA
ENDBRANCH   4   5
ENDBRANCH   3   4
ENDBRANCH   2   3
ENDBRANCH   1   2
BRANCH   1   8
ATOM      8  C   UNL     1      54.653  28.903  51.780  1.00  0.00     0.000 C 
BRANCH   8   9
ATOM      9  C   UNL     1      56.157  28.631  51.929  1.00  0.00     0.006 C 
BRANCH   9  10
ATOM     10  C   UNL     1      56.795  28.155  50.616  1.00  0.00     0.053 C 
BRANCH  10  11
ATOM     11  C   UNL     1      58.183  28.691  50.446  1.00  0.00     0.041 C 
ATOM     12  O   UNL     1      58.784  29.216  51.421  1.00  0.00    -0.550 OA
ATOM     13  O   UNL     1      58.827  28.582  49.220  1.00  0.00    -0.550 OA
ENDBRANCH  10  11
ENDBRANCH   9  10
ENDBRANCH   8   9
ENDBRANCH   1   8
TORSDOF 8
ENDMDL
MODEL 8
REMARK VINA RESULT:    -3.235     12.568     14.034
REMARK INTER + INTRA:          -5.179
REMARK INTER:                  -4.606
REMARK INTRA:                  -0.573
REMARK UNBOUND:                -0.431
REMARK SMILES O=C([O-])CCCCCCCC(=O)[O-]
REMARK SMILES IDX 7 1 6 2 5 3 4 4 2 5 1 6 3 7 8 8 9 9 10 10 11 11 12 12 13 13
REMARK H PARENT
REMARK Flexibility Score: inf
ROOT
ATOM      1  C   UNL     1      61.181  31.346  60.375  1.00  0.00     0.000 C 
ENDROOT
BRANCH   1   2
ATOM      2  C   UNL     1      60.986  32.861  60.550  1.00  0.00     0.000 C 
BRANCH   2   3
ATOM      3  C   UNL     1      62.123  33.681  59.915  1.00  0.00     0.006 C 
BRANCH   3   4
ATOM      4  C   UNL     1      62.770  34.646  60.918  1.00  0.00     0.053 C 
BRANCH   4   5
ATOM      5  C   UNL     1      64.144  34.197  61.314  1.00  0.00     0.041 C 
ATOM      6  O   UNL     1      64.540  33.038  61.021  1.00  0.00    -0.550 OA
ATOM      7  O   UNL     1      64.972  35.045  62.037  1.00  0.00    -0.550 OA
ENDBRANCH   4   5
ENDBRANCH   3   4
ENDBRANCH   2   3
ENDBRANCH   1   2
BRANCH   1   8
ATOM      8  C   UNL     1      61.360  30.615  61.713  1.00  0.00     0.000 C 
BRANCH   8   9
ATOM      9  C   UNL     1      62.686  29.840  61.743  1.00  0.00     0.006 C 
BRANCH   9  10
ATOM     10  C   UNL     1      63.362  29.790  60.366  1.00  0.00     0.053 C 
BRANCH  10  11
ATOM     11  C   UNL     1      64.293  28.624  60.244  1.00  0.00     0.041 C 
ATOM     12  O   UNL     1      65.365  28.734  59.593  1.00  0.00    -0.550 OA
ATOM     13  O   UNL     1      63.993  27.424  60.878  1.00  0.00    -0.550 OA
ENDBRANCH  10  11
ENDBRANCH   9  10
ENDBRANCH   8   9
ENDBRANCH   1   8
TORSDOF 8
ENDMDL
MODEL 9
REMARK VINA RESULT:    -3.207      1.373      1.986
REMARK INTER + INTRA:          -5.139
REMARK INTER:                  -4.607
REMARK INTRA:                  -0.531
REMARK UNBOUND:                -0.431
REMARK SMILES O=C([O-])CCCCCCCC(=O)[O-]
REMARK SMILES IDX 7 1 6 2 5 3 4 4 2 5 1 6 3 7 8 8 9 9 10 10 11 11 12 12 13 13
REMARK H PARENT
REMARK Flexibility Score: inf
ROOT
ATOM      1  C   UNL     1      58.449  28.592  49.976  1.00  0.00     0.000 C 
ENDROOT
BRANCH   1   2
ATOM      2  C   UNL     1      59.352  27.396  49.635  1.00  0.00     0.000 C 
BRANCH   2   3
ATOM      3  C   UNL     1      59.489  26.405  50.804  1.00  0.00     0.006 C 
BRANCH   3   4
ATOM      4  C   UNL     1      59.044  24.988  50.417  1.00  0.00     0.053 C 
BRANCH   4   5
ATOM      5  C   UNL     1      59.979  23.947  50.953  1.00  0.00     0.041 C 
ATOM      6  O   UNL     1      60.467  24.069  52.108  1.00  0.00    -0.550 OA
ATOM      7  O   UNL     1      60.339  22.861  50.165  1.00  0.00    -0.550 OA
ENDBRANCH   4   5
ENDBRANCH   3   4
ENDBRANCH   2   3
ENDBRANCH   1   2
BRANCH   1   8
ATOM      8  C   UNL     1      57.539  28.320  51.183  1.00  0.00     0.000 C 
BRANCH   8   9
ATOM      9  C   UNL     1      56.065  28.261  50.757  1.00  0.00     0.006 C 
BRANCH   9  10
ATOM     10  C   UNL     1      55.607  26.830  50.445  1.00  0.00     0.053 C 
BRANCH  10  11
ATOM     11  C   UNL     1      54.150  26.775  50.100  1.00  0.00     0.041 C 
ATOM     12  O   UNL     1      53.484  27.838  49.993  1.00  0.00    -0.550 OA
ATOM     13  O   UNL     1      53.536  25.551  49.865  1.00  0.00    -0.550 OA
ENDBRANCH  10  11
ENDBRANCH   9  10
ENDBRANCH   8   9
ENDBRANCH   1   8
TORSDOF 8
ENDMDL
