MODEL 1
REMARK VINA RESULT:    -5.170      0.000      0.000
REMARK INTER + INTRA:          -5.654
REMARK INTER:                  -5.623
REMARK INTRA:                  -0.031
REMARK UNBOUND:                -0.031
REMARK SMILES O=C([O-])c1ccc(O)cc1
REMARK SMILES IDX 4 1 5 2 10 3 6 4 9 5 7 6 2 7 1 8 3 9 8 10
REMARK H PARENT 8 11
REMARK Flexibility Score: inf
ROOT
ATOM      1  C   UNL     1     -31.349  -3.468 -18.256  1.00  0.00    -0.003 A 
ATOM      2  C   UNL     1     -32.512  -3.106 -18.964  1.00  0.00     0.014 A 
ATOM      3  C   UNL     1     -30.093  -3.184 -18.819  1.00  0.00     0.014 A 
ATOM      4  C   UNL     1     -32.415  -2.474 -20.207  1.00  0.00     0.047 A 
ATOM      5  C   UNL     1     -30.001  -2.551 -20.064  1.00  0.00     0.047 A 
ATOM      6  C   UNL     1     -31.162  -2.194 -20.760  1.00  0.00     0.115 A 
ENDROOT
BRANCH   1   7
ATOM      7  C   UNL     1     -31.444  -4.138 -16.941  1.00  0.00     0.071 C 
ATOM      8  O   UNL     1     -32.199  -3.680 -16.042  1.00  0.00    -0.545 OA
ATOM      9  O   UNL     1     -30.701  -5.283 -16.678  1.00  0.00    -0.545 OA
ENDBRANCH   1   7
BRANCH   6  10
ATOM     10  O   UNL     1     -31.082  -1.563 -22.000  1.00  0.00    -0.508 OA
ATOM     11  H   UNL     1     -30.292  -0.978 -22.245  1.00  0.00     0.293 HD
ENDBRANCH   6  10
TORSDOF 2
ENDMDL
MODEL 2
REMARK VINA RESULT:    -5.167      0.064      1.533
REMARK INTER + INTRA:          -5.651
REMARK INTER:                  -5.621
REMARK INTRA:                  -0.030
REMARK UNBOUND:                -0.031
REMARK SMILES O=C([O-])c1ccc(O)cc1
REMARK SMILES IDX 4 1 5 2 10 3 6 4 9 5 7 6 2 7 1 8 3 9 8 10
REMARK H PARENT 8 11
REMARK Flexibility Score: inf
ROOT
ATOM      1  C   UNL     1     -31.379  -3.456 -18.270  1.00  0.00    -0.003 A 
ATOM      2  C   UNL     1     -30.133  -3.120 -18.834  1.00  0.00     0.014 A 
ATOM      3  C   UNL     1     -32.554  -3.147 -18.979  1.00  0.00     0.014 A 
ATOM      4  C   UNL     1     -30.069  -2.488 -20.080  1.00  0.00     0.047 A 
ATOM      5  C   UNL     1     -32.484  -2.516 -20.225  1.00  0.00     0.047 A 
ATOM      6  C   UNL     1     -31.240  -2.186 -20.779  1.00  0.00     0.115 A 
ENDROOT
BRANCH   1   7
ATOM      7  C   UNL     1     -31.455  -4.122 -16.952  1.00  0.00     0.071 C 
ATOM      8  O   UNL     1     -32.215  -3.676 -16.051  1.00  0.00    -0.545 OA
ATOM      9  O   UNL     1     -30.687  -5.251 -16.688  1.00  0.00    -0.545 OA
ENDBRANCH   1   7
BRANCH   6  10
ATOM     10  O   UNL     1     -31.160  -1.557 -22.020  1.00  0.00    -0.508 OA
ATOM     11  H   UNL     1     -30.477  -0.833 -22.203  1.00  0.00     0.293 HD
ENDBRANCH   6  10
TORSDOF 2
ENDMDL
MODEL 3
REMARK VINA RESULT:    -5.119      1.095      4.354
REMARK INTER + INTRA:          -5.599
REMARK INTER:                  -5.563
REMARK INTRA:                  -0.036
REMARK UNBOUND:                -0.031
REMARK SMILES O=C([O-])c1ccc(O)cc1
REMARK SMILES IDX 4 1 5 2 10 3 6 4 9 5 7 6 2 7 1 8 3 9 8 10
REMARK H PARENT 8 11
REMARK Flexibility Score: inf
ROOT
ATOM      1  C   UNL     1     -30.720  -2.474 -19.805  1.00  0.00    -0.003 A 
ATOM      2  C   UNL     1     -29.994  -3.065 -18.754  1.00  0.00     0.014 A 
ATOM      3  C   UNL     1     -32.117  -2.365 -19.691  1.00  0.00     0.014 A 
ATOM      4  C   UNL     1     -30.654  -3.536 -17.615  1.00  0.00     0.047 A 
ATOM      5  C   UNL     1     -32.774  -2.838 -18.550  1.00  0.00     0.047 A 
ATOM      6  C   UNL     1     -32.043  -3.424 -17.509  1.00  0.00     0.115 A 
ENDROOT
BRANCH   1   7
ATOM      7  C   UNL     1     -30.028  -1.974 -21.013  1.00  0.00     0.071 C 
ATOM      8  O   UNL     1     -30.687  -1.569 -22.008  1.00  0.00    -0.545 OA
ATOM      9  O   UNL     1     -28.639  -1.946 -21.068  1.00  0.00    -0.545 OA
ENDBRANCH   1   7
BRANCH   6  10
ATOM     10  O   UNL     1     -32.687  -3.897 -16.368  1.00  0.00    -0.508 OA
ATOM     11  H   UNL     1     -33.222  -4.757 -16.380  1.00  0.00     0.293 HD
ENDBRANCH   6  10
TORSDOF 2
ENDMDL
MODEL 4
REMARK VINA RESULT:    -5.064      9.373     11.126
REMARK INTER + INTRA:          -5.539
REMARK INTER:                  -5.511
REMARK INTRA:                  -0.028
REMARK UNBOUND:                -0.031
REMARK SMILES O=C([O-])c1ccc(O)cc1
REMARK SMILES IDX 4 1 5 2 10 3 6 4 9 5 7 6 2 7 1 8 3 9 8 10
REMARK H PARENT 8 11
REMARK Flexibility Score: inf
ROOT
ATOM      1  C   UNL     1     -38.627  -7.928 -13.737  1.00  0.00    -0.003 A 
ATOM      2  C   UNL     1     -39.506  -9.025 -13.658  1.00  0.00     0.014 A 
ATOM      3  C   UNL     1     -39.151  -6.626 -13.643  1.00  0.00     0.014 A 
ATOM      4  C   UNL     1     -40.879  -8.820 -13.489  1.00  0.00     0.047 A 
ATOM      5  C   UNL     1     -40.525  -6.426 -13.474  1.00  0.00     0.047 A 
ATOM      6  C   UNL     1     -41.392  -7.523 -13.396  1.00  0.00     0.115 A 
ENDROOT
BRANCH   1   7
ATOM      7  C   UNL     1     -37.174  -8.137 -13.917  1.00  0.00     0.071 C 
ATOM      8  O   UNL     1     -36.365  -7.835 -12.999  1.00  0.00    -0.545 OA
ATOM      9  O   UNL     1     -36.680  -8.669 -15.102  1.00  0.00    -0.545 OA
ENDBRANCH   1   7
BRANCH   6  10
ATOM     10  O   UNL     1     -42.762  -7.335 -13.226  1.00  0.00    -0.508 OA
ATOM     11  H   UNL     1     -43.267  -7.774 -12.467  1.00  0.00     0.293 HD
ENDBRANCH   6  10
TORSDOF 2
ENDMDL
MODEL 5
REMARK VINA RESULT:    -4.890      8.510     10.498
REMARK INTER + INTRA:          -5.349
REMARK INTER:                  -5.321
REMARK INTRA:                  -0.028
REMARK UNBOUND:                -0.031
REMARK SMILES O=C([O-])c1ccc(O)cc1
REMARK SMILES IDX 4 1 5 2 10 3 6 4 9 5 7 6 2 7 1 8 3 9 8 10
REMARK H PARENT 8 11
REMARK Flexibility Score: inf
ROOT
ATOM      1  C   UNL     1     -37.829  -7.117 -13.723  1.00  0.00    -0.003 A 
ATOM      2  C   UNL     1     -37.963  -8.514 -13.838  1.00  0.00     0.014 A 
ATOM      3  C   UNL     1     -38.964  -6.347 -13.416  1.00  0.00     0.014 A 
ATOM      4  C   UNL     1     -39.208  -9.124 -13.650  1.00  0.00     0.047 A 
ATOM      5  C   UNL     1     -40.208  -6.961 -13.229  1.00  0.00     0.047 A 
ATOM      6  C   UNL     1     -40.331  -8.351 -13.345  1.00  0.00     0.115 A 
ENDROOT
BRANCH   1   7
ATOM      7  C   UNL     1     -36.516  -6.467 -13.922  1.00  0.00     0.071 C 
ATOM      8  O   UNL     1     -35.925  -5.909 -12.959  1.00  0.00    -0.545 OA
ATOM      9  O   UNL     1     -35.915  -6.461 -15.175  1.00  0.00    -0.545 OA
ENDBRANCH   1   7
BRANCH   6  10
ATOM     10  O   UNL     1     -41.565  -8.972 -13.159  1.00  0.00    -0.508 OA
ATOM     11  H   UNL     1     -42.421  -8.567 -13.516  1.00  0.00     0.293 HD
ENDBRANCH   6  10
TORSDOF 2
ENDMDL
MODEL 6
REMARK VINA RESULT:    -4.709      8.697     10.619
REMARK INTER + INTRA:          -5.152
REMARK INTER:                  -5.124
REMARK INTRA:                  -0.028
REMARK UNBOUND:                -0.031
REMARK SMILES O=C([O-])c1ccc(O)cc1
REMARK SMILES IDX 4 1 5 2 10 3 6 4 9 5 7 6 2 7 1 8 3 9 8 10
REMARK H PARENT 8 11
REMARK Flexibility Score: inf
ROOT
ATOM      1  C   UNL     1     -38.261  -6.660 -13.650  1.00  0.00    -0.003 A 
ATOM      2  C   UNL     1     -39.480  -6.123 -13.196  1.00  0.00     0.014 A 
ATOM      3  C   UNL     1     -38.183  -8.036 -13.930  1.00  0.00     0.014 A 
ATOM      4  C   UNL     1     -40.596  -6.949 -13.025  1.00  0.00     0.047 A 
ATOM      5  C   UNL     1     -39.303  -8.857 -13.757  1.00  0.00     0.047 A 
ATOM      6  C   UNL     1     -40.512  -8.315 -13.305  1.00  0.00     0.115 A 
ENDROOT
BRANCH   1   7
ATOM      7  C   UNL     1     -37.076  -5.793 -13.832  1.00  0.00     0.071 C 
ATOM      8  O   UNL     1     -37.066  -4.901 -14.723  1.00  0.00    -0.545 OA
ATOM      9  O   UNL     1     -35.957  -5.950 -13.023  1.00  0.00    -0.545 OA
ENDBRANCH   1   7
BRANCH   6  10
ATOM     10  O   UNL     1     -41.632  -9.125 -13.131  1.00  0.00    -0.508 OA
ATOM     11  H   UNL     1     -41.691  -9.792 -12.372  1.00  0.00     0.293 HD
ENDBRANCH   6  10
TORSDOF 2
ENDMDL
MODEL 7
REMARK VINA RESULT:    -4.681      1.506      2.169
REMARK INTER + INTRA:          -5.122
REMARK INTER:                  -5.088
REMARK INTRA:                  -0.034
REMARK UNBOUND:                -0.031
REMARK SMILES O=C([O-])c1ccc(O)cc1
REMARK SMILES IDX 4 1 5 2 10 3 6 4 9 5 7 6 2 7 1 8 3 9 8 10
REMARK H PARENT 8 11
REMARK Flexibility Score: inf
ROOT
ATOM      1  C   UNL     1     -32.505  -2.947 -18.668  1.00  0.00    -0.003 A 
ATOM      2  C   UNL     1     -32.716  -2.543 -19.999  1.00  0.00     0.014 A 
ATOM      3  C   UNL     1     -31.187  -3.040 -18.185  1.00  0.00     0.014 A 
ATOM      4  C   UNL     1     -31.631  -2.238 -20.827  1.00  0.00     0.047 A 
ATOM      5  C   UNL     1     -30.105  -2.734 -19.017  1.00  0.00     0.047 A 
ATOM      6  C   UNL     1     -30.325  -2.332 -20.340  1.00  0.00     0.115 A 
ENDROOT
BRANCH   1   7
ATOM      7  C   UNL     1     -33.648  -3.272 -17.787  1.00  0.00     0.071 C 
ATOM      8  O   UNL     1     -33.514  -4.091 -16.839  1.00  0.00    -0.545 OA
ATOM      9  O   UNL     1     -34.887  -2.677 -17.993  1.00  0.00    -0.545 OA
ENDBRANCH   1   7
BRANCH   6  10
ATOM     10  O   UNL     1     -29.254  -2.025 -21.176  1.00  0.00    -0.508 OA
ATOM     11  H   UNL     1     -28.746  -2.746 -21.673  1.00  0.00     0.293 HD
ENDBRANCH   6  10
TORSDOF 2
ENDMDL
MODEL 8
REMARK VINA RESULT:    -4.567      8.437     10.175
REMARK INTER + INTRA:          -4.998
REMARK INTER:                  -4.962
REMARK INTRA:                  -0.036
REMARK UNBOUND:                -0.031
REMARK SMILES O=C([O-])c1ccc(O)cc1
REMARK SMILES IDX 4 1 5 2 10 3 6 4 9 5 7 6 2 7 1 8 3 9 8 10
REMARK H PARENT 8 11
REMARK Flexibility Score: inf
ROOT
ATOM      1  C   UNL     1     -39.199  -7.136 -13.461  1.00  0.00    -0.003 A 
ATOM      2  C   UNL     1     -39.083  -5.742 -13.308  1.00  0.00     0.014 A 
ATOM      3  C   UNL     1     -38.032  -7.902 -13.638  1.00  0.00     0.014 A 
ATOM      4  C   UNL     1     -37.826  -5.129 -13.331  1.00  0.00     0.047 A 
ATOM      5  C   UNL     1     -36.777  -7.284 -13.661  1.00  0.00     0.047 A 
ATOM      6  C   UNL     1     -36.671  -5.897 -13.507  1.00  0.00     0.115 A 
ENDROOT
BRANCH   1   7
ATOM      7  C   UNL     1     -40.525  -7.790 -13.438  1.00  0.00     0.071 C 
ATOM      8  O   UNL     1     -40.622  -9.045 -13.501  1.00  0.00    -0.545 OA
ATOM      9  O   UNL     1     -41.684  -7.029 -13.348  1.00  0.00    -0.545 OA
ENDBRANCH   1   7
BRANCH   6  10
ATOM     10  O   UNL     1     -35.426  -5.273 -13.527  1.00  0.00    -0.508 OA
ATOM     11  H   UNL     1     -35.290  -4.376 -13.978  1.00  0.00     0.293 HD
ENDBRANCH   6  10
TORSDOF 2
ENDMDL
MODEL 9
REMARK VINA RESULT:    -4.447      8.196      9.601
REMARK INTER + INTRA:          -4.867
REMARK INTER:                  -4.837
REMARK INTRA:                  -0.031
REMARK UNBOUND:                -0.031
REMARK SMILES O=C([O-])c1ccc(O)cc1
REMARK SMILES IDX 4 1 5 2 10 3 6 4 9 5 7 6 2 7 1 8 3 9 8 10
REMARK H PARENT 8 11
REMARK Flexibility Score: inf
ROOT
ATOM      1  C   UNL     1     -38.955  -7.638 -14.198  1.00  0.00    -0.003 A 
ATOM      2  C   UNL     1     -38.795  -6.461 -14.954  1.00  0.00     0.014 A 
ATOM      3  C   UNL     1     -37.959  -8.629 -14.260  1.00  0.00     0.014 A 
ATOM      4  C   UNL     1     -37.662  -6.283 -15.754  1.00  0.00     0.047 A 
ATOM      5  C   UNL     1     -36.827  -8.446 -15.061  1.00  0.00     0.047 A 
ATOM      6  C   UNL     1     -36.676  -7.272 -15.810  1.00  0.00     0.115 A 
ENDROOT
BRANCH   1   7
ATOM      7  C   UNL     1     -40.151  -7.834 -13.350  1.00  0.00     0.071 C 
ATOM      8  O   UNL     1     -40.534  -6.927 -12.564  1.00  0.00    -0.545 OA
ATOM      9  O   UNL     1     -40.870  -9.022 -13.409  1.00  0.00    -0.545 OA
ENDBRANCH   1   7
BRANCH   6  10
ATOM     10  O   UNL     1     -35.552  -7.079 -16.611  1.00  0.00    -0.508 OA
ATOM     11  H   UNL     1     -35.324  -6.170 -16.994  1.00  0.00     0.293 HD
ENDBRANCH   6  10
TORSDOF 2
ENDMDL
