MODEL 1
REMARK VINA RESULT:    -4.729      0.000      0.000
REMARK INTER + INTRA:         -10.030
REMARK INTER:                  -8.875
REMARK INTRA:                  -1.155
REMARK UNBOUND:                -1.155
REMARK SMILES O=C([O-])CCCCCCCCCCCCCCC(=O)[O-]
REMARK SMILES IDX 10 1 9 2 8 3 7 4 6 5 5 6 4 7 2 8 1 9 3 10 11 11 12 12 13 13
REMARK SMILES IDX 14 14 15 15 16 16 17 17 18 18 19 19 20 20
REMARK H PARENT
REMARK Flexibility Score: inf
ROOT
ATOM      1  C   UNL     1      50.878  31.908   5.746  1.00  0.00     0.000 C 
ENDROOT
BRANCH   1   2
ATOM      2  C   UNL     1      51.290  32.629   4.449  1.00  0.00     0.000 C 
BRANCH   2   3
ATOM      3  C   UNL     1      50.275  33.658   3.915  1.00  0.00     0.000 C 
BRANCH   3   4
ATOM      4  C   UNL     1      50.371  33.859   2.393  1.00  0.00     0.000 C 
BRANCH   4   5
ATOM      5  C   UNL     1      51.707  33.366   1.806  1.00  0.00     0.000 C 
BRANCH   5   6
ATOM      6  C   UNL     1      51.585  32.383   0.623  1.00  0.00     0.006 C 
BRANCH   6   7
ATOM      7  C   UNL     1      50.303  32.539  -0.210  1.00  0.00     0.053 C 
BRANCH   7   8
ATOM      8  C   UNL     1      50.528  33.371  -1.435  1.00  0.00     0.041 C 
ATOM      9  O   UNL     1      51.690  33.512  -1.899  1.00  0.00    -0.550 OA
ATOM     10  O   UNL     1      49.450  33.963  -2.083  1.00  0.00    -0.550 OA
ENDBRANCH   7   8
ENDBRANCH   6   7
ENDBRANCH   5   6
ENDBRANCH   4   5
ENDBRANCH   3   4
ENDBRANCH   2   3
ENDBRANCH   1   2
BRANCH   1  11
ATOM     11  C   UNL     1      49.386  32.078   6.080  1.00  0.00     0.000 C 
BRANCH  11  12
ATOM     12  C   UNL     1      49.118  32.069   7.593  1.00  0.00     0.000 C 
BRANCH  12  13
ATOM     13  C   UNL     1      48.598  33.424   8.106  1.00  0.00     0.000 C 
BRANCH  13  14
ATOM     14  C   UNL     1      49.602  34.570   7.888  1.00  0.00     0.000 C 
BRANCH  14  15
ATOM     15  C   UNL     1      50.245  35.134   9.169  1.00  0.00     0.000 C 
BRANCH  15  16
ATOM     16  C   UNL     1      49.744  34.514  10.488  1.00  0.00     0.006 C 
BRANCH  16  17
ATOM     17  C   UNL     1      49.381  35.550  11.567  1.00  0.00     0.053 C 
BRANCH  17  18
ATOM     18  C   UNL     1      48.159  36.341  11.214  1.00  0.00     0.041 C 
ATOM     19  O   UNL     1      48.073  37.556  11.536  1.00  0.00    -0.550 OA
ATOM     20  O   UNL     1      47.126  35.747  10.498  1.00  0.00    -0.550 OA
ENDBRANCH  17  18
ENDBRANCH  16  17
ENDBRANCH  15  16
ENDBRANCH  14  15
ENDBRANCH  13  14
ENDBRANCH  12  13
ENDBRANCH  11  12
ENDBRANCH   1  11
TORSDOF 15
ENDMDL
MODEL 2
REMARK VINA RESULT:    -4.381      1.004      9.966
REMARK INTER + INTRA:          -9.377
REMARK INTER:                  -8.435
REMARK INTRA:                  -0.942
REMARK UNBOUND:                -1.155
REMARK SMILES O=C([O-])CCCCCCCCCCCCCCC(=O)[O-]
REMARK SMILES IDX 10 1 9 2 8 3 7 4 6 5 5 6 4 7 2 8 1 9 3 10 11 11 12 12 13 13
REMARK SMILES IDX 14 14 15 15 16 16 17 17 18 18 19 19 20 20
REMARK H PARENT
REMARK Flexibility Score: inf
ROOT
ATOM      1  C   UNL     1      49.686  33.238   6.736  1.00  0.00     0.000 C 
ENDROOT
BRANCH   1   2
ATOM      2  C   UNL     1      48.667  32.679   7.748  1.00  0.00     0.000 C 
BRANCH   2   3
ATOM      3  C   UNL     1      49.275  31.992   8.985  1.00  0.00     0.000 C 
BRANCH   3   4
ATOM      4  C   UNL     1      48.998  32.756  10.291  1.00  0.00     0.000 C 
BRANCH   4   5
ATOM      5  C   UNL     1      49.900  33.992  10.465  1.00  0.00     0.000 C 
BRANCH   5   6
ATOM      6  C   UNL     1      49.295  35.325   9.979  1.00  0.00     0.006 C 
BRANCH   6   7
ATOM      7  C   UNL     1      47.913  35.653  10.567  1.00  0.00     0.053 C 
BRANCH   7   8
ATOM      8  C   UNL     1      48.015  36.497  11.801  1.00  0.00     0.041 C 
ATOM      9  O   UNL     1      47.891  35.971  12.939  1.00  0.00    -0.550 OA
ATOM     10  O   UNL     1      48.278  37.857  11.695  1.00  0.00    -0.550 OA
ENDBRANCH   7   8
ENDBRANCH   6   7
ENDBRANCH   5   6
ENDBRANCH   4   5
ENDBRANCH   3   4
ENDBRANCH   2   3
ENDBRANCH   1   2
BRANCH   1  11
ATOM     11  C   UNL     1      50.645  32.165   6.195  1.00  0.00     0.000 C 
BRANCH  11  12
ATOM     12  C   UNL     1      51.015  32.397   4.721  1.00  0.00     0.000 C 
BRANCH  12  13
ATOM     13  C   UNL     1      50.507  33.751   4.195  1.00  0.00     0.000 C 
BRANCH  13  14
ATOM     14  C   UNL     1      50.417  33.799   2.659  1.00  0.00     0.000 C 
BRANCH  14  15
ATOM     15  C   UNL     1      51.622  33.201   1.909  1.00  0.00     0.000 C 
BRANCH  15  16
ATOM     16  C   UNL     1      51.293  32.516   0.569  1.00  0.00     0.006 C 
BRANCH  16  17
ATOM     17  C   UNL     1      49.988  33.009  -0.082  1.00  0.00     0.053 C 
BRANCH  17  18
ATOM     18  C   UNL     1      50.191  33.474  -1.491  1.00  0.00     0.041 C 
ATOM     19  O   UNL     1      51.261  34.050  -1.823  1.00  0.00    -0.550 OA
ATOM     20  O   UNL     1      49.213  33.241  -2.450  1.00  0.00    -0.550 OA
ENDBRANCH  17  18
ENDBRANCH  16  17
ENDBRANCH  15  16
ENDBRANCH  14  15
ENDBRANCH  13  14
ENDBRANCH  12  13
ENDBRANCH  11  12
ENDBRANCH   1  11
TORSDOF 15
ENDMDL
MODEL 3
REMARK VINA RESULT:    -4.354      2.211      4.086
REMARK INTER + INTRA:          -9.327
REMARK INTER:                  -8.444
REMARK INTRA:                  -0.883
REMARK UNBOUND:                -1.155
REMARK SMILES O=C([O-])CCCCCCCCCCCCCCC(=O)[O-]
REMARK SMILES IDX 10 1 9 2 8 3 7 4 6 5 5 6 4 7 2 8 1 9 3 10 11 11 12 12 13 13
REMARK SMILES IDX 14 14 15 15 16 16 17 17 18 18 19 19 20 20
REMARK H PARENT
REMARK Flexibility Score: inf
ROOT
ATOM      1  C   UNL     1      49.920  34.802   8.091  1.00  0.00     0.000 C 
ENDROOT
BRANCH   1   2
ATOM      2  C   UNL     1      48.964  33.599   7.984  1.00  0.00     0.000 C 
BRANCH   2   3
ATOM      3  C   UNL     1      49.635  32.248   7.674  1.00  0.00     0.000 C 
BRANCH   3   4
ATOM      4  C   UNL     1      50.655  32.336   6.525  1.00  0.00     0.000 C 
BRANCH   4   5
ATOM      5  C   UNL     1      49.995  32.586   5.156  1.00  0.00     0.000 C 
BRANCH   5   6
ATOM      6  C   UNL     1      50.749  33.562   4.228  1.00  0.00     0.006 C 
BRANCH   6   7
ATOM      7  C   UNL     1      51.497  32.890   3.066  1.00  0.00     0.053 C 
BRANCH   7   8
ATOM      8  C   UNL     1      51.107  33.467   1.739  1.00  0.00     0.041 C 
ATOM      9  O   UNL     1      51.968  33.602   0.830  1.00  0.00    -0.550 OA
ATOM     10  O   UNL     1      49.787  33.826   1.496  1.00  0.00    -0.550 OA
ENDBRANCH   7   8
ENDBRANCH   6   7
ENDBRANCH   5   6
ENDBRANCH   4   5
ENDBRANCH   3   4
ENDBRANCH   2   3
ENDBRANCH   1   2
BRANCH   1  11
ATOM     11  C   UNL     1      50.136  35.270   9.540  1.00  0.00     0.000 C 
BRANCH  11  12
ATOM     12  C   UNL     1      49.356  34.417  10.555  1.00  0.00     0.000 C 
BRANCH  12  13
ATOM     13  C   UNL     1      49.011  35.197  11.835  1.00  0.00     0.000 C 
BRANCH  13  14
ATOM     14  C   UNL     1      47.719  36.024  11.702  1.00  0.00     0.000 C 
BRANCH  14  15
ATOM     15  C   UNL     1      47.924  37.539  11.507  1.00  0.00     0.000 C 
BRANCH  15  16
ATOM     16  C   UNL     1      46.687  38.414  11.790  1.00  0.00     0.006 C 
BRANCH  16  17
ATOM     17  C   UNL     1      45.456  38.049  10.942  1.00  0.00     0.053 C 
BRANCH  17  18
ATOM     18  C   UNL     1      45.206  39.034   9.841  1.00  0.00     0.041 C 
ATOM     19  O   UNL     1      45.668  40.203   9.917  1.00  0.00    -0.550 OA
ATOM     20  O   UNL     1      44.491  38.652   8.712  1.00  0.00    -0.550 OA
ENDBRANCH  17  18
ENDBRANCH  16  17
ENDBRANCH  15  16
ENDBRANCH  14  15
ENDBRANCH  13  14
ENDBRANCH  12  13
ENDBRANCH  11  12
ENDBRANCH   1  11
TORSDOF 15
ENDMDL
MODEL 4
REMARK VINA RESULT:    -4.305      1.410     10.301
REMARK INTER + INTRA:          -9.235
REMARK INTER:                  -8.466
REMARK INTRA:                  -0.769
REMARK UNBOUND:                -1.155
REMARK SMILES O=C([O-])CCCCCCCCCCCCCCC(=O)[O-]
REMARK SMILES IDX 10 1 9 2 8 3 7 4 6 5 5 6 4 7 2 8 1 9 3 10 11 11 12 12 13 13
REMARK SMILES IDX 14 14 15 15 16 16 17 17 18 18 19 19 20 20
REMARK H PARENT
REMARK Flexibility Score: inf
ROOT
ATOM      1  C   UNL     1      51.004  32.906   4.618  1.00  0.00     0.000 C 
ENDROOT
BRANCH   1   2
ATOM      2  C   UNL     1      50.285  32.005   5.640  1.00  0.00     0.000 C 
BRANCH   2   3
ATOM      3  C   UNL     1      50.240  32.548   7.081  1.00  0.00     0.000 C 
BRANCH   3   4
ATOM      4  C   UNL     1      49.309  33.763   7.234  1.00  0.00     0.000 C 
BRANCH   4   5
ATOM      5  C   UNL     1      49.936  34.898   8.064  1.00  0.00     0.000 C 
BRANCH   5   6
ATOM      6  C   UNL     1      49.888  34.702   9.594  1.00  0.00     0.006 C 
BRANCH   6   7
ATOM      7  C   UNL     1      48.753  35.460  10.301  1.00  0.00     0.053 C 
BRANCH   7   8
ATOM      8  C   UNL     1      47.617  34.555  10.668  1.00  0.00     0.041 C 
ATOM      9  O   UNL     1      46.715  34.300   9.828  1.00  0.00    -0.550 OA
ATOM     10  O   UNL     1      47.573  33.969  11.927  1.00  0.00    -0.550 OA
ENDBRANCH   7   8
ENDBRANCH   6   7
ENDBRANCH   5   6
ENDBRANCH   4   5
ENDBRANCH   3   4
ENDBRANCH   2   3
ENDBRANCH   1   2
BRANCH   1  11
ATOM     11  C   UNL     1      50.031  33.703   3.732  1.00  0.00     0.000 C 
BRANCH  11  12
ATOM     12  C   UNL     1      50.504  33.790   2.272  1.00  0.00     0.000 C 
BRANCH  12  13
ATOM     13  C   UNL     1      51.718  32.887   1.993  1.00  0.00     0.000 C 
BRANCH  13  14
ATOM     14  C   UNL     1      51.629  32.168   0.634  1.00  0.00     0.000 C 
BRANCH  14  15
ATOM     15  C   UNL     1      50.364  32.473  -0.190  1.00  0.00     0.000 C 
BRANCH  15  16
ATOM     16  C   UNL     1      50.540  33.521  -1.306  1.00  0.00     0.006 C 
BRANCH  16  17
ATOM     17  C   UNL     1      49.416  33.509  -2.358  1.00  0.00     0.053 C 
BRANCH  17  18
ATOM     18  C   UNL     1      49.860  34.067  -3.676  1.00  0.00     0.041 C 
ATOM     19  O   UNL     1      50.921  34.741  -3.757  1.00  0.00    -0.550 OA
ATOM     20  O   UNL     1      49.120  33.814  -4.825  1.00  0.00    -0.550 OA
ENDBRANCH  17  18
ENDBRANCH  16  17
ENDBRANCH  15  16
ENDBRANCH  14  15
ENDBRANCH  13  14
ENDBRANCH  12  13
ENDBRANCH  11  12
ENDBRANCH   1  11
TORSDOF 15
ENDMDL
MODEL 5
REMARK VINA RESULT:    -4.290      1.791      3.342
REMARK INTER + INTRA:          -9.207
REMARK INTER:                  -8.046
REMARK INTRA:                  -1.161
REMARK UNBOUND:                -1.155
REMARK SMILES O=C([O-])CCCCCCCCCCCCCCC(=O)[O-]
REMARK SMILES IDX 10 1 9 2 8 3 7 4 6 5 5 6 4 7 2 8 1 9 3 10 11 11 12 12 13 13
REMARK SMILES IDX 14 14 15 15 16 16 17 17 18 18 19 19 20 20
REMARK H PARENT
REMARK Flexibility Score: inf
ROOT
ATOM      1  C   UNL     1      50.770  33.774   2.110  1.00  0.00     0.000 C 
ENDROOT
BRANCH   1   2
ATOM      2  C   UNL     1      51.661  32.609   1.640  1.00  0.00     0.000 C 
BRANCH   2   3
ATOM      3  C   UNL     1      51.268  31.981   0.290  1.00  0.00     0.000 C 
BRANCH   3   4
ATOM      4  C   UNL     1      50.085  32.697  -0.383  1.00  0.00     0.000 C 
BRANCH   4   5
ATOM      5  C   UNL     1      50.510  33.553  -1.590  1.00  0.00     0.000 C 
BRANCH   5   6
ATOM      6  C   UNL     1      51.954  33.328  -2.083  1.00  0.00     0.006 C 
BRANCH   6   7
ATOM      7  C   UNL     1      52.891  34.531  -1.890  1.00  0.00     0.053 C 
BRANCH   7   8
ATOM      8  C   UNL     1      53.907  34.284  -0.817  1.00  0.00     0.041 C 
ATOM      9  O   UNL     1      54.647  33.266  -0.869  1.00  0.00    -0.550 OA
ATOM     10  O   UNL     1      54.058  35.193   0.222  1.00  0.00    -0.550 OA
ENDBRANCH   7   8
ENDBRANCH   6   7
ENDBRANCH   5   6
ENDBRANCH   4   5
ENDBRANCH   3   4
ENDBRANCH   2   3
ENDBRANCH   1   2
BRANCH   1  11
ATOM     11  C   UNL     1      50.456  33.721   3.615  1.00  0.00     0.000 C 
BRANCH  11  12
ATOM     12  C   UNL     1      51.249  32.622   4.341  1.00  0.00     0.000 C 
BRANCH  12  13
ATOM     13  C   UNL     1      50.617  32.236   5.690  1.00  0.00     0.000 C 
BRANCH  13  14
ATOM     14  C   UNL     1      49.401  33.108   6.052  1.00  0.00     0.000 C 
BRANCH  14  15
ATOM     15  C   UNL     1      49.403  33.680   7.483  1.00  0.00     0.000 C 
BRANCH  15  16
ATOM     16  C   UNL     1      48.444  32.989   8.471  1.00  0.00     0.006 C 
BRANCH  16  17
ATOM     17  C   UNL     1      48.826  33.180   9.950  1.00  0.00     0.053 C 
BRANCH  17  18
ATOM     18  C   UNL     1      49.169  34.602  10.275  1.00  0.00     0.041 C 
ATOM     19  O   UNL     1      48.273  35.487  10.280  1.00  0.00    -0.550 OA
ATOM     20  O   UNL     1      50.474  34.946  10.606  1.00  0.00    -0.550 OA
ENDBRANCH  17  18
ENDBRANCH  16  17
ENDBRANCH  15  16
ENDBRANCH  14  15
ENDBRANCH  13  14
ENDBRANCH  12  13
ENDBRANCH  11  12
ENDBRANCH   1  11
TORSDOF 15
ENDMDL
MODEL 6
REMARK VINA RESULT:    -4.276      2.260      3.853
REMARK INTER + INTRA:          -9.180
REMARK INTER:                  -8.418
REMARK INTRA:                  -0.763
REMARK UNBOUND:                -1.155
REMARK SMILES O=C([O-])CCCCCCCCCCCCCCC(=O)[O-]
REMARK SMILES IDX 10 1 9 2 8 3 7 4 6 5 5 6 4 7 2 8 1 9 3 10 11 11 12 12 13 13
REMARK SMILES IDX 14 14 15 15 16 16 17 17 18 18 19 19 20 20
REMARK H PARENT
REMARK Flexibility Score: inf
ROOT
ATOM      1  C   UNL     1      52.009  33.113   1.943  1.00  0.00     0.000 C 
ENDROOT
BRANCH   1   2
ATOM      2  C   UNL     1      51.982  31.896   0.999  1.00  0.00     0.000 C 
BRANCH   2   3
ATOM      3  C   UNL     1      51.038  32.020  -0.211  1.00  0.00     0.000 C 
BRANCH   3   4
ATOM      4  C   UNL     1      51.768  32.425  -1.502  1.00  0.00     0.000 C 
BRANCH   4   5
ATOM      5  C   UNL     1      51.409  33.846  -1.974  1.00  0.00     0.000 C 
BRANCH   5   6
ATOM      6  C   UNL     1      52.232  34.374  -3.167  1.00  0.00     0.006 C 
BRANCH   6   7
ATOM      7  C   UNL     1      52.851  35.764  -2.952  1.00  0.00     0.053 C 
BRANCH   7   8
ATOM      8  C   UNL     1      52.106  36.831  -3.695  1.00  0.00     0.041 C 
ATOM      9  O   UNL     1      52.400  38.044  -3.525  1.00  0.00    -0.550 OA
ATOM     10  O   UNL     1      51.110  36.484  -4.599  1.00  0.00    -0.550 OA
ENDBRANCH   7   8
ENDBRANCH   6   7
ENDBRANCH   5   6
ENDBRANCH   4   5
ENDBRANCH   3   4
ENDBRANCH   2   3
ENDBRANCH   1   2
BRANCH   1  11
ATOM     11  C   UNL     1      50.606  33.665   2.250  1.00  0.00     0.000 C 
BRANCH  11  12
ATOM     12  C   UNL     1      50.347  33.805   3.759  1.00  0.00     0.000 C 
BRANCH  12  13
ATOM     13  C   UNL     1      50.982  32.662   4.572  1.00  0.00     0.000 C 
BRANCH  13  14
ATOM     14  C   UNL     1      50.368  32.514   5.976  1.00  0.00     0.000 C 
BRANCH  14  15
ATOM     15  C   UNL     1      49.416  33.649   6.401  1.00  0.00     0.000 C 
BRANCH  15  16
ATOM     16  C   UNL     1      49.182  33.780   7.918  1.00  0.00     0.006 C 
BRANCH  16  17
ATOM     17  C   UNL     1      49.986  34.915   8.579  1.00  0.00     0.053 C 
BRANCH  17  18
ATOM     18  C   UNL     1      49.561  35.169   9.993  1.00  0.00     0.041 C 
ATOM     19  O   UNL     1      50.399  35.099  10.931  1.00  0.00    -0.550 OA
ATOM     20  O   UNL     1      48.246  35.517  10.275  1.00  0.00    -0.550 OA
ENDBRANCH  17  18
ENDBRANCH  16  17
ENDBRANCH  15  16
ENDBRANCH  14  15
ENDBRANCH  13  14
ENDBRANCH  12  13
ENDBRANCH  11  12
ENDBRANCH   1  11
TORSDOF 15
ENDMDL
MODEL 7
REMARK VINA RESULT:    -4.260      2.701      9.598
REMARK INTER + INTRA:          -9.151
REMARK INTER:                  -7.774
REMARK INTRA:                  -1.377
REMARK UNBOUND:                -1.155
REMARK SMILES O=C([O-])CCCCCCCCCCCCCCC(=O)[O-]
REMARK SMILES IDX 10 1 9 2 8 3 7 4 6 5 5 6 4 7 2 8 1 9 3 10 11 11 12 12 13 13
REMARK SMILES IDX 14 14 15 15 16 16 17 17 18 18 19 19 20 20
REMARK H PARENT
REMARK Flexibility Score: inf
ROOT
ATOM      1  C   UNL     1      50.134  33.718   1.689  1.00  0.00     0.000 C 
ENDROOT
BRANCH   1   2
ATOM      2  C   UNL     1      51.426  33.305   2.419  1.00  0.00     0.000 C 
BRANCH   2   3
ATOM      3  C   UNL     1      51.244  32.857   3.882  1.00  0.00     0.000 C 
BRANCH   3   4
ATOM      4  C   UNL     1      50.009  33.484   4.551  1.00  0.00     0.000 C 
BRANCH   4   5
ATOM      5  C   UNL     1      49.506  32.675   5.761  1.00  0.00     0.000 C 
BRANCH   5   6
ATOM      6  C   UNL     1      50.022  33.153   7.135  1.00  0.00     0.006 C 
BRANCH   6   7
ATOM      7  C   UNL     1      49.792  34.645   7.420  1.00  0.00     0.053 C 
BRANCH   7   8
ATOM      8  C   UNL     1      49.555  34.908   8.876  1.00  0.00     0.041 C 
ATOM      9  O   UNL     1      50.492  35.334   9.602  1.00  0.00    -0.550 OA
ATOM     10  O   UNL     1      48.293  34.714   9.423  1.00  0.00    -0.550 OA
ENDBRANCH   7   8
ENDBRANCH   6   7
ENDBRANCH   5   6
ENDBRANCH   4   5
ENDBRANCH   3   4
ENDBRANCH   2   3
ENDBRANCH   1   2
BRANCH   1  11
ATOM     11  C   UNL     1      50.113  33.282   0.215  1.00  0.00     0.000 C 
BRANCH  11  12
ATOM     12  C   UNL     1      50.941  32.011  -0.034  1.00  0.00     0.000 C 
BRANCH  12  13
ATOM     13  C   UNL     1      52.018  32.214  -1.114  1.00  0.00     0.000 C 
BRANCH  13  14
ATOM     14  C   UNL     1      52.188  33.689  -1.520  1.00  0.00     0.000 C 
BRANCH  14  15
ATOM     15  C   UNL     1      53.586  34.284  -1.267  1.00  0.00     0.000 C 
BRANCH  15  16
ATOM     16  C   UNL     1      53.896  34.645   0.199  1.00  0.00     0.006 C 
BRANCH  16  17
ATOM     17  C   UNL     1      54.806  33.630   0.914  1.00  0.00     0.053 C 
BRANCH  17  18
ATOM     18  C   UNL     1      56.226  33.701   0.439  1.00  0.00     0.041 C 
ATOM     19  O   UNL     1      56.892  32.646   0.269  1.00  0.00    -0.550 OA
ATOM     20  O   UNL     1      56.804  34.931   0.149  1.00  0.00    -0.550 OA
ENDBRANCH  17  18
ENDBRANCH  16  17
ENDBRANCH  15  16
ENDBRANCH  14  15
ENDBRANCH  13  14
ENDBRANCH  12  13
ENDBRANCH  11  12
ENDBRANCH   1  11
TORSDOF 15
ENDMDL
MODEL 8
REMARK VINA RESULT:    -4.236      1.706     10.729
REMARK INTER + INTRA:          -9.106
REMARK INTER:                  -8.357
REMARK INTRA:                  -0.749
REMARK UNBOUND:                -1.155
REMARK SMILES O=C([O-])CCCCCCCCCCCCCCC(=O)[O-]
REMARK SMILES IDX 10 1 9 2 8 3 7 4 6 5 5 6 4 7 2 8 1 9 3 10 11 11 12 12 13 13
REMARK SMILES IDX 14 14 15 15 16 16 17 17 18 18 19 19 20 20
REMARK H PARENT
REMARK Flexibility Score: inf
ROOT
ATOM      1  C   UNL     1      51.326  33.420   3.171  1.00  0.00     0.000 C 
ENDROOT
BRANCH   1   2
ATOM      2  C   UNL     1      50.474  33.378   4.454  1.00  0.00     0.000 C 
BRANCH   2   3
ATOM      3  C   UNL     1      50.859  32.283   5.467  1.00  0.00     0.000 C 
BRANCH   3   4
ATOM      4  C   UNL     1      50.275  32.530   6.868  1.00  0.00     0.000 C 
BRANCH   4   5
ATOM      5  C   UNL     1      49.340  33.752   6.921  1.00  0.00     0.000 C 
BRANCH   5   6
ATOM      6  C   UNL     1      49.811  34.905   7.832  1.00  0.00     0.006 C 
BRANCH   6   7
ATOM      7  C   UNL     1      49.831  34.567   9.332  1.00  0.00     0.053 C 
BRANCH   7   8
ATOM      8  C   UNL     1      48.732  35.259  10.077  1.00  0.00     0.041 C 
ATOM      9  O   UNL     1      47.532  34.924   9.890  1.00  0.00    -0.550 OA
ATOM     10  O   UNL     1      49.034  36.250  11.004  1.00  0.00    -0.550 OA
ENDBRANCH   7   8
ENDBRANCH   6   7
ENDBRANCH   5   6
ENDBRANCH   4   5
ENDBRANCH   3   4
ENDBRANCH   2   3
ENDBRANCH   1   2
BRANCH   1  11
ATOM     11  C   UNL     1      50.502  33.748   1.915  1.00  0.00     0.000 C 
BRANCH  11  12
ATOM     12  C   UNL     1      51.010  33.005   0.669  1.00  0.00     0.000 C 
BRANCH  12  13
ATOM     13  C   UNL     1      50.105  33.225  -0.556  1.00  0.00     0.000 C 
BRANCH  13  14
ATOM     14  C   UNL     1      49.981  31.972  -1.441  1.00  0.00     0.000 C 
BRANCH  14  15
ATOM     15  C   UNL     1      49.296  32.193  -2.803  1.00  0.00     0.000 C 
BRANCH  15  16
ATOM     16  C   UNL     1      49.043  33.665  -3.184  1.00  0.00     0.006 C 
BRANCH  16  17
ATOM     17  C   UNL     1      49.815  34.128  -4.433  1.00  0.00     0.053 C 
BRANCH  17  18
ATOM     18  C   UNL     1      51.277  34.320  -4.165  1.00  0.00     0.041 C 
ATOM     19  O   UNL     1      52.136  33.781  -4.911  1.00  0.00    -0.550 OA
ATOM     20  O   UNL     1      51.693  35.124  -3.110  1.00  0.00    -0.550 OA
ENDBRANCH  17  18
ENDBRANCH  16  17
ENDBRANCH  15  16
ENDBRANCH  14  15
ENDBRANCH  13  14
ENDBRANCH  12  13
ENDBRANCH  11  12
ENDBRANCH   1  11
TORSDOF 15
ENDMDL
MODEL 9
REMARK VINA RESULT:    -4.232     11.095     14.272
REMARK INTER + INTRA:          -9.098
REMARK INTER:                  -8.249
REMARK INTRA:                  -0.849
REMARK UNBOUND:                -1.155
REMARK SMILES O=C([O-])CCCCCCCCCCCCCCC(=O)[O-]
REMARK SMILES IDX 10 1 9 2 8 3 7 4 6 5 5 6 4 7 2 8 1 9 3 10 11 11 12 12 13 13
REMARK SMILES IDX 14 14 15 15 16 16 17 17 18 18 19 19 20 20
REMARK H PARENT
REMARK Flexibility Score: inf
ROOT
ATOM      1  C   UNL     1      47.058  48.627  10.419  1.00  0.00     0.000 C 
ENDROOT
BRANCH   1   2
ATOM      2  C   UNL     1      46.027  47.629  10.979  1.00  0.00     0.000 C 
BRANCH   2   3
ATOM      3  C   UNL     1      44.932  47.187   9.991  1.00  0.00     0.000 C 
BRANCH   3   4
ATOM      4  C   UNL     1      45.225  45.822   9.344  1.00  0.00     0.000 C 
BRANCH   4   5
ATOM      5  C   UNL     1      44.071  45.319   8.457  1.00  0.00     0.000 C 
BRANCH   5   6
ATOM      6  C   UNL     1      43.645  43.855   8.696  1.00  0.00     0.006 C 
BRANCH   6   7
ATOM      7  C   UNL     1      44.628  42.806   8.154  1.00  0.00     0.053 C 
BRANCH   7   8
ATOM      8  C   UNL     1      45.203  41.958   9.246  1.00  0.00     0.041 C 
ATOM      9  O   UNL     1      45.581  42.487  10.325  1.00  0.00    -0.550 OA
ATOM     10  O   UNL     1      45.290  40.580   9.087  1.00  0.00    -0.550 OA
ENDBRANCH   7   8
ENDBRANCH   6   7
ENDBRANCH   5   6
ENDBRANCH   4   5
ENDBRANCH   3   4
ENDBRANCH   2   3
ENDBRANCH   1   2
BRANCH   1  11
ATOM     11  C   UNL     1      48.402  48.582  11.165  1.00  0.00     0.000 C 
BRANCH  11  12
ATOM     12  C   UNL     1      48.615  47.256  11.913  1.00  0.00     0.000 C 
BRANCH  12  13
ATOM     13  C   UNL     1      50.102  46.964  12.179  1.00  0.00     0.000 C 
BRANCH  13  14
ATOM     14  C   UNL     1      51.042  47.737  11.236  1.00  0.00     0.000 C 
BRANCH  14  15
ATOM     15  C   UNL     1      51.712  46.892  10.135  1.00  0.00     0.000 C 
BRANCH  15  16
ATOM     16  C   UNL     1      52.241  45.518  10.588  1.00  0.00     0.006 C 
BRANCH  16  17
ATOM     17  C   UNL     1      53.775  45.436  10.675  1.00  0.00     0.053 C 
BRANCH  17  18
ATOM     18  C   UNL     1      54.245  44.184  11.350  1.00  0.00     0.041 C 
ATOM     19  O   UNL     1      54.612  44.210  12.554  1.00  0.00    -0.550 OA
ATOM     20  O   UNL     1      54.245  42.977  10.660  1.00  0.00    -0.550 OA
ENDBRANCH  17  18
ENDBRANCH  16  17
ENDBRANCH  15  16
ENDBRANCH  14  15
ENDBRANCH  13  14
ENDBRANCH  12  13
ENDBRANCH  11  12
ENDBRANCH   1  11
TORSDOF 15
ENDMDL
