MODEL 1
REMARK VINA RESULT:    -4.159      0.000      0.000
REMARK INTER + INTRA:          -5.598
REMARK INTER:                  -5.131
REMARK INTRA:                  -0.467
REMARK UNBOUND:                -0.467
REMARK SMILES C=CC[C@H](C)C(=O)CC
REMARK SMILES IDX 4 1 5 2 6 3 7 4 8 5 9 6 3 7 2 8 1 9
REMARK H PARENT
REMARK Flexibility Score: inf
ROOT
ATOM      1  C   UNL     1       6.625  -1.829  49.232  1.00  0.00     0.057 C 
ATOM      2  C   UNL     1       5.818  -1.656  50.524  1.00  0.00     0.016 C 
ENDROOT
BRANCH   1   3
ATOM      3  C   UNL     1       5.684  -2.033  48.062  1.00  0.00     0.135 C 
ATOM      4  O   UNL     1       4.788  -2.861  48.142  1.00  0.00    -0.299 OA
BRANCH   3   5
ATOM      5  C   UNL     1       5.837  -1.238  46.793  1.00  0.00     0.072 C 
ATOM      6  C   UNL     1       6.868  -0.128  46.970  1.00  0.00     0.012 C 
ENDBRANCH   3   5
ENDBRANCH   1   3
BRANCH   1   7
ATOM      7  C   UNL     1       7.620  -3.000  49.367  1.00  0.00     0.038 C 
BRANCH   7   8
ATOM      8  C   UNL     1       9.024  -2.591  49.005  1.00  0.00    -0.034 C 
ATOM      9  C   UNL     1       9.498  -2.707  47.761  1.00  0.00     0.004 C 
ENDBRANCH   7   8
ENDBRANCH   1   7
TORSDOF 4
ENDMDL
MODEL 2
REMARK VINA RESULT:    -4.143      1.616      3.407
REMARK INTER + INTRA:          -5.579
REMARK INTER:                  -5.124
REMARK INTRA:                  -0.454
REMARK UNBOUND:                -0.467
REMARK SMILES C=CC[C@H](C)C(=O)CC
REMARK SMILES IDX 4 1 5 2 6 3 7 4 8 5 9 6 3 7 2 8 1 9
REMARK H PARENT
REMARK Flexibility Score: inf
ROOT
ATOM      1  C   UNL     1       8.353  -2.284  48.826  1.00  0.00     0.057 C 
ATOM      2  C   UNL     1       9.822  -2.690  48.996  1.00  0.00     0.016 C 
ENDROOT
BRANCH   1   3
ATOM      3  C   UNL     1       7.453  -3.376  49.366  1.00  0.00     0.135 C 
ATOM      4  O   UNL     1       7.862  -4.527  49.422  1.00  0.00    -0.299 OA
BRANCH   3   5
ATOM      5  C   UNL     1       6.052  -3.073  49.827  1.00  0.00     0.072 C 
ATOM      6  C   UNL     1       5.996  -1.726  50.540  1.00  0.00     0.012 C 
ENDBRANCH   3   5
ENDBRANCH   1   3
BRANCH   1   7
ATOM      7  C   UNL     1       8.043  -1.975  47.346  1.00  0.00     0.038 C 
BRANCH   7   8
ATOM      8  C   UNL     1       7.358  -0.644  47.180  1.00  0.00    -0.034 C 
ATOM      9  C   UNL     1       6.086  -0.545  46.784  1.00  0.00     0.004 C 
ENDBRANCH   7   8
ENDBRANCH   1   7
TORSDOF 4
ENDMDL
MODEL 3
REMARK VINA RESULT:    -4.112      1.311      3.341
REMARK INTER + INTRA:          -5.541
REMARK INTER:                  -5.132
REMARK INTRA:                  -0.409
REMARK UNBOUND:                -0.467
REMARK SMILES C=CC[C@H](C)C(=O)CC
REMARK SMILES IDX 4 1 5 2 6 3 7 4 8 5 9 6 3 7 2 8 1 9
REMARK H PARENT
REMARK Flexibility Score: inf
ROOT
ATOM      1  C   UNL     1       7.166  -1.245  48.064  1.00  0.00     0.057 C 
ATOM      2  C   UNL     1       6.775  -0.349  46.883  1.00  0.00     0.016 C 
ENDROOT
BRANCH   1   3
ATOM      3  C   UNL     1       7.767  -2.537  47.551  1.00  0.00     0.135 C 
ATOM      4  O   UNL     1       7.034  -3.431  47.152  1.00  0.00    -0.299 OA
BRANCH   3   5
ATOM      5  C   UNL     1       9.258  -2.748  47.532  1.00  0.00     0.072 C 
ATOM      6  C   UNL     1       9.825  -2.739  48.947  1.00  0.00     0.012 C 
ENDBRANCH   3   5
ENDBRANCH   1   3
BRANCH   1   7
ATOM      7  C   UNL     1       5.947  -1.510  48.972  1.00  0.00     0.038 C 
BRANCH   7   8
ATOM      8  C   UNL     1       6.358  -1.945  50.354  1.00  0.00    -0.034 C 
ATOM      9  C   UNL     1       5.911  -3.078  50.904  1.00  0.00     0.004 C 
ENDBRANCH   7   8
ENDBRANCH   1   7
TORSDOF 4
ENDMDL
MODEL 4
REMARK VINA RESULT:    -4.069      1.329      3.114
REMARK INTER + INTRA:          -5.487
REMARK INTER:                  -5.005
REMARK INTRA:                  -0.482
REMARK UNBOUND:                -0.467
REMARK SMILES C=CC[C@H](C)C(=O)CC
REMARK SMILES IDX 4 1 5 2 6 3 7 4 8 5 9 6 3 7 2 8 1 9
REMARK H PARENT
REMARK Flexibility Score: inf
ROOT
ATOM      1  C   UNL     1       6.066  -2.826  49.237  1.00  0.00     0.057 C 
ATOM      2  C   UNL     1       5.891  -1.702  50.265  1.00  0.00     0.016 C 
ENDROOT
BRANCH   1   3
ATOM      3  C   UNL     1       7.468  -3.392  49.331  1.00  0.00     0.135 C 
ATOM      4  O   UNL     1       7.638  -4.602  49.278  1.00  0.00    -0.299 OA
BRANCH   3   5
ATOM      5  C   UNL     1       8.662  -2.490  49.499  1.00  0.00     0.072 C 
ATOM      6  C   UNL     1       9.606  -2.614  48.308  1.00  0.00     0.012 C 
ENDBRANCH   3   5
ENDBRANCH   1   3
BRANCH   1   7
ATOM      7  C   UNL     1       5.758  -2.313  47.815  1.00  0.00     0.038 C 
BRANCH   7   8
ATOM      8  C   UNL     1       5.926  -0.820  47.705  1.00  0.00    -0.034 C 
ATOM      9  C   UNL     1       6.848  -0.267  46.911  1.00  0.00     0.004 C 
ENDBRANCH   7   8
ENDBRANCH   1   7
TORSDOF 4
ENDMDL
MODEL 5
REMARK VINA RESULT:    -3.959      1.322      2.793
REMARK INTER + INTRA:          -5.352
REMARK INTER:                  -4.951
REMARK INTRA:                  -0.400
REMARK UNBOUND:                -0.467
REMARK SMILES C=CC[C@H](C)C(=O)CC
REMARK SMILES IDX 4 1 5 2 6 3 7 4 8 5 9 6 3 7 2 8 1 9
REMARK H PARENT
REMARK Flexibility Score: inf
ROOT
ATOM      1  C   UNL     1       7.883  -2.912  49.091  1.00  0.00     0.057 C 
ATOM      2  C   UNL     1       9.412  -2.812  49.035  1.00  0.00     0.016 C 
ENDROOT
BRANCH   1   3
ATOM      3  C   UNL     1       7.294  -2.530  47.749  1.00  0.00     0.135 C 
ATOM      4  O   UNL     1       6.568  -3.317  47.159  1.00  0.00    -0.299 OA
BRANCH   3   5
ATOM      5  C   UNL     1       7.595  -1.196  47.119  1.00  0.00     0.072 C 
ATOM      6  C   UNL     1       6.332  -0.348  47.016  1.00  0.00     0.012 C 
ENDBRANCH   3   5
ENDBRANCH   1   3
BRANCH   1   7
ATOM      7  C   UNL     1       7.323  -2.029  50.226  1.00  0.00     0.038 C 
BRANCH   7   8
ATOM      8  C   UNL     1       5.892  -2.368  50.549  1.00  0.00    -0.034 C 
ATOM      9  C   UNL     1       5.500  -3.618  50.812  1.00  0.00     0.004 C 
ENDBRANCH   7   8
ENDBRANCH   1   7
TORSDOF 4
ENDMDL
MODEL 6
REMARK VINA RESULT:    -3.935      1.752      2.640
REMARK INTER + INTRA:          -5.322
REMARK INTER:                  -5.050
REMARK INTRA:                  -0.272
REMARK UNBOUND:                -0.467
REMARK SMILES C=CC[C@H](C)C(=O)CC
REMARK SMILES IDX 4 1 5 2 6 3 7 4 8 5 9 6 3 7 2 8 1 9
REMARK H PARENT
REMARK Flexibility Score: inf
ROOT
ATOM      1  C   UNL     1       7.222  -1.469  46.872  1.00  0.00     0.057 C 
ATOM      2  C   UNL     1       6.667  -0.040  46.860  1.00  0.00     0.016 C 
ENDROOT
BRANCH   1   3
ATOM      3  C   UNL     1       6.111  -2.453  46.566  1.00  0.00     0.135 C 
ATOM      4  O   UNL     1       5.352  -2.239  45.632  1.00  0.00    -0.299 OA
BRANCH   3   5
ATOM      5  C   UNL     1       5.917  -3.691  47.401  1.00  0.00     0.072 C 
ATOM      6  C   UNL     1       4.685  -3.557  48.290  1.00  0.00     0.012 C 
ENDBRANCH   3   5
ENDBRANCH   1   3
BRANCH   1   7
ATOM      7  C   UNL     1       7.894  -1.779  48.226  1.00  0.00     0.038 C 
BRANCH   7   8
ATOM      8  C   UNL     1       9.291  -2.314  48.052  1.00  0.00    -0.034 C 
ATOM      9  C   UNL     1       9.861  -3.118  48.954  1.00  0.00     0.004 C 
ENDBRANCH   7   8
ENDBRANCH   1   7
TORSDOF 4
ENDMDL
MODEL 7
REMARK VINA RESULT:    -3.919      1.756      3.532
REMARK INTER + INTRA:          -5.303
REMARK INTER:                  -4.783
REMARK INTRA:                  -0.519
REMARK UNBOUND:                -0.467
REMARK SMILES C=CC[C@H](C)C(=O)CC
REMARK SMILES IDX 4 1 5 2 6 3 7 4 8 5 9 6 3 7 2 8 1 9
REMARK H PARENT
REMARK Flexibility Score: inf
ROOT
ATOM      1  C   UNL     1       6.788  -1.232  48.192  1.00  0.00     0.057 C 
ATOM      2  C   UNL     1       7.283  -0.745  46.825  1.00  0.00     0.016 C 
ENDROOT
BRANCH   1   3
ATOM      3  C   UNL     1       7.914  -1.933  48.925  1.00  0.00     0.135 C 
ATOM      4  O   UNL     1       7.772  -2.243  50.100  1.00  0.00    -0.299 OA
BRANCH   3   5
ATOM      5  C   UNL     1       9.214  -2.248  48.236  1.00  0.00     0.072 C 
ATOM      6  C   UNL     1       9.460  -3.752  48.203  1.00  0.00     0.012 C 
ENDBRANCH   3   5
ENDBRANCH   1   3
BRANCH   1   7
ATOM      7  C   UNL     1       5.561  -2.152  48.029  1.00  0.00     0.038 C 
BRANCH   7   8
ATOM      8  C   UNL     1       5.748  -3.147  46.913  1.00  0.00    -0.034 C 
ATOM      9  C   UNL     1       5.786  -4.464  47.136  1.00  0.00     0.004 C 
ENDBRANCH   7   8
ENDBRANCH   1   7
TORSDOF 4
ENDMDL
MODEL 8
REMARK VINA RESULT:    -3.903      2.030      2.991
REMARK INTER + INTRA:          -5.283
REMARK INTER:                  -4.786
REMARK INTRA:                  -0.497
REMARK UNBOUND:                -0.467
REMARK SMILES C=CC[C@H](C)C(=O)CC
REMARK SMILES IDX 4 1 5 2 6 3 7 4 8 5 9 6 3 7 2 8 1 9
REMARK H PARENT
REMARK Flexibility Score: inf
ROOT
ATOM      1  C   UNL     1       5.494  -3.543  47.123  1.00  0.00     0.057 C 
ATOM      2  C   UNL     1       6.785  -4.278  47.505  1.00  0.00     0.016 C 
ENDROOT
BRANCH   1   3
ATOM      3  C   UNL     1       5.823  -2.349  46.251  1.00  0.00     0.135 C 
ATOM      4  O   UNL     1       5.075  -2.043  45.334  1.00  0.00    -0.299 OA
BRANCH   3   5
ATOM      5  C   UNL     1       7.066  -1.532  46.487  1.00  0.00     0.072 C 
ATOM      6  C   UNL     1       6.709  -0.110  46.906  1.00  0.00     0.012 C 
ENDBRANCH   3   5
ENDBRANCH   1   3
BRANCH   1   7
ATOM      7  C   UNL     1       4.716  -3.122  48.387  1.00  0.00     0.038 C 
BRANCH   7   8
ATOM      8  C   UNL     1       5.619  -2.986  49.585  1.00  0.00    -0.034 C 
ATOM      9  C   UNL     1       5.872  -1.802  50.151  1.00  0.00     0.004 C 
ENDBRANCH   7   8
ENDBRANCH   1   7
TORSDOF 4
ENDMDL
MODEL 9
REMARK VINA RESULT:    -3.834      1.866      3.639
REMARK INTER + INTRA:          -5.197
REMARK INTER:                  -4.933
REMARK INTRA:                  -0.265
REMARK UNBOUND:                -0.467
REMARK SMILES C=CC[C@H](C)C(=O)CC
REMARK SMILES IDX 4 1 5 2 6 3 7 4 8 5 9 6 3 7 2 8 1 9
REMARK H PARENT
REMARK Flexibility Score: inf
ROOT
ATOM      1  C   UNL     1       7.914  -2.601  49.308  1.00  0.00     0.057 C 
ATOM      2  C   UNL     1       9.284  -2.308  48.684  1.00  0.00     0.016 C 
ENDROOT
BRANCH   1   3
ATOM      3  C   UNL     1       7.535  -4.046  49.057  1.00  0.00     0.135 C 
ATOM      4  O   UNL     1       7.042  -4.709  49.959  1.00  0.00    -0.299 OA
BRANCH   3   5
ATOM      5  C   UNL     1       7.765  -4.689  47.716  1.00  0.00     0.072 C 
ATOM      6  C   UNL     1       8.715  -5.876  47.839  1.00  0.00     0.012 C 
ENDBRANCH   3   5
ENDBRANCH   1   3
BRANCH   1   7
ATOM      7  C   UNL     1       6.848  -1.633  48.754  1.00  0.00     0.038 C 
BRANCH   7   8
ATOM      8  C   UNL     1       7.345  -0.877  47.550  1.00  0.00    -0.034 C 
ATOM      9  C   UNL     1       6.541  -0.100  46.818  1.00  0.00     0.004 C 
ENDBRANCH   7   8
ENDBRANCH   1   7
TORSDOF 4
ENDMDL
