MODEL 1
REMARK VINA RESULT:    -4.911      0.000      0.000
REMARK INTER + INTRA:          -6.387
REMARK INTER:                  -6.060
REMARK INTRA:                  -0.328
REMARK UNBOUND:                -0.328
REMARK SMILES C=CC[C@@H](C)C(=O)CC
REMARK SMILES IDX 4 1 5 2 6 3 7 4 8 5 9 6 3 7 2 8 1 9
REMARK H PARENT
REMARK Flexibility Score: inf
ROOT
ATOM      1  C   UNL     1      48.236   3.683  19.701  1.00  0.00     0.057 C 
ATOM      2  C   UNL     1      48.785   4.825  20.563  1.00  0.00     0.016 C 
ENDROOT
BRANCH   1   3
ATOM      3  C   UNL     1      46.907   4.086  19.094  1.00  0.00     0.135 C 
ATOM      4  O   UNL     1      46.640   5.272  18.952  1.00  0.00    -0.299 OA
BRANCH   3   5
ATOM      5  C   UNL     1      45.895   3.052  18.676  1.00  0.00     0.072 C 
ATOM      6  C   UNL     1      46.013   2.742  17.187  1.00  0.00     0.012 C 
ENDBRANCH   3   5
ENDBRANCH   1   3
BRANCH   1   7
ATOM      7  C   UNL     1      49.255   3.294  18.609  1.00  0.00     0.038 C 
BRANCH   7   8
ATOM      8  C   UNL     1      49.636   1.837  18.680  1.00  0.00    -0.034 C 
ATOM      9  C   UNL     1      48.719   0.874  18.800  1.00  0.00     0.004 C 
ENDBRANCH   7   8
ENDBRANCH   1   7
TORSDOF 4
ENDMDL
MODEL 2
REMARK VINA RESULT:    -4.900      2.122      3.419
REMARK INTER + INTRA:          -6.373
REMARK INTER:                  -5.992
REMARK INTRA:                  -0.382
REMARK UNBOUND:                -0.328
REMARK SMILES C=CC[C@@H](C)C(=O)CC
REMARK SMILES IDX 4 1 5 2 6 3 7 4 8 5 9 6 3 7 2 8 1 9
REMARK H PARENT
REMARK Flexibility Score: inf
ROOT
ATOM      1  C   UNL     1      49.046   2.357  18.731  1.00  0.00     0.057 C 
ATOM      2  C   UNL     1      48.709   0.863  18.800  1.00  0.00     0.016 C 
ENDROOT
BRANCH   1   3
ATOM      3  C   UNL     1      49.319   2.759  17.295  1.00  0.00     0.135 C 
ATOM      4  O   UNL     1      49.930   3.793  17.062  1.00  0.00    -0.299 OA
BRANCH   3   5
ATOM      5  C   UNL     1      48.835   1.917  16.144  1.00  0.00     0.072 C 
ATOM      6  C   UNL     1      48.705   2.751  14.873  1.00  0.00     0.012 C 
ENDBRANCH   3   5
ENDBRANCH   1   3
BRANCH   1   7
ATOM      7  C   UNL     1      47.904   3.197  19.340  1.00  0.00     0.038 C 
BRANCH   7   8
ATOM      8  C   UNL     1      46.546   2.619  19.032  1.00  0.00    -0.034 C 
ATOM      9  C   UNL     1      45.791   3.087  18.034  1.00  0.00     0.004 C 
ENDBRANCH   7   8
ENDBRANCH   1   7
TORSDOF 4
ENDMDL
MODEL 3
REMARK VINA RESULT:    -4.897      1.056      2.752
REMARK INTER + INTRA:          -6.370
REMARK INTER:                  -5.988
REMARK INTRA:                  -0.382
REMARK UNBOUND:                -0.328
REMARK SMILES C=CC[C@@H](C)C(=O)CC
REMARK SMILES IDX 4 1 5 2 6 3 7 4 8 5 9 6 3 7 2 8 1 9
REMARK H PARENT
REMARK Flexibility Score: inf
ROOT
ATOM      1  C   UNL     1      47.121   3.177  18.677  1.00  0.00     0.057 C 
ATOM      2  C   UNL     1      45.604   3.163  18.459  1.00  0.00     0.016 C 
ENDROOT
BRANCH   1   3
ATOM      3  C   UNL     1      47.524   4.433  19.426  1.00  0.00     0.135 C 
ATOM      4  O   UNL     1      46.895   5.467  19.256  1.00  0.00    -0.299 OA
BRANCH   3   5
ATOM      5  C   UNL     1      48.701   4.435  20.366  1.00  0.00     0.072 C 
ATOM      6  C   UNL     1      50.013   4.555  19.597  1.00  0.00     0.012 C 
ENDBRANCH   3   5
ENDBRANCH   1   3
BRANCH   1   7
ATOM      7  C   UNL     1      47.570   1.908  19.431  1.00  0.00     0.038 C 
BRANCH   7   8
ATOM      8  C   UNL     1      48.507   1.060  18.610  1.00  0.00    -0.034 C 
ATOM      9  C   UNL     1      48.581   1.177  17.281  1.00  0.00     0.004 C 
ENDBRANCH   7   8
ENDBRANCH   1   7
TORSDOF 4
ENDMDL
MODEL 4
REMARK VINA RESULT:    -4.829      2.208      4.138
REMARK INTER + INTRA:          -6.286
REMARK INTER:                  -5.931
REMARK INTRA:                  -0.355
REMARK UNBOUND:                -0.328
REMARK SMILES C=CC[C@@H](C)C(=O)CC
REMARK SMILES IDX 4 1 5 2 6 3 7 4 8 5 9 6 3 7 2 8 1 9
REMARK H PARENT
REMARK Flexibility Score: inf
ROOT
ATOM      1  C   UNL     1      48.758   1.318  18.558  1.00  0.00     0.057 C 
ATOM      2  C   UNL     1      48.373   1.116  17.089  1.00  0.00     0.016 C 
ENDROOT
BRANCH   1   3
ATOM      3  C   UNL     1      49.981   2.210  18.655  1.00  0.00     0.135 C 
ATOM      4  O   UNL     1      51.088   1.707  18.785  1.00  0.00    -0.299 OA
BRANCH   3   5
ATOM      5  C   UNL     1      49.856   3.710  18.612  1.00  0.00     0.072 C 
ATOM      6  C   UNL     1      50.280   4.331  19.940  1.00  0.00     0.012 C 
ENDBRANCH   3   5
ENDBRANCH   1   3
BRANCH   1   7
ATOM      7  C   UNL     1      47.572   1.907  19.352  1.00  0.00     0.038 C 
BRANCH   7   8
ATOM      8  C   UNL     1      46.457   2.369  18.449  1.00  0.00    -0.034 C 
ATOM      9  C   UNL     1      45.982   3.617  18.497  1.00  0.00     0.004 C 
ENDBRANCH   7   8
ENDBRANCH   1   7
TORSDOF 4
ENDMDL
MODEL 5
REMARK VINA RESULT:    -4.708      2.089      3.952
REMARK INTER + INTRA:          -6.136
REMARK INTER:                  -5.651
REMARK INTRA:                  -0.486
REMARK UNBOUND:                -0.328
REMARK SMILES C=CC[C@@H](C)C(=O)CC
REMARK SMILES IDX 4 1 5 2 6 3 7 4 8 5 9 6 3 7 2 8 1 9
REMARK H PARENT
REMARK Flexibility Score: inf
ROOT
ATOM      1  C   UNL     1      49.036   1.940  16.767  1.00  0.00     0.057 C 
ATOM      2  C   UNL     1      48.725   2.395  15.337  1.00  0.00     0.016 C 
ENDROOT
BRANCH   1   3
ATOM      3  C   UNL     1      49.698   3.066  17.536  1.00  0.00     0.135 C 
ATOM      4  O   UNL     1      50.046   4.080  16.946  1.00  0.00    -0.299 OA
BRANCH   3   5
ATOM      5  C   UNL     1      49.955   2.954  19.016  1.00  0.00     0.072 C 
ATOM      6  C   UNL     1      49.441   4.185  19.754  1.00  0.00     0.012 C 
ENDBRANCH   3   5
ENDBRANCH   1   3
BRANCH   1   7
ATOM      7  C   UNL     1      47.749   1.463  17.472  1.00  0.00     0.038 C 
BRANCH   7   8
ATOM      8  C   UNL     1      46.636   2.473  17.371  1.00  0.00    -0.034 C 
ATOM      9  C   UNL     1      46.047   2.984  18.457  1.00  0.00     0.004 C 
ENDBRANCH   7   8
ENDBRANCH   1   7
TORSDOF 4
ENDMDL
MODEL 6
REMARK VINA RESULT:    -4.670      2.449      3.753
REMARK INTER + INTRA:          -6.090
REMARK INTER:                  -5.760
REMARK INTRA:                  -0.330
REMARK UNBOUND:                -0.328
REMARK SMILES C=CC[C@@H](C)C(=O)CC
REMARK SMILES IDX 4 1 5 2 6 3 7 4 8 5 9 6 3 7 2 8 1 9
REMARK H PARENT
REMARK Flexibility Score: inf
ROOT
ATOM      1  C   UNL     1      47.257   1.835  17.925  1.00  0.00     0.057 C 
ATOM      2  C   UNL     1      46.167   2.683  17.261  1.00  0.00     0.016 C 
ENDROOT
BRANCH   1   3
ATOM      3  C   UNL     1      48.524   1.876  17.093  1.00  0.00     0.135 C 
ATOM      4  O   UNL     1      49.583   1.513  17.584  1.00  0.00    -0.299 OA
BRANCH   3   5
ATOM      5  C   UNL     1      48.506   2.376  15.672  1.00  0.00     0.072 C 
ATOM      6  C   UNL     1      49.759   3.190  15.364  1.00  0.00     0.012 C 
ENDBRANCH   3   5
ENDBRANCH   1   3
BRANCH   1   7
ATOM      7  C   UNL     1      47.518   2.324  19.366  1.00  0.00     0.038 C 
BRANCH   7   8
ATOM      8  C   UNL     1      47.720   3.816  19.432  1.00  0.00    -0.034 C 
ATOM      9  C   UNL     1      48.650   4.366  20.219  1.00  0.00     0.004 C 
ENDBRANCH   7   8
ENDBRANCH   1   7
TORSDOF 4
ENDMDL
MODEL 7
REMARK VINA RESULT:    -4.621      1.700      3.034
REMARK INTER + INTRA:          -6.029
REMARK INTER:                  -5.642
REMARK INTRA:                  -0.387
REMARK UNBOUND:                -0.328
REMARK SMILES C=CC[C@@H](C)C(=O)CC
REMARK SMILES IDX 4 1 5 2 6 3 7 4 8 5 9 6 3 7 2 8 1 9
REMARK H PARENT
REMARK Flexibility Score: inf
ROOT
ATOM      1  C   UNL     1      47.237   2.158  18.606  1.00  0.00     0.057 C 
ATOM      2  C   UNL     1      48.407   1.250  19.000  1.00  0.00     0.016 C 
ENDROOT
BRANCH   1   3
ATOM      3  C   UNL     1      47.441   3.545  19.183  1.00  0.00     0.135 C 
ATOM      4  O   UNL     1      46.594   4.408  18.999  1.00  0.00    -0.299 OA
BRANCH   3   5
ATOM      5  C   UNL     1      48.680   3.888  19.967  1.00  0.00     0.072 C 
ATOM      6  C   UNL     1      49.721   4.560  19.077  1.00  0.00     0.012 C 
ENDBRANCH   3   5
ENDBRANCH   1   3
BRANCH   1   7
ATOM      7  C   UNL     1      47.086   2.208  17.070  1.00  0.00     0.038 C 
BRANCH   7   8
ATOM      8  C   UNL     1      48.400   2.000  16.363  1.00  0.00    -0.034 C 
ATOM      9  C   UNL     1      48.750   2.728  15.298  1.00  0.00     0.004 C 
ENDBRANCH   7   8
ENDBRANCH   1   7
TORSDOF 4
ENDMDL
MODEL 8
REMARK VINA RESULT:    -4.528      1.909      2.716
REMARK INTER + INTRA:          -5.914
REMARK INTER:                  -5.539
REMARK INTRA:                  -0.375
REMARK UNBOUND:                -0.328
REMARK SMILES C=CC[C@@H](C)C(=O)CC
REMARK SMILES IDX 4 1 5 2 6 3 7 4 8 5 9 6 3 7 2 8 1 9
REMARK H PARENT
REMARK Flexibility Score: inf
ROOT
ATOM      1  C   UNL     1      49.224   1.766  18.443  1.00  0.00     0.057 C 
ATOM      2  C   UNL     1      50.621   2.394  18.411  1.00  0.00     0.016 C 
ENDROOT
BRANCH   1   3
ATOM      3  C   UNL     1      48.252   2.702  19.134  1.00  0.00     0.135 C 
ATOM      4  O   UNL     1      48.645   3.781  19.554  1.00  0.00    -0.299 OA
BRANCH   3   5
ATOM      5  C   UNL     1      46.808   2.320  19.330  1.00  0.00     0.072 C 
ATOM      6  C   UNL     1      45.897   3.143  18.425  1.00  0.00     0.012 C 
ENDBRANCH   3   5
ENDBRANCH   1   3
BRANCH   1   7
ATOM      7  C   UNL     1      48.752   1.425  17.013  1.00  0.00     0.038 C 
BRANCH   7   8
ATOM      8  C   UNL     1      49.194   2.457  16.008  1.00  0.00    -0.034 C 
ATOM      9  C   UNL     1      48.404   2.845  15.003  1.00  0.00     0.004 C 
ENDBRANCH   7   8
ENDBRANCH   1   7
TORSDOF 4
ENDMDL
MODEL 9
REMARK VINA RESULT:    -4.367      1.851      2.994
REMARK INTER + INTRA:          -5.717
REMARK INTER:                  -5.352
REMARK INTRA:                  -0.365
REMARK UNBOUND:                -0.328
REMARK SMILES C=CC[C@@H](C)C(=O)CC
REMARK SMILES IDX 4 1 5 2 6 3 7 4 8 5 9 6 3 7 2 8 1 9
REMARK H PARENT
REMARK Flexibility Score: inf
ROOT
ATOM      1  C   UNL     1      47.852   1.516  17.277  1.00  0.00     0.057 C 
ATOM      2  C   UNL     1      48.429   1.061  18.621  1.00  0.00     0.016 C 
ENDROOT
BRANCH   1   3
ATOM      3  C   UNL     1      46.733   2.514  17.505  1.00  0.00     0.135 C 
ATOM      4  O   UNL     1      46.136   2.984  16.547  1.00  0.00    -0.299 OA
BRANCH   3   5
ATOM      5  C   UNL     1      46.353   2.954  18.895  1.00  0.00     0.072 C 
ATOM      6  C   UNL     1      47.020   4.279  19.249  1.00  0.00     0.012 C 
ENDBRANCH   3   5
ENDBRANCH   1   3
BRANCH   1   7
ATOM      7  C   UNL     1      48.962   2.114  16.387  1.00  0.00     0.038 C 
BRANCH   7   8
ATOM      8  C   UNL     1      49.947   2.933  17.180  1.00  0.00    -0.034 C 
ATOM      9  C   UNL     1      50.720   3.858  16.603  1.00  0.00     0.004 C 
ENDBRANCH   7   8
ENDBRANCH   1   7
TORSDOF 4
ENDMDL
