MODEL 1
REMARK VINA RESULT:    -2.918      0.000      0.000
REMARK INTER + INTRA:          -3.100
REMARK INTER:                  -3.088
REMARK INTRA:                  -0.012
REMARK UNBOUND:                -0.012
REMARK SMILES O=Cc1ccco1
REMARK SMILES IDX 5 1 6 2 7 3 3 4 4 5 2 6 1 7
REMARK H PARENT
REMARK Flexibility Score: inf
ROOT
ATOM      1  C   UNL     1     169.586 168.037 162.650  1.00  0.00     0.043 A 
ATOM      2  C   UNL     1     169.588 169.144 161.826  1.00  0.00     0.196 A 
ATOM      3  O   UNL     1     170.048 170.185 162.482  1.00  0.00    -0.462 OA
ATOM      4  C   UNL     1     170.348 169.806 163.703  1.00  0.00     0.166 A 
ATOM      5  C   UNL     1     170.078 168.463 163.865  1.00  0.00     0.054 A 
ENDROOT
BRANCH   4   6
ATOM      6  C   UNL     1     170.890 170.695 164.732  1.00  0.00     0.298 C 
ATOM      7  O   UNL     1     172.088 171.079 164.671  1.00  0.00    -0.294 OA
ENDBRANCH   4   6
TORSDOF 1
ENDMDL
MODEL 2
REMARK VINA RESULT:    -2.848      1.320      1.681
REMARK INTER + INTRA:          -3.026
REMARK INTER:                  -3.015
REMARK INTRA:                  -0.011
REMARK UNBOUND:                -0.012
REMARK SMILES O=Cc1ccco1
REMARK SMILES IDX 5 1 6 2 7 3 3 4 4 5 2 6 1 7
REMARK H PARENT
REMARK Flexibility Score: inf
ROOT
ATOM      1  C   UNL     1     168.582 169.685 163.471  1.00  0.00     0.043 A 
ATOM      2  C   UNL     1     169.405 168.576 163.494  1.00  0.00     0.196 A 
ATOM      3  O   UNL     1     170.608 168.925 163.889  1.00  0.00    -0.462 OA
ATOM      4  C   UNL     1     170.609 170.217 164.126  1.00  0.00     0.166 A 
ATOM      5  C   UNL     1     169.360 170.747 163.879  1.00  0.00     0.054 A 
ENDROOT
BRANCH   4   6
ATOM      6  C   UNL     1     171.777 170.970 164.585  1.00  0.00     0.298 C 
ATOM      7  O   UNL     1     172.193 171.959 163.927  1.00  0.00    -0.294 OA
ENDBRANCH   4   6
TORSDOF 1
ENDMDL
MODEL 3
REMARK VINA RESULT:    -2.834     10.043     10.883
REMARK INTER + INTRA:          -3.011
REMARK INTER:                  -3.000
REMARK INTRA:                  -0.011
REMARK UNBOUND:                -0.012
REMARK SMILES O=Cc1ccco1
REMARK SMILES IDX 5 1 6 2 7 3 3 4 4 5 2 6 1 7
REMARK H PARENT
REMARK Flexibility Score: inf
ROOT
ATOM      1  C   UNL     1     177.648 173.795 168.392  1.00  0.00     0.043 A 
ATOM      2  C   UNL     1     177.649 174.787 167.431  1.00  0.00     0.196 A 
ATOM      3  O   UNL     1     177.401 175.948 167.992  1.00  0.00    -0.462 OA
ATOM      4  C   UNL     1     177.237 175.760 169.281  1.00  0.00     0.166 A 
ATOM      5  C   UNL     1     177.382 174.424 169.590  1.00  0.00     0.054 A 
ENDROOT
BRANCH   4   6
ATOM      6  C   UNL     1     176.944 176.828 170.238  1.00  0.00     0.298 C 
ATOM      7  O   UNL     1     177.876 177.381 170.877  1.00  0.00    -0.294 OA
ENDBRANCH   4   6
TORSDOF 1
ENDMDL
MODEL 4
REMARK VINA RESULT:    -2.778      1.591      2.956
REMARK INTER + INTRA:          -2.952
REMARK INTER:                  -2.942
REMARK INTRA:                  -0.011
REMARK UNBOUND:                -0.012
REMARK SMILES O=Cc1ccco1
REMARK SMILES IDX 5 1 6 2 7 3 3 4 4 5 2 6 1 7
REMARK H PARENT
REMARK Flexibility Score: inf
ROOT
ATOM      1  C   UNL     1     171.883 171.884 164.004  1.00  0.00     0.043 A 
ATOM      2  C   UNL     1     171.369 171.870 162.723  1.00  0.00     0.196 A 
ATOM      3  O   UNL     1     170.620 170.804 162.557  1.00  0.00    -0.462 OA
ATOM      4  C   UNL     1     170.622 170.117 163.677  1.00  0.00     0.166 A 
ATOM      5  C   UNL     1     171.401 170.750 164.623  1.00  0.00     0.054 A 
ENDROOT
BRANCH   4   6
ATOM      6  C   UNL     1     169.896 168.862 163.874  1.00  0.00     0.298 C 
ATOM      7  O   UNL     1     170.499 167.760 163.790  1.00  0.00    -0.294 OA
ENDBRANCH   4   6
TORSDOF 1
ENDMDL
MODEL 5
REMARK VINA RESULT:    -2.732      2.547      3.489
REMARK INTER + INTRA:          -2.903
REMARK INTER:                  -2.889
REMARK INTRA:                  -0.015
REMARK UNBOUND:                -0.012
REMARK SMILES O=Cc1ccco1
REMARK SMILES IDX 5 1 6 2 7 3 3 4 4 5 2 6 1 7
REMARK H PARENT
REMARK Flexibility Score: inf
ROOT
ATOM      1  C   UNL     1     171.771 170.809 164.288  1.00  0.00     0.043 A 
ATOM      2  C   UNL     1     170.496 170.363 164.573  1.00  0.00     0.196 A 
ATOM      3  O   UNL     1     169.632 171.332 164.376  1.00  0.00    -0.462 OA
ATOM      4  C   UNL     1     170.287 172.397 163.975  1.00  0.00     0.166 A 
ATOM      5  C   UNL     1     171.638 172.126 163.901  1.00  0.00     0.054 A 
ENDROOT
BRANCH   4   6
ATOM      6  C   UNL     1     169.659 173.680 163.656  1.00  0.00     0.298 C 
ATOM      7  O   UNL     1     168.647 174.068 164.297  1.00  0.00    -0.294 OA
ENDBRANCH   4   6
TORSDOF 1
ENDMDL
MODEL 6
REMARK VINA RESULT:    -2.717      2.281      3.338
REMARK INTER + INTRA:          -2.888
REMARK INTER:                  -2.876
REMARK INTRA:                  -0.011
REMARK UNBOUND:                -0.012
REMARK SMILES O=Cc1ccco1
REMARK SMILES IDX 5 1 6 2 7 3 3 4 4 5 2 6 1 7
REMARK H PARENT
REMARK Flexibility Score: inf
ROOT
ATOM      1  C   UNL     1     172.047 171.121 164.315  1.00  0.00     0.043 A 
ATOM      2  C   UNL     1     171.750 172.387 163.853  1.00  0.00     0.196 A 
ATOM      3  O   UNL     1     170.457 172.495 163.654  1.00  0.00    -0.462 OA
ATOM      4  C   UNL     1     169.892 171.351 163.966  1.00  0.00     0.166 A 
ATOM      5  C   UNL     1     170.846 170.449 164.389  1.00  0.00     0.054 A 
ENDROOT
BRANCH   4   6
ATOM      6  C   UNL     1     168.455 171.089 163.873  1.00  0.00     0.298 C 
ATOM      7  O   UNL     1     168.039 169.999 163.398  1.00  0.00    -0.294 OA
ENDBRANCH   4   6
TORSDOF 1
ENDMDL
MODEL 7
REMARK VINA RESULT:    -2.703     11.880     12.079
REMARK INTER + INTRA:          -2.872
REMARK INTER:                  -2.859
REMARK INTRA:                  -0.013
REMARK UNBOUND:                -0.012
REMARK SMILES O=Cc1ccco1
REMARK SMILES IDX 5 1 6 2 7 3 3 4 4 5 2 6 1 7
REMARK H PARENT
REMARK Flexibility Score: inf
ROOT
ATOM      1  C   UNL     1     161.356 161.714 165.135  1.00  0.00     0.043 A 
ATOM      2  C   UNL     1     160.227 162.474 164.903  1.00  0.00     0.196 A 
ATOM      3  O   UNL     1     159.965 163.211 165.958  1.00  0.00    -0.462 OA
ATOM      4  C   UNL     1     160.875 162.966 166.872  1.00  0.00     0.166 A 
ATOM      5  C   UNL     1     161.777 162.031 166.408  1.00  0.00     0.054 A 
ENDROOT
BRANCH   4   6
ATOM      6  C   UNL     1     160.913 163.604 168.189  1.00  0.00     0.298 C 
ATOM      7  O   UNL     1     160.840 164.857 168.290  1.00  0.00    -0.294 OA
ENDBRANCH   4   6
TORSDOF 1
ENDMDL
MODEL 8
REMARK VINA RESULT:    -2.701      1.820      2.089
REMARK INTER + INTRA:          -2.870
REMARK INTER:                  -2.858
REMARK INTRA:                  -0.012
REMARK UNBOUND:                -0.012
REMARK SMILES O=Cc1ccco1
REMARK SMILES IDX 5 1 6 2 7 3 3 4 4 5 2 6 1 7
REMARK H PARENT
REMARK Flexibility Score: inf
ROOT
ATOM      1  C   UNL     1     168.057 170.386 163.375  1.00  0.00     0.043 A 
ATOM      2  C   UNL     1     168.231 171.751 163.489  1.00  0.00     0.196 A 
ATOM      3  O   UNL     1     169.443 172.009 163.924  1.00  0.00    -0.462 OA
ATOM      4  C   UNL     1     170.072 170.870 164.101  1.00  0.00     0.166 A 
ATOM      5  C   UNL     1     169.248 169.815 163.771  1.00  0.00     0.054 A 
ENDROOT
BRANCH   4   6
ATOM      6  C   UNL     1     171.450 170.756 164.581  1.00  0.00     0.298 C 
ATOM      7  O   UNL     1     172.407 171.148 163.864  1.00  0.00    -0.294 OA
ENDBRANCH   4   6
TORSDOF 1
ENDMDL
MODEL 9
REMARK VINA RESULT:    -2.658      2.059      3.027
REMARK INTER + INTRA:          -2.826
REMARK INTER:                  -2.809
REMARK INTRA:                  -0.016
REMARK UNBOUND:                -0.012
REMARK SMILES O=Cc1ccco1
REMARK SMILES IDX 5 1 6 2 7 3 3 4 4 5 2 6 1 7
REMARK H PARENT
REMARK Flexibility Score: inf
ROOT
ATOM      1  C   UNL     1     168.361 171.856 163.493  1.00  0.00     0.043 A 
ATOM      2  C   UNL     1     169.604 171.901 164.092  1.00  0.00     0.196 A 
ATOM      3  O   UNL     1     170.111 170.690 164.153  1.00  0.00    -0.462 OA
ATOM      4  C   UNL     1     169.252 169.853 163.619  1.00  0.00     0.166 A 
ATOM      5  C   UNL     1     168.132 170.532 163.186  1.00  0.00     0.054 A 
ENDROOT
BRANCH   4   6
ATOM      6  C   UNL     1     169.468 168.410 163.508  1.00  0.00     0.298 C 
ATOM      7  O   UNL     1     170.548 167.898 163.904  1.00  0.00    -0.294 OA
ENDBRANCH   4   6
TORSDOF 1
ENDMDL
