MODEL 1
REMARK VINA RESULT:    -4.432      0.000      0.000
REMARK INTER + INTRA:          -8.192
REMARK INTER:                  -7.023
REMARK INTRA:                  -1.170
REMARK UNBOUND:                -1.170
REMARK SMILES CCCCCCCCCCCC(=O)[O-]
REMARK SMILES IDX 7 1 8 2 9 3 10 4 11 5 12 6 13 7 14 8 6 9 5 10 4 11 3 12 2 13
REMARK SMILES IDX 1 14
REMARK H PARENT
REMARK Flexibility Score: inf
ROOT
ATOM      1  C   UNL     1      -3.354   9.743  25.219  1.00  0.00     0.000 C 
ENDROOT
BRANCH   1   2
ATOM      2  C   UNL     1      -2.580   9.219  26.438  1.00  0.00     0.000 C 
BRANCH   2   3
ATOM      3  C   UNL     1      -1.055   9.208  26.222  1.00  0.00     0.000 C 
BRANCH   3   4
ATOM      4  C   UNL     1      -0.574   9.902  24.931  1.00  0.00     0.006 C 
BRANCH   4   5
ATOM      5  C   UNL     1       0.807   9.445  24.437  1.00  0.00     0.053 C 
BRANCH   5   6
ATOM      6  C   UNL     1       1.900   9.839  25.382  1.00  0.00     0.041 C 
ATOM      7  O   UNL     1       2.044  11.044  25.716  1.00  0.00    -0.550 OA
ATOM      8  O   UNL     1       2.781   8.881  25.867  1.00  0.00    -0.550 OA
ENDBRANCH   5   6
ENDBRANCH   4   5
ENDBRANCH   3   4
ENDBRANCH   2   3
ENDBRANCH   1   2
BRANCH   1   9
ATOM      9  C   UNL     1      -4.486   8.783  24.835  1.00  0.00     0.000 C 
BRANCH   9  10
ATOM     10  C   UNL     1      -4.374   8.360  23.366  1.00  0.00    -0.000 C 
BRANCH  10  11
ATOM     11  C   UNL     1      -2.914   8.093  22.979  1.00  0.00    -0.000 C 
BRANCH  11  12
ATOM     12  C   UNL     1      -2.490   8.972  21.793  1.00  0.00    -0.000 C 
BRANCH  12  13
ATOM     13  C   UNL     1      -3.578   9.977  21.386  1.00  0.00    -0.003 C 
ATOM     14  C   UNL     1      -3.211  11.420  21.733  1.00  0.00     0.004 C 
ENDBRANCH  12  13
ENDBRANCH  11  12
ENDBRANCH  10  11
ENDBRANCH   9  10
ENDBRANCH   1   9
TORSDOF 10
ENDMDL
MODEL 2
REMARK VINA RESULT:    -4.417      1.182      2.551
REMARK INTER + INTRA:          -8.169
REMARK INTER:                  -6.918
REMARK INTRA:                  -1.251
REMARK UNBOUND:                -1.170
REMARK SMILES CCCCCCCCCCCC(=O)[O-]
REMARK SMILES IDX 7 1 8 2 9 3 10 4 11 5 12 6 13 7 14 8 6 9 5 10 4 11 3 12 2 13
REMARK SMILES IDX 1 14
REMARK H PARENT
REMARK Flexibility Score: inf
ROOT
ATOM      1  C   UNL     1      -3.814  11.274  23.813  1.00  0.00     0.000 C 
ENDROOT
BRANCH   1   2
ATOM      2  C   UNL     1      -2.382  11.282  24.369  1.00  0.00     0.000 C 
BRANCH   2   3
ATOM      3  C   UNL     1      -2.296  10.752  25.813  1.00  0.00     0.000 C 
BRANCH   3   4
ATOM      4  C   UNL     1      -1.133   9.773  26.080  1.00  0.00     0.006 C 
BRANCH   4   5
ATOM      5  C   UNL     1      -0.107   9.676  24.941  1.00  0.00     0.053 C 
BRANCH   5   6
ATOM      6  C   UNL     1       1.275  10.027  25.400  1.00  0.00     0.041 C 
ATOM      7  O   UNL     1       2.196   9.171  25.346  1.00  0.00    -0.550 OA
ATOM      8  O   UNL     1       1.538  11.288  25.919  1.00  0.00    -0.550 OA
ENDBRANCH   5   6
ENDBRANCH   4   5
ENDBRANCH   3   4
ENDBRANCH   2   3
ENDBRANCH   1   2
BRANCH   1   9
ATOM      9  C   UNL     1      -3.901  12.079  22.510  1.00  0.00     0.000 C 
BRANCH   9  10
ATOM     10  C   UNL     1      -3.228  11.329  21.355  1.00  0.00    -0.000 C 
BRANCH  10  11
ATOM     11  C   UNL     1      -3.753   9.892  21.250  1.00  0.00    -0.000 C 
BRANCH  11  12
ATOM     12  C   UNL     1      -2.646   8.935  20.784  1.00  0.00    -0.000 C 
BRANCH  12  13
ATOM     13  C   UNL     1      -1.841   8.350  21.954  1.00  0.00    -0.003 C 
ATOM     14  C   UNL     1      -2.731   7.828  23.082  1.00  0.00     0.004 C 
ENDBRANCH  12  13
ENDBRANCH  11  12
ENDBRANCH  10  11
ENDBRANCH   9  10
ENDBRANCH   1   9
TORSDOF 10
ENDMDL
MODEL 3
REMARK VINA RESULT:    -4.409      2.371      3.834
REMARK INTER + INTRA:          -8.156
REMARK INTER:                  -6.572
REMARK INTRA:                  -1.584
REMARK UNBOUND:                -1.170
REMARK SMILES CCCCCCCCCCCC(=O)[O-]
REMARK SMILES IDX 7 1 8 2 9 3 10 4 11 5 12 6 13 7 14 8 6 9 5 10 4 11 3 12 2 13
REMARK SMILES IDX 1 14
REMARK H PARENT
REMARK Flexibility Score: inf
ROOT
ATOM      1  C   UNL     1      -3.165  11.423  21.714  1.00  0.00     0.000 C 
ENDROOT
BRANCH   1   2
ATOM      2  C   UNL     1      -3.266  11.853  23.185  1.00  0.00     0.000 C 
BRANCH   2   3
ATOM      3  C   UNL     1      -4.285  11.020  23.985  1.00  0.00     0.000 C 
BRANCH   3   4
ATOM      4  C   UNL     1      -3.981  10.890  25.492  1.00  0.00     0.006 C 
BRANCH   4   5
ATOM      5  C   UNL     1      -2.541  11.252  25.887  1.00  0.00     0.053 C 
BRANCH   5   6
ATOM      6  C   UNL     1      -2.135  10.613  27.179  1.00  0.00     0.041 C 
ATOM      7  O   UNL     1      -1.819  11.326  28.166  1.00  0.00    -0.550 OA
ATOM      8  O   UNL     1      -2.071   9.229  27.282  1.00  0.00    -0.550 OA
ENDBRANCH   5   6
ENDBRANCH   4   5
ENDBRANCH   3   4
ENDBRANCH   2   3
ENDBRANCH   1   2
BRANCH   1   9
ATOM      9  C   UNL     1      -4.031  10.186  21.443  1.00  0.00     0.000 C 
BRANCH   9  10
ATOM     10  C   UNL     1      -3.246   9.127  20.660  1.00  0.00    -0.000 C 
BRANCH  10  11
ATOM     11  C   UNL     1      -2.099   8.555  21.504  1.00  0.00    -0.000 C 
BRANCH  11  12
ATOM     12  C   UNL     1      -2.624   7.983  22.829  1.00  0.00    -0.000 C 
BRANCH  12  13
ATOM     13  C   UNL     1      -1.680   8.266  24.008  1.00  0.00    -0.003 C 
ATOM     14  C   UNL     1      -0.473   9.114  23.609  1.00  0.00     0.004 C 
ENDBRANCH  12  13
ENDBRANCH  11  12
ENDBRANCH  10  11
ENDBRANCH   9  10
ENDBRANCH   1   9
TORSDOF 10
ENDMDL
MODEL 4
REMARK VINA RESULT:    -4.312      1.891      2.581
REMARK INTER + INTRA:          -8.002
REMARK INTER:                  -6.845
REMARK INTRA:                  -1.158
REMARK UNBOUND:                -1.170
REMARK SMILES CCCCCCCCCCCC(=O)[O-]
REMARK SMILES IDX 7 1 8 2 9 3 10 4 11 5 12 6 13 7 14 8 6 9 5 10 4 11 3 12 2 13
REMARK SMILES IDX 1 14
REMARK H PARENT
REMARK Flexibility Score: inf
ROOT
ATOM      1  C   UNL     1      -1.762   8.492  24.321  1.00  0.00     0.000 C 
ENDROOT
BRANCH   1   2
ATOM      2  C   UNL     1      -2.181   9.567  25.335  1.00  0.00     0.000 C 
BRANCH   2   3
ATOM      3  C   UNL     1      -2.084  10.996  24.770  1.00  0.00     0.000 C 
BRANCH   3   4
ATOM      4  C   UNL     1      -1.914  12.106  25.829  1.00  0.00     0.006 C 
BRANCH   4   5
ATOM      5  C   UNL     1      -0.766  11.871  26.822  1.00  0.00     0.053 C 
BRANCH   5   6
ATOM      6  C   UNL     1       0.552  12.325  26.274  1.00  0.00     0.041 C 
ATOM      7  O   UNL     1       0.777  13.551  26.100  1.00  0.00    -0.550 OA
ATOM      8  O   UNL     1       1.519  11.392  25.921  1.00  0.00    -0.550 OA
ENDBRANCH   5   6
ENDBRANCH   4   5
ENDBRANCH   3   4
ENDBRANCH   2   3
ENDBRANCH   1   2
BRANCH   1   9
ATOM      9  C   UNL     1      -1.149   9.130  23.068  1.00  0.00     0.000 C 
BRANCH   9  10
ATOM     10  C   UNL     1      -1.606   8.400  21.799  1.00  0.00    -0.000 C 
BRANCH  10  11
ATOM     11  C   UNL     1      -3.059   8.750  21.455  1.00  0.00    -0.000 C 
BRANCH  11  12
ATOM     12  C   UNL     1      -3.234  10.268  21.289  1.00  0.00    -0.000 C 
BRANCH  12  13
ATOM     13  C   UNL     1      -4.465  10.804  22.036  1.00  0.00    -0.003 C 
ATOM     14  C   UNL     1      -4.469  12.328  22.152  1.00  0.00     0.004 C 
ENDBRANCH  12  13
ENDBRANCH  11  12
ENDBRANCH  10  11
ENDBRANCH   9  10
ENDBRANCH   1   9
TORSDOF 10
ENDMDL
MODEL 5
REMARK VINA RESULT:    -4.302      8.281     10.130
REMARK INTER + INTRA:          -7.987
REMARK INTER:                  -6.610
REMARK INTRA:                  -1.377
REMARK UNBOUND:                -1.170
REMARK SMILES CCCCCCCCCCCC(=O)[O-]
REMARK SMILES IDX 7 1 8 2 9 3 10 4 11 5 12 6 13 7 14 8 6 9 5 10 4 11 3 12 2 13
REMARK SMILES IDX 1 14
REMARK H PARENT
REMARK Flexibility Score: inf
ROOT
ATOM      1  C   UNL     1       4.443  18.714  22.811  1.00  0.00     0.000 C 
ENDROOT
BRANCH   1   2
ATOM      2  C   UNL     1       3.836  17.508  23.542  1.00  0.00     0.000 C 
BRANCH   2   3
ATOM      3  C   UNL     1       3.143  17.892  24.862  1.00  0.00     0.000 C 
BRANCH   3   4
ATOM      4  C   UNL     1       1.965  16.983  25.270  1.00  0.00     0.006 C 
BRANCH   4   5
ATOM      5  C   UNL     1       1.725  15.790  24.332  1.00  0.00     0.053 C 
BRANCH   5   6
ATOM      6  C   UNL     1       1.757  14.484  25.063  1.00  0.00     0.041 C 
ATOM      7  O   UNL     1       0.892  14.228  25.941  1.00  0.00    -0.550 OA
ATOM      8  O   UNL     1       2.764  13.563  24.801  1.00  0.00    -0.550 OA
ENDBRANCH   5   6
ENDBRANCH   4   5
ENDBRANCH   3   4
ENDBRANCH   2   3
ENDBRANCH   1   2
BRANCH   1   9
ATOM      9  C   UNL     1       3.706  20.007  23.181  1.00  0.00     0.000 C 
BRANCH   9  10
ATOM     10  C   UNL     1       3.053  20.640  21.946  1.00  0.00    -0.000 C 
BRANCH  10  11
ATOM     11  C   UNL     1       1.544  20.824  22.154  1.00  0.00    -0.000 C 
BRANCH  11  12
ATOM     12  C   UNL     1       1.179  20.731  23.643  1.00  0.00    -0.000 C 
BRANCH  12  13
ATOM     13  C   UNL     1       0.004  19.776  23.902  1.00  0.00    -0.003 C 
ATOM     14  C   UNL     1      -0.365  18.944  22.674  1.00  0.00     0.004 C 
ENDBRANCH  12  13
ENDBRANCH  11  12
ENDBRANCH  10  11
ENDBRANCH   9  10
ENDBRANCH   1   9
TORSDOF 10
ENDMDL
MODEL 6
REMARK VINA RESULT:    -4.276      3.397      5.237
REMARK INTER + INTRA:          -7.945
REMARK INTER:                  -6.508
REMARK INTRA:                  -1.437
REMARK UNBOUND:                -1.170
REMARK SMILES CCCCCCCCCCCC(=O)[O-]
REMARK SMILES IDX 7 1 8 2 9 3 10 4 11 5 12 6 13 7 14 8 6 9 5 10 4 11 3 12 2 13
REMARK SMILES IDX 1 14
REMARK H PARENT
REMARK Flexibility Score: inf
ROOT
ATOM      1  C   UNL     1      -1.772   8.927  24.719  1.00  0.00     0.000 C 
ENDROOT
BRANCH   1   2
ATOM      2  C   UNL     1      -3.308   8.976  24.728  1.00  0.00     0.000 C 
BRANCH   2   3
ATOM      3  C   UNL     1      -3.879  10.091  23.833  1.00  0.00     0.000 C 
BRANCH   3   4
ATOM      4  C   UNL     1      -2.877  10.700  22.830  1.00  0.00     0.006 C 
BRANCH   4   5
ATOM      5  C   UNL     1      -3.253  10.504  21.354  1.00  0.00     0.053 C 
BRANCH   5   6
ATOM      6  C   UNL     1      -3.152   9.070  20.934  1.00  0.00     0.041 C 
ATOM      7  O   UNL     1      -4.165   8.466  20.494  1.00  0.00    -0.550 OA
ATOM      8  O   UNL     1      -1.947   8.390  21.061  1.00  0.00    -0.550 OA
ENDBRANCH   5   6
ENDBRANCH   4   5
ENDBRANCH   3   4
ENDBRANCH   2   3
ENDBRANCH   1   2
BRANCH   1   9
ATOM      9  C   UNL     1      -1.211   9.042  26.142  1.00  0.00     0.000 C 
BRANCH   9  10
ATOM     10  C   UNL     1      -2.338   9.236  27.163  1.00  0.00    -0.000 C 
BRANCH  10  11
ATOM     11  C   UNL     1      -2.180  10.565  27.913  1.00  0.00    -0.000 C 
BRANCH  11  12
ATOM     12  C   UNL     1      -3.022  11.670  27.256  1.00  0.00    -0.000 C 
BRANCH  12  13
ATOM     13  C   UNL     1      -2.194  12.920  26.920  1.00  0.00    -0.003 C 
ATOM     14  C   UNL     1      -1.491  12.819  25.567  1.00  0.00     0.004 C 
ENDBRANCH  12  13
ENDBRANCH  11  12
ENDBRANCH  10  11
ENDBRANCH   9  10
ENDBRANCH   1   9
TORSDOF 10
ENDMDL
MODEL 7
REMARK VINA RESULT:    -4.238      7.904     10.166
REMARK INTER + INTRA:          -7.885
REMARK INTER:                  -6.712
REMARK INTRA:                  -1.174
REMARK UNBOUND:                -1.170
REMARK SMILES CCCCCCCCCCCC(=O)[O-]
REMARK SMILES IDX 7 1 8 2 9 3 10 4 11 5 12 6 13 7 14 8 6 9 5 10 4 11 3 12 2 13
REMARK SMILES IDX 1 14
REMARK H PARENT
REMARK Flexibility Score: inf
ROOT
ATOM      1  C   UNL     1       3.414  17.414  24.229  1.00  0.00     0.000 C 
ENDROOT
BRANCH   1   2
ATOM      2  C   UNL     1       4.497  18.209  23.485  1.00  0.00     0.000 C 
BRANCH   2   3
ATOM      3  C   UNL     1       3.916  19.293  22.558  1.00  0.00     0.000 C 
BRANCH   3   4
ATOM      4  C   UNL     1       2.899  20.244  23.224  1.00  0.00     0.006 C 
BRANCH   4   5
ATOM      5  C   UNL     1       1.525  20.291  22.539  1.00  0.00     0.053 C 
BRANCH   5   6
ATOM      6  C   UNL     1       0.499  19.491  23.280  1.00  0.00     0.041 C 
ATOM      7  O   UNL     1      -0.203  18.643  22.672  1.00  0.00    -0.550 OA
ATOM      8  O   UNL     1       0.295  19.708  24.637  1.00  0.00    -0.550 OA
ENDBRANCH   5   6
ENDBRANCH   4   5
ENDBRANCH   3   4
ENDBRANCH   2   3
ENDBRANCH   1   2
BRANCH   1   9
ATOM      9  C   UNL     1       2.656  16.488  23.270  1.00  0.00     0.000 C 
BRANCH   9  10
ATOM     10  C   UNL     1       1.554  15.718  24.005  1.00  0.00    -0.000 C 
BRANCH  10  11
ATOM     11  C   UNL     1       2.126  14.936  25.195  1.00  0.00    -0.000 C 
BRANCH  11  12
ATOM     12  C   UNL     1       2.968  13.744  24.715  1.00  0.00    -0.000 C 
BRANCH  12  13
ATOM     13  C   UNL     1       4.419  13.807  25.217  1.00  0.00    -0.003 C 
ATOM     14  C   UNL     1       5.415  14.144  24.108  1.00  0.00     0.004 C 
ENDBRANCH  12  13
ENDBRANCH  11  12
ENDBRANCH  10  11
ENDBRANCH   9  10
ENDBRANCH   1   9
TORSDOF 10
ENDMDL
MODEL 8
REMARK VINA RESULT:    -4.219      3.135      5.678
REMARK INTER + INTRA:          -7.855
REMARK INTER:                  -6.929
REMARK INTRA:                  -0.926
REMARK UNBOUND:                -1.170
REMARK SMILES CCCCCCCCCCCC(=O)[O-]
REMARK SMILES IDX 7 1 8 2 9 3 10 4 11 5 12 6 13 7 14 8 6 9 5 10 4 11 3 12 2 13
REMARK SMILES IDX 1 14
REMARK H PARENT
REMARK Flexibility Score: inf
ROOT
ATOM      1  C   UNL     1      -0.640   8.939  23.219  1.00  0.00     0.000 C 
ENDROOT
BRANCH   1   2
ATOM      2  C   UNL     1      -1.954   8.369  22.663  1.00  0.00     0.000 C 
BRANCH   2   3
ATOM      3  C   UNL     1      -2.067   8.503  21.133  1.00  0.00     0.000 C 
BRANCH   3   4
ATOM      4  C   UNL     1      -3.193   9.436  20.641  1.00  0.00     0.006 C 
BRANCH   4   5
ATOM      5  C   UNL     1      -4.174   9.884  21.735  1.00  0.00     0.053 C 
BRANCH   5   6
ATOM      6  C   UNL     1      -4.081  11.354  22.005  1.00  0.00     0.041 C 
ATOM      7  O   UNL     1      -3.164  12.038  21.480  1.00  0.00    -0.550 OA
ATOM      8  O   UNL     1      -4.986  11.963  22.865  1.00  0.00    -0.550 OA
ENDBRANCH   5   6
ENDBRANCH   4   5
ENDBRANCH   3   4
ENDBRANCH   2   3
ENDBRANCH   1   2
BRANCH   1   9
ATOM      9  C   UNL     1      -0.794   9.335  24.692  1.00  0.00     0.000 C 
BRANCH   9  10
ATOM     10  C   UNL     1      -2.051  10.188  24.904  1.00  0.00    -0.000 C 
BRANCH  10  11
ATOM     11  C   UNL     1      -2.962   9.571  25.973  1.00  0.00    -0.000 C 
BRANCH  11  12
ATOM     12  C   UNL     1      -2.156   9.169  27.217  1.00  0.00    -0.000 C 
BRANCH  12  13
ATOM     13  C   UNL     1      -2.615   9.912  28.481  1.00  0.00    -0.003 C 
ATOM     14  C   UNL     1      -2.128  11.360  28.526  1.00  0.00     0.004 C 
ENDBRANCH  12  13
ENDBRANCH  11  12
ENDBRANCH  10  11
ENDBRANCH   9  10
ENDBRANCH   1   9
TORSDOF 10
ENDMDL
MODEL 9
REMARK VINA RESULT:    -4.190      2.663      3.536
REMARK INTER + INTRA:          -7.809
REMARK INTER:                  -6.502
REMARK INTRA:                  -1.307
REMARK UNBOUND:                -1.170
REMARK SMILES CCCCCCCCCCCC(=O)[O-]
REMARK SMILES IDX 7 1 8 2 9 3 10 4 11 5 12 6 13 7 14 8 6 9 5 10 4 11 3 12 2 13
REMARK SMILES IDX 1 14
REMARK H PARENT
REMARK Flexibility Score: inf
ROOT
ATOM      1  C   UNL     1      -1.030   9.169  24.274  1.00  0.00     0.000 C 
ENDROOT
BRANCH   1   2
ATOM      2  C   UNL     1      -2.483   8.962  24.727  1.00  0.00     0.000 C 
BRANCH   2   3
ATOM      3  C   UNL     1      -3.142  10.257  25.239  1.00  0.00     0.000 C 
BRANCH   3   4
ATOM      4  C   UNL     1      -2.204  11.479  25.319  1.00  0.00     0.006 C 
BRANCH   4   5
ATOM      5  C   UNL     1      -1.548  11.690  26.692  1.00  0.00     0.053 C 
BRANCH   5   6
ATOM      6  C   UNL     1      -2.521  11.505  27.815  1.00  0.00     0.041 C 
ATOM      7  O   UNL     1      -3.477  12.310  27.964  1.00  0.00    -0.550 OA
ATOM      8  O   UNL     1      -2.352  10.463  28.718  1.00  0.00    -0.550 OA
ENDBRANCH   5   6
ENDBRANCH   4   5
ENDBRANCH   3   4
ENDBRANCH   2   3
ENDBRANCH   1   2
BRANCH   1   9
ATOM      9  C   UNL     1      -0.859   8.796  22.796  1.00  0.00     0.000 C 
BRANCH   9  10
ATOM     10  C   UNL     1      -2.159   8.225  22.219  1.00  0.00    -0.000 C 
BRANCH  10  11
ATOM     11  C   UNL     1      -2.602   9.008  20.976  1.00  0.00    -0.000 C 
BRANCH  11  12
ATOM     12  C   UNL     1      -3.727   9.995  21.322  1.00  0.00    -0.000 C 
BRANCH  12  13
ATOM     13  C   UNL     1      -3.202  11.409  21.615  1.00  0.00    -0.003 C 
ATOM     14  C   UNL     1      -4.262  12.315  22.242  1.00  0.00     0.004 C 
ENDBRANCH  12  13
ENDBRANCH  11  12
ENDBRANCH  10  11
ENDBRANCH   9  10
ENDBRANCH   1   9
TORSDOF 10
ENDMDL
