MODEL 1
REMARK VINA RESULT:    -6.154      0.000      0.000
REMARK INTER + INTRA:         -10.066
REMARK INTER:                  -9.572
REMARK INTRA:                  -0.495
REMARK UNBOUND:                -0.495
REMARK SMILES COc1cc(CNC(=O)CCCCC=CC(C)C)ccc1O
REMARK SMILES IDX 11 1 12 2 13 3 14 4 15 5 16 6 17 7 18 8 10 9 8 10 9 11 7 12
REMARK SMILES IDX 6 14 5 15 4 16 19 17 3 18 20 19 21 20 2 21 1 22 22 23
REMARK H PARENT 7 13 22 24
REMARK Flexibility Score: inf
ROOT
ATOM      1  C   UNL     1      38.152  56.387  17.084  1.00  0.00     0.010 C 
ENDROOT
BRANCH   1   2
ATOM      2  C   UNL     1      39.373  56.524  18.006  1.00  0.00     0.005 C 
BRANCH   2   3
ATOM      3  C   UNL     1      40.694  56.285  17.265  1.00  0.00     0.027 C 
BRANCH   3   4
ATOM      4  C   UNL     1      41.644  55.463  18.091  1.00  0.00    -0.031 C 
ATOM      5  C   UNL     1      42.734  54.806  17.651  1.00  0.00    -0.028 C 
BRANCH   5   6
ATOM      6  C   UNL     1      43.218  54.657  16.220  1.00  0.00     0.005 C 
ATOM      7  C   UNL     1      44.716  54.950  16.065  1.00  0.00     0.012 C 
ATOM      8  C   UNL     1      42.817  53.332  15.562  1.00  0.00     0.012 C 
ENDBRANCH   5   6
ENDBRANCH   3   4
ENDBRANCH   2   3
ENDBRANCH   1   2
BRANCH   1   9
ATOM      9  C   UNL     1      37.109  57.485  17.331  1.00  0.00     0.100 C 
BRANCH   9  10
ATOM     10  C   UNL     1      36.057  57.503  16.258  1.00  0.00     0.220 C 
ATOM     11  O   UNL     1      35.983  58.495  15.481  1.00  0.00    -0.275 OA
ATOM     12  N   UNL     1      35.119  56.421  16.147  1.00  0.00    -0.352 N 
ATOM     13  H   UNL     1      35.268  55.582  16.741  1.00  0.00     0.163 HD
BRANCH  12  14
ATOM     14  C   UNL     1      33.805  56.582  15.524  1.00  0.00     0.151 C 
BRANCH  14  15
ATOM     15  C   UNL     1      32.792  55.777  16.290  1.00  0.00    -0.025 A 
ATOM     16  C   UNL     1      32.758  54.381  16.165  1.00  0.00     0.056 A 
ATOM     17  C   UNL     1      31.786  56.424  17.017  1.00  0.00     0.009 A 
ATOM     18  C   UNL     1      31.708  53.635  16.739  1.00  0.00     0.160 A 
ATOM     19  C   UNL     1      30.762  55.688  17.618  1.00  0.00     0.050 A 
ATOM     20  C   UNL     1      30.712  54.300  17.475  1.00  0.00     0.157 A 
BRANCH  18  21
ATOM     21  O   UNL     1      31.613  52.246  16.581  1.00  0.00    -0.493 OA
ATOM     22  C   UNL     1      32.731  51.365  16.534  1.00  0.00     0.278 C 
ENDBRANCH  18  21
BRANCH  20  23
ATOM     23  O   UNL     1      29.654  53.600  18.057  1.00  0.00    -0.504 OA
ATOM     24  H   UNL     1      29.524  52.604  17.923  1.00  0.00     0.293 HD
ENDBRANCH  20  23
ENDBRANCH  14  15
ENDBRANCH  12  14
ENDBRANCH   9  10
ENDBRANCH   1   9
TORSDOF 10
ENDMDL
MODEL 2
REMARK VINA RESULT:    -6.064      5.243     11.636
REMARK INTER + INTRA:          -9.927
REMARK INTER:                  -9.278
REMARK INTRA:                  -0.649
REMARK UNBOUND:                -0.495
REMARK SMILES COc1cc(CNC(=O)CCCCC=CC(C)C)ccc1O
REMARK SMILES IDX 11 1 12 2 13 3 14 4 15 5 16 6 17 7 18 8 10 9 8 10 9 11 7 12
REMARK SMILES IDX 6 14 5 15 4 16 19 17 3 18 20 19 21 20 2 21 1 22 22 23
REMARK H PARENT 7 13 22 24
REMARK Flexibility Score: inf
ROOT
ATOM      1  C   UNL     1      41.679  56.069  17.390  1.00  0.00     0.010 C 
ENDROOT
BRANCH   1   2
ATOM      2  C   UNL     1      40.341  56.016  18.142  1.00  0.00     0.005 C 
BRANCH   2   3
ATOM      3  C   UNL     1      39.148  56.341  17.234  1.00  0.00     0.027 C 
BRANCH   3   4
ATOM      4  C   UNL     1      38.221  57.333  17.881  1.00  0.00    -0.031 C 
ATOM      5  C   UNL     1      36.965  57.631  17.497  1.00  0.00    -0.028 C 
BRANCH   5   6
ATOM      6  C   UNL     1      36.215  57.118  16.281  1.00  0.00     0.005 C 
ATOM      7  C   UNL     1      34.819  56.582  16.626  1.00  0.00     0.012 C 
ATOM      8  C   UNL     1      36.183  58.104  15.108  1.00  0.00     0.012 C 
ENDBRANCH   5   6
ENDBRANCH   3   4
ENDBRANCH   2   3
ENDBRANCH   1   2
BRANCH   1   9
ATOM      9  C   UNL     1      42.427  54.730  17.438  1.00  0.00     0.100 C 
BRANCH   9  10
ATOM     10  C   UNL     1      42.718  54.208  16.060  1.00  0.00     0.220 C 
ATOM     11  O   UNL     1      42.489  52.994  15.797  1.00  0.00    -0.275 OA
ATOM     12  N   UNL     1      43.289  55.071  15.065  1.00  0.00    -0.352 N 
ATOM     13  H   UNL     1      43.377  56.082  15.287  1.00  0.00     0.163 HD
BRANCH  12  14
ATOM     14  C   UNL     1      44.062  54.560  13.931  1.00  0.00     0.151 C 
BRANCH  14  15
ATOM     15  C   UNL     1      45.342  53.955  14.437  1.00  0.00    -0.025 A 
ATOM     16  C   UNL     1      46.225  54.717  15.214  1.00  0.00     0.056 A 
ATOM     17  C   UNL     1      45.728  52.677  14.016  1.00  0.00     0.009 A 
ATOM     18  C   UNL     1      47.502  54.219  15.545  1.00  0.00     0.160 A 
ATOM     19  C   UNL     1      46.978  52.163  14.370  1.00  0.00     0.050 A 
ATOM     20  C   UNL     1      47.870  52.930  15.123  1.00  0.00     0.157 A 
BRANCH  18  21
ATOM     21  O   UNL     1      48.430  54.980  16.268  1.00  0.00    -0.493 OA
ATOM     22  C   UNL     1      48.102  55.786  17.395  1.00  0.00     0.278 C 
ENDBRANCH  18  21
BRANCH  20  23
ATOM     23  O   UNL     1      49.124  52.399  15.427  1.00  0.00    -0.504 OA
ATOM     24  H   UNL     1      49.335  51.413  15.329  1.00  0.00     0.293 HD
ENDBRANCH  20  23
ENDBRANCH  14  15
ENDBRANCH  12  14
ENDBRANCH   9  10
ENDBRANCH   1   9
TORSDOF 10
ENDMDL
MODEL 3
REMARK VINA RESULT:    -6.048      5.091     11.782
REMARK INTER + INTRA:          -9.902
REMARK INTER:                  -9.330
REMARK INTRA:                  -0.572
REMARK UNBOUND:                -0.495
REMARK SMILES COc1cc(CNC(=O)CCCCC=CC(C)C)ccc1O
REMARK SMILES IDX 11 1 12 2 13 3 14 4 15 5 16 6 17 7 18 8 10 9 8 10 9 11 7 12
REMARK SMILES IDX 6 14 5 15 4 16 19 17 3 18 20 19 21 20 2 21 1 22 22 23
REMARK H PARENT 7 13 22 24
REMARK Flexibility Score: inf
ROOT
ATOM      1  C   UNL     1      40.584  55.821  18.250  1.00  0.00     0.010 C 
ENDROOT
BRANCH   1   2
ATOM      2  C   UNL     1      39.374  56.762  18.353  1.00  0.00     0.005 C 
BRANCH   2   3
ATOM      3  C   UNL     1      38.432  56.634  17.149  1.00  0.00     0.027 C 
BRANCH   3   4
ATOM      4  C   UNL     1      37.144  57.377  17.381  1.00  0.00    -0.031 C 
ATOM      5  C   UNL     1      36.093  57.447  16.543  1.00  0.00    -0.028 C 
BRANCH   5   6
ATOM      6  C   UNL     1      35.978  56.878  15.140  1.00  0.00     0.005 C 
ATOM      7  C   UNL     1      34.578  56.333  14.831  1.00  0.00     0.012 C 
ATOM      8  C   UNL     1      36.488  57.820  14.044  1.00  0.00     0.012 C 
ENDBRANCH   5   6
ENDBRANCH   3   4
ENDBRANCH   2   3
ENDBRANCH   1   2
BRANCH   1   9
ATOM      9  C   UNL     1      41.272  55.905  16.881  1.00  0.00     0.100 C 
BRANCH   9  10
ATOM     10  C   UNL     1      42.544  55.104  16.849  1.00  0.00     0.220 C 
ATOM     11  O   UNL     1      42.575  53.971  17.405  1.00  0.00    -0.275 OA
ATOM     12  N   UNL     1      43.722  55.642  16.229  1.00  0.00    -0.352 N 
ATOM     13  H   UNL     1      43.634  56.533  15.703  1.00  0.00     0.163 HD
BRANCH  12  14
ATOM     14  C   UNL     1      45.070  55.203  16.591  1.00  0.00     0.151 C 
BRANCH  14  15
ATOM     15  C   UNL     1      46.022  56.359  16.449  1.00  0.00    -0.025 A 
ATOM     16  C   UNL     1      45.790  57.351  15.486  1.00  0.00     0.056 A 
ATOM     17  C   UNL     1      47.218  56.376  17.176  1.00  0.00     0.009 A 
ATOM     18  C   UNL     1      46.761  58.340  15.227  1.00  0.00     0.160 A 
ATOM     19  C   UNL     1      48.170  57.373  16.949  1.00  0.00     0.050 A 
ATOM     20  C   UNL     1      47.953  58.348  15.973  1.00  0.00     0.157 A 
BRANCH  18  21
ATOM     21  O   UNL     1      46.586  59.308  14.230  1.00  0.00    -0.493 OA
ATOM     22  C   UNL     1      45.379  60.033  14.019  1.00  0.00     0.278 C 
ENDBRANCH  18  21
BRANCH  20  23
ATOM     23  O   UNL     1      48.941  59.307  15.748  1.00  0.00    -0.504 OA
ATOM     24  H   UNL     1      49.684  59.488  16.413  1.00  0.00     0.293 HD
ENDBRANCH  20  23
ENDBRANCH  14  15
ENDBRANCH  12  14
ENDBRANCH   9  10
ENDBRANCH   1   9
TORSDOF 10
ENDMDL
MODEL 4
REMARK VINA RESULT:    -5.871      1.653      2.857
REMARK INTER + INTRA:          -9.627
REMARK INTER:                  -9.099
REMARK INTRA:                  -0.528
REMARK UNBOUND:                -0.495
REMARK SMILES COc1cc(CNC(=O)CCCCC=CC(C)C)ccc1O
REMARK SMILES IDX 11 1 12 2 13 3 14 4 15 5 16 6 17 7 18 8 10 9 8 10 9 11 7 12
REMARK SMILES IDX 6 14 5 15 4 16 19 17 3 18 20 19 21 20 2 21 1 22 22 23
REMARK H PARENT 7 13 22 24
REMARK Flexibility Score: inf
ROOT
ATOM      1  C   UNL     1      39.724  56.016  18.238  1.00  0.00     0.010 C 
ENDROOT
BRANCH   1   2
ATOM      2  C   UNL     1      40.943  56.068  17.305  1.00  0.00     0.005 C 
BRANCH   2   3
ATOM      3  C   UNL     1      42.158  55.340  17.892  1.00  0.00     0.027 C 
BRANCH   3   4
ATOM      4  C   UNL     1      43.421  55.703  17.158  1.00  0.00    -0.031 C 
ATOM      5  C   UNL     1      43.970  55.039  16.123  1.00  0.00    -0.028 C 
BRANCH   5   6
ATOM      6  C   UNL     1      43.511  53.730  15.505  1.00  0.00     0.005 C 
ATOM      7  C   UNL     1      42.291  53.899  14.591  1.00  0.00     0.012 C 
ATOM      8  C   UNL     1      44.633  52.933  14.832  1.00  0.00     0.012 C 
ENDBRANCH   5   6
ENDBRANCH   3   4
ENDBRANCH   2   3
ENDBRANCH   1   2
BRANCH   1   9
ATOM      9  C   UNL     1      38.824  57.251  18.089  1.00  0.00     0.100 C 
BRANCH   9  10
ATOM     10  C   UNL     1      37.834  57.084  16.971  1.00  0.00     0.220 C 
ATOM     11  O   UNL     1      38.114  56.320  16.005  1.00  0.00    -0.275 OA
ATOM     12  N   UNL     1      36.600  57.819  16.982  1.00  0.00    -0.352 N 
ATOM     13  H   UNL     1      36.363  58.364  17.834  1.00  0.00     0.163 HD
BRANCH  12  14
ATOM     14  C   UNL     1      35.856  58.122  15.759  1.00  0.00     0.151 C 
BRANCH  14  15
ATOM     15  C   UNL     1      34.877  57.013  15.488  1.00  0.00    -0.025 A 
ATOM     16  C   UNL     1      34.068  56.516  16.519  1.00  0.00     0.056 A 
ATOM     17  C   UNL     1      34.871  56.371  14.244  1.00  0.00     0.009 A 
ATOM     18  C   UNL     1      33.277  55.366  16.320  1.00  0.00     0.160 A 
ATOM     19  C   UNL     1      34.064  55.252  14.028  1.00  0.00     0.050 A 
ATOM     20  C   UNL     1      33.275  54.741  15.061  1.00  0.00     0.157 A 
BRANCH  18  21
ATOM     21  O   UNL     1      32.504  54.811  17.348  1.00  0.00    -0.493 OA
ATOM     22  C   UNL     1      31.220  55.288  17.734  1.00  0.00     0.278 C 
ENDBRANCH  18  21
BRANCH  20  23
ATOM     23  O   UNL     1      32.508  53.600  14.822  1.00  0.00    -0.504 OA
ATOM     24  H   UNL     1      32.855  52.665  15.005  1.00  0.00     0.293 HD
ENDBRANCH  20  23
ENDBRANCH  14  15
ENDBRANCH  12  14
ENDBRANCH   9  10
ENDBRANCH   1   9
TORSDOF 10
ENDMDL
MODEL 5
REMARK VINA RESULT:    -5.701      5.485     11.391
REMARK INTER + INTRA:          -9.361
REMARK INTER:                  -8.639
REMARK INTRA:                  -0.722
REMARK UNBOUND:                -0.495
REMARK SMILES COc1cc(CNC(=O)CCCCC=CC(C)C)ccc1O
REMARK SMILES IDX 11 1 12 2 13 3 14 4 15 5 16 6 17 7 18 8 10 9 8 10 9 11 7 12
REMARK SMILES IDX 6 14 5 15 4 16 19 17 3 18 20 19 21 20 2 21 1 22 22 23
REMARK H PARENT 7 13 22 24
REMARK Flexibility Score: inf
ROOT
ATOM      1  C   UNL     1      40.432  55.996  17.053  1.00  0.00     0.010 C 
ENDROOT
BRANCH   1   2
ATOM      2  C   UNL     1      39.368  56.310  18.115  1.00  0.00     0.005 C 
BRANCH   2   3
ATOM      3  C   UNL     1      38.411  57.423  17.671  1.00  0.00     0.027 C 
BRANCH   3   4
ATOM      4  C   UNL     1      36.989  56.935  17.621  1.00  0.00    -0.031 C 
ATOM      5  C   UNL     1      36.205  56.848  16.530  1.00  0.00    -0.028 C 
BRANCH   5   6
ATOM      6  C   UNL     1      36.523  57.297  15.115  1.00  0.00     0.005 C 
ATOM      7  C   UNL     1      37.528  56.377  14.410  1.00  0.00     0.012 C 
ATOM      8  C   UNL     1      35.284  57.567  14.255  1.00  0.00     0.012 C 
ENDBRANCH   5   6
ENDBRANCH   3   4
ENDBRANCH   2   3
ENDBRANCH   1   2
BRANCH   1   9
ATOM      9  C   UNL     1      41.778  55.601  17.677  1.00  0.00     0.100 C 
BRANCH   9  10
ATOM     10  C   UNL     1      42.624  54.811  16.719  1.00  0.00     0.220 C 
ATOM     11  O   UNL     1      43.093  53.697  17.082  1.00  0.00    -0.275 OA
ATOM     12  N   UNL     1      42.927  55.339  15.418  1.00  0.00    -0.352 N 
ATOM     13  H   UNL     1      42.449  56.211  15.120  1.00  0.00     0.163 HD
BRANCH  12  14
ATOM     14  C   UNL     1      44.107  54.923  14.658  1.00  0.00     0.151 C 
BRANCH  14  15
ATOM     15  C   UNL     1      45.337  55.509  15.294  1.00  0.00    -0.025 A 
ATOM     16  C   UNL     1      46.499  54.737  15.430  1.00  0.00     0.056 A 
ATOM     17  C   UNL     1      45.285  56.778  15.884  1.00  0.00     0.009 A 
ATOM     18  C   UNL     1      47.595  55.215  16.178  1.00  0.00     0.160 A 
ATOM     19  C   UNL     1      46.380  57.272  16.596  1.00  0.00     0.050 A 
ATOM     20  C   UNL     1      47.529  56.495  16.754  1.00  0.00     0.157 A 
BRANCH  18  21
ATOM     21  O   UNL     1      48.745  54.442  16.382  1.00  0.00    -0.493 OA
ATOM     22  C   UNL     1      48.999  53.196  15.744  1.00  0.00     0.278 C 
ENDBRANCH  18  21
BRANCH  20  23
ATOM     23  O   UNL     1      48.591  57.006  17.503  1.00  0.00    -0.504 OA
ATOM     24  H   UNL     1      48.605  57.960  17.845  1.00  0.00     0.293 HD
ENDBRANCH  20  23
ENDBRANCH  14  15
ENDBRANCH  12  14
ENDBRANCH   9  10
ENDBRANCH   1   9
TORSDOF 10
ENDMDL
MODEL 6
REMARK VINA RESULT:    -5.691      0.915      1.880
REMARK INTER + INTRA:          -9.347
REMARK INTER:                  -8.856
REMARK INTRA:                  -0.490
REMARK UNBOUND:                -0.495
REMARK SMILES COc1cc(CNC(=O)CCCCC=CC(C)C)ccc1O
REMARK SMILES IDX 11 1 12 2 13 3 14 4 15 5 16 6 17 7 18 8 10 9 8 10 9 11 7 12
REMARK SMILES IDX 6 14 5 15 4 16 19 17 3 18 20 19 21 20 2 21 1 22 22 23
REMARK H PARENT 7 13 22 24
REMARK Flexibility Score: inf
ROOT
ATOM      1  C   UNL     1      38.113  56.393  17.189  1.00  0.00     0.010 C 
ENDROOT
BRANCH   1   2
ATOM      2  C   UNL     1      39.409  56.702  17.953  1.00  0.00     0.005 C 
BRANCH   2   3
ATOM      3  C   UNL     1      40.661  56.280  17.174  1.00  0.00     0.027 C 
BRANCH   3   4
ATOM      4  C   UNL     1      41.620  55.519  18.047  1.00  0.00    -0.031 C 
ATOM      5  C   UNL     1      42.728  54.866  17.649  1.00  0.00    -0.028 C 
BRANCH   5   6
ATOM      6  C   UNL     1      43.230  54.659  16.231  1.00  0.00     0.005 C 
ATOM      7  C   UNL     1      44.705  55.042  16.061  1.00  0.00     0.012 C 
ATOM      8  C   UNL     1      42.922  53.271  15.659  1.00  0.00     0.012 C 
ENDBRANCH   5   6
ENDBRANCH   3   4
ENDBRANCH   2   3
ENDBRANCH   1   2
BRANCH   1   9
ATOM      9  C   UNL     1      37.091  57.533  17.292  1.00  0.00     0.100 C 
BRANCH   9  10
ATOM     10  C   UNL     1      36.217  57.607  16.071  1.00  0.00     0.220 C 
ATOM     11  O   UNL     1      35.987  58.731  15.543  1.00  0.00    -0.275 OA
ATOM     12  N   UNL     1      35.619  56.416  15.537  1.00  0.00    -0.352 N 
ATOM     13  H   UNL     1      35.904  55.502  15.940  1.00  0.00     0.163 HD
BRANCH  12  14
ATOM     14  C   UNL     1      34.399  56.445  14.729  1.00  0.00     0.151 C 
BRANCH  14  15
ATOM     15  C   UNL     1      33.432  55.421  15.256  1.00  0.00    -0.025 A 
ATOM     16  C   UNL     1      32.721  55.664  16.439  1.00  0.00     0.056 A 
ATOM     17  C   UNL     1      33.343  54.162  14.650  1.00  0.00     0.009 A 
ATOM     18  C   UNL     1      31.947  54.646  17.034  1.00  0.00     0.160 A 
ATOM     19  C   UNL     1      32.550  53.160  15.214  1.00  0.00     0.050 A 
ATOM     20  C   UNL     1      31.861  53.391  16.406  1.00  0.00     0.157 A 
BRANCH  18  21
ATOM     21  O   UNL     1      31.274  54.839  18.247  1.00  0.00    -0.493 OA
ATOM     22  C   UNL     1      29.872  55.057  18.362  1.00  0.00     0.278 C 
ENDBRANCH  18  21
BRANCH  20  23
ATOM     23  O   UNL     1      31.107  52.356  16.961  1.00  0.00    -0.504 OA
ATOM     24  H   UNL     1      30.123  52.230  16.756  1.00  0.00     0.293 HD
ENDBRANCH  20  23
ENDBRANCH  14  15
ENDBRANCH  12  14
ENDBRANCH   9  10
ENDBRANCH   1   9
TORSDOF 10
ENDMDL
MODEL 7
REMARK VINA RESULT:    -5.607      3.812     10.705
REMARK INTER + INTRA:          -9.216
REMARK INTER:                  -8.659
REMARK INTRA:                  -0.556
REMARK UNBOUND:                -0.495
REMARK SMILES COc1cc(CNC(=O)CCCCC=CC(C)C)ccc1O
REMARK SMILES IDX 11 1 12 2 13 3 14 4 15 5 16 6 17 7 18 8 10 9 8 10 9 11 7 12
REMARK SMILES IDX 6 14 5 15 4 16 19 17 3 18 20 19 21 20 2 21 1 22 22 23
REMARK H PARENT 7 13 22 24
REMARK Flexibility Score: inf
ROOT
ATOM      1  C   UNL     1      37.036  57.161  17.061  1.00  0.00     0.010 C 
ENDROOT
BRANCH   1   2
ATOM      2  C   UNL     1      35.979  57.550  16.016  1.00  0.00     0.005 C 
BRANCH   2   3
ATOM      3  C   UNL     1      34.548  57.363  16.535  1.00  0.00     0.027 C 
BRANCH   3   4
ATOM      4  C   UNL     1      34.035  55.980  16.242  1.00  0.00    -0.031 C 
ATOM      5  C   UNL     1      32.772  55.539  16.397  1.00  0.00    -0.028 C 
BRANCH   5   6
ATOM      6  C   UNL     1      31.589  56.287  16.983  1.00  0.00     0.005 C 
ATOM      7  C   UNL     1      30.721  56.961  15.911  1.00  0.00     0.012 C 
ATOM      8  C   UNL     1      30.754  55.460  17.966  1.00  0.00     0.012 C 
ENDBRANCH   5   6
ENDBRANCH   3   4
ENDBRANCH   2   3
ENDBRANCH   1   2
BRANCH   1   9
ATOM      9  C   UNL     1      38.238  56.443  16.433  1.00  0.00     0.100 C 
BRANCH   9  10
ATOM     10  C   UNL     1      39.407  56.391  17.376  1.00  0.00     0.220 C 
ATOM     11  O   UNL     1      39.358  57.040  18.458  1.00  0.00    -0.275 OA
ATOM     12  N   UNL     1      40.583  55.644  17.029  1.00  0.00    -0.352 N 
ATOM     13  H   UNL     1      40.552  55.049  16.178  1.00  0.00     0.163 HD
BRANCH  12  14
ATOM     14  C   UNL     1      41.900  55.946  17.591  1.00  0.00     0.151 C 
BRANCH  14  15
ATOM     15  C   UNL     1      42.949  55.174  16.840  1.00  0.00    -0.025 A 
ATOM     16  C   UNL     1      44.272  55.635  16.798  1.00  0.00     0.056 A 
ATOM     17  C   UNL     1      42.582  54.071  16.058  1.00  0.00     0.009 A 
ATOM     18  C   UNL     1      45.220  55.018  15.956  1.00  0.00     0.160 A 
ATOM     19  C   UNL     1      43.525  53.433  15.250  1.00  0.00     0.050 A 
ATOM     20  C   UNL     1      44.838  53.905  15.187  1.00  0.00     0.157 A 
BRANCH  18  21
ATOM     21  O   UNL     1      46.534  55.492  15.847  1.00  0.00    -0.493 OA
ATOM     22  C   UNL     1      47.354  55.848  16.955  1.00  0.00     0.278 C 
ENDBRANCH  18  21
BRANCH  20  23
ATOM     23  O   UNL     1      45.745  53.266  14.340  1.00  0.00    -0.504 OA
ATOM     24  H   UNL     1      45.777  53.446  13.343  1.00  0.00     0.293 HD
ENDBRANCH  20  23
ENDBRANCH  14  15
ENDBRANCH  12  14
ENDBRANCH   9  10
ENDBRANCH   1   9
TORSDOF 10
ENDMDL
MODEL 8
REMARK VINA RESULT:    -5.563      4.116     10.579
REMARK INTER + INTRA:          -9.147
REMARK INTER:                  -8.445
REMARK INTRA:                  -0.702
REMARK UNBOUND:                -0.495
REMARK SMILES COc1cc(CNC(=O)CCCCC=CC(C)C)ccc1O
REMARK SMILES IDX 11 1 12 2 13 3 14 4 15 5 16 6 17 7 18 8 10 9 8 10 9 11 7 12
REMARK SMILES IDX 6 14 5 15 4 16 19 17 3 18 20 19 21 20 2 21 1 22 22 23
REMARK H PARENT 7 13 22 24
REMARK Flexibility Score: inf
ROOT
ATOM      1  C   UNL     1      38.318  56.514  17.140  1.00  0.00     0.010 C 
ENDROOT
BRANCH   1   2
ATOM      2  C   UNL     1      37.228  57.484  17.621  1.00  0.00     0.005 C 
BRANCH   2   3
ATOM      3  C   UNL     1      36.390  58.041  16.464  1.00  0.00     0.027 C 
BRANCH   3   4
ATOM      4  C   UNL     1      36.428  57.127  15.269  1.00  0.00    -0.031 C 
ATOM      5  C   UNL     1      35.373  56.564  14.652  1.00  0.00    -0.028 C 
BRANCH   5   6
ATOM      6  C   UNL     1      33.911  56.634  15.053  1.00  0.00     0.005 C 
ATOM      7  C   UNL     1      32.958  56.393  13.875  1.00  0.00     0.012 C 
ATOM      8  C   UNL     1      33.557  55.771  16.269  1.00  0.00     0.012 C 
ENDBRANCH   5   6
ENDBRANCH   3   4
ENDBRANCH   2   3
ENDBRANCH   1   2
BRANCH   1   9
ATOM      9  C   UNL     1      39.641  56.705  17.894  1.00  0.00     0.100 C 
BRANCH   9  10
ATOM     10  C   UNL     1      40.761  55.936  17.252  1.00  0.00     0.220 C 
ATOM     11  O   UNL     1      40.666  55.603  16.038  1.00  0.00    -0.275 OA
ATOM     12  N   UNL     1      41.908  55.550  18.024  1.00  0.00    -0.352 N 
ATOM     13  H   UNL     1      41.995  55.920  18.991  1.00  0.00     0.163 HD
BRANCH  12  14
ATOM     14  C   UNL     1      42.752  54.411  17.661  1.00  0.00     0.151 C 
BRANCH  14  15
ATOM     15  C   UNL     1      43.809  54.867  16.693  1.00  0.00    -0.025 A 
ATOM     16  C   UNL     1      44.244  54.016  15.668  1.00  0.00     0.056 A 
ATOM     17  C   UNL     1      44.469  56.085  16.897  1.00  0.00     0.009 A 
ATOM     18  C   UNL     1      45.351  54.363  14.867  1.00  0.00     0.160 A 
ATOM     19  C   UNL     1      45.544  56.452  16.085  1.00  0.00     0.050 A 
ATOM     20  C   UNL     1      45.995  55.595  15.079  1.00  0.00     0.157 A 
BRANCH  18  21
ATOM     21  O   UNL     1      45.847  53.508  13.875  1.00  0.00    -0.493 OA
ATOM     22  C   UNL     1      46.419  52.230  14.130  1.00  0.00     0.278 C 
ENDBRANCH  18  21
BRANCH  20  23
ATOM     23  O   UNL     1      47.095  55.978  14.310  1.00  0.00    -0.504 OA
ATOM     24  H   UNL     1      47.719  55.303  13.883  1.00  0.00     0.293 HD
ENDBRANCH  20  23
ENDBRANCH  14  15
ENDBRANCH  12  14
ENDBRANCH   9  10
ENDBRANCH   1   9
TORSDOF 10
ENDMDL
MODEL 9
REMARK VINA RESULT:    -5.472      4.210     11.071
REMARK INTER + INTRA:          -9.006
REMARK INTER:                  -8.310
REMARK INTRA:                  -0.696
REMARK UNBOUND:                -0.495
REMARK SMILES COc1cc(CNC(=O)CCCCC=CC(C)C)ccc1O
REMARK SMILES IDX 11 1 12 2 13 3 14 4 15 5 16 6 17 7 18 8 10 9 8 10 9 11 7 12
REMARK SMILES IDX 6 14 5 15 4 16 19 17 3 18 20 19 21 20 2 21 1 22 22 23
REMARK H PARENT 7 13 22 24
REMARK Flexibility Score: inf
ROOT
ATOM      1  C   UNL     1      39.423  57.114  17.958  1.00  0.00     0.010 C 
ENDROOT
BRANCH   1   2
ATOM      2  C   UNL     1      38.014  56.532  17.776  1.00  0.00     0.005 C 
BRANCH   2   3
ATOM      3  C   UNL     1      37.475  56.742  16.355  1.00  0.00     0.027 C 
BRANCH   3   4
ATOM      4  C   UNL     1      36.427  57.821  16.321  1.00  0.00    -0.031 C 
ATOM      5  C   UNL     1      35.144  57.686  15.937  1.00  0.00    -0.028 C 
BRANCH   5   6
ATOM      6  C   UNL     1      34.466  56.454  15.366  1.00  0.00     0.005 C 
ATOM      7  C   UNL     1      33.673  55.669  16.419  1.00  0.00     0.012 C 
ATOM      8  C   UNL     1      33.639  56.727  14.105  1.00  0.00     0.012 C 
ENDBRANCH   5   6
ENDBRANCH   3   4
ENDBRANCH   2   3
ENDBRANCH   1   2
BRANCH   1   9
ATOM      9  C   UNL     1      40.421  56.070  18.476  1.00  0.00     0.100 C 
BRANCH   9  10
ATOM     10  C   UNL     1      41.285  55.531  17.370  1.00  0.00     0.220 C 
ATOM     11  O   UNL     1      40.878  55.605  16.177  1.00  0.00    -0.275 OA
ATOM     12  N   UNL     1      42.539  54.902  17.673  1.00  0.00    -0.352 N 
ATOM     13  H   UNL     1      42.883  54.943  18.653  1.00  0.00     0.163 HD
BRANCH  12  14
ATOM     14  C   UNL     1      43.166  53.927  16.779  1.00  0.00     0.151 C 
BRANCH  14  15
ATOM     15  C   UNL     1      44.396  54.536  16.167  1.00  0.00    -0.025 A 
ATOM     16  C   UNL     1      44.918  55.736  16.672  1.00  0.00     0.056 A 
ATOM     17  C   UNL     1      44.944  53.989  15.000  1.00  0.00     0.009 A 
ATOM     18  C   UNL     1      45.962  56.404  15.999  1.00  0.00     0.160 A 
ATOM     19  C   UNL     1      46.001  54.627  14.348  1.00  0.00     0.050 A 
ATOM     20  C   UNL     1      46.506  55.835  14.835  1.00  0.00     0.157 A 
BRANCH  18  21
ATOM     21  O   UNL     1      46.463  57.634  16.445  1.00  0.00    -0.493 OA
ATOM     22  C   UNL     1      47.582  57.777  17.313  1.00  0.00     0.278 C 
ENDBRANCH  18  21
BRANCH  20  23
ATOM     23  O   UNL     1      47.539  56.464  14.138  1.00  0.00    -0.504 OA
ATOM     24  H   UNL     1      48.047  57.254  14.518  1.00  0.00     0.293 HD
ENDBRANCH  20  23
ENDBRANCH  14  15
ENDBRANCH  12  14
ENDBRANCH   9  10
ENDBRANCH   1   9
TORSDOF 10
ENDMDL
