MODEL 1
REMARK VINA RESULT:    -3.727      0.000      0.000
REMARK INTER + INTRA:          -5.109
REMARK INTER:                  -5.253
REMARK INTRA:                   0.144
REMARK UNBOUND:                 0.144
REMARK SMILES CC1=CCC(=C(C)C)C(=O)CC(C)=CCC1
REMARK SMILES IDX 12 1 14 2 13 3 15 4 16 5 2 6 1 7 3 8 11 10 9 11 10 12 5 13
REMARK SMILES IDX 6 14 7 15 8 16 4 17
REMARK H PARENT
REMARK Flexibility Score: 60.00
ROOT
ATOM      1  C   UNL     1      22.076 -12.836  46.504  1.00  0.00    -0.070 C 
ATOM      2  C   UNL     1      20.971 -12.636  45.751  1.00  0.00    -0.027 C 
ATOM      3  C   UNL     1      22.759 -11.626  47.091  1.00  0.00     0.039 C 
ENDROOT
BRANCH   2   4
ATOM      4  C   UNL     1      20.098 -13.720  45.161  1.00  0.00     0.032 C 
BRANCH   4   5
ATOM      5  C   UNL     1      20.634 -14.346  43.856  1.00  0.00     0.034 C 
BRANCH   5   6
ATOM      6  C   UNL     1      20.602 -15.864  43.865  1.00  0.00    -0.077 C 
ATOM      7  C   UNL     1      19.253 -16.536  43.817  1.00  0.00     0.039 C 
ATOM      8  C   UNL     1      21.704 -16.650  43.843  1.00  0.00    -0.023 CG0
ATOM      9  G   UNL     1      23.151 -16.201  43.904  1.00  0.00     0.000 G0
ENDBRANCH   5   6
ENDBRANCH   4   5
ENDBRANCH   2   4
BRANCH   1  10
ATOM     10  C   UNL     1      22.602 -14.211  46.860  1.00  0.00     0.111 C 
BRANCH  10  11
ATOM     11  C   UNL     1      23.674 -14.660  45.903  1.00  0.00     0.163 C 
ATOM     12  O   UNL     1      24.606 -13.854  45.634  1.00  0.00    -0.294 OA
BRANCH  11  13
ATOM     13  C   UNL     1      23.705 -16.034  45.319  1.00  0.00    -0.002 C 
ATOM     14  C   UNL     1      24.114 -17.104  46.067  1.00  0.00    -0.069 C 
ATOM     15  C   UNL     1      24.007 -18.523  45.558  1.00  0.00     0.039 C 
ATOM     16  C   UNL     1      24.695 -16.915  47.451  1.00  0.00     0.039 C 
BRANCH  13  17
ATOM     17  C   UNL     1      23.175 -16.200  43.903  1.00  0.00     0.066 CG0
ATOM     18  G   UNL     1      21.726 -16.643  43.878  1.00  0.00     0.000 G0
ENDBRANCH  13  17
ENDBRANCH  11  13
ENDBRANCH  10  11
ENDBRANCH   1  10
TORSDOF 0
ENDMDL
MODEL 2
REMARK VINA RESULT:    -3.528     17.395     19.901
REMARK INTER + INTRA:          -4.827
REMARK INTER:                  -5.302
REMARK INTRA:                   0.475
REMARK UNBOUND:                 0.144
REMARK SMILES CC1=CCC(=C(C)C)C(=O)CC(C)=CCC1
REMARK SMILES IDX 12 1 14 2 13 3 15 4 16 5 2 6 1 7 3 8 11 10 9 11 10 12 5 13
REMARK SMILES IDX 6 14 7 15 8 16 4 17
REMARK H PARENT
REMARK Flexibility Score: 60.00
ROOT
ATOM      1  C   UNL     1       8.917  -4.849  41.455  1.00  0.00    -0.070 C 
ATOM      2  C   UNL     1       9.135  -4.036  42.514  1.00  0.00    -0.027 C 
ATOM      3  C   UNL     1       9.661  -6.159  41.406  1.00  0.00     0.039 C 
ENDROOT
BRANCH   2   4
ATOM      4  C   UNL     1       8.417  -2.735  42.790  1.00  0.00     0.032 C 
BRANCH   4   5
ATOM      5  C   UNL     1       9.339  -1.509  42.960  1.00  0.00     0.034 C 
BRANCH   5   6
ATOM      6  C   UNL     1      10.144  -1.191  41.713  1.00  0.00    -0.077 C 
ATOM      7  C   UNL     1      11.637  -1.038  41.862  1.00  0.00     0.039 C 
ATOM      8  C   UNL     1       9.619  -1.104  40.467  1.00  0.00    -0.023 CG0
ATOM      9  G   UNL     1       8.156  -1.203  40.081  1.00  0.00     0.000 G0
ENDBRANCH   5   6
ENDBRANCH   4   5
ENDBRANCH   2   4
BRANCH   1  10
ATOM     10  C   UNL     1       7.899  -4.550  40.374  1.00  0.00     0.111 C 
BRANCH  10  11
ATOM     11  C   UNL     1       8.459  -3.628  39.324  1.00  0.00     0.163 C 
ATOM     12  O   UNL     1       9.422  -4.041  38.624  1.00  0.00    -0.294 OA
BRANCH  11  13
ATOM     13  C   UNL     1       7.876  -2.282  39.045  1.00  0.00    -0.002 C 
ATOM     14  C   UNL     1       7.062  -2.081  37.965  1.00  0.00    -0.069 C 
ATOM     15  C   UNL     1       6.333  -0.775  37.744  1.00  0.00     0.039 C 
ATOM     16  C   UNL     1       6.848  -3.167  36.933  1.00  0.00     0.039 C 
BRANCH  13  17
ATOM     17  C   UNL     1       8.151  -1.182  40.059  1.00  0.00     0.066 CG0
ATOM     18  G   UNL     1       9.613  -1.114  40.454  1.00  0.00     0.000 G0
ENDBRANCH  13  17
ENDBRANCH  11  13
ENDBRANCH  10  11
ENDBRANCH   1  10
TORSDOF 0
ENDMDL
MODEL 3
REMARK VINA RESULT:    -3.510      2.149      4.188
REMARK INTER + INTRA:          -4.802
REMARK INTER:                  -5.056
REMARK INTRA:                   0.254
REMARK UNBOUND:                 0.144
REMARK SMILES CC1=CCC(=C(C)C)C(=O)CC(C)=CCC1
REMARK SMILES IDX 12 1 14 2 13 3 15 4 16 5 2 6 1 7 3 8 11 10 9 11 10 12 5 13
REMARK SMILES IDX 6 14 7 15 8 16 4 17
REMARK H PARENT
REMARK Flexibility Score: 60.00
ROOT
ATOM      1  C   UNL     1      20.559 -11.805  44.145  1.00  0.00    -0.070 C 
ATOM      2  C   UNL     1      20.975 -10.868  45.025  1.00  0.00    -0.027 C 
ATOM      3  C   UNL     1      19.178 -11.657  43.556  1.00  0.00     0.039 C 
ENDROOT
BRANCH   2   4
ATOM      4  C   UNL     1      22.353 -10.789  45.645  1.00  0.00     0.032 C 
BRANCH   4   5
ATOM      5  C   UNL     1      22.505 -11.544  46.983  1.00  0.00     0.034 C 
BRANCH   5   6
ATOM      6  C   UNL     1      23.701 -12.479  47.008  1.00  0.00    -0.077 C 
ATOM      7  C   UNL     1      25.058 -11.874  47.271  1.00  0.00     0.039 C 
ATOM      8  C   UNL     1      23.621 -13.825  46.878  1.00  0.00    -0.023 CG0
ATOM      9  G   UNL     1      22.378 -14.644  46.590  1.00  0.00     0.000 G0
ENDBRANCH   5   6
ENDBRANCH   4   5
ENDBRANCH   2   4
BRANCH   1  10
ATOM     10  C   UNL     1      21.440 -12.936  43.655  1.00  0.00     0.111 C 
BRANCH  10  11
ATOM     11  C   UNL     1      21.142 -14.224  44.376  1.00  0.00     0.163 C 
ATOM     12  O   UNL     1      19.976 -14.695  44.294  1.00  0.00    -0.294 OA
BRANCH  11  13
ATOM     13  C   UNL     1      22.188 -14.985  45.123  1.00  0.00    -0.002 C 
ATOM     14  C   UNL     1      23.000 -15.876  44.478  1.00  0.00    -0.069 C 
ATOM     15  C   UNL     1      24.166 -16.543  45.171  1.00  0.00     0.039 C 
ATOM     16  C   UNL     1      22.769 -16.238  43.027  1.00  0.00     0.039 C 
BRANCH  13  17
ATOM     17  C   UNL     1      22.367 -14.656  46.597  1.00  0.00     0.066 CG0
ATOM     18  G   UNL     1      23.612 -13.830  46.856  1.00  0.00     0.000 G0
ENDBRANCH  13  17
ENDBRANCH  11  13
ENDBRANCH  10  11
ENDBRANCH   1  10
TORSDOF 0
ENDMDL
MODEL 4
REMARK VINA RESULT:    -3.275     16.864     18.372
REMARK INTER + INTRA:          -4.471
REMARK INTER:                  -4.769
REMARK INTRA:                   0.298
REMARK UNBOUND:                 0.144
REMARK SMILES CC1=CCC(=C(C)C)C(=O)CC(C)=CCC1
REMARK SMILES IDX 12 1 14 2 13 3 15 4 16 5 2 6 1 7 3 8 11 10 9 11 10 12 5 13
REMARK SMILES IDX 6 14 7 15 8 16 4 17
REMARK H PARENT
REMARK Flexibility Score: 60.00
ROOT
ATOM      1  C   UNL     1       9.394  -0.832  43.897  1.00  0.00    -0.070 C 
ATOM      2  C   UNL     1      10.581  -0.307  44.278  1.00  0.00    -0.027 C 
ATOM      3  C   UNL     1       8.320  -0.980  44.945  1.00  0.00     0.039 C 
ENDROOT
BRANCH   2   4
ATOM      4  C   UNL     1      11.740   0.010  43.360  1.00  0.00     0.032 C 
BRANCH   4   5
ATOM      5  C   UNL     1      12.665  -1.186  43.048  1.00  0.00     0.034 C 
BRANCH   5   6
ATOM      6  C   UNL     1      12.816  -1.451  41.561  1.00  0.00    -0.077 C 
ATOM      7  C   UNL     1      13.681  -0.506  40.764  1.00  0.00     0.039 C 
ATOM      8  C   UNL     1      12.282  -2.517  40.918  1.00  0.00    -0.023 CG0
ATOM      9  G   UNL     1      11.371  -3.578  41.504  1.00  0.00     0.000 G0
ENDBRANCH   5   6
ENDBRANCH   4   5
ENDBRANCH   2   4
BRANCH   1  10
ATOM     10  C   UNL     1       9.064  -1.186  42.462  1.00  0.00     0.111 C 
BRANCH  10  11
ATOM     11  C   UNL     1       9.079  -2.675  42.240  1.00  0.00     0.163 C 
ATOM     12  O   UNL     1       8.324  -3.390  42.954  1.00  0.00    -0.294 OA
BRANCH  11  13
ATOM     13  C   UNL     1       9.901  -3.320  41.173  1.00  0.00    -0.002 C 
ATOM     14  C   UNL     1       9.368  -3.581  39.941  1.00  0.00    -0.069 C 
ATOM     15  C   UNL     1      10.214  -4.085  38.794  1.00  0.00     0.039 C 
ATOM     16  C   UNL     1       7.895  -3.373  39.664  1.00  0.00     0.039 C 
BRANCH  13  17
ATOM     17  C   UNL     1      11.366  -3.581  41.486  1.00  0.00     0.066 CG0
ATOM     18  G   UNL     1      12.277  -2.513  40.913  1.00  0.00     0.000 G0
ENDBRANCH  13  17
ENDBRANCH  11  13
ENDBRANCH  10  11
ENDBRANCH   1  10
TORSDOF 0
ENDMDL
MODEL 5
REMARK VINA RESULT:    -3.207     16.372     18.658
REMARK INTER + INTRA:          -4.376
REMARK INTER:                  -4.615
REMARK INTRA:                   0.239
REMARK UNBOUND:                 0.144
REMARK SMILES CC1=CCC(=C(C)C)C(=O)CC(C)=CCC1
REMARK SMILES IDX 12 1 14 2 13 3 15 4 16 5 2 6 1 7 3 8 11 10 9 11 10 12 5 13
REMARK SMILES IDX 6 14 7 15 8 16 4 17
REMARK H PARENT
REMARK Flexibility Score: 60.00
ROOT
ATOM      1  C   UNL     1       8.609  -2.349  42.408  1.00  0.00    -0.070 C 
ATOM      2  C   UNL     1       9.007  -1.516  43.395  1.00  0.00    -0.027 C 
ATOM      3  C   UNL     1       8.426  -3.807  42.746  1.00  0.00     0.039 C 
ENDROOT
BRANCH   2   4
ATOM      4  C   UNL     1       9.151  -0.015  43.279  1.00  0.00     0.032 C 
BRANCH   4   5
ATOM      5  C   UNL     1      10.319   0.456  42.386  1.00  0.00     0.034 C 
BRANCH   5   6
ATOM      6  C   UNL     1      11.574  -0.382  42.553  1.00  0.00    -0.077 C 
ATOM      7  C   UNL     1      12.309  -0.288  43.867  1.00  0.00     0.039 C 
ATOM      8  C   UNL     1      12.036  -1.256  41.628  1.00  0.00    -0.023 CG0
ATOM      9  G   UNL     1      11.477  -1.502  40.241  1.00  0.00     0.000 G0
ENDBRANCH   5   6
ENDBRANCH   4   5
ENDBRANCH   2   4
BRANCH   1  10
ATOM     10  C   UNL     1       8.252  -1.876  41.014  1.00  0.00     0.111 C 
BRANCH  10  11
ATOM     11  C   UNL     1       9.121  -2.522  39.968  1.00  0.00     0.163 C 
ATOM     12  O   UNL     1       8.592  -2.839  38.869  1.00  0.00    -0.294 OA
BRANCH  11  13
ATOM     13  C   UNL     1      10.585  -2.739  40.165  1.00  0.00    -0.002 C 
ATOM     14  C   UNL     1      11.107  -4.003  40.198  1.00  0.00    -0.069 C 
ATOM     15  C   UNL     1      12.598  -4.252  40.237  1.00  0.00     0.039 C 
ATOM     16  C   UNL     1      10.211  -5.221  40.193  1.00  0.00     0.039 C 
BRANCH  13  17
ATOM     17  C   UNL     1      11.469  -1.503  40.231  1.00  0.00     0.066 CG0
ATOM     18  G   UNL     1      12.012  -1.257  41.625  1.00  0.00     0.000 G0
ENDBRANCH  13  17
ENDBRANCH  11  13
ENDBRANCH  10  11
ENDBRANCH   1  10
TORSDOF 0
ENDMDL
MODEL 6
REMARK VINA RESULT:    -3.182     16.298     17.783
REMARK INTER + INTRA:          -4.340
REMARK INTER:                  -4.627
REMARK INTRA:                   0.287
REMARK UNBOUND:                 0.144
REMARK SMILES CC1=CCC(=C(C)C)C(=O)CC(C)=CCC1
REMARK SMILES IDX 12 1 14 2 13 3 15 4 16 5 2 6 1 7 3 8 11 10 9 11 10 12 5 13
REMARK SMILES IDX 6 14 7 15 8 16 4 17
REMARK H PARENT
REMARK Flexibility Score: 60.00
ROOT
ATOM      1  C   UNL     1       8.262  -4.677  41.373  1.00  0.00    -0.070 C 
ATOM      2  C   UNL     1       8.092  -3.782  42.373  1.00  0.00    -0.027 C 
ATOM      3  C   UNL     1       7.565  -6.009  41.493  1.00  0.00     0.039 C 
ENDROOT
BRANCH   2   4
ATOM      4  C   UNL     1       8.625  -2.368  42.390  1.00  0.00     0.032 C 
BRANCH   4   5
ATOM      5  C   UNL     1      10.015  -2.207  43.044  1.00  0.00     0.034 C 
BRANCH   5   6
ATOM      6  C   UNL     1      10.986  -1.408  42.192  1.00  0.00    -0.077 C 
ATOM      7  C   UNL     1      10.875   0.096  42.227  1.00  0.00     0.039 C 
ATOM      8  C   UNL     1      11.986  -1.954  41.460  1.00  0.00    -0.023 CG0
ATOM      9  G   UNL     1      12.276  -3.429  41.263  1.00  0.00     0.000 G0
ENDBRANCH   5   6
ENDBRANCH   4   5
ENDBRANCH   2   4
BRANCH   1  10
ATOM     10  C   UNL     1       9.036  -4.372  40.108  1.00  0.00     0.111 C 
BRANCH  10  11
ATOM     11  C   UNL     1      10.451  -4.883  40.186  1.00  0.00     0.163 C 
ATOM     12  O   UNL     1      10.627  -6.119  40.361  1.00  0.00    -0.294 OA
BRANCH  11  13
ATOM     13  C   UNL     1      11.636  -3.994  40.001  1.00  0.00    -0.002 C 
ATOM     14  C   UNL     1      12.054  -3.637  38.749  1.00  0.00    -0.069 C 
ATOM     15  C   UNL     1      13.148  -2.616  38.532  1.00  0.00     0.039 C 
ATOM     16  C   UNL     1      11.434  -4.248  37.511  1.00  0.00     0.039 C 
BRANCH  13  17
ATOM     17  C   UNL     1      12.289  -3.436  41.255  1.00  0.00     0.066 CG0
ATOM     18  G   UNL     1      11.985  -1.964  41.457  1.00  0.00     0.000 G0
ENDBRANCH  13  17
ENDBRANCH  11  13
ENDBRANCH  10  11
ENDBRANCH   1  10
TORSDOF 0
ENDMDL
MODEL 7
REMARK VINA RESULT:    -3.109     16.439     17.998
REMARK INTER + INTRA:          -4.238
REMARK INTER:                  -4.554
REMARK INTRA:                   0.317
REMARK UNBOUND:                 0.144
REMARK SMILES CC1=CCC(=C(C)C)C(=O)CC(C)=CCC1
REMARK SMILES IDX 12 1 14 2 13 3 15 4 16 5 2 6 1 7 3 8 11 10 9 11 10 12 5 13
REMARK SMILES IDX 6 14 7 15 8 16 4 17
REMARK H PARENT
REMARK Flexibility Score: 60.00
ROOT
ATOM      1  C   UNL     1       8.809  -1.430  42.114  1.00  0.00    -0.070 C 
ATOM      2  C   UNL     1       8.258  -2.525  41.543  1.00  0.00    -0.027 C 
ATOM      3  C   UNL     1       8.763  -0.134  41.345  1.00  0.00     0.039 C 
ENDROOT
BRANCH   2   4
ATOM      4  C   UNL     1       8.119  -3.884  42.192  1.00  0.00     0.032 C 
BRANCH   4   5
ATOM      5  C   UNL     1       9.454  -4.562  42.568  1.00  0.00     0.034 C 
BRANCH   5   6
ATOM      6  C   UNL     1      10.465  -4.556  41.436  1.00  0.00    -0.077 C 
ATOM      7  C   UNL     1      10.120  -5.322  40.184  1.00  0.00     0.039 C 
ATOM      8  C   UNL     1      11.624  -3.854  41.451  1.00  0.00    -0.023 CG0
ATOM      9  G   UNL     1      12.183  -3.034  42.597  1.00  0.00     0.000 G0
ENDBRANCH   5   6
ENDBRANCH   4   5
ENDBRANCH   2   4
BRANCH   1  10
ATOM     10  C   UNL     1       9.382  -1.424  43.516  1.00  0.00     0.111 C 
BRANCH  10  11
ATOM     11  C   UNL     1      10.841  -1.049  43.518  1.00  0.00     0.163 C 
ATOM     12  O   UNL     1      11.264  -0.313  44.450  1.00  0.00    -0.294 OA
BRANCH  11  13
ATOM     13  C   UNL     1      11.803  -1.567  42.500  1.00  0.00    -0.002 C 
ATOM     14  C   UNL     1      12.369  -0.727  41.581  1.00  0.00    -0.069 C 
ATOM     15  C   UNL     1      13.462  -1.187  40.643  1.00  0.00     0.039 C 
ATOM     16  C   UNL     1      11.927   0.715  41.461  1.00  0.00     0.039 C 
BRANCH  13  17
ATOM     17  C   UNL     1      12.192  -3.034  42.594  1.00  0.00     0.066 CG0
ATOM     18  G   UNL     1      11.618  -3.855  41.456  1.00  0.00     0.000 G0
ENDBRANCH  13  17
ENDBRANCH  11  13
ENDBRANCH  10  11
ENDBRANCH   1  10
TORSDOF 0
ENDMDL
MODEL 8
REMARK VINA RESULT:    -3.012      2.334      4.109
REMARK INTER + INTRA:          -4.101
REMARK INTER:                  -4.522
REMARK INTRA:                   0.421
REMARK UNBOUND:                 0.144
REMARK SMILES CC1=CCC(=C(C)C)C(=O)CC(C)=CCC1
REMARK SMILES IDX 12 1 14 2 13 3 15 4 16 5 2 6 1 7 3 8 11 10 9 11 10 12 5 13
REMARK SMILES IDX 6 14 7 15 8 16 4 17
REMARK H PARENT
REMARK Flexibility Score: 60.00
ROOT
ATOM      1  C   UNL     1      20.062 -11.685  45.061  1.00  0.00    -0.070 C 
ATOM      2  C   UNL     1      21.105 -11.024  45.611  1.00  0.00    -0.027 C 
ATOM      3  C   UNL     1      19.091 -10.896  44.219  1.00  0.00     0.039 C 
ENDROOT
BRANCH   2   4
ATOM      4  C   UNL     1      22.231 -11.652  46.401  1.00  0.00     0.032 C 
BRANCH   4   5
ATOM      5  C   UNL     1      23.433 -12.122  45.555  1.00  0.00     0.034 C 
BRANCH   5   6
ATOM      6  C   UNL     1      23.688 -13.615  45.657  1.00  0.00    -0.077 C 
ATOM      7  C   UNL     1      24.434 -14.117  46.868  1.00  0.00     0.039 C 
ATOM      8  C   UNL     1      23.231 -14.530  44.769  1.00  0.00    -0.023 CG0
ATOM      9  G   UNL     1      22.481 -14.260  43.480  1.00  0.00     0.000 G0
ENDBRANCH   5   6
ENDBRANCH   4   5
ENDBRANCH   2   4
BRANCH   1  10
ATOM     10  C   UNL     1      19.876 -13.184  45.174  1.00  0.00     0.111 C 
BRANCH  10  11
ATOM     11  C   UNL     1      19.970 -13.857  43.830  1.00  0.00     0.163 C 
ATOM     12  O   UNL     1      19.121 -13.550  42.951  1.00  0.00    -0.294 OA
BRANCH  11  13
ATOM     13  C   UNL     1      21.062 -14.817  43.489  1.00  0.00    -0.002 C 
ATOM     14  C   UNL     1      20.775 -16.105  43.130  1.00  0.00    -0.069 C 
ATOM     15  C   UNL     1      21.841 -17.052  42.628  1.00  0.00     0.039 C 
ATOM     16  C   UNL     1      19.364 -16.646  43.214  1.00  0.00     0.039 C 
BRANCH  13  17
ATOM     17  C   UNL     1      22.483 -14.276  43.468  1.00  0.00     0.066 CG0
ATOM     18  G   UNL     1      23.218 -14.538  44.768  1.00  0.00     0.000 G0
ENDBRANCH  13  17
ENDBRANCH  11  13
ENDBRANCH  10  11
ENDBRANCH   1  10
TORSDOF 0
ENDMDL
MODEL 9
REMARK VINA RESULT:    -2.966      3.587      6.040
REMARK INTER + INTRA:          -4.036
REMARK INTER:                  -4.440
REMARK INTRA:                   0.403
REMARK UNBOUND:                 0.144
REMARK SMILES CC1=CCC(=C(C)C)C(=O)CC(C)=CCC1
REMARK SMILES IDX 12 1 14 2 13 3 15 4 16 5 2 6 1 7 3 8 11 10 9 11 10 12 5 13
REMARK SMILES IDX 6 14 7 15 8 16 4 17
REMARK H PARENT
REMARK Flexibility Score: 60.00
ROOT
ATOM      1  C   UNL     1      21.080 -12.161  45.486  1.00  0.00    -0.070 C 
ATOM      2  C   UNL     1      21.883 -12.451  46.534  1.00  0.00    -0.027 C 
ATOM      3  C   UNL     1      19.953 -13.114  45.176  1.00  0.00     0.039 C 
ENDROOT
BRANCH   2   4
ATOM      4  C   UNL     1      22.998 -11.575  47.060  1.00  0.00     0.032 C 
BRANCH   4   5
ATOM      5  C   UNL     1      24.408 -12.199  46.972  1.00  0.00     0.034 C 
BRANCH   5   6
ATOM      6  C   UNL     1      24.716 -12.788  45.607  1.00  0.00    -0.077 C 
ATOM      7  C   UNL     1      24.925 -14.279  45.518  1.00  0.00     0.039 C 
ATOM      8  C   UNL     1      24.746 -12.073  44.457  1.00  0.00    -0.023 CG0
ATOM      9  G   UNL     1      24.585 -10.573  44.306  1.00  0.00     0.000 G0
ENDBRANCH   5   6
ENDBRANCH   4   5
ENDBRANCH   2   4
BRANCH   1  10
ATOM     10  C   UNL     1      21.199 -10.888  44.675  1.00  0.00     0.111 C 
BRANCH  10  11
ATOM     11  C   UNL     1      22.175 -11.043  43.538  1.00  0.00     0.163 C 
ATOM     12  O   UNL     1      21.907 -11.882  42.636  1.00  0.00    -0.294 OA
BRANCH  11  13
ATOM     13  C   UNL     1      23.402 -10.202  43.414  1.00  0.00    -0.002 C 
ATOM     14  C   UNL     1      23.415  -9.098  42.607  1.00  0.00    -0.069 C 
ATOM     15  C   UNL     1      24.584  -8.140  42.581  1.00  0.00     0.039 C 
ATOM     16  C   UNL     1      22.249  -8.779  41.697  1.00  0.00     0.039 C 
BRANCH  13  17
ATOM     17  C   UNL     1      24.590 -10.571  44.289  1.00  0.00     0.066 CG0
ATOM     18  G   UNL     1      24.737 -12.070  44.457  1.00  0.00     0.000 G0
ENDBRANCH  13  17
ENDBRANCH  11  13
ENDBRANCH  10  11
ENDBRANCH   1  10
TORSDOF 0
ENDMDL
