MODEL 1
REMARK VINA RESULT:    -3.554      0.000      0.000
REMARK INTER + INTRA:          -5.900
REMARK INTER:                  -5.424
REMARK INTRA:                  -0.477
REMARK UNBOUND:                -0.477
REMARK SMILES CCCCCCCCCCC(=O)[O-]
REMARK SMILES IDX 7 1 8 2 9 3 10 4 11 5 12 6 13 7 6 8 5 9 4 10 3 11 2 12 1 13
REMARK H PARENT
REMARK Flexibility Score: inf
ROOT
ATOM      1  C   UNL     1       6.175  43.896  10.137  1.00  0.00     0.000 C 
ENDROOT
BRANCH   1   2
ATOM      2  C   UNL     1       7.656  44.262  10.329  1.00  0.00     0.000 C 
BRANCH   2   3
ATOM      3  C   UNL     1       8.280  43.578  11.557  1.00  0.00     0.006 C 
BRANCH   3   4
ATOM      4  C   UNL     1       7.539  42.290  11.940  1.00  0.00     0.053 C 
BRANCH   4   5
ATOM      5  C   UNL     1       6.874  42.409  13.277  1.00  0.00     0.041 C 
ATOM      6  O   UNL     1       6.049  43.334  13.495  1.00  0.00    -0.550 OA
ATOM      7  O   UNL     1       7.187  41.513  14.292  1.00  0.00    -0.550 OA
ENDBRANCH   4   5
ENDBRANCH   3   4
ENDBRANCH   2   3
ENDBRANCH   1   2
BRANCH   1   8
ATOM      8  C   UNL     1       5.287  45.125   9.893  1.00  0.00     0.000 C 
BRANCH   8   9
ATOM      9  C   UNL     1       3.806  44.782  10.102  1.00  0.00    -0.000 C 
BRANCH   9  10
ATOM     10  C   UNL     1       3.601  43.989  11.399  1.00  0.00    -0.000 C 
BRANCH  10  11
ATOM     11  C   UNL     1       2.122  43.624  11.592  1.00  0.00    -0.000 C 
BRANCH  11  12
ATOM     12  C   UNL     1       1.500  42.997  10.335  1.00  0.00    -0.003 C 
ATOM     13  C   UNL     1       0.190  42.264  10.625  1.00  0.00     0.004 C 
ENDBRANCH  11  12
ENDBRANCH  10  11
ENDBRANCH   9  10
ENDBRANCH   8   9
ENDBRANCH   1   8
TORSDOF 9
ENDMDL
MODEL 2
REMARK VINA RESULT:    -3.473      2.369      5.142
REMARK INTER + INTRA:          -5.777
REMARK INTER:                  -5.002
REMARK INTRA:                  -0.776
REMARK UNBOUND:                -0.477
REMARK SMILES CCCCCCCCCCC(=O)[O-]
REMARK SMILES IDX 7 1 8 2 9 3 10 4 11 5 12 6 13 7 6 8 5 9 4 10 3 11 2 12 1 13
REMARK H PARENT
REMARK Flexibility Score: inf
ROOT
ATOM      1  C   UNL     1       5.676  44.250  10.010  1.00  0.00     0.000 C 
ENDROOT
BRANCH   1   2
ATOM      2  C   UNL     1       4.476  44.966  10.651  1.00  0.00     0.000 C 
BRANCH   2   3
ATOM      3  C   UNL     1       3.166  44.732   9.879  1.00  0.00     0.006 C 
BRANCH   3   4
ATOM      4  C   UNL     1       2.703  43.271   9.956  1.00  0.00     0.053 C 
BRANCH   4   5
ATOM      5  C   UNL     1       1.537  43.106  10.882  1.00  0.00     0.041 C 
ATOM      6  O   UNL     1       0.510  42.483  10.504  1.00  0.00    -0.550 OA
ATOM      7  O   UNL     1       1.575  43.664  12.154  1.00  0.00    -0.550 OA
ENDBRANCH   4   5
ENDBRANCH   3   4
ENDBRANCH   2   3
ENDBRANCH   1   2
BRANCH   1   8
ATOM      8  C   UNL     1       7.015  44.923  10.342  1.00  0.00     0.000 C 
BRANCH   8   9
ATOM      9  C   UNL     1       8.109  43.875  10.590  1.00  0.00    -0.000 C 
BRANCH   9  10
ATOM     10  C   UNL     1       7.525  42.607  11.224  1.00  0.00    -0.000 C 
BRANCH  10  11
ATOM     11  C   UNL     1       7.987  42.457  12.681  1.00  0.00    -0.000 C 
BRANCH  11  12
ATOM     12  C   UNL     1       6.818  42.227  13.650  1.00  0.00    -0.003 C 
ATOM     13  C   UNL     1       5.782  43.350  13.604  1.00  0.00     0.004 C 
ENDBRANCH  11  12
ENDBRANCH  10  11
ENDBRANCH   9  10
ENDBRANCH   8   9
ENDBRANCH   1   8
TORSDOF 9
ENDMDL
MODEL 3
REMARK VINA RESULT:    -3.312      2.669      5.254
REMARK INTER + INTRA:          -5.532
REMARK INTER:                  -4.735
REMARK INTRA:                  -0.797
REMARK UNBOUND:                -0.477
REMARK SMILES CCCCCCCCCCC(=O)[O-]
REMARK SMILES IDX 7 1 8 2 9 3 10 4 11 5 12 6 13 7 6 8 5 9 4 10 3 11 2 12 1 13
REMARK H PARENT
REMARK Flexibility Score: inf
ROOT
ATOM      1  C   UNL     1       4.258  44.232  12.100  1.00  0.00     0.000 C 
ENDROOT
BRANCH   1   2
ATOM      2  C   UNL     1       4.083  44.992  10.775  1.00  0.00     0.000 C 
BRANCH   2   3
ATOM      3  C   UNL     1       3.002  44.370   9.875  1.00  0.00     0.006 C 
BRANCH   3   4
ATOM      4  C   UNL     1       2.586  42.972  10.352  1.00  0.00     0.053 C 
BRANCH   4   5
ATOM      5  C   UNL     1       1.217  42.977  10.961  1.00  0.00     0.041 C 
ATOM      6  O   UNL     1       0.996  43.622  12.020  1.00  0.00    -0.550 OA
ATOM      7  O   UNL     1       0.192  42.245  10.375  1.00  0.00    -0.550 OA
ENDBRANCH   4   5
ENDBRANCH   3   4
ENDBRANCH   2   3
ENDBRANCH   1   2
BRANCH   1   8
ATOM      8  C   UNL     1       5.691  44.314  12.645  1.00  0.00     0.000 C 
BRANCH   8   9
ATOM      9  C   UNL     1       6.595  45.111  11.696  1.00  0.00    -0.000 C 
BRANCH   9  10
ATOM     10  C   UNL     1       7.751  44.247  11.178  1.00  0.00    -0.000 C 
BRANCH  10  11
ATOM     11  C   UNL     1       7.840  42.925  11.956  1.00  0.00    -0.000 C 
BRANCH  11  12
ATOM     12  C   UNL     1       7.594  41.699  11.065  1.00  0.00    -0.003 C 
ATOM     13  C   UNL     1       6.464  41.915  10.058  1.00  0.00     0.004 C 
ENDBRANCH  11  12
ENDBRANCH  10  11
ENDBRANCH   9  10
ENDBRANCH   8   9
ENDBRANCH   1   8
TORSDOF 9
ENDMDL
MODEL 4
REMARK VINA RESULT:    -3.230      1.921      2.878
REMARK INTER + INTRA:          -5.407
REMARK INTER:                  -5.033
REMARK INTRA:                  -0.374
REMARK UNBOUND:                -0.477
REMARK SMILES CCCCCCCCCCC(=O)[O-]
REMARK SMILES IDX 7 1 8 2 9 3 10 4 11 5 12 6 13 7 6 8 5 9 4 10 3 11 2 12 1 13
REMARK H PARENT
REMARK Flexibility Score: inf
ROOT
ATOM      1  C   UNL     1       5.380  43.250  13.407  1.00  0.00     0.000 C 
ENDROOT
BRANCH   1   2
ATOM      2  C   UNL     1       6.798  42.679  13.568  1.00  0.00     0.000 C 
BRANCH   2   3
ATOM      3  C   UNL     1       7.399  42.203  12.234  1.00  0.00     0.006 C 
BRANCH   3   4
ATOM      4  C   UNL     1       8.370  43.230  11.637  1.00  0.00     0.053 C 
BRANCH   4   5
ATOM      5  C   UNL     1       7.794  43.902  10.428  1.00  0.00     0.041 C 
ATOM      6  O   UNL     1       6.750  43.451   9.889  1.00  0.00    -0.550 OA
ATOM      7  O   UNL     1       8.428  45.010   9.880  1.00  0.00    -0.550 OA
ENDBRANCH   4   5
ENDBRANCH   3   4
ENDBRANCH   2   3
ENDBRANCH   1   2
BRANCH   1   8
ATOM      8  C   UNL     1       5.366  44.613  12.699  1.00  0.00     0.000 C 
BRANCH   8   9
ATOM      9  C   UNL     1       3.990  44.897  12.083  1.00  0.00    -0.000 C 
BRANCH   9  10
ATOM     10  C   UNL     1       4.062  44.905  10.551  1.00  0.00    -0.000 C 
BRANCH  10  11
ATOM     11  C   UNL     1       3.112  43.858   9.950  1.00  0.00    -0.000 C 
BRANCH  11  12
ATOM     12  C   UNL     1       2.301  43.114  11.022  1.00  0.00    -0.003 C 
ATOM     13  C   UNL     1       0.895  42.745  10.549  1.00  0.00     0.004 C 
ENDBRANCH  11  12
ENDBRANCH  10  11
ENDBRANCH   9  10
ENDBRANCH   8   9
ENDBRANCH   1   8
TORSDOF 9
ENDMDL
MODEL 5
REMARK VINA RESULT:    -3.111      1.539      1.970
REMARK INTER + INTRA:          -5.224
REMARK INTER:                  -4.889
REMARK INTRA:                  -0.335
REMARK UNBOUND:                -0.477
REMARK SMILES CCCCCCCCCCC(=O)[O-]
REMARK SMILES IDX 7 1 8 2 9 3 10 4 11 5 12 6 13 7 6 8 5 9 4 10 3 11 2 12 1 13
REMARK H PARENT
REMARK Flexibility Score: inf
ROOT
ATOM      1  C   UNL     1       4.802  44.202  12.207  1.00  0.00     0.000 C 
ENDROOT
BRANCH   1   2
ATOM      2  C   UNL     1       6.204  44.803  12.399  1.00  0.00     0.000 C 
BRANCH   2   3
ATOM      3  C   UNL     1       7.019  44.833  11.095  1.00  0.00     0.006 C 
BRANCH   3   4
ATOM      4  C   UNL     1       8.134  43.778  11.085  1.00  0.00     0.053 C 
BRANCH   4   5
ATOM      5  C   UNL     1       7.630  42.433  11.510  1.00  0.00     0.041 C 
ATOM      6  O   UNL     1       7.186  41.623  10.655  1.00  0.00    -0.550 OA
ATOM      7  O   UNL     1       7.625  42.086  12.855  1.00  0.00    -0.550 OA
ENDBRANCH   4   5
ENDBRANCH   3   4
ENDBRANCH   2   3
ENDBRANCH   1   2
BRANCH   1   8
ATOM      8  C   UNL     1       3.876  45.109  11.384  1.00  0.00     0.000 C 
BRANCH   8   9
ATOM      9  C   UNL     1       3.600  44.504  10.002  1.00  0.00    -0.000 C 
BRANCH   9  10
ATOM     10  C   UNL     1       3.694  42.973  10.041  1.00  0.00    -0.000 C 
BRANCH  10  11
ATOM     11  C   UNL     1       2.307  42.334   9.875  1.00  0.00    -0.000 C 
BRANCH  11  12
ATOM     12  C   UNL     1       1.256  42.954  10.808  1.00  0.00    -0.003 C 
ATOM     13  C   UNL     1      -0.086  42.223  10.756  1.00  0.00     0.004 C 
ENDBRANCH  11  12
ENDBRANCH  10  11
ENDBRANCH   9  10
ENDBRANCH   8   9
ENDBRANCH   1   8
TORSDOF 9
ENDMDL
MODEL 6
REMARK VINA RESULT:    -2.059      2.522      5.504
REMARK INTER + INTRA:          -3.620
REMARK INTER:                  -3.250
REMARK INTRA:                  -0.369
REMARK UNBOUND:                -0.477
REMARK SMILES CCCCCCCCCCC(=O)[O-]
REMARK SMILES IDX 7 1 8 2 9 3 10 4 11 5 12 6 13 7 6 8 5 9 4 10 3 11 2 12 1 13
REMARK H PARENT
REMARK Flexibility Score: inf
ROOT
ATOM      1  C   UNL     1       4.757  43.284  13.153  1.00  0.00     0.000 C 
ENDROOT
BRANCH   1   2
ATOM      2  C   UNL     1       4.069  44.115  12.058  1.00  0.00     0.000 C 
BRANCH   2   3
ATOM      3  C   UNL     1       3.962  43.361  10.722  1.00  0.00     0.006 C 
BRANCH   3   4
ATOM      4  C   UNL     1       2.641  43.653   9.997  1.00  0.00     0.053 C 
BRANCH   4   5
ATOM      5  C   UNL     1       1.456  43.222  10.806  1.00  0.00     0.041 C 
ATOM      6  O   UNL     1       1.327  43.607  11.998  1.00  0.00    -0.550 OA
ATOM      7  O   UNL     1       0.509  42.370  10.252  1.00  0.00    -0.550 OA
ENDBRANCH   4   5
ENDBRANCH   3   4
ENDBRANCH   2   3
ENDBRANCH   1   2
BRANCH   1   8
ATOM      8  C   UNL     1       6.247  43.623  13.306  1.00  0.00     0.000 C 
BRANCH   8   9
ATOM      9  C   UNL     1       7.112  42.361  13.185  1.00  0.00    -0.000 C 
BRANCH   9  10
ATOM     10  C   UNL     1       8.227  42.554  12.150  1.00  0.00    -0.000 C 
BRANCH  10  11
ATOM     11  C   UNL     1       7.643  42.763  10.745  1.00  0.00    -0.000 C 
BRANCH  11  12
ATOM     12  C   UNL     1       8.065  44.102  10.123  1.00  0.00    -0.003 C 
ATOM     13  C   UNL     1       6.912  45.102  10.031  1.00  0.00     0.004 C 
ENDBRANCH  11  12
ENDBRANCH  10  11
ENDBRANCH   9  10
ENDBRANCH   8   9
ENDBRANCH   1   8
TORSDOF 9
ENDMDL
MODEL 7
REMARK VINA RESULT:    -1.287      2.231      3.073
REMARK INTER + INTRA:          -2.441
REMARK INTER:                  -2.050
REMARK INTRA:                  -0.391
REMARK UNBOUND:                -0.477
REMARK SMILES CCCCCCCCCCC(=O)[O-]
REMARK SMILES IDX 7 1 8 2 9 3 10 4 11 5 12 6 13 7 6 8 5 9 4 10 3 11 2 12 1 13
REMARK H PARENT
REMARK Flexibility Score: inf
ROOT
ATOM      1  C   UNL     1       3.733  44.047  11.427  1.00  0.00     0.000 C 
ENDROOT
BRANCH   1   2
ATOM      2  C   UNL     1       4.639  44.932  10.555  1.00  0.00     0.000 C 
BRANCH   2   3
ATOM      3  C   UNL     1       5.994  44.273  10.251  1.00  0.00     0.006 C 
BRANCH   3   4
ATOM      4  C   UNL     1       6.940  44.308  11.459  1.00  0.00     0.053 C 
BRANCH   4   5
ATOM      5  C   UNL     1       7.195  42.937  12.005  1.00  0.00     0.041 C 
ATOM      6  O   UNL     1       7.654  42.032  11.260  1.00  0.00    -0.550 OA
ATOM      7  O   UNL     1       6.899  42.651  13.332  1.00  0.00    -0.550 OA
ENDBRANCH   4   5
ENDBRANCH   3   4
ENDBRANCH   2   3
ENDBRANCH   1   2
BRANCH   1   8
ATOM      8  C   UNL     1       2.839  43.114  10.596  1.00  0.00     0.000 C 
BRANCH   8   9
ATOM      9  C   UNL     1       1.373  43.227  11.032  1.00  0.00    -0.000 C 
BRANCH   9  10
ATOM     10  C   UNL     1       1.252  43.944  12.382  1.00  0.00    -0.000 C 
BRANCH  10  11
ATOM     11  C   UNL     1      -0.112  43.668  13.032  1.00  0.00    -0.000 C 
BRANCH  11  12
ATOM     12  C   UNL     1      -0.523  44.762  14.029  1.00  0.00    -0.003 C 
ATOM     13  C   UNL     1      -1.872  44.482  14.691  1.00  0.00     0.004 C 
ENDBRANCH  11  12
ENDBRANCH  10  11
ENDBRANCH   9  10
ENDBRANCH   8   9
ENDBRANCH   1   8
TORSDOF 9
ENDMDL
MODEL 8
REMARK VINA RESULT:    -1.229      3.836      6.514
REMARK INTER + INTRA:          -2.353
REMARK INTER:                  -1.882
REMARK INTRA:                  -0.471
REMARK UNBOUND:                -0.477
REMARK SMILES CCCCCCCCCCC(=O)[O-]
REMARK SMILES IDX 7 1 8 2 9 3 10 4 11 5 12 6 13 7 6 8 5 9 4 10 3 11 2 12 1 13
REMARK H PARENT
REMARK Flexibility Score: inf
ROOT
ATOM      1  C   UNL     1       1.964  43.244  10.949  1.00  0.00     0.000 C 
ENDROOT
BRANCH   1   2
ATOM      2  C   UNL     1       1.608  43.973  12.255  1.00  0.00     0.000 C 
BRANCH   2   3
ATOM      3  C   UNL     1       0.177  43.671  12.730  1.00  0.00     0.006 C 
BRANCH   3   4
ATOM      4  C   UNL     1      -0.244  44.565  13.904  1.00  0.00     0.053 C 
BRANCH   4   5
ATOM      5  C   UNL     1      -1.615  44.220  14.402  1.00  0.00     0.041 C 
ATOM      6  O   UNL     1      -2.386  45.125  14.816  1.00  0.00    -0.550 OA
ATOM      7  O   UNL     1      -2.029  42.894  14.435  1.00  0.00    -0.550 OA
ENDBRANCH   4   5
ENDBRANCH   3   4
ENDBRANCH   2   3
ENDBRANCH   1   2
BRANCH   1   8
ATOM      8  C   UNL     1       3.386  43.558  10.464  1.00  0.00     0.000 C 
BRANCH   8   9
ATOM      9  C   UNL     1       3.797  44.984  10.855  1.00  0.00    -0.000 C 
BRANCH   9  10
ATOM     10  C   UNL     1       5.259  45.030  11.316  1.00  0.00    -0.000 C 
BRANCH  10  11
ATOM     11  C   UNL     1       5.663  43.714  11.998  1.00  0.00    -0.000 C 
BRANCH  11  12
ATOM     12  C   UNL     1       7.116  43.316  11.699  1.00  0.00    -0.003 C 
ATOM     13  C   UNL     1       7.619  42.191  12.603  1.00  0.00     0.004 C 
ENDBRANCH  11  12
ENDBRANCH  10  11
ENDBRANCH   9  10
ENDBRANCH   8   9
ENDBRANCH   1   8
TORSDOF 9
ENDMDL
