MODEL 1
REMARK VINA RESULT:    -0.351      0.000      0.000
REMARK INTER + INTRA:          -0.351
REMARK INTER:                  -0.351
REMARK INTRA:                   0.000
REMARK UNBOUND:                 0.000
REMARK SMILES CC1(C)O[C@]2(C)CC[C@H]1CC2
REMARK SMILES IDX 1 1 2 2 9 3 10 4 11 5 5 6 4 7 7 8 8 9 6 10 3 11
REMARK H PARENT
REMARK Flexibility Score: inf
ROOT
ATOM      1  C   UNL     1      -7.979  -5.560  13.044  1.00  0.00     0.042 C 
ATOM      2  C   UNL     1      -9.020  -4.845  13.933  1.00  0.00     0.066 C 
ATOM      3  C   UNL     1      -8.347  -4.300  15.251  1.00  0.00     0.021 C 
ATOM      4  C   UNL     1      -7.290  -3.240  14.860  1.00  0.00     0.009 C 
ATOM      5  C   UNL     1      -7.943  -2.194  13.924  1.00  0.00     0.035 C 
ATOM      6  C   UNL     1      -9.459  -2.503  13.764  1.00  0.00     0.066 C 
ATOM      7  O   UNL     1      -9.614  -3.790  13.163  1.00  0.00    -0.369 OA
ATOM      8  C   UNL     1     -10.124  -2.513  15.170  1.00  0.00     0.035 C 
ATOM      9  C   UNL     1      -9.421  -3.551  16.077  1.00  0.00     0.009 C 
ATOM     10  C   UNL     1     -10.125  -1.455  12.867  1.00  0.00     0.042 C 
ATOM     11  C   UNL     1     -10.122  -5.873  14.267  1.00  0.00     0.042 C 
ENDROOT
TORSDOF 0
ENDMDL
MODEL 2
REMARK VINA RESULT:    -0.031      1.108      2.640
REMARK INTER + INTRA:          -0.031
REMARK INTER:                  -0.031
REMARK INTRA:                   0.000
REMARK UNBOUND:                 0.000
REMARK SMILES CC1(C)O[C@]2(C)CC[C@H]1CC2
REMARK SMILES IDX 1 1 2 2 9 3 10 4 11 5 5 6 4 7 7 8 8 9 6 10 3 11
REMARK H PARENT
REMARK Flexibility Score: inf
ROOT
ATOM      1  C   UNL     1     -10.123  -4.407  12.008  1.00  0.00     0.042 C 
ATOM      2  C   UNL     1      -9.009  -4.305  13.072  1.00  0.00     0.066 C 
ATOM      3  C   UNL     1      -8.358  -2.868  13.059  1.00  0.00     0.021 C 
ATOM      4  C   UNL     1      -9.441  -1.834  13.445  1.00  0.00     0.009 C 
ATOM      5  C   UNL     1     -10.124  -2.280  14.761  1.00  0.00     0.035 C 
ATOM      6  C   UNL     1      -9.434  -3.564  15.304  1.00  0.00     0.066 C 
ATOM      7  O   UNL     1      -9.585  -4.617  14.350  1.00  0.00    -0.369 OA
ATOM      8  C   UNL     1      -7.919  -3.275  15.510  1.00  0.00     0.035 C 
ATOM      9  C   UNL     1      -7.288  -2.805  14.177  1.00  0.00     0.009 C 
ATOM     10  C   UNL     1     -10.078  -3.998  16.624  1.00  0.00     0.042 C 
ATOM     11  C   UNL     1      -7.958  -5.385  12.743  1.00  0.00     0.042 C 
ENDROOT
TORSDOF 0
ENDMDL
MODEL 3
REMARK VINA RESULT:     0.512      1.250      3.105
REMARK INTER + INTRA:           0.512
REMARK INTER:                   0.512
REMARK INTRA:                   0.000
REMARK UNBOUND:                 0.000
REMARK SMILES CC1(C)O[C@]2(C)CC[C@H]1CC2
REMARK SMILES IDX 1 1 2 2 9 3 10 4 11 5 5 6 4 7 7 8 8 9 6 10 3 11
REMARK H PARENT
REMARK Flexibility Score: inf
ROOT
ATOM      1  C   UNL     1      -7.636  -2.888  15.937  1.00  0.00     0.042 C 
ATOM      2  C   UNL     1      -8.875  -3.251  15.091  1.00  0.00     0.066 C 
ATOM      3  C   UNL     1      -8.888  -2.431  13.743  1.00  0.00     0.021 C 
ATOM      4  C   UNL     1      -7.647  -2.833  12.912  1.00  0.00     0.009 C 
ATOM      5  C   UNL     1      -7.593  -4.375  12.792  1.00  0.00     0.035 C 
ATOM      6  C   UNL     1      -8.849  -5.000  13.465  1.00  0.00     0.066 C 
ATOM      7  O   UNL     1      -8.853  -4.666  14.853  1.00  0.00    -0.369 OA
ATOM      8  C   UNL     1     -10.125  -4.415  12.794  1.00  0.00     0.035 C 
ATOM      9  C   UNL     1     -10.119  -2.871  12.914  1.00  0.00     0.009 C 
ATOM     10  C   UNL     1      -8.825  -6.526  13.323  1.00  0.00     0.042 C 
ATOM     11  C   UNL     1     -10.123  -2.926  15.940  1.00  0.00     0.042 C 
ENDROOT
TORSDOF 0
ENDMDL
MODEL 4
REMARK VINA RESULT:     0.864      1.147      2.742
REMARK INTER + INTRA:           0.864
REMARK INTER:                   0.864
REMARK INTRA:                   0.000
REMARK UNBOUND:                 0.000
REMARK SMILES CC1(C)O[C@]2(C)CC[C@H]1CC2
REMARK SMILES IDX 1 1 2 2 9 3 10 4 11 5 5 6 4 7 7 8 8 9 6 10 3 11
REMARK H PARENT
REMARK Flexibility Score: inf
ROOT
ATOM      1  C   UNL     1      -9.779  -5.839  15.295  1.00  0.00     0.042 C 
ATOM      2  C   UNL     1      -9.210  -4.721  14.394  1.00  0.00     0.066 C 
ATOM      3  C   UNL     1     -10.124  -3.437  14.456  1.00  0.00     0.021 C 
ATOM      4  C   UNL     1     -10.109  -2.894  15.905  1.00  0.00     0.009 C 
ATOM      5  C   UNL     1      -8.642  -2.732  16.373  1.00  0.00     0.035 C 
ATOM      6  C   UNL     1      -7.676  -3.079  15.204  1.00  0.00     0.066 C 
ATOM      7  O   UNL     1      -7.870  -4.442  14.824  1.00  0.00    -0.369 OA
ATOM      8  C   UNL     1      -7.998  -2.160  13.991  1.00  0.00     0.035 C 
ATOM      9  C   UNL     1      -9.480  -2.335  13.580  1.00  0.00     0.009 C 
ATOM     10  C   UNL     1      -6.220  -2.891  15.643  1.00  0.00     0.042 C 
ATOM     11  C   UNL     1      -9.147  -5.278  12.956  1.00  0.00     0.042 C 
ENDROOT
TORSDOF 0
ENDMDL
MODEL 5
REMARK VINA RESULT:     1.610      1.212      3.052
REMARK INTER + INTRA:           1.610
REMARK INTER:                   1.610
REMARK INTRA:                   0.000
REMARK UNBOUND:                 0.000
REMARK SMILES CC1(C)O[C@]2(C)CC[C@H]1CC2
REMARK SMILES IDX 1 1 2 2 9 3 10 4 11 5 5 6 4 7 7 8 8 9 6 10 3 11
REMARK H PARENT
REMARK Flexibility Score: inf
ROOT
ATOM      1  C   UNL     1      -7.098  -2.360  13.567  1.00  0.00     0.042 C 
ATOM      2  C   UNL     1      -7.917  -3.015  14.700  1.00  0.00     0.066 C 
ATOM      3  C   UNL     1      -9.322  -2.312  14.849  1.00  0.00     0.021 C 
ATOM      4  C   UNL     1     -10.118  -2.525  13.540  1.00  0.00     0.009 C 
ATOM      5  C   UNL     1     -10.125  -4.033  13.188  1.00  0.00     0.035 C 
ATOM      6  C   UNL     1      -9.411  -4.839  14.311  1.00  0.00     0.066 C 
ATOM      7  O   UNL     1      -8.050  -4.413  14.402  1.00  0.00    -0.369 OA
ATOM      8  C   UNL     1     -10.124  -4.560  15.665  1.00  0.00     0.035 C 
ATOM      9  C   UNL     1     -10.118  -3.040  15.959  1.00  0.00     0.009 C 
ATOM     10  C   UNL     1      -9.439  -6.337  13.992  1.00  0.00     0.042 C 
ATOM     11  C   UNL     1      -7.096  -2.878  16.000  1.00  0.00     0.042 C 
ENDROOT
TORSDOF 0
ENDMDL
MODEL 6
REMARK VINA RESULT:     2.160      1.065      3.220
REMARK INTER + INTRA:           2.160
REMARK INTER:                   2.160
REMARK INTRA:                   0.000
REMARK UNBOUND:                 0.000
REMARK SMILES CC1(C)O[C@]2(C)CC[C@H]1CC2
REMARK SMILES IDX 1 1 2 2 9 3 10 4 11 5 5 6 4 7 7 8 8 9 6 10 3 11
REMARK H PARENT
REMARK Flexibility Score: inf
ROOT
ATOM      1  C   UNL     1     -10.124  -1.668  13.382  1.00  0.00     0.042 C 
ATOM      2  C   UNL     1      -8.977  -2.634  13.751  1.00  0.00     0.066 C 
ATOM      3  C   UNL     1      -8.398  -2.290  15.177  1.00  0.00     0.021 C 
ATOM      4  C   UNL     1      -9.515  -2.503  16.225  1.00  0.00     0.009 C 
ATOM      5  C   UNL     1     -10.125  -3.914  16.039  1.00  0.00     0.035 C 
ATOM      6  C   UNL     1      -9.351  -4.679  14.927  1.00  0.00     0.066 C 
ATOM      7  O   UNL     1      -9.486  -3.974  13.692  1.00  0.00    -0.369 OA
ATOM      8  C   UNL     1      -7.846  -4.748  15.314  1.00  0.00     0.035 C 
ATOM      9  C   UNL     1      -7.291  -3.317  15.517  1.00  0.00     0.009 C 
ATOM     10  C   UNL     1      -9.922  -6.090  14.755  1.00  0.00     0.042 C 
ATOM     11  C   UNL     1      -7.887  -2.487  12.668  1.00  0.00     0.042 C 
ENDROOT
TORSDOF 0
ENDMDL
MODEL 7
REMARK VINA RESULT:     2.368      1.698      3.497
REMARK INTER + INTRA:           2.368
REMARK INTER:                   2.368
REMARK INTRA:                   0.000
REMARK UNBOUND:                 0.000
REMARK SMILES CC1(C)O[C@]2(C)CC[C@H]1CC2
REMARK SMILES IDX 1 1 2 2 9 3 10 4 11 5 5 6 4 7 7 8 8 9 6 10 3 11
REMARK H PARENT
REMARK Flexibility Score: inf
ROOT
ATOM      1  C   UNL     1     -10.048  -4.817  15.363  1.00  0.00     0.042 C 
ATOM      2  C   UNL     1      -8.962  -4.653  14.277  1.00  0.00     0.066 C 
ATOM      3  C   UNL     1      -8.305  -6.044  13.932  1.00  0.00     0.021 C 
ATOM      4  C   UNL     1      -9.395  -6.968  13.338  1.00  0.00     0.009 C 
ATOM      5  C   UNL     1     -10.114  -6.229  12.184  1.00  0.00     0.035 C 
ATOM      6  C   UNL     1      -9.443  -4.846  11.945  1.00  0.00     0.066 C 
ATOM      7  O   UNL     1      -9.572  -4.052  13.125  1.00  0.00    -0.369 OA
ATOM      8  C   UNL     1      -7.934  -5.063  11.638  1.00  0.00     0.035 C 
ATOM      9  C   UNL     1      -7.266  -5.829  12.805  1.00  0.00     0.009 C 
ATOM     10  C   UNL     1     -10.124  -4.117  10.782  1.00  0.00     0.042 C 
ATOM     11  C   UNL     1      -7.907  -3.671  14.827  1.00  0.00     0.042 C 
ENDROOT
TORSDOF 0
ENDMDL
