MODEL 1
REMARK VINA RESULT:     7.040      0.000      0.000
REMARK INTER + INTRA:           8.947
REMARK INTER:                   9.715
REMARK INTRA:                  -0.768
REMARK UNBOUND:                -0.768
REMARK SMILES O=C([O-])[C@@H]1O[C@@H](Oc2cc3oc(-c4ccccc4)cc(=O)c3c(O)c2O)[C@H](O)[C@H](O)[C@@H]1O
REMARK SMILES IDX 7 1 6 2 4 3 31 4 5 5 29 6 27 7 2 8 1 9 3 10 32 11 30 13
REMARK SMILES IDX 28 15 8 17 25 18 9 19 23 20 10 21 22 22 11 23 20 24 12 25
REMARK SMILES IDX 19 26 21 27 26 28 24 30 13 32 14 33 18 34 15 35 17 36 16 37
REMARK H PARENT 32 12 30 14 28 16 26 29 24 31
REMARK Flexibility Score: inf
ROOT
ATOM      1  O   UNL     1      10.313 -12.817   4.994  1.00  0.00    -0.458 OA
ENDROOT
BRANCH   1   2
ATOM      2  C   UNL     1      10.626 -11.712   4.140  1.00  0.00     0.339 C 
ATOM      3  C   UNL     1      11.501  -9.519   4.142  1.00  0.00     0.199 C 
ATOM      4  C   UNL     1      10.755  -9.268   2.790  1.00  0.00     0.180 C 
ATOM      5  O   UNL     1      10.951 -10.576   4.923  1.00  0.00    -0.328 OA
ATOM      6  C   UNL     1       9.365  -9.934   2.808  1.00  0.00     0.181 C 
ATOM      7  C   UNL     1       9.457 -11.434   3.155  1.00  0.00     0.214 C 
BRANCH   3   8
ATOM      8  C   UNL     1      12.995  -9.662   4.000  1.00  0.00     0.073 C 
ATOM      9  O   UNL     1      13.595  -9.087   3.053  1.00  0.00    -0.547 OA
ATOM     10  O   UNL     1      13.730 -10.388   4.931  1.00  0.00    -0.547 OA
ENDBRANCH   3   8
BRANCH   4  11
ATOM     11  O   UNL     1      11.502  -9.667   1.662  1.00  0.00    -0.387 OA
ATOM     12  H   UNL     1      11.667 -10.641   1.724  1.00  0.00     0.211 HD
ENDBRANCH   4  11
BRANCH   6  13
ATOM     13  O   UNL     1       8.713  -9.756   1.575  1.00  0.00    -0.387 OA
ATOM     14  H   UNL     1       7.760  -9.995   1.716  1.00  0.00     0.211 HD
ENDBRANCH   6  13
BRANCH   7  15
ATOM     15  O   UNL     1       9.636 -12.193   1.985  1.00  0.00    -0.384 OA
ATOM     16  H   UNL     1      10.019 -13.065   2.264  1.00  0.00     0.211 HD
ENDBRANCH   7  15
ENDBRANCH   1   2
BRANCH   1  17
ATOM     17  C   UNL     1      10.946 -14.075   5.018  1.00  0.00     0.172 A 
ATOM     18  C   UNL     1      12.352 -14.116   5.035  1.00  0.00     0.201 A 
ATOM     19  C   UNL     1      10.225 -15.283   5.026  1.00  0.00     0.098 A 
ATOM     20  C   UNL     1      13.032 -15.349   5.061  1.00  0.00     0.176 A 
ATOM     21  C   UNL     1      10.888 -16.509   5.053  1.00  0.00     0.146 A 
ATOM     22  C   UNL     1      12.299 -16.559   5.068  1.00  0.00     0.111 A 
ATOM     23  O   UNL     1      10.172 -17.630   5.067  1.00  0.00    -0.456 OA
ATOM     24  C   UNL     1      12.907 -17.831   5.087  1.00  0.00     0.197 A 
ATOM     25  C   UNL     1      10.713 -18.844   5.097  1.00  0.00     0.138 A 
ATOM     26  C   UNL     1      12.110 -18.976   5.099  1.00  0.00     0.100 A 
ATOM     27  O   UNL     1      14.162 -17.960   5.086  1.00  0.00    -0.289 OA
BRANCH  18  28
ATOM     28  O   UNL     1      13.091 -12.932   5.025  1.00  0.00    -0.502 OA
ATOM     29  H   UNL     1      12.967 -12.219   4.318  1.00  0.00     0.293 HD
ENDBRANCH  18  28
BRANCH  20  30
ATOM     30  O   UNL     1      14.430 -15.373   5.079  1.00  0.00    -0.504 OA
ATOM     31  H   UNL     1      14.956 -16.081   5.577  1.00  0.00     0.293 HD
ENDBRANCH  20  30
BRANCH  25  32
ATOM     32  C   UNL     1       9.811 -20.025   5.113  1.00  0.00     0.017 A 
ATOM     33  C   UNL     1       8.407 -19.889   5.120  1.00  0.00     0.012 A 
ATOM     34  C   UNL     1      10.365 -21.319   5.086  1.00  0.00     0.012 A 
ATOM     35  C   UNL     1       7.586 -21.021   5.123  1.00  0.00     0.001 A 
ATOM     36  C   UNL     1       9.538 -22.447   5.091  1.00  0.00     0.001 A 
ATOM     37  C   UNL     1       8.150 -22.298   5.112  1.00  0.00     0.000 A 
ENDBRANCH  25  32
ENDBRANCH   1  17
TORSDOF 9
ENDMDL
