MODEL 1
REMARK VINA RESULT:    -2.457      0.000      0.000
REMARK INTER + INTRA:          -3.899
REMARK INTER:                  -3.319
REMARK INTRA:                  -0.580
REMARK UNBOUND:                -0.580
REMARK SMILES CCCCCCCC(C)=O
REMARK SMILES IDX 5 1 4 2 3 3 2 4 1 5 6 6 7 7 8 8 10 9 9 10
REMARK H PARENT
REMARK Flexibility Score: inf
ROOT
ATOM      1  C   UNL     1     123.214 119.946 118.810  1.00  0.00     0.000 C 
ENDROOT
BRANCH   1   2
ATOM      2  C   UNL     1     122.050 120.919 118.570  1.00  0.00     0.000 C 
BRANCH   2   3
ATOM      3  C   UNL     1     121.035 120.328 117.586  1.00  0.00    -0.000 C 
BRANCH   3   4
ATOM      4  C   UNL     1     120.886 121.218 116.347  1.00  0.00    -0.003 C 
ATOM      5  C   UNL     1     120.462 120.403 115.129  1.00  0.00     0.004 C 
ENDBRANCH   3   4
ENDBRANCH   2   3
ENDBRANCH   1   2
BRANCH   1   6
ATOM      6  C   UNL     1     124.216 119.921 117.645  1.00  0.00     0.008 C 
BRANCH   6   7
ATOM      7  C   UNL     1     124.759 121.314 117.301  1.00  0.00     0.075 C 
BRANCH   7   8
ATOM      8  C   UNL     1     125.119 121.398 115.842  1.00  0.00     0.129 C 
ATOM      9  O   UNL     1     125.806 122.326 115.444  1.00  0.00    -0.300 OA
ATOM     10  C   UNL     1     124.642 120.369 114.858  1.00  0.00     0.087 C 
ENDBRANCH   7   8
ENDBRANCH   6   7
ENDBRANCH   1   6
TORSDOF 6
ENDMDL
MODEL 2
REMARK VINA RESULT:    -2.405     15.140     16.387
REMARK INTER + INTRA:          -3.829
REMARK INTER:                  -3.246
REMARK INTRA:                  -0.583
REMARK UNBOUND:                -0.580
REMARK SMILES CCCCCCCC(C)=O
REMARK SMILES IDX 5 1 4 2 3 3 2 4 1 5 6 6 7 7 8 8 10 9 9 10
REMARK H PARENT
REMARK Flexibility Score: inf
ROOT
ATOM      1  C   UNL     1     110.297 112.449 117.816  1.00  0.00     0.000 C 
ENDROOT
BRANCH   1   2
ATOM      2  C   UNL     1     108.980 112.861 117.141  1.00  0.00     0.000 C 
BRANCH   2   3
ATOM      3  C   UNL     1     108.106 111.636 116.850  1.00  0.00    -0.000 C 
BRANCH   3   4
ATOM      4  C   UNL     1     107.745 111.558 115.362  1.00  0.00    -0.003 C 
ATOM      5  C   UNL     1     108.322 112.741 114.592  1.00  0.00     0.004 C 
ENDBRANCH   3   4
ENDBRANCH   2   3
ENDBRANCH   1   2
BRANCH   1   6
ATOM      6  C   UNL     1     111.332 111.910 116.816  1.00  0.00     0.008 C 
BRANCH   6   7
ATOM      7  C   UNL     1     112.135 110.727 117.373  1.00  0.00     0.075 C 
BRANCH   7   8
ATOM      8  C   UNL     1     111.849 109.476 116.586  1.00  0.00     0.129 C 
ATOM      9  O   UNL     1     112.685 109.057 115.799  1.00  0.00    -0.300 OA
ATOM     10  C   UNL     1     110.553 108.734 116.737  1.00  0.00     0.087 C 
ENDBRANCH   7   8
ENDBRANCH   6   7
ENDBRANCH   1   6
TORSDOF 6
ENDMDL
MODEL 3
REMARK VINA RESULT:    -2.381     15.220     16.869
REMARK INTER + INTRA:          -3.796
REMARK INTER:                  -3.202
REMARK INTRA:                  -0.594
REMARK UNBOUND:                -0.580
REMARK SMILES CCCCCCCC(C)=O
REMARK SMILES IDX 5 1 4 2 3 3 2 4 1 5 6 6 7 7 8 8 10 9 9 10
REMARK H PARENT
REMARK Flexibility Score: inf
ROOT
ATOM      1  C   UNL     1     110.026 112.256 118.314  1.00  0.00     0.000 C 
ENDROOT
BRANCH   1   2
ATOM      2  C   UNL     1     111.348 112.619 117.623  1.00  0.00     0.000 C 
BRANCH   2   3
ATOM      3  C   UNL     1     111.675 111.623 116.505  1.00  0.00    -0.000 C 
BRANCH   3   4
ATOM      4  C   UNL     1     111.410 110.181 116.957  1.00  0.00    -0.003 C 
ATOM      5  C   UNL     1     112.497 109.237 116.453  1.00  0.00     0.004 C 
ENDBRANCH   3   4
ENDBRANCH   2   3
ENDBRANCH   1   2
BRANCH   1   6
ATOM      6  C   UNL     1     108.797 112.786 117.559  1.00  0.00     0.008 C 
BRANCH   6   7
ATOM      7  C   UNL     1     107.872 111.663 117.069  1.00  0.00     0.075 C 
BRANCH   7   8
ATOM      8  C   UNL     1     107.818 111.640 115.564  1.00  0.00     0.129 C 
ATOM      9  O   UNL     1     107.302 110.689 114.996  1.00  0.00    -0.300 OA
ATOM     10  C   UNL     1     108.397 112.755 114.743  1.00  0.00     0.087 C 
ENDBRANCH   7   8
ENDBRANCH   6   7
ENDBRANCH   1   6
TORSDOF 6
ENDMDL
MODEL 4
REMARK VINA RESULT:    -2.364     11.518     12.448
REMARK INTER + INTRA:          -3.773
REMARK INTER:                  -3.071
REMARK INTRA:                  -0.702
REMARK UNBOUND:                -0.580
REMARK SMILES CCCCCCCC(C)=O
REMARK SMILES IDX 5 1 4 2 3 3 2 4 1 5 6 6 7 7 8 8 10 9 9 10
REMARK H PARENT
REMARK Flexibility Score: inf
ROOT
ATOM      1  C   UNL     1     112.289 123.270 118.113  1.00  0.00     0.000 C 
ENDROOT
BRANCH   1   2
ATOM      2  C   UNL     1     112.218 122.112 117.107  1.00  0.00     0.000 C 
BRANCH   2   3
ATOM      3  C   UNL     1     110.788 121.573 116.991  1.00  0.00    -0.000 C 
BRANCH   3   4
ATOM      4  C   UNL     1     109.796 122.475 117.735  1.00  0.00    -0.003 C 
ATOM      5  C   UNL     1     108.677 122.945 116.811  1.00  0.00     0.004 C 
ENDBRANCH   3   4
ENDBRANCH   2   3
ENDBRANCH   1   2
BRANCH   1   6
ATOM      6  C   UNL     1     112.878 124.551 117.501  1.00  0.00     0.008 C 
BRANCH   6   7
ATOM      7  C   UNL     1     111.799 125.509 116.979  1.00  0.00     0.075 C 
BRANCH   7   8
ATOM      8  C   UNL     1     111.657 125.385 115.485  1.00  0.00     0.129 C 
ATOM      9  O   UNL     1     110.592 125.668 114.957  1.00  0.00    -0.300 OA
ATOM     10  C   UNL     1     112.793 124.907 114.628  1.00  0.00     0.087 C 
ENDBRANCH   7   8
ENDBRANCH   6   7
ENDBRANCH   1   6
TORSDOF 6
ENDMDL
MODEL 5
REMARK VINA RESULT:    -2.343      5.498      7.808
REMARK INTER + INTRA:          -3.744
REMARK INTER:                  -3.352
REMARK INTRA:                  -0.393
REMARK UNBOUND:                -0.580
REMARK SMILES CCCCCCCC(C)=O
REMARK SMILES IDX 5 1 4 2 3 3 2 4 1 5 6 6 7 7 8 8 10 9 9 10
REMARK H PARENT
REMARK Flexibility Score: inf
ROOT
ATOM      1  C   UNL     1     118.562 116.643 113.157  1.00  0.00     0.000 C 
ENDROOT
BRANCH   1   2
ATOM      2  C   UNL     1     119.411 116.074 112.011  1.00  0.00     0.000 C 
BRANCH   2   3
ATOM      3  C   UNL     1     119.750 114.599 112.258  1.00  0.00    -0.000 C 
BRANCH   3   4
ATOM      4  C   UNL     1     118.983 114.053 113.468  1.00  0.00    -0.003 C 
ATOM      5  C   UNL     1     119.920 113.347 114.442  1.00  0.00     0.004 C 
ENDBRANCH   3   4
ENDBRANCH   2   3
ENDBRANCH   1   2
BRANCH   1   6
ATOM      6  C   UNL     1     117.426 117.550 112.659  1.00  0.00     0.008 C 
BRANCH   6   7
ATOM      7  C   UNL     1     117.392 118.906 113.377  1.00  0.00     0.075 C 
BRANCH   7   8
ATOM      8  C   UNL     1     118.653 119.682 113.104  1.00  0.00     0.129 C 
ATOM      9  O   UNL     1     118.897 120.052 111.966  1.00  0.00    -0.300 OA
ATOM     10  C   UNL     1     119.628 120.002 114.200  1.00  0.00     0.087 C 
ENDBRANCH   7   8
ENDBRANCH   6   7
ENDBRANCH   1   6
TORSDOF 6
ENDMDL
MODEL 6
REMARK VINA RESULT:    -2.329     10.954     11.760
REMARK INTER + INTRA:          -3.725
REMARK INTER:                  -3.096
REMARK INTRA:                  -0.629
REMARK UNBOUND:                -0.580
REMARK SMILES CCCCCCCC(C)=O
REMARK SMILES IDX 5 1 4 2 3 3 2 4 1 5 6 6 7 7 8 8 10 9 9 10
REMARK H PARENT
REMARK Flexibility Score: inf
ROOT
ATOM      1  C   UNL     1     120.196 110.545 117.990  1.00  0.00     0.000 C 
ENDROOT
BRANCH   1   2
ATOM      2  C   UNL     1     120.636 111.487 116.860  1.00  0.00     0.000 C 
BRANCH   2   3
ATOM      3  C   UNL     1     121.917 112.238 117.240  1.00  0.00    -0.000 C 
BRANCH   3   4
ATOM      4  C   UNL     1     122.817 111.376 118.133  1.00  0.00    -0.003 C 
ATOM      5  C   UNL     1     123.941 110.733 117.327  1.00  0.00     0.004 C 
ENDBRANCH   3   4
ENDBRANCH   2   3
ENDBRANCH   1   2
BRANCH   1   6
ATOM      6  C   UNL     1     119.841 109.138 117.483  1.00  0.00     0.008 C 
BRANCH   6   7
ATOM      7  C   UNL     1     121.081 108.271 117.224  1.00  0.00     0.075 C 
BRANCH   7   8
ATOM      8  C   UNL     1     121.242 108.004 115.751  1.00  0.00     0.129 C 
ATOM      9  O   UNL     1     122.251 107.445 115.348  1.00  0.00    -0.300 OA
ATOM     10  C   UNL     1     120.194 108.420 114.760  1.00  0.00     0.087 C 
ENDBRANCH   7   8
ENDBRANCH   6   7
ENDBRANCH   1   6
TORSDOF 6
ENDMDL
MODEL 7
REMARK VINA RESULT:    -2.316      7.701      9.588
REMARK INTER + INTRA:          -3.709
REMARK INTER:                  -3.248
REMARK INTRA:                  -0.460
REMARK UNBOUND:                -0.580
REMARK SMILES CCCCCCCC(C)=O
REMARK SMILES IDX 5 1 4 2 3 3 2 4 1 5 6 6 7 7 8 8 10 9 9 10
REMARK H PARENT
REMARK Flexibility Score: inf
ROOT
ATOM      1  C   UNL     1     116.121 116.142 113.279  1.00  0.00     0.000 C 
ENDROOT
BRANCH   1   2
ATOM      2  C   UNL     1     115.849 114.666 113.608  1.00  0.00     0.000 C 
BRANCH   2   3
ATOM      3  C   UNL     1     115.710 113.835 112.328  1.00  0.00    -0.000 C 
BRANCH   3   4
ATOM      4  C   UNL     1     114.307 113.227 112.215  1.00  0.00    -0.003 C 
ATOM      5  C   UNL     1     113.529 113.391 113.516  1.00  0.00     0.004 C 
ENDBRANCH   3   4
ENDBRANCH   2   3
ENDBRANCH   1   2
BRANCH   1   6
ATOM      6  C   UNL     1     117.100 116.317 112.108  1.00  0.00     0.008 C 
BRANCH   6   7
ATOM      7  C   UNL     1     118.485 116.800 112.560  1.00  0.00     0.075 C 
BRANCH   7   8
ATOM      8  C   UNL     1     119.250 115.680 113.213  1.00  0.00     0.129 C 
ATOM      9  O   UNL     1     119.326 115.633 114.431  1.00  0.00    -0.300 OA
ATOM     10  C   UNL     1     119.934 114.620 112.399  1.00  0.00     0.087 C 
ENDBRANCH   7   8
ENDBRANCH   6   7
ENDBRANCH   1   6
TORSDOF 6
ENDMDL
MODEL 8
REMARK VINA RESULT:    -2.316      5.600      8.191
REMARK INTER + INTRA:          -3.709
REMARK INTER:                  -3.031
REMARK INTRA:                  -0.678
REMARK UNBOUND:                -0.580
REMARK SMILES CCCCCCCC(C)=O
REMARK SMILES IDX 5 1 4 2 3 3 2 4 1 5 6 6 7 7 8 8 10 9 9 10
REMARK H PARENT
REMARK Flexibility Score: inf
ROOT
ATOM      1  C   UNL     1     116.597 118.928 113.285  1.00  0.00     0.000 C 
ENDROOT
BRANCH   1   2
ATOM      2  C   UNL     1     117.399 119.650 112.192  1.00  0.00     0.000 C 
BRANCH   2   3
ATOM      3  C   UNL     1     118.805 120.006 112.688  1.00  0.00    -0.000 C 
BRANCH   3   4
ATOM      4  C   UNL     1     119.010 119.551 114.138  1.00  0.00    -0.003 C 
ATOM      5  C   UNL     1     120.143 120.325 114.804  1.00  0.00     0.004 C 
ENDBRANCH   3   4
ENDBRANCH   2   3
ENDBRANCH   1   2
BRANCH   1   6
ATOM      6  C   UNL     1     115.863 117.684 112.758  1.00  0.00     0.008 C 
BRANCH   6   7
ATOM      7  C   UNL     1     116.755 116.799 111.877  1.00  0.00     0.075 C 
BRANCH   7   8
ATOM      8  C   UNL     1     117.659 115.946 112.726  1.00  0.00     0.129 C 
ATOM      9  O   UNL     1     117.169 115.134 113.497  1.00  0.00    -0.300 OA
ATOM     10  C   UNL     1     119.152 116.077 112.657  1.00  0.00     0.087 C 
ENDBRANCH   7   8
ENDBRANCH   6   7
ENDBRANCH   1   6
TORSDOF 6
ENDMDL
MODEL 9
REMARK VINA RESULT:    -2.235      8.285     10.872
REMARK INTER + INTRA:          -3.599
REMARK INTER:                  -3.287
REMARK INTRA:                  -0.312
REMARK UNBOUND:                -0.580
REMARK SMILES CCCCCCCC(C)=O
REMARK SMILES IDX 5 1 4 2 3 3 2 4 1 5 6 6 7 7 8 8 10 9 9 10
REMARK H PARENT
REMARK Flexibility Score: inf
ROOT
ATOM      1  C   UNL     1     113.726 117.996 112.561  1.00  0.00     0.000 C 
ENDROOT
BRANCH   1   2
ATOM      2  C   UNL     1     114.996 118.701 113.060  1.00  0.00     0.000 C 
BRANCH   2   3
ATOM      3  C   UNL     1     115.837 119.215 111.886  1.00  0.00    -0.000 C 
BRANCH   3   4
ATOM      4  C   UNL     1     117.315 118.851 112.064  1.00  0.00    -0.003 C 
ATOM      5  C   UNL     1     118.204 120.086 111.960  1.00  0.00     0.004 C 
ENDBRANCH   3   4
ENDBRANCH   2   3
ENDBRANCH   1   2
BRANCH   1   6
ATOM      6  C   UNL     1     114.016 116.615 111.953  1.00  0.00     0.008 C 
BRANCH   6   7
ATOM      7  C   UNL     1     114.885 115.737 112.864  1.00  0.00     0.075 C 
BRANCH   7   8
ATOM      8  C   UNL     1     114.209 114.418 113.131  1.00  0.00     0.129 C 
ATOM      9  O   UNL     1     113.563 114.270 114.157  1.00  0.00    -0.300 OA
ATOM     10  C   UNL     1     114.321 113.272 112.168  1.00  0.00     0.087 C 
ENDBRANCH   7   8
ENDBRANCH   6   7
ENDBRANCH   1   6
TORSDOF 6
ENDMDL
