MODEL 1
REMARK VINA RESULT:    -3.775      0.000      0.000
REMARK INTER + INTRA:          -5.727
REMARK INTER:                  -4.657
REMARK INTRA:                  -1.070
REMARK UNBOUND:                -1.070
REMARK SMILES CC(C)=CCC[C@@H](C)c1ccc(C)cc1
REMARK SMILES IDX 6 1 7 2 8 3 9 4 13 5 12 6 11 7 14 8 10 9 15 10 5 11 4 12
REMARK SMILES IDX 2 13 1 14 3 15
REMARK H PARENT
REMARK Flexibility Score: inf
ROOT
ATOM      1  C   UNL     1      -2.966   4.923  -5.745  1.00  0.00     0.012 C 
ENDROOT
BRANCH   1   2
ATOM      2  C   UNL     1      -2.197   4.465  -4.487  1.00  0.00     0.016 C 
ATOM      3  C   UNL     1      -0.944   5.323  -4.272  1.00  0.00     0.013 C 
BRANCH   2   4
ATOM      4  C   UNL     1      -3.074   4.482  -3.246  1.00  0.00    -0.045 A 
ATOM      5  C   UNL     1      -5.604   4.525   0.255  1.00  0.00     0.044 C 
ATOM      6  C   UNL     1      -4.732   4.540  -0.965  1.00  0.00    -0.051 A 
ATOM      7  C   UNL     1      -3.365   4.829  -0.853  1.00  0.00     0.004 A 
ATOM      8  C   UNL     1      -5.262   4.196  -2.217  1.00  0.00     0.004 A 
ATOM      9  C   UNL     1      -2.543   4.807  -1.984  1.00  0.00     0.004 A 
ATOM     10  C   UNL     1      -4.442   4.174  -3.349  1.00  0.00     0.004 A 
ENDBRANCH   2   4
ENDBRANCH   1   2
BRANCH   1  11
ATOM     11  C   UNL     1      -2.763   3.964  -6.927  1.00  0.00     0.028 C 
BRANCH  11  12
ATOM     12  C   UNL     1      -2.565   2.550  -6.440  1.00  0.00    -0.028 C 
ATOM     13  C   UNL     1      -3.565   1.665  -6.237  1.00  0.00    -0.080 C 
ATOM     14  C   UNL     1      -5.006   2.003  -6.540  1.00  0.00     0.039 C 
ATOM     15  C   UNL     1      -3.219   0.298  -5.706  1.00  0.00     0.039 C 
ENDBRANCH  11  12
ENDBRANCH   1  11
TORSDOF 4
ENDMDL
MODEL 2
REMARK VINA RESULT:    -3.764      2.747      7.071
REMARK INTER + INTRA:          -5.714
REMARK INTER:                  -4.633
REMARK INTRA:                  -1.081
REMARK UNBOUND:                -1.070
REMARK SMILES CC(C)=CCC[C@@H](C)c1ccc(C)cc1
REMARK SMILES IDX 6 1 7 2 8 3 9 4 13 5 12 6 11 7 14 8 10 9 15 10 5 11 4 12
REMARK SMILES IDX 2 13 1 14 3 15
REMARK H PARENT
REMARK Flexibility Score: inf
ROOT
ATOM      1  C   UNL     1      -8.015   5.532  -0.432  1.00  0.00     0.012 C 
ENDROOT
BRANCH   1   2
ATOM      2  C   UNL     1      -7.181   4.236  -0.343  1.00  0.00     0.016 C 
ATOM      3  C   UNL     1      -7.954   3.049  -0.933  1.00  0.00     0.013 C 
BRANCH   2   4
ATOM      4  C   UNL     1      -5.829   4.381  -1.019  1.00  0.00    -0.045 A 
ATOM      5  C   UNL     1      -2.000   4.778  -2.980  1.00  0.00     0.044 C 
ATOM      6  C   UNL     1      -3.324   4.610  -2.295  1.00  0.00    -0.051 A 
ATOM      7  C   UNL     1      -3.430   4.786  -0.908  1.00  0.00     0.004 A 
ATOM      8  C   UNL     1      -4.479   4.344  -3.045  1.00  0.00     0.004 A 
ATOM      9  C   UNL     1      -4.669   4.666  -0.273  1.00  0.00     0.004 A 
ATOM     10  C   UNL     1      -5.719   4.224  -2.412  1.00  0.00     0.004 A 
ENDBRANCH   2   4
ENDBRANCH   1   2
BRANCH   1  11
ATOM     11  C   UNL     1      -8.005   6.317   0.888  1.00  0.00     0.028 C 
BRANCH  11  12
ATOM     12  C   UNL     1      -7.494   5.457   2.017  1.00  0.00    -0.028 C 
ATOM     13  C   UNL     1      -6.454   5.784   2.816  1.00  0.00    -0.080 C 
ATOM     14  C   UNL     1      -5.725   7.100   2.683  1.00  0.00     0.039 C 
ATOM     15  C   UNL     1      -6.029   4.803   3.879  1.00  0.00     0.039 C 
ENDBRANCH  11  12
ENDBRANCH   1  11
TORSDOF 4
ENDMDL
MODEL 3
REMARK VINA RESULT:    -3.737      0.112      1.256
REMARK INTER + INTRA:          -5.681
REMARK INTER:                  -4.586
REMARK INTRA:                  -1.095
REMARK UNBOUND:                -1.070
REMARK SMILES CC(C)=CCC[C@@H](C)c1ccc(C)cc1
REMARK SMILES IDX 6 1 7 2 8 3 9 4 13 5 12 6 11 7 14 8 10 9 15 10 5 11 4 12
REMARK SMILES IDX 2 13 1 14 3 15
REMARK H PARENT
REMARK Flexibility Score: inf
ROOT
ATOM      1  C   UNL     1      -2.916   5.076  -5.740  1.00  0.00     0.012 C 
ENDROOT
BRANCH   1   2
ATOM      2  C   UNL     1      -2.212   4.474  -4.505  1.00  0.00     0.016 C 
ATOM      3  C   UNL     1      -0.899   5.212  -4.213  1.00  0.00     0.013 C 
BRANCH   2   4
ATOM      4  C   UNL     1      -3.110   4.477  -3.280  1.00  0.00    -0.045 A 
ATOM      5  C   UNL     1      -5.627   4.489   0.231  1.00  0.00     0.044 C 
ATOM      6  C   UNL     1      -4.747   4.456  -0.983  1.00  0.00    -0.051 A 
ATOM      7  C   UNL     1      -5.285   4.139  -2.238  1.00  0.00     0.004 A 
ATOM      8  C   UNL     1      -3.393   4.807  -0.884  1.00  0.00     0.004 A 
ATOM      9  C   UNL     1      -4.474   4.143  -3.376  1.00  0.00     0.004 A 
ATOM     10  C   UNL     1      -2.580   4.811  -2.021  1.00  0.00     0.004 A 
ENDBRANCH   2   4
ENDBRANCH   1   2
BRANCH   1  11
ATOM     11  C   UNL     1      -2.961   4.091  -6.917  1.00  0.00     0.028 C 
BRANCH  11  12
ATOM     12  C   UNL     1      -2.660   2.688  -6.451  1.00  0.00    -0.028 C 
ATOM     13  C   UNL     1      -3.599   1.745  -6.210  1.00  0.00    -0.080 C 
ATOM     14  C   UNL     1      -5.068   2.001  -6.445  1.00  0.00     0.039 C 
ATOM     15  C   UNL     1      -3.150   0.398  -5.706  1.00  0.00     0.039 C 
ENDBRANCH  11  12
ENDBRANCH   1  11
TORSDOF 4
ENDMDL
MODEL 4
REMARK VINA RESULT:    -3.717      2.850      7.166
REMARK INTER + INTRA:          -5.657
REMARK INTER:                  -4.536
REMARK INTRA:                  -1.121
REMARK UNBOUND:                -1.070
REMARK SMILES CC(C)=CCC[C@@H](C)c1ccc(C)cc1
REMARK SMILES IDX 6 1 7 2 8 3 9 4 13 5 12 6 11 7 14 8 10 9 15 10 5 11 4 12
REMARK SMILES IDX 2 13 1 14 3 15
REMARK H PARENT
REMARK Flexibility Score: inf
ROOT
ATOM      1  C   UNL     1      -8.226   5.298  -0.531  1.00  0.00     0.012 C 
ENDROOT
BRANCH   1   2
ATOM      2  C   UNL     1      -7.317   4.059  -0.381  1.00  0.00     0.016 C 
ATOM      3  C   UNL     1      -7.995   2.812  -0.962  1.00  0.00     0.013 C 
BRANCH   2   4
ATOM      4  C   UNL     1      -5.954   4.272  -1.020  1.00  0.00    -0.045 A 
ATOM      5  C   UNL     1      -2.065   4.891  -2.794  1.00  0.00     0.044 C 
ATOM      6  C   UNL     1      -3.421   4.706  -2.180  1.00  0.00    -0.051 A 
ATOM      7  C   UNL     1      -4.533   4.433  -2.990  1.00  0.00     0.004 A 
ATOM      8  C   UNL     1      -3.576   4.736  -0.787  1.00  0.00     0.004 A 
ATOM      9  C   UNL     1      -5.790   4.224  -2.417  1.00  0.00     0.004 A 
ATOM     10  C   UNL     1      -4.833   4.528  -0.212  1.00  0.00     0.004 A 
ENDBRANCH   2   4
ENDBRANCH   1   2
BRANCH   1  11
ATOM     11  C   UNL     1      -8.041   6.293   0.624  1.00  0.00     0.028 C 
BRANCH  11  12
ATOM     12  C   UNL     1      -7.714   5.568   1.906  1.00  0.00    -0.028 C 
ATOM     13  C   UNL     1      -6.665   5.865   2.705  1.00  0.00    -0.080 C 
ATOM     14  C   UNL     1      -5.732   7.014   2.407  1.00  0.00     0.039 C 
ATOM     15  C   UNL     1      -6.439   5.024   3.935  1.00  0.00     0.039 C 
ENDBRANCH  11  12
ENDBRANCH   1  11
TORSDOF 4
ENDMDL
MODEL 5
REMARK VINA RESULT:    -3.698     11.943     13.488
REMARK INTER + INTRA:          -5.632
REMARK INTER:                  -4.504
REMARK INTRA:                  -1.128
REMARK UNBOUND:                -1.070
REMARK SMILES CC(C)=CCC[C@@H](C)c1ccc(C)cc1
REMARK SMILES IDX 6 1 7 2 8 3 9 4 13 5 12 6 11 7 14 8 10 9 15 10 5 11 4 12
REMARK SMILES IDX 2 13 1 14 3 15
REMARK H PARENT
REMARK Flexibility Score: inf
ROOT
ATOM      1  C   UNL     1       6.985  -2.175  -2.296  1.00  0.00     0.012 C 
ENDROOT
BRANCH   1   2
ATOM      2  C   UNL     1       8.392  -2.612  -1.833  1.00  0.00     0.016 C 
ATOM      3  C   UNL     1       9.421  -2.410  -2.952  1.00  0.00     0.013 C 
BRANCH   2   4
ATOM      4  C   UNL     1       8.827  -1.886  -0.570  1.00  0.00    -0.045 A 
ATOM      5  C   UNL     1      10.060   0.216   2.996  1.00  0.00     0.044 C 
ATOM      6  C   UNL     1       9.660  -0.511   1.746  1.00  0.00    -0.051 A 
ATOM      7  C   UNL     1       9.749  -1.909   1.683  1.00  0.00     0.004 A 
ATOM      8  C   UNL     1       9.129   0.194   0.657  1.00  0.00     0.004 A 
ATOM      9  C   UNL     1       9.343  -2.591   0.533  1.00  0.00     0.004 A 
ATOM     10  C   UNL     1       8.723  -0.486  -0.494  1.00  0.00     0.004 A 
ENDBRANCH   2   4
ENDBRANCH   1   2
BRANCH   1  11
ATOM     11  C   UNL     1       7.030  -1.379  -3.609  1.00  0.00     0.028 C 
BRANCH  11  12
ATOM     12  C   UNL     1       6.560   0.039  -3.390  1.00  0.00    -0.028 C 
ATOM     13  C   UNL     1       7.338   1.133  -3.544  1.00  0.00    -0.080 C 
ATOM     14  C   UNL     1       8.769   1.038  -4.015  1.00  0.00     0.039 C 
ATOM     15  C   UNL     1       6.741   2.485  -3.248  1.00  0.00     0.039 C 
ENDBRANCH  11  12
ENDBRANCH   1  11
TORSDOF 4
ENDMDL
MODEL 6
REMARK VINA RESULT:    -3.673      2.213      5.796
REMARK INTER + INTRA:          -5.602
REMARK INTER:                  -4.030
REMARK INTRA:                  -1.573
REMARK UNBOUND:                -1.070
REMARK SMILES CC(C)=CCC[C@@H](C)c1ccc(C)cc1
REMARK SMILES IDX 6 1 7 2 8 3 9 4 13 5 12 6 11 7 14 8 10 9 15 10 5 11 4 12
REMARK SMILES IDX 2 13 1 14 3 15
REMARK H PARENT
REMARK Flexibility Score: inf
ROOT
ATOM      1  C   UNL     1      -5.030   5.808   0.261  1.00  0.00     0.012 C 
ENDROOT
BRANCH   1   2
ATOM      2  C   UNL     1      -5.118   4.462  -0.489  1.00  0.00     0.016 C 
ATOM      3  C   UNL     1      -6.572   4.135  -0.853  1.00  0.00     0.013 C 
BRANCH   2   4
ATOM      4  C   UNL     1      -4.240   4.443  -1.729  1.00  0.00    -0.045 A 
ATOM      5  C   UNL     1      -1.779   4.370  -5.278  1.00  0.00     0.044 C 
ATOM      6  C   UNL     1      -2.628   4.366  -4.042  1.00  0.00    -0.051 A 
ATOM      7  C   UNL     1      -2.065   4.681  -2.797  1.00  0.00     0.004 A 
ATOM      8  C   UNL     1      -4.004   4.114  -4.130  1.00  0.00     0.004 A 
ATOM      9  C   UNL     1      -2.861   4.714  -1.649  1.00  0.00     0.004 A 
ATOM     10  C   UNL     1      -4.803   4.145  -2.983  1.00  0.00     0.004 A 
ENDBRANCH   2   4
ENDBRANCH   1   2
BRANCH   1  11
ATOM     11  C   UNL     1      -5.512   6.984  -0.601  1.00  0.00     0.028 C 
BRANCH  11  12
ATOM     12  C   UNL     1      -4.389   7.961  -0.846  1.00  0.00    -0.028 C 
ATOM     13  C   UNL     1      -3.934   8.312  -2.070  1.00  0.00    -0.080 C 
ATOM     14  C   UNL     1      -4.563   7.784  -3.338  1.00  0.00     0.039 C 
ATOM     15  C   UNL     1      -2.775   9.270  -2.158  1.00  0.00     0.039 C 
ENDBRANCH  11  12
ENDBRANCH   1  11
TORSDOF 4
ENDMDL
MODEL 7
REMARK VINA RESULT:    -3.655      2.256      6.514
REMARK INTER + INTRA:          -5.579
REMARK INTER:                  -4.063
REMARK INTRA:                  -1.517
REMARK UNBOUND:                -1.070
REMARK SMILES CC(C)=CCC[C@@H](C)c1ccc(C)cc1
REMARK SMILES IDX 6 1 7 2 8 3 9 4 13 5 12 6 11 7 14 8 10 9 15 10 5 11 4 12
REMARK SMILES IDX 2 13 1 14 3 15
REMARK H PARENT
REMARK Flexibility Score: inf
ROOT
ATOM      1  C   UNL     1      -5.743   4.960   1.017  1.00  0.00     0.012 C 
ENDROOT
BRANCH   1   2
ATOM      2  C   UNL     1      -6.041   4.174  -0.277  1.00  0.00     0.016 C 
ATOM      3  C   UNL     1      -7.389   4.599  -0.874  1.00  0.00     0.013 C 
BRANCH   2   4
ATOM      4  C   UNL     1      -4.931   4.325  -1.304  1.00  0.00    -0.045 A 
ATOM      5  C   UNL     1      -1.749   4.773  -4.190  1.00  0.00     0.044 C 
ATOM      6  C   UNL     1      -2.861   4.647  -3.191  1.00  0.00    -0.051 A 
ATOM      7  C   UNL     1      -4.150   4.287  -3.610  1.00  0.00     0.004 A 
ATOM      8  C   UNL     1      -2.605   4.821  -1.824  1.00  0.00     0.004 A 
ATOM      9  C   UNL     1      -5.178   4.133  -2.676  1.00  0.00     0.004 A 
ATOM     10  C   UNL     1      -3.633   4.669  -0.889  1.00  0.00     0.004 A 
ENDBRANCH   2   4
ENDBRANCH   1   2
BRANCH   1  11
ATOM     11  C   UNL     1      -6.373   6.361   1.001  1.00  0.00     0.028 C 
BRANCH  11  12
ATOM     12  C   UNL     1      -5.306   7.426   0.930  1.00  0.00    -0.028 C 
ATOM     13  C   UNL     1      -4.957   8.083  -0.197  1.00  0.00    -0.080 C 
ATOM     14  C   UNL     1      -5.660   7.845  -1.513  1.00  0.00     0.039 C 
ATOM     15  C   UNL     1      -3.841   9.093  -0.124  1.00  0.00     0.039 C 
ENDBRANCH  11  12
ENDBRANCH   1  11
TORSDOF 4
ENDMDL
MODEL 8
REMARK VINA RESULT:    -3.642     13.357     15.496
REMARK INTER + INTRA:          -5.564
REMARK INTER:                  -4.889
REMARK INTRA:                  -0.675
REMARK UNBOUND:                -1.070
REMARK SMILES CC(C)=CCC[C@@H](C)c1ccc(C)cc1
REMARK SMILES IDX 6 1 7 2 8 3 9 4 13 5 12 6 11 7 14 8 10 9 15 10 5 11 4 12
REMARK SMILES IDX 2 13 1 14 3 15
REMARK H PARENT
REMARK Flexibility Score: inf
ROOT
ATOM      1  C   UNL     1       8.800   1.856   2.973  1.00  0.00     0.012 C 
ENDROOT
BRANCH   1   2
ATOM      2  C   UNL     1       9.929   0.871   2.599  1.00  0.00     0.016 C 
ATOM      3  C   UNL     1      10.438   0.129   3.840  1.00  0.00     0.013 C 
BRANCH   2   4
ATOM      4  C   UNL     1       9.492  -0.115   1.529  1.00  0.00    -0.045 A 
ATOM      5  C   UNL     1       8.274  -2.952  -1.493  1.00  0.00     0.044 C 
ATOM      6  C   UNL     1       8.724  -1.964  -0.458  1.00  0.00    -0.051 A 
ATOM      7  C   UNL     1       8.468  -0.596  -0.628  1.00  0.00     0.004 A 
ATOM      8  C   UNL     1       9.342  -2.407   0.720  1.00  0.00     0.004 A 
ATOM      9  C   UNL     1       8.854   0.322   0.352  1.00  0.00     0.004 A 
ATOM     10  C   UNL     1       9.729  -1.490   1.702  1.00  0.00     0.004 A 
ENDBRANCH   2   4
ENDBRANCH   1   2
BRANCH   1  11
ATOM     11  C   UNL     1       8.997   2.455   4.373  1.00  0.00     0.028 C 
BRANCH  11  12
ATOM     12  C   UNL     1       7.723   2.364   5.177  1.00  0.00    -0.028 C 
ATOM     13  C   UNL     1       7.602   1.693   6.344  1.00  0.00    -0.080 C 
ATOM     14  C   UNL     1       8.776   1.002   6.995  1.00  0.00     0.039 C 
ATOM     15  C   UNL     1       6.252   1.654   7.013  1.00  0.00     0.039 C 
ENDBRANCH  11  12
ENDBRANCH   1  11
TORSDOF 4
ENDMDL
MODEL 9
REMARK VINA RESULT:    -3.639     11.688     13.482
REMARK INTER + INTRA:          -5.560
REMARK INTER:                  -4.396
REMARK INTRA:                  -1.164
REMARK UNBOUND:                -1.070
REMARK SMILES CC(C)=CCC[C@@H](C)c1ccc(C)cc1
REMARK SMILES IDX 6 1 7 2 8 3 9 4 13 5 12 6 11 7 14 8 10 9 15 10 5 11 4 12
REMARK SMILES IDX 2 13 1 14 3 15
REMARK H PARENT
REMARK Flexibility Score: inf
ROOT
ATOM      1  C   UNL     1       6.607  -0.144  -2.551  1.00  0.00     0.012 C 
ENDROOT
BRANCH   1   2
ATOM      2  C   UNL     1       7.524  -1.378  -2.410  1.00  0.00     0.016 C 
ATOM      3  C   UNL     1       8.513  -1.459  -3.579  1.00  0.00     0.013 C 
BRANCH   2   4
ATOM      4  C   UNL     1       8.264  -1.388  -1.083  1.00  0.00    -0.045 A 
ATOM      5  C   UNL     1      10.363  -1.462   2.692  1.00  0.00     0.044 C 
ATOM      6  C   UNL     1       9.607  -1.437   1.396  1.00  0.00    -0.051 A 
ATOM      7  C   UNL     1       9.244  -0.215   0.813  1.00  0.00     0.004 A 
ATOM      8  C   UNL     1       9.319  -2.633   0.724  1.00  0.00     0.004 A 
ATOM      9  C   UNL     1       8.573  -0.190  -0.413  1.00  0.00     0.004 A 
ATOM     10  C   UNL     1       8.647  -2.610  -0.502  1.00  0.00     0.004 A 
ENDBRANCH   2   4
ENDBRANCH   1   2
BRANCH   1  11
ATOM     11  C   UNL     1       7.083   0.806  -3.661  1.00  0.00     0.028 C 
BRANCH  11  12
ATOM     12  C   UNL     1       7.352   2.183  -3.105  1.00  0.00    -0.028 C 
ATOM     13  C   UNL     1       8.583   2.676  -2.847  1.00  0.00    -0.080 C 
ATOM     14  C   UNL     1       9.838   1.892  -3.151  1.00  0.00     0.039 C 
ATOM     15  C   UNL     1       8.695   4.056  -2.252  1.00  0.00     0.039 C 
ENDBRANCH  11  12
ENDBRANCH   1  11
TORSDOF 4
ENDMDL
