MODEL 1
REMARK VINA RESULT:    -6.108      0.000      0.000
REMARK INTER + INTRA:          -7.838
REMARK INTER:                  -7.536
REMARK INTRA:                  -0.302
REMARK UNBOUND:                -0.302
REMARK SMILES O=c1c(O)c(-c2cc(O)c(O)c(O)c2)oc2cc(O)cc(O)c12
REMARK SMILES IDX 5 1 3 2 2 3 1 4 23 5 21 6 20 7 18 8 17 9 16 10 15 11 6 12
REMARK SMILES IDX 7 13 8 14 14 15 10 16 12 17 9 18 11 20 13 22 4 24 22 26
REMARK SMILES IDX 19 28
REMARK H PARENT 9 19 11 21 13 23 4 25 22 27 19 29
REMARK Flexibility Score: inf
ROOT
ATOM      1  C   UNL     1      26.558  24.890 -12.661  1.00  0.00     0.180 A 
ATOM      2  C   UNL     1      26.365  25.341 -13.979  1.00  0.00     0.208 A 
ATOM      3  C   UNL     1      26.294  26.722 -14.224  1.00  0.00     0.238 A 
ATOM      4  O   UNL     1      26.176  27.119 -15.411  1.00  0.00    -0.285 OA
ATOM      5  C   UNL     1      26.399  27.634 -13.146  1.00  0.00     0.111 A 
ATOM      6  C   UNL     1      26.301  29.052 -13.273  1.00  0.00     0.134 A 
ATOM      7  C   UNL     1      26.551  29.864 -12.160  1.00  0.00     0.093 A 
ATOM      8  C   UNL     1      26.832  29.306 -10.910  1.00  0.00     0.123 A 
ATOM      9  C   UNL     1      26.871  27.922 -10.763  1.00  0.00     0.094 A 
ATOM     10  C   UNL     1      26.662  27.087 -11.863  1.00  0.00     0.146 A 
ATOM     11  O   UNL     1      26.719  25.773 -11.682  1.00  0.00    -0.452 OA
ENDROOT
BRANCH   1  12
ATOM     12  C   UNL     1      26.618  23.451 -12.322  1.00  0.00     0.029 A 
ATOM     13  C   UNL     1      27.841  22.883 -11.935  1.00  0.00     0.062 A 
ATOM     14  C   UNL     1      27.923  21.531 -11.588  1.00  0.00     0.162 A 
ATOM     15  C   UNL     1      25.463  22.650 -12.324  1.00  0.00     0.062 A 
ATOM     16  C   UNL     1      26.770  20.728 -11.612  1.00  0.00     0.200 A 
ATOM     17  C   UNL     1      25.536  21.294 -11.978  1.00  0.00     0.162 A 
BRANCH  14  18
ATOM     18  O   UNL     1      29.160  21.001 -11.222  1.00  0.00    -0.504 OA
ATOM     19  H   UNL     1      29.593  20.240 -11.731  1.00  0.00     0.293 HD
ENDBRANCH  14  18
BRANCH  16  20
ATOM     20  O   UNL     1      26.861  19.379 -11.269  1.00  0.00    -0.502 OA
ATOM     21  H   UNL     1      27.476  19.049 -10.535  1.00  0.00     0.293 HD
ENDBRANCH  16  20
BRANCH  17  22
ATOM     22  O   UNL     1      24.384  20.508 -11.989  1.00  0.00    -0.504 OA
ATOM     23  H   UNL     1      23.999  20.117 -11.137  1.00  0.00     0.293 HD
ENDBRANCH  17  22
ENDBRANCH   1  12
BRANCH   2  24
ATOM     24  O   UNL     1      26.285  24.423 -15.031  1.00  0.00    -0.502 OA
ATOM     25  H   UNL     1      25.726  23.580 -14.976  1.00  0.00     0.293 HD
ENDBRANCH   2  24
BRANCH   6  26
ATOM     26  O   UNL     1      25.936  29.706 -14.453  1.00  0.00    -0.507 OA
ATOM     27  H   UNL     1      25.028  29.647 -14.887  1.00  0.00     0.293 HD
ENDBRANCH   6  26
BRANCH   8  28
ATOM     28  O   UNL     1      27.064  30.121  -9.804  1.00  0.00    -0.508 OA
ATOM     29  H   UNL     1      26.935  31.125  -9.849  1.00  0.00     0.293 HD
ENDBRANCH   8  28
TORSDOF 7
ENDMDL
MODEL 2
REMARK VINA RESULT:    -6.034      6.400      8.138
REMARK INTER + INTRA:          -7.747
REMARK INTER:                  -7.390
REMARK INTRA:                  -0.357
REMARK UNBOUND:                -0.302
REMARK SMILES O=c1c(O)c(-c2cc(O)c(O)c(O)c2)oc2cc(O)cc(O)c12
REMARK SMILES IDX 5 1 3 2 2 3 1 4 23 5 21 6 20 7 18 8 17 9 16 10 15 11 6 12
REMARK SMILES IDX 7 13 8 14 14 15 10 16 12 17 9 18 11 20 13 22 4 24 22 26
REMARK SMILES IDX 19 28
REMARK H PARENT 9 19 11 21 13 23 4 25 22 27 19 29
REMARK Flexibility Score: inf
ROOT
ATOM      1  C   UNL     1      24.233  30.959 -11.584  1.00  0.00     0.180 A 
ATOM      2  C   UNL     1      24.043  30.823 -12.971  1.00  0.00     0.208 A 
ATOM      3  C   UNL     1      25.160  30.615 -13.795  1.00  0.00     0.238 A 
ATOM      4  O   UNL     1      24.977  30.440 -15.027  1.00  0.00    -0.285 OA
ATOM      5  C   UNL     1      26.455  30.563 -13.226  1.00  0.00     0.111 A 
ATOM      6  C   UNL     1      27.661  30.397 -13.971  1.00  0.00     0.134 A 
ATOM      7  C   UNL     1      28.874  30.227 -13.292  1.00  0.00     0.093 A 
ATOM      8  C   UNL     1      28.933  30.283 -11.896  1.00  0.00     0.123 A 
ATOM      9  C   UNL     1      27.770  30.504 -11.164  1.00  0.00     0.094 A 
ATOM     10  C   UNL     1      26.540  30.640 -11.811  1.00  0.00     0.146 A 
ATOM     11  O   UNL     1      25.453  30.839 -11.074  1.00  0.00    -0.452 OA
ENDROOT
BRANCH   1  12
ATOM     12  C   UNL     1      23.108  31.205 -10.654  1.00  0.00     0.029 A 
ATOM     13  C   UNL     1      22.681  32.520 -10.420  1.00  0.00     0.062 A 
ATOM     14  C   UNL     1      21.607  32.781  -9.562  1.00  0.00     0.162 A 
ATOM     15  C   UNL     1      22.420  30.143 -10.042  1.00  0.00     0.062 A 
ATOM     16  C   UNL     1      20.935  31.717  -8.936  1.00  0.00     0.200 A 
ATOM     17  C   UNL     1      21.342  30.395  -9.182  1.00  0.00     0.162 A 
BRANCH  14  18
ATOM     18  O   UNL     1      21.222  34.103  -9.344  1.00  0.00    -0.504 OA
ATOM     19  H   UNL     1      20.276  34.424  -9.510  1.00  0.00     0.293 HD
ENDBRANCH  14  18
BRANCH  16  20
ATOM     20  O   UNL     1      19.867  31.986  -8.079  1.00  0.00    -0.502 OA
ATOM     21  H   UNL     1      19.159  32.677  -8.298  1.00  0.00     0.293 HD
ENDBRANCH  16  20
BRANCH  17  22
ATOM     22  O   UNL     1      20.670  29.334  -8.576  1.00  0.00    -0.504 OA
ATOM     23  H   UNL     1      20.951  28.974  -7.672  1.00  0.00     0.293 HD
ENDBRANCH  17  22
ENDBRANCH   1  12
BRANCH   2  24
ATOM     24  O   UNL     1      22.753  30.856 -13.509  1.00  0.00    -0.502 OA
ATOM     25  H   UNL     1      22.478  30.285 -14.299  1.00  0.00     0.293 HD
ENDBRANCH   2  24
BRANCH   6  26
ATOM     26  O   UNL     1      27.725  30.419 -15.367  1.00  0.00    -0.507 OA
ATOM     27  H   UNL     1      27.157  31.005 -15.959  1.00  0.00     0.293 HD
ENDBRANCH   6  26
BRANCH   8  28
ATOM     28  O   UNL     1      30.147  30.130 -11.230  1.00  0.00    -0.508 OA
ATOM     29  H   UNL     1      30.219  30.246 -10.226  1.00  0.00     0.293 HD
ENDBRANCH   8  28
TORSDOF 7
ENDMDL
MODEL 3
REMARK VINA RESULT:    -5.913      2.680      4.550
REMARK INTER + INTRA:          -7.598
REMARK INTER:                  -7.289
REMARK INTRA:                  -0.309
REMARK UNBOUND:                -0.302
REMARK SMILES O=c1c(O)c(-c2cc(O)c(O)c(O)c2)oc2cc(O)cc(O)c12
REMARK SMILES IDX 5 1 3 2 2 3 1 4 23 5 21 6 20 7 18 8 17 9 16 10 15 11 6 12
REMARK SMILES IDX 7 13 8 14 14 15 10 16 12 17 9 18 11 20 13 22 4 24 22 26
REMARK SMILES IDX 19 28
REMARK H PARENT 9 19 11 21 13 23 4 25 22 27 19 29
REMARK Flexibility Score: inf
ROOT
ATOM      1  C   UNL     1      25.684  27.956 -13.741  1.00  0.00     0.180 A 
ATOM      2  C   UNL     1      26.627  28.999 -13.709  1.00  0.00     0.208 A 
ATOM      3  C   UNL     1      26.235  30.285 -14.114  1.00  0.00     0.238 A 
ATOM      4  O   UNL     1      27.068  31.224 -14.031  1.00  0.00    -0.285 OA
ATOM      5  C   UNL     1      24.911  30.509 -14.563  1.00  0.00     0.111 A 
ATOM      6  C   UNL     1      24.417  31.762 -15.035  1.00  0.00     0.134 A 
ATOM      7  C   UNL     1      23.055  31.900 -15.330  1.00  0.00     0.093 A 
ATOM      8  C   UNL     1      22.183  30.812 -15.233  1.00  0.00     0.123 A 
ATOM      9  C   UNL     1      22.668  29.571 -14.831  1.00  0.00     0.094 A 
ATOM     10  C   UNL     1      24.014  29.411 -14.494  1.00  0.00     0.146 A 
ATOM     11  O   UNL     1      24.432  28.213 -14.104  1.00  0.00    -0.452 OA
ENDROOT
BRANCH   1  12
ATOM     12  C   UNL     1      26.029  26.570 -13.353  1.00  0.00     0.029 A 
ATOM     13  C   UNL     1      26.284  25.617 -14.350  1.00  0.00     0.062 A 
ATOM     14  C   UNL     1      26.632  24.305 -14.013  1.00  0.00     0.162 A 
ATOM     15  C   UNL     1      26.160  26.200 -12.004  1.00  0.00     0.062 A 
ATOM     16  C   UNL     1      26.743  23.933 -12.662  1.00  0.00     0.200 A 
ATOM     17  C   UNL     1      26.510  24.888 -11.656  1.00  0.00     0.162 A 
BRANCH  14  18
ATOM     18  O   UNL     1      26.865  23.384 -15.034  1.00  0.00    -0.504 OA
ATOM     19  H   UNL     1      26.143  23.113 -15.690  1.00  0.00     0.293 HD
ENDBRANCH  14  18
BRANCH  16  20
ATOM     20  O   UNL     1      27.086  22.622 -12.333  1.00  0.00    -0.502 OA
ATOM     21  H   UNL     1      27.365  22.355 -11.396  1.00  0.00     0.293 HD
ENDBRANCH  16  20
BRANCH  17  22
ATOM     22  O   UNL     1      26.633  24.530 -10.314  1.00  0.00    -0.504 OA
ATOM     23  H   UNL     1      26.017  23.848  -9.888  1.00  0.00     0.293 HD
ENDBRANCH  17  22
ENDBRANCH   1  12
BRANCH   2  24
ATOM     24  O   UNL     1      27.922  28.760 -13.241  1.00  0.00    -0.502 OA
ATOM     25  H   UNL     1      28.669  28.441 -13.846  1.00  0.00     0.293 HD
ENDBRANCH   2  24
BRANCH   6  26
ATOM     26  O   UNL     1      25.220  32.884 -15.256  1.00  0.00    -0.507 OA
ATOM     27  H   UNL     1      25.031  33.807 -14.896  1.00  0.00     0.293 HD
ENDBRANCH   6  26
BRANCH   8  28
ATOM     28  O   UNL     1      20.832  30.955 -15.545  1.00  0.00    -0.508 OA
ATOM     29  H   UNL     1      20.116  30.916 -14.829  1.00  0.00     0.293 HD
ENDBRANCH   8  28
TORSDOF 7
ENDMDL
MODEL 4
REMARK VINA RESULT:    -5.779      1.758      6.866
REMARK INTER + INTRA:          -7.433
REMARK INTER:                  -7.116
REMARK INTRA:                  -0.317
REMARK UNBOUND:                -0.302
REMARK SMILES O=c1c(O)c(-c2cc(O)c(O)c(O)c2)oc2cc(O)cc(O)c12
REMARK SMILES IDX 5 1 3 2 2 3 1 4 23 5 21 6 20 7 18 8 17 9 16 10 15 11 6 12
REMARK SMILES IDX 7 13 8 14 14 15 10 16 12 17 9 18 11 20 13 22 4 24 22 26
REMARK SMILES IDX 19 28
REMARK H PARENT 9 19 11 21 13 23 4 25 22 27 19 29
REMARK Flexibility Score: inf
ROOT
ATOM      1  C   UNL     1      26.476  26.641 -12.368  1.00  0.00     0.180 A 
ATOM      2  C   UNL     1      25.349  26.668 -13.209  1.00  0.00     0.208 A 
ATOM      3  C   UNL     1      24.815  25.455 -13.671  1.00  0.00     0.238 A 
ATOM      4  O   UNL     1      23.775  25.484 -14.378  1.00  0.00    -0.285 OA
ATOM      5  C   UNL     1      25.423  24.231 -13.302  1.00  0.00     0.111 A 
ATOM      6  C   UNL     1      24.991  22.945 -13.745  1.00  0.00     0.134 A 
ATOM      7  C   UNL     1      25.586  21.795 -13.212  1.00  0.00     0.093 A 
ATOM      8  C   UNL     1      26.642  21.886 -12.301  1.00  0.00     0.123 A 
ATOM      9  C   UNL     1      27.110  23.137 -11.909  1.00  0.00     0.094 A 
ATOM     10  C   UNL     1      26.513  24.302 -12.394  1.00  0.00     0.146 A 
ATOM     11  O   UNL     1      26.983  25.474 -11.986  1.00  0.00    -0.452 OA
ENDROOT
BRANCH   1  12
ATOM     12  C   UNL     1      27.110  27.879 -11.860  1.00  0.00     0.029 A 
ATOM     13  C   UNL     1      26.957  28.230 -10.511  1.00  0.00     0.062 A 
ATOM     14  C   UNL     1      27.562  29.382  -9.999  1.00  0.00     0.162 A 
ATOM     15  C   UNL     1      27.911  28.682 -12.689  1.00  0.00     0.062 A 
ATOM     16  C   UNL     1      28.345  30.195 -10.836  1.00  0.00     0.200 A 
ATOM     17  C   UNL     1      28.522  29.838 -12.185  1.00  0.00     0.162 A 
BRANCH  14  18
ATOM     18  O   UNL     1      27.374  29.704  -8.655  1.00  0.00    -0.504 OA
ATOM     19  H   UNL     1      26.618  29.313  -8.107  1.00  0.00     0.293 HD
ENDBRANCH  14  18
BRANCH  16  20
ATOM     20  O   UNL     1      28.943  31.344 -10.320  1.00  0.00    -0.502 OA
ATOM     21  H   UNL     1      28.955  32.222 -10.827  1.00  0.00     0.293 HD
ENDBRANCH  16  20
BRANCH  17  22
ATOM     22  O   UNL     1      29.311  30.631 -13.018  1.00  0.00    -0.504 OA
ATOM     23  H   UNL     1      30.310  30.487 -13.098  1.00  0.00     0.293 HD
ENDBRANCH  17  22
ENDBRANCH   1  12
BRANCH   2  24
ATOM     24  O   UNL     1      24.751  27.886 -13.543  1.00  0.00    -0.502 OA
ATOM     25  H   UNL     1      24.892  28.334 -14.441  1.00  0.00     0.293 HD
ENDBRANCH   2  24
BRANCH   6  26
ATOM     26  O   UNL     1      24.008  22.745 -14.719  1.00  0.00    -0.507 OA
ATOM     27  H   UNL     1      24.089  23.028 -15.684  1.00  0.00     0.293 HD
ENDBRANCH   6  26
BRANCH   8  28
ATOM     28  O   UNL     1      27.239  20.736 -11.788  1.00  0.00    -0.508 OA
ATOM     29  H   UNL     1      28.016  20.288 -12.259  1.00  0.00     0.293 HD
ENDBRANCH   8  28
TORSDOF 7
ENDMDL
MODEL 5
REMARK VINA RESULT:    -5.630     14.186     16.574
REMARK INTER + INTRA:          -7.248
REMARK INTER:                  -6.895
REMARK INTRA:                  -0.353
REMARK UNBOUND:                -0.302
REMARK SMILES O=c1c(O)c(-c2cc(O)c(O)c(O)c2)oc2cc(O)cc(O)c12
REMARK SMILES IDX 5 1 3 2 2 3 1 4 23 5 21 6 20 7 18 8 17 9 16 10 15 11 6 12
REMARK SMILES IDX 7 13 8 14 14 15 10 16 12 17 9 18 11 20 13 22 4 24 22 26
REMARK SMILES IDX 19 28
REMARK H PARENT 9 19 11 21 13 23 4 25 22 27 19 29
REMARK Flexibility Score: inf
ROOT
ATOM      1  C   UNL     1      21.257  19.357   0.981  1.00  0.00     0.180 A 
ATOM      2  C   UNL     1      22.111  19.763   2.022  1.00  0.00     0.208 A 
ATOM      3  C   UNL     1      23.450  19.340   2.009  1.00  0.00     0.238 A 
ATOM      4  O   UNL     1      24.221  19.751   2.914  1.00  0.00    -0.285 OA
ATOM      5  C   UNL     1      23.914  18.503   0.966  1.00  0.00     0.111 A 
ATOM      6  C   UNL     1      25.240  17.982   0.875  1.00  0.00     0.134 A 
ATOM      7  C   UNL     1      25.625  17.273  -0.269  1.00  0.00     0.093 A 
ATOM      8  C   UNL     1      24.714  17.009  -1.295  1.00  0.00     0.123 A 
ATOM      9  C   UNL     1      23.402  17.462  -1.188  1.00  0.00     0.094 A 
ATOM     10  C   UNL     1      22.997  18.204  -0.076  1.00  0.00     0.146 A 
ATOM     11  O   UNL     1      21.740  18.627  -0.018  1.00  0.00    -0.452 OA
ENDROOT
BRANCH   1  12
ATOM     12  C   UNL     1      19.828  19.742   0.938  1.00  0.00     0.029 A 
ATOM     13  C   UNL     1      19.457  20.956   0.342  1.00  0.00     0.062 A 
ATOM     14  C   UNL     1      18.113  21.335   0.270  1.00  0.00     0.162 A 
ATOM     15  C   UNL     1      18.827  18.889   1.433  1.00  0.00     0.062 A 
ATOM     16  C   UNL     1      17.116  20.489   0.785  1.00  0.00     0.200 A 
ATOM     17  C   UNL     1      17.477  19.260   1.364  1.00  0.00     0.162 A 
BRANCH  14  18
ATOM     18  O   UNL     1      17.786  22.557  -0.318  1.00  0.00    -0.504 OA
ATOM     19  H   UNL     1      17.122  23.196   0.100  1.00  0.00     0.293 HD
ENDBRANCH  14  18
BRANCH  16  20
ATOM     20  O   UNL     1      15.778  20.876   0.712  1.00  0.00    -0.502 OA
ATOM     21  H   UNL     1      15.026  20.290   1.057  1.00  0.00     0.293 HD
ENDBRANCH  16  20
BRANCH  17  22
ATOM     22  O   UNL     1      16.492  18.408   1.863  1.00  0.00    -0.504 OA
ATOM     23  H   UNL     1      16.195  17.584   1.354  1.00  0.00     0.293 HD
ENDBRANCH  17  22
ENDBRANCH   1  12
BRANCH   2  24
ATOM     24  O   UNL     1      21.637  20.607   3.030  1.00  0.00    -0.502 OA
ATOM     25  H   UNL     1      21.801  20.426   4.013  1.00  0.00     0.293 HD
ENDBRANCH   2  24
BRANCH   6  26
ATOM     26  O   UNL     1      26.199  18.109   1.883  1.00  0.00    -0.507 OA
ATOM     27  H   UNL     1      25.992  18.182   2.868  1.00  0.00     0.293 HD
ENDBRANCH   6  26
BRANCH   8  28
ATOM     28  O   UNL     1      25.102  16.288  -2.423  1.00  0.00    -0.508 OA
ATOM     29  H   UNL     1      24.522  16.249  -3.252  1.00  0.00     0.293 HD
ENDBRANCH   8  28
TORSDOF 7
ENDMDL
MODEL 6
REMARK VINA RESULT:    -5.611      2.425      6.761
REMARK INTER + INTRA:          -7.225
REMARK INTER:                  -6.871
REMARK INTRA:                  -0.354
REMARK UNBOUND:                -0.302
REMARK SMILES O=c1c(O)c(-c2cc(O)c(O)c(O)c2)oc2cc(O)cc(O)c12
REMARK SMILES IDX 5 1 3 2 2 3 1 4 23 5 21 6 20 7 18 8 17 9 16 10 15 11 6 12
REMARK SMILES IDX 7 13 8 14 14 15 10 16 12 17 9 18 11 20 13 22 4 24 22 26
REMARK SMILES IDX 19 28
REMARK H PARENT 9 19 11 21 13 23 4 25 22 27 19 29
REMARK Flexibility Score: inf
ROOT
ATOM      1  C   UNL     1      26.543  26.533 -12.281  1.00  0.00     0.180 A 
ATOM      2  C   UNL     1      27.118  25.386 -12.854  1.00  0.00     0.208 A 
ATOM      3  C   UNL     1      27.063  24.171 -12.152  1.00  0.00     0.238 A 
ATOM      4  O   UNL     1      27.530  23.138 -12.695  1.00  0.00    -0.285 OA
ATOM      5  C   UNL     1      26.448  24.123 -10.877  1.00  0.00     0.111 A 
ATOM      6  C   UNL     1      26.370  22.956 -10.059  1.00  0.00     0.134 A 
ATOM      7  C   UNL     1      25.624  22.991  -8.875  1.00  0.00     0.093 A 
ATOM      8  C   UNL     1      25.008  24.170  -8.447  1.00  0.00     0.123 A 
ATOM      9  C   UNL     1      25.128  25.329  -9.208  1.00  0.00     0.094 A 
ATOM     10  C   UNL     1      25.835  25.316 -10.413  1.00  0.00     0.146 A 
ATOM     11  O   UNL     1      25.916  26.440 -11.113  1.00  0.00    -0.452 OA
ENDROOT
BRANCH   1  12
ATOM     12  C   UNL     1      26.583  27.854 -12.949  1.00  0.00     0.029 A 
ATOM     13  C   UNL     1      27.650  28.726 -12.688  1.00  0.00     0.062 A 
ATOM     14  C   UNL     1      27.725  29.971 -13.321  1.00  0.00     0.162 A 
ATOM     15  C   UNL     1      25.604  28.230 -13.883  1.00  0.00     0.062 A 
ATOM     16  C   UNL     1      26.732  30.354 -14.240  1.00  0.00     0.200 A 
ATOM     17  C   UNL     1      25.671  29.476 -14.523  1.00  0.00     0.162 A 
BRANCH  14  18
ATOM     18  O   UNL     1      28.794  30.817 -13.025  1.00  0.00    -0.504 OA
ATOM     19  H   UNL     1      28.691  31.823 -12.982  1.00  0.00     0.293 HD
ENDBRANCH  14  18
BRANCH  16  20
ATOM     20  O   UNL     1      26.812  31.598 -14.864  1.00  0.00    -0.502 OA
ATOM     21  H   UNL     1      26.839  31.697 -15.872  1.00  0.00     0.293 HD
ENDBRANCH  16  20
BRANCH  17  22
ATOM     22  O   UNL     1      24.691  29.841 -15.445  1.00  0.00    -0.504 OA
ATOM     23  H   UNL     1      23.760  29.443 -15.416  1.00  0.00     0.293 HD
ENDBRANCH  17  22
ENDBRANCH   1  12
BRANCH   2  24
ATOM     24  O   UNL     1      27.700  25.452 -14.123  1.00  0.00    -0.502 OA
ATOM     25  H   UNL     1      28.513  24.903 -14.379  1.00  0.00     0.293 HD
ENDBRANCH   2  24
BRANCH   6  26
ATOM     26  O   UNL     1      27.025  21.755 -10.349  1.00  0.00    -0.507 OA
ATOM     27  H   UNL     1      27.847  21.418  -9.871  1.00  0.00     0.293 HD
ENDBRANCH   6  26
BRANCH   8  28
ATOM     28  O   UNL     1      24.281  24.200  -7.258  1.00  0.00    -0.508 OA
ATOM     29  H   UNL     1      23.345  24.584  -7.219  1.00  0.00     0.293 HD
ENDBRANCH   8  28
TORSDOF 7
ENDMDL
MODEL 7
REMARK VINA RESULT:    -5.601      2.599      4.148
REMARK INTER + INTRA:          -7.213
REMARK INTER:                  -6.921
REMARK INTRA:                  -0.292
REMARK UNBOUND:                -0.302
REMARK SMILES O=c1c(O)c(-c2cc(O)c(O)c(O)c2)oc2cc(O)cc(O)c12
REMARK SMILES IDX 5 1 3 2 2 3 1 4 23 5 21 6 20 7 18 8 17 9 16 10 15 11 6 12
REMARK SMILES IDX 7 13 8 14 14 15 10 16 12 17 9 18 11 20 13 22 4 24 22 26
REMARK SMILES IDX 19 28
REMARK H PARENT 9 19 11 21 13 23 4 25 22 27 19 29
REMARK Flexibility Score: inf
ROOT
ATOM      1  C   UNL     1      25.593  28.027 -13.547  1.00  0.00     0.180 A 
ATOM      2  C   UNL     1      26.083  28.998 -14.437  1.00  0.00     0.208 A 
ATOM      3  C   UNL     1      25.779  30.349 -14.207  1.00  0.00     0.238 A 
ATOM      4  O   UNL     1      26.266  31.218 -14.976  1.00  0.00    -0.285 OA
ATOM      5  C   UNL     1      24.975  30.711 -13.099  1.00  0.00     0.111 A 
ATOM      6  C   UNL     1      24.571  32.045 -12.793  1.00  0.00     0.134 A 
ATOM      7  C   UNL     1      23.885  32.302 -11.599  1.00  0.00     0.093 A 
ATOM      8  C   UNL     1      23.532  31.263 -10.733  1.00  0.00     0.123 A 
ATOM      9  C   UNL     1      23.870  29.952 -11.053  1.00  0.00     0.094 A 
ATOM     10  C   UNL     1      24.586  29.668 -12.218  1.00  0.00     0.146 A 
ATOM     11  O   UNL     1      24.897  28.404 -12.480  1.00  0.00    -0.452 OA
ENDROOT
BRANCH   1  12
ATOM     12  C   UNL     1      25.851  26.581 -13.737  1.00  0.00     0.029 A 
ATOM     13  C   UNL     1      25.171  25.887 -14.749  1.00  0.00     0.062 A 
ATOM     14  C   UNL     1      25.410  24.526 -14.965  1.00  0.00     0.162 A 
ATOM     15  C   UNL     1      26.804  25.900 -12.962  1.00  0.00     0.062 A 
ATOM     16  C   UNL     1      26.349  23.843 -14.173  1.00  0.00     0.200 A 
ATOM     17  C   UNL     1      27.051  24.537 -13.172  1.00  0.00     0.162 A 
BRANCH  14  18
ATOM     18  O   UNL     1      24.704  23.867 -15.971  1.00  0.00    -0.504 OA
ATOM     19  H   UNL     1      25.148  23.554 -16.825  1.00  0.00     0.293 HD
ENDBRANCH  14  18
BRANCH  16  20
ATOM     20  O   UNL     1      26.579  22.485 -14.392  1.00  0.00    -0.502 OA
ATOM     21  H   UNL     1      26.501  22.065 -15.312  1.00  0.00     0.293 HD
ENDBRANCH  16  20
BRANCH  17  22
ATOM     22  O   UNL     1      27.996  23.870 -12.393  1.00  0.00    -0.504 OA
ATOM     23  H   UNL     1      27.721  23.230 -11.656  1.00  0.00     0.293 HD
ENDBRANCH  17  22
ENDBRANCH   1  12
BRANCH   2  24
ATOM     24  O   UNL     1      26.893  28.621 -15.512  1.00  0.00    -0.502 OA
ATOM     25  H   UNL     1      27.680  27.990 -15.405  1.00  0.00     0.293 HD
ENDBRANCH   2  24
BRANCH   6  26
ATOM     26  O   UNL     1      24.792  33.140 -13.633  1.00  0.00    -0.507 OA
ATOM     27  H   UNL     1      24.295  33.314 -14.493  1.00  0.00     0.293 HD
ENDBRANCH   6  26
BRANCH   8  28
ATOM     28  O   UNL     1      22.835  31.527  -9.555  1.00  0.00    -0.508 OA
ATOM     29  H   UNL     1      22.243  30.828  -9.123  1.00  0.00     0.293 HD
ENDBRANCH   8  28
TORSDOF 7
ENDMDL
MODEL 8
REMARK VINA RESULT:    -5.590      2.596      3.869
REMARK INTER + INTRA:          -7.199
REMARK INTER:                  -6.874
REMARK INTRA:                  -0.325
REMARK UNBOUND:                -0.302
REMARK SMILES O=c1c(O)c(-c2cc(O)c(O)c(O)c2)oc2cc(O)cc(O)c12
REMARK SMILES IDX 5 1 3 2 2 3 1 4 23 5 21 6 20 7 18 8 17 9 16 10 15 11 6 12
REMARK SMILES IDX 7 13 8 14 14 15 10 16 12 17 9 18 11 20 13 22 4 24 22 26
REMARK SMILES IDX 19 28
REMARK H PARENT 9 19 11 21 13 23 4 25 22 27 19 29
REMARK Flexibility Score: inf
ROOT
ATOM      1  C   UNL     1      25.555  28.047 -13.587  1.00  0.00     0.180 A 
ATOM      2  C   UNL     1      26.051  29.034 -14.456  1.00  0.00     0.208 A 
ATOM      3  C   UNL     1      25.749  30.381 -14.202  1.00  0.00     0.238 A 
ATOM      4  O   UNL     1      26.242  31.262 -14.953  1.00  0.00    -0.285 OA
ATOM      5  C   UNL     1      24.940  30.724 -13.093  1.00  0.00     0.111 A 
ATOM      6  C   UNL     1      24.538  32.053 -12.763  1.00  0.00     0.134 A 
ATOM      7  C   UNL     1      23.847  32.290 -11.569  1.00  0.00     0.093 A 
ATOM      8  C   UNL     1      23.486  31.236 -10.724  1.00  0.00     0.123 A 
ATOM      9  C   UNL     1      23.823  29.930 -11.067  1.00  0.00     0.094 A 
ATOM     10  C   UNL     1      24.544  29.666 -12.233  1.00  0.00     0.146 A 
ATOM     11  O   UNL     1      24.854  28.407 -12.517  1.00  0.00    -0.452 OA
ENDROOT
BRANCH   1  12
ATOM     12  C   UNL     1      25.810  26.605 -13.803  1.00  0.00     0.029 A 
ATOM     13  C   UNL     1      26.727  25.935 -12.979  1.00  0.00     0.062 A 
ATOM     14  C   UNL     1      26.972  24.568 -13.147  1.00  0.00     0.162 A 
ATOM     15  C   UNL     1      25.111  25.878 -14.781  1.00  0.00     0.062 A 
ATOM     16  C   UNL     1      26.286  23.849 -14.140  1.00  0.00     0.200 A 
ATOM     17  C   UNL     1      25.349  24.508 -14.956  1.00  0.00     0.162 A 
BRANCH  14  18
ATOM     18  O   UNL     1      27.901  23.942 -12.317  1.00  0.00    -0.504 OA
ATOM     19  H   UNL     1      28.710  24.427 -11.949  1.00  0.00     0.293 HD
ENDBRANCH  14  18
BRANCH  16  20
ATOM     20  O   UNL     1      26.539  22.487 -14.304  1.00  0.00    -0.502 OA
ATOM     21  H   UNL     1      26.607  22.056 -15.219  1.00  0.00     0.293 HD
ENDBRANCH  16  20
BRANCH  17  22
ATOM     22  O   UNL     1      24.653  23.797 -15.933  1.00  0.00    -0.504 OA
ATOM     23  H   UNL     1      25.007  22.925 -16.309  1.00  0.00     0.293 HD
ENDBRANCH  17  22
ENDBRANCH   1  12
BRANCH   2  24
ATOM     24  O   UNL     1      26.867  28.674 -15.534  1.00  0.00    -0.502 OA
ATOM     25  H   UNL     1      27.654  28.045 -15.433  1.00  0.00     0.293 HD
ENDBRANCH   2  24
BRANCH   6  26
ATOM     26  O   UNL     1      24.766  33.163 -13.582  1.00  0.00    -0.507 OA
ATOM     27  H   UNL     1      24.837  33.131 -14.588  1.00  0.00     0.293 HD
ENDBRANCH   6  26
BRANCH   8  28
ATOM     28  O   UNL     1      22.784  31.479  -9.545  1.00  0.00    -0.508 OA
ATOM     29  H   UNL     1      23.099  31.111  -8.656  1.00  0.00     0.293 HD
ENDBRANCH   8  28
TORSDOF 7
ENDMDL
MODEL 9
REMARK VINA RESULT:    -5.582      2.384      6.985
REMARK INTER + INTRA:          -7.190
REMARK INTER:                  -6.828
REMARK INTRA:                  -0.362
REMARK UNBOUND:                -0.302
REMARK SMILES O=c1c(O)c(-c2cc(O)c(O)c(O)c2)oc2cc(O)cc(O)c12
REMARK SMILES IDX 5 1 3 2 2 3 1 4 23 5 21 6 20 7 18 8 17 9 16 10 15 11 6 12
REMARK SMILES IDX 7 13 8 14 14 15 10 16 12 17 9 18 11 20 13 22 4 24 22 26
REMARK SMILES IDX 19 28
REMARK H PARENT 9 19 11 21 13 23 4 25 22 27 19 29
REMARK Flexibility Score: inf
ROOT
ATOM      1  C   UNL     1      26.578  26.512 -12.293  1.00  0.00     0.180 A 
ATOM      2  C   UNL     1      27.114  25.371 -12.915  1.00  0.00     0.208 A 
ATOM      3  C   UNL     1      27.037  24.135 -12.254  1.00  0.00     0.238 A 
ATOM      4  O   UNL     1      27.469  23.109 -12.839  1.00  0.00    -0.285 OA
ATOM      5  C   UNL     1      26.441  24.058 -10.972  1.00  0.00     0.111 A 
ATOM      6  C   UNL     1      26.345  22.866 -10.193  1.00  0.00     0.134 A 
ATOM      7  C   UNL     1      25.618  22.879  -8.997  1.00  0.00     0.093 A 
ATOM      8  C   UNL     1      25.040  24.058  -8.518  1.00  0.00     0.123 A 
ATOM      9  C   UNL     1      25.179  25.239  -9.241  1.00  0.00     0.094 A 
ATOM     10  C   UNL     1      25.867  25.250 -10.456  1.00  0.00     0.146 A 
ATOM     11  O   UNL     1      25.967  26.395 -11.119  1.00  0.00    -0.452 OA
ENDROOT
BRANCH   1  12
ATOM     12  C   UNL     1      26.643  27.854 -12.916  1.00  0.00     0.029 A 
ATOM     13  C   UNL     1      25.601  28.278 -13.753  1.00  0.00     0.062 A 
ATOM     14  C   UNL     1      25.626  29.548 -14.338  1.00  0.00     0.162 A 
ATOM     15  C   UNL     1      27.703  28.736 -12.642  1.00  0.00     0.062 A 
ATOM     16  C   UNL     1      26.698  30.419 -14.079  1.00  0.00     0.200 A 
ATOM     17  C   UNL     1      27.736  30.011 -13.223  1.00  0.00     0.162 A 
BRANCH  14  18
ATOM     18  O   UNL     1      24.578  29.927 -15.176  1.00  0.00    -0.504 OA
ATOM     19  H   UNL     1      24.715  30.115 -16.161  1.00  0.00     0.293 HD
ENDBRANCH  14  18
BRANCH  16  20
ATOM     20  O   UNL     1      26.718  31.683 -14.669  1.00  0.00    -0.502 OA
ATOM     21  H   UNL     1      25.876  32.232 -14.800  1.00  0.00     0.293 HD
ENDBRANCH  16  20
BRANCH  17  22
ATOM     22  O   UNL     1      28.795  30.876 -12.949  1.00  0.00    -0.504 OA
ATOM     23  H   UNL     1      29.759  30.568 -12.997  1.00  0.00     0.293 HD
ENDBRANCH  17  22
ENDBRANCH   1  12
BRANCH   2  24
ATOM     24  O   UNL     1      27.678  25.466 -14.190  1.00  0.00    -0.502 OA
ATOM     25  H   UNL     1      28.617  25.812 -14.346  1.00  0.00     0.293 HD
ENDBRANCH   2  24
BRANCH   6  26
ATOM     26  O   UNL     1      26.963  21.659 -10.535  1.00  0.00    -0.507 OA
ATOM     27  H   UNL     1      27.769  21.576 -11.135  1.00  0.00     0.293 HD
ENDBRANCH   6  26
BRANCH   8  28
ATOM     28  O   UNL     1      24.333  24.065  -7.317  1.00  0.00    -0.508 OA
ATOM     29  H   UNL     1      24.536  23.403  -6.578  1.00  0.00     0.293 HD
ENDBRANCH   8  28
TORSDOF 7
ENDMDL
