MODEL 1
REMARK VINA RESULT:    -3.812      0.000      0.000
REMARK INTER + INTRA:          -7.062
REMARK INTER:                  -6.152
REMARK INTRA:                  -0.910
REMARK UNBOUND:                -0.910
REMARK SMILES CCCCCCCCCCCCO
REMARK SMILES IDX 7 1 6 2 5 3 4 4 3 5 2 6 1 7 8 8 9 9 10 10 11 11 12 12 13 13
REMARK H PARENT 13 14
REMARK Flexibility Score: inf
ROOT
ATOM      1  C   UNL     1      28.649  25.814  21.548  1.00  0.00     0.000 C 
ENDROOT
BRANCH   1   2
ATOM      2  C   UNL     1      29.915  24.974  21.798  1.00  0.00    -0.000 C 
BRANCH   2   3
ATOM      3  C   UNL     1      30.659  25.287  23.108  1.00  0.00    -0.000 C 
BRANCH   3   4
ATOM      4  C   UNL     1      31.908  26.157  22.896  1.00  0.00    -0.000 C 
BRANCH   4   5
ATOM      5  C   UNL     1      31.830  27.443  23.732  1.00  0.00    -0.000 C 
BRANCH   5   6
ATOM      6  C   UNL     1      31.046  28.559  23.025  1.00  0.00    -0.003 C 
ATOM      7  C   UNL     1      31.481  28.760  21.573  1.00  0.00     0.004 C 
ENDBRANCH   5   6
ENDBRANCH   4   5
ENDBRANCH   3   4
ENDBRANCH   2   3
ENDBRANCH   1   2
BRANCH   1   8
ATOM      8  C   UNL     1      28.019  26.349  22.847  1.00  0.00     0.000 C 
BRANCH   8   9
ATOM      9  C   UNL     1      26.676  27.056  22.600  1.00  0.00     0.000 C 
BRANCH   9  10
ATOM     10  C   UNL     1      25.612  26.676  23.645  1.00  0.00     0.002 C 
BRANCH  10  11
ATOM     11  C   UNL     1      24.999  27.902  24.347  1.00  0.00     0.028 C 
BRANCH  11  12
ATOM     12  C   UNL     1      25.391  29.236  23.702  1.00  0.00     0.156 C 
BRANCH  12  13
ATOM     13  O   UNL     1      24.267  29.853  23.138  1.00  0.00    -0.396 OA
ATOM     14  H   UNL     1      23.477  29.428  23.563  1.00  0.00     0.210 HD
ENDBRANCH  12  13
ENDBRANCH  11  12
ENDBRANCH  10  11
ENDBRANCH   9  10
ENDBRANCH   8   9
ENDBRANCH   1   8
TORSDOF 11
ENDMDL
MODEL 2
REMARK VINA RESULT:    -3.721      1.635      1.967
REMARK INTER + INTRA:          -6.916
REMARK INTER:                  -6.157
REMARK INTRA:                  -0.758
REMARK UNBOUND:                -0.910
REMARK SMILES CCCCCCCCCCCCO
REMARK SMILES IDX 7 1 6 2 5 3 4 4 3 5 2 6 1 7 8 8 9 9 10 10 11 11 12 12 13 13
REMARK H PARENT 13 14
REMARK Flexibility Score: inf
ROOT
ATOM      1  C   UNL     1      28.850  25.884  21.499  1.00  0.00     0.000 C 
ENDROOT
BRANCH   1   2
ATOM      2  C   UNL     1      29.953  24.890  21.906  1.00  0.00    -0.000 C 
BRANCH   2   3
ATOM      3  C   UNL     1      30.738  25.269  23.175  1.00  0.00    -0.000 C 
BRANCH   3   4
ATOM      4  C   UNL     1      32.030  26.044  22.873  1.00  0.00    -0.000 C 
BRANCH   4   5
ATOM      5  C   UNL     1      32.001  27.434  23.525  1.00  0.00    -0.000 C 
BRANCH   5   6
ATOM      6  C   UNL     1      31.150  28.439  22.733  1.00  0.00    -0.003 C 
ATOM      7  C   UNL     1      31.896  29.035  21.539  1.00  0.00     0.004 C 
ENDBRANCH   5   6
ENDBRANCH   4   5
ENDBRANCH   3   4
ENDBRANCH   2   3
ENDBRANCH   1   2
BRANCH   1   8
ATOM      8  C   UNL     1      27.562  25.722  22.326  1.00  0.00     0.000 C 
BRANCH   8   9
ATOM      9  C   UNL     1      27.062  27.058  22.902  1.00  0.00     0.000 C 
BRANCH   9  10
ATOM     10  C   UNL     1      25.583  27.000  23.319  1.00  0.00     0.002 C 
BRANCH  10  11
ATOM     11  C   UNL     1      25.360  26.220  24.628  1.00  0.00     0.028 C 
BRANCH  11  12
ATOM     12  C   UNL     1      24.580  24.914  24.437  1.00  0.00     0.156 C 
BRANCH  12  13
ATOM     13  O   UNL     1      24.128  24.805  23.115  1.00  0.00    -0.396 OA
ATOM     14  H   UNL     1      24.155  23.838  22.894  1.00  0.00     0.210 HD
ENDBRANCH  12  13
ENDBRANCH  11  12
ENDBRANCH  10  11
ENDBRANCH   9  10
ENDBRANCH   8   9
ENDBRANCH   1   8
TORSDOF 11
ENDMDL
MODEL 3
REMARK VINA RESULT:    -3.636      1.401      2.393
REMARK INTER + INTRA:          -6.778
REMARK INTER:                  -5.443
REMARK INTRA:                  -1.335
REMARK UNBOUND:                -0.910
REMARK SMILES CCCCCCCCCCCCO
REMARK SMILES IDX 7 1 6 2 5 3 4 4 3 5 2 6 1 7 8 8 9 9 10 10 11 11 12 12 13 13
REMARK H PARENT 13 14
REMARK Flexibility Score: inf
ROOT
ATOM      1  C   UNL     1      31.175  25.315  22.514  1.00  0.00     0.000 C 
ENDROOT
BRANCH   1   2
ATOM      2  C   UNL     1      31.258  25.278  24.051  1.00  0.00    -0.000 C 
BRANCH   2   3
ATOM      3  C   UNL     1      31.581  26.626  24.721  1.00  0.00    -0.000 C 
BRANCH   3   4
ATOM      4  C   UNL     1      30.368  27.565  24.797  1.00  0.00    -0.000 C 
BRANCH   4   5
ATOM      5  C   UNL     1      30.652  28.888  24.070  1.00  0.00    -0.000 C 
BRANCH   5   6
ATOM      6  C   UNL     1      31.888  28.806  23.160  1.00  0.00    -0.003 C 
ATOM      7  C   UNL     1      31.532  28.840  21.674  1.00  0.00     0.004 C 
ENDBRANCH   5   6
ENDBRANCH   4   5
ENDBRANCH   3   4
ENDBRANCH   2   3
ENDBRANCH   1   2
BRANCH   1   8
ATOM      8  C   UNL     1      29.797  24.889  21.978  1.00  0.00     0.000 C 
BRANCH   8   9
ATOM      9  C   UNL     1      28.868  26.089  21.727  1.00  0.00     0.000 C 
BRANCH   9  10
ATOM     10  C   UNL     1      27.549  25.984  22.511  1.00  0.00     0.002 C 
BRANCH  10  11
ATOM     11  C   UNL     1      27.049  27.346  23.026  1.00  0.00     0.028 C 
BRANCH  11  12
ATOM     12  C   UNL     1      25.575  27.337  23.447  1.00  0.00     0.156 C 
BRANCH  12  13
ATOM     13  O   UNL     1      24.963  26.141  23.054  1.00  0.00    -0.396 OA
ATOM     14  H   UNL     1      23.984  26.296  23.122  1.00  0.00     0.210 HD
ENDBRANCH  12  13
ENDBRANCH  11  12
ENDBRANCH  10  11
ENDBRANCH   9  10
ENDBRANCH   8   9
ENDBRANCH   1   8
TORSDOF 11
ENDMDL
MODEL 4
REMARK VINA RESULT:    -3.634      2.128      3.334
REMARK INTER + INTRA:          -6.775
REMARK INTER:                  -5.772
REMARK INTRA:                  -1.002
REMARK UNBOUND:                -0.910
REMARK SMILES CCCCCCCCCCCCO
REMARK SMILES IDX 7 1 6 2 5 3 4 4 3 5 2 6 1 7 8 8 9 9 10 10 11 11 12 12 13 13
REMARK H PARENT 13 14
REMARK Flexibility Score: inf
ROOT
ATOM      1  C   UNL     1      29.039  28.185  24.503  1.00  0.00     0.000 C 
ENDROOT
BRANCH   1   2
ATOM      2  C   UNL     1      30.190  27.183  24.707  1.00  0.00    -0.000 C 
BRANCH   2   3
ATOM      3  C   UNL     1      31.417  27.405  23.804  1.00  0.00    -0.000 C 
BRANCH   3   4
ATOM      4  C   UNL     1      31.784  26.165  22.974  1.00  0.00    -0.000 C 
BRANCH   4   5
ATOM      5  C   UNL     1      30.653  25.127  23.010  1.00  0.00    -0.000 C 
BRANCH   5   6
ATOM      6  C   UNL     1      29.908  25.019  21.671  1.00  0.00    -0.003 C 
ATOM      7  C   UNL     1      28.421  25.351  21.791  1.00  0.00     0.004 C 
ENDBRANCH   5   6
ENDBRANCH   4   5
ENDBRANCH   3   4
ENDBRANCH   2   3
ENDBRANCH   1   2
BRANCH   1   8
ATOM      8  C   UNL     1      27.649  27.533  24.618  1.00  0.00     0.000 C 
BRANCH   8   9
ATOM      9  C   UNL     1      26.708  27.950  23.476  1.00  0.00     0.000 C 
BRANCH   9  10
ATOM     10  C   UNL     1      25.446  27.073  23.405  1.00  0.00     0.002 C 
BRANCH  10  11
ATOM     11  C   UNL     1      25.419  25.975  24.484  1.00  0.00     0.028 C 
BRANCH  11  12
ATOM     12  C   UNL     1      24.645  24.722  24.062  1.00  0.00     0.156 C 
BRANCH  12  13
ATOM     13  O   UNL     1      25.375  23.993  23.115  1.00  0.00    -0.396 OA
ATOM     14  H   UNL     1      25.411  24.559  22.300  1.00  0.00     0.210 HD
ENDBRANCH  12  13
ENDBRANCH  11  12
ENDBRANCH  10  11
ENDBRANCH   9  10
ENDBRANCH   8   9
ENDBRANCH   1   8
TORSDOF 11
ENDMDL
MODEL 5
REMARK VINA RESULT:    -3.585      2.042      5.216
REMARK INTER + INTRA:          -6.696
REMARK INTER:                  -5.733
REMARK INTRA:                  -0.963
REMARK UNBOUND:                -0.910
REMARK SMILES CCCCCCCCCCCCO
REMARK SMILES IDX 7 1 6 2 5 3 4 4 3 5 2 6 1 7 8 8 9 9 10 10 11 11 12 12 13 13
REMARK H PARENT 13 14
REMARK Flexibility Score: inf
ROOT
ATOM      1  C   UNL     1      29.986  27.673  24.740  1.00  0.00     0.000 C 
ENDROOT
BRANCH   1   2
ATOM      2  C   UNL     1      28.641  28.316  25.125  1.00  0.00    -0.000 C 
BRANCH   2   3
ATOM      3  C   UNL     1      27.393  27.509  24.723  1.00  0.00    -0.000 C 
BRANCH   3   4
ATOM      4  C   UNL     1      26.611  28.149  23.565  1.00  0.00    -0.000 C 
BRANCH   4   5
ATOM      5  C   UNL     1      25.107  28.181  23.871  1.00  0.00    -0.000 C 
BRANCH   5   6
ATOM      6  C   UNL     1      24.533  29.607  23.859  1.00  0.00    -0.003 C 
ATOM      7  C   UNL     1      25.607  30.678  24.048  1.00  0.00     0.004 C 
ENDBRANCH   5   6
ENDBRANCH   4   5
ENDBRANCH   3   4
ENDBRANCH   2   3
ENDBRANCH   1   2
BRANCH   1   8
ATOM      8  C   UNL     1      30.635  28.332  23.509  1.00  0.00     0.000 C 
BRANCH   8   9
ATOM      9  C   UNL     1      30.496  27.473  22.241  1.00  0.00     0.000 C 
BRANCH   9  10
ATOM     10  C   UNL     1      30.216  25.995  22.561  1.00  0.00     0.002 C 
BRANCH  10  11
ATOM     11  C   UNL     1      28.888  25.494  21.963  1.00  0.00     0.028 C 
BRANCH  11  12
ATOM     12  C   UNL     1      28.546  26.133  20.613  1.00  0.00     0.156 C 
BRANCH  12  13
ATOM     13  O   UNL     1      27.294  26.760  20.674  1.00  0.00    -0.396 OA
ATOM     14  H   UNL     1      27.454  27.657  21.068  1.00  0.00     0.210 HD
ENDBRANCH  12  13
ENDBRANCH  11  12
ENDBRANCH  10  11
ENDBRANCH   9  10
ENDBRANCH   8   9
ENDBRANCH   1   8
TORSDOF 11
ENDMDL
MODEL 6
REMARK VINA RESULT:    -3.567      1.272      2.651
REMARK INTER + INTRA:          -6.667
REMARK INTER:                  -5.570
REMARK INTRA:                  -1.097
REMARK UNBOUND:                -0.910
REMARK SMILES CCCCCCCCCCCCO
REMARK SMILES IDX 7 1 6 2 5 3 4 4 3 5 2 6 1 7 8 8 9 9 10 10 11 11 12 12 13 13
REMARK H PARENT 13 14
REMARK Flexibility Score: inf
ROOT
ATOM      1  C   UNL     1      28.491  27.699  24.643  1.00  0.00     0.000 C 
ENDROOT
BRANCH   1   2
ATOM      2  C   UNL     1      29.860  28.346  24.364  1.00  0.00    -0.000 C 
BRANCH   2   3
ATOM      3  C   UNL     1      30.835  27.484  23.541  1.00  0.00    -0.000 C 
BRANCH   3   4
ATOM      4  C   UNL     1      30.606  25.976  23.726  1.00  0.00    -0.000 C 
BRANCH   4   5
ATOM      5  C   UNL     1      30.489  25.269  22.367  1.00  0.00    -0.000 C 
BRANCH   5   6
ATOM      6  C   UNL     1      29.040  25.205  21.859  1.00  0.00    -0.003 C 
ATOM      7  C   UNL     1      28.730  26.280  20.818  1.00  0.00     0.004 C 
ENDBRANCH   5   6
ENDBRANCH   4   5
ENDBRANCH   3   4
ENDBRANCH   2   3
ENDBRANCH   1   2
BRANCH   1   8
ATOM      8  C   UNL     1      27.366  28.276  23.766  1.00  0.00     0.000 C 
BRANCH   8   9
ATOM      9  C   UNL     1      26.187  27.301  23.606  1.00  0.00     0.000 C 
BRANCH   9  10
ATOM     10  C   UNL     1      24.893  27.835  24.244  1.00  0.00     0.002 C 
BRANCH  10  11
ATOM     11  C   UNL     1      25.091  29.184  24.960  1.00  0.00     0.028 C 
BRANCH  11  12
ATOM     12  C   UNL     1      24.291  30.332  24.334  1.00  0.00     0.156 C 
BRANCH  12  13
ATOM     13  O   UNL     1      24.163  30.141  22.952  1.00  0.00    -0.396 OA
ATOM     14  H   UNL     1      24.978  30.533  22.543  1.00  0.00     0.210 HD
ENDBRANCH  12  13
ENDBRANCH  11  12
ENDBRANCH  10  11
ENDBRANCH   9  10
ENDBRANCH   8   9
ENDBRANCH   1   8
TORSDOF 11
ENDMDL
MODEL 7
REMARK VINA RESULT:    -3.563      2.638      4.743
REMARK INTER + INTRA:          -6.660
REMARK INTER:                  -6.022
REMARK INTRA:                  -0.638
REMARK UNBOUND:                -0.910
REMARK SMILES CCCCCCCCCCCCO
REMARK SMILES IDX 7 1 6 2 5 3 4 4 3 5 2 6 1 7 8 8 9 9 10 10 11 11 12 12 13 13
REMARK H PARENT 13 14
REMARK Flexibility Score: inf
ROOT
ATOM      1  C   UNL     1      31.290  28.175  22.831  1.00  0.00     0.000 C 
ENDROOT
BRANCH   1   2
ATOM      2  C   UNL     1      31.670  28.919  21.537  1.00  0.00    -0.000 C 
BRANCH   2   3
ATOM      3  C   UNL     1      31.989  30.415  21.714  1.00  0.00    -0.000 C 
BRANCH   3   4
ATOM      4  C   UNL     1      31.271  31.045  22.917  1.00  0.00    -0.000 C 
BRANCH   4   5
ATOM      5  C   UNL     1      30.203  32.047  22.454  1.00  0.00    -0.000 C 
BRANCH   5   6
ATOM      6  C   UNL     1      29.290  32.507  23.602  1.00  0.00    -0.003 C 
ATOM      7  C   UNL     1      28.218  31.476  23.955  1.00  0.00     0.004 C 
ENDBRANCH   5   6
ENDBRANCH   4   5
ENDBRANCH   3   4
ENDBRANCH   2   3
ENDBRANCH   1   2
BRANCH   1   8
ATOM      8  C   UNL     1      32.098  26.881  23.037  1.00  0.00     0.000 C 
BRANCH   8   9
ATOM      9  C   UNL     1      31.233  25.619  22.888  1.00  0.00     0.000 C 
BRANCH   9  10
ATOM     10  C   UNL     1      29.728  25.923  22.987  1.00  0.00     0.002 C 
BRANCH  10  11
ATOM     11  C   UNL     1      28.922  25.352  21.806  1.00  0.00     0.028 C 
BRANCH  11  12
ATOM     12  C   UNL     1      28.601  26.391  20.725  1.00  0.00     0.156 C 
BRANCH  12  13
ATOM     13  O   UNL     1      27.263  26.794  20.820  1.00  0.00    -0.396 OA
ATOM     14  H   UNL     1      26.834  26.177  21.469  1.00  0.00     0.210 HD
ENDBRANCH  12  13
ENDBRANCH  11  12
ENDBRANCH  10  11
ENDBRANCH   9  10
ENDBRANCH   8   9
ENDBRANCH   1   8
TORSDOF 11
ENDMDL
MODEL 8
REMARK VINA RESULT:    -3.531      1.979      5.510
REMARK INTER + INTRA:          -6.610
REMARK INTER:                  -5.708
REMARK INTRA:                  -0.901
REMARK UNBOUND:                -0.910
REMARK SMILES CCCCCCCCCCCCO
REMARK SMILES IDX 7 1 6 2 5 3 4 4 3 5 2 6 1 7 8 8 9 9 10 10 11 11 12 12 13 13
REMARK H PARENT 13 14
REMARK Flexibility Score: inf
ROOT
ATOM      1  C   UNL     1      28.830  27.572  24.526  1.00  0.00     0.000 C 
ENDROOT
BRANCH   1   2
ATOM      2  C   UNL     1      27.656  28.523  24.824  1.00  0.00    -0.000 C 
BRANCH   2   3
ATOM      3  C   UNL     1      26.646  28.693  23.675  1.00  0.00    -0.000 C 
BRANCH   3   4
ATOM      4  C   UNL     1      25.195  28.426  24.106  1.00  0.00    -0.000 C 
BRANCH   4   5
ATOM      5  C   UNL     1      25.049  27.015  24.694  1.00  0.00    -0.000 C 
BRANCH   5   6
ATOM      6  C   UNL     1      25.438  25.917  23.693  1.00  0.00    -0.003 C 
ATOM      7  C   UNL     1      24.759  24.579  23.987  1.00  0.00     0.004 C 
ENDBRANCH   5   6
ENDBRANCH   4   5
ENDBRANCH   3   4
ENDBRANCH   2   3
ENDBRANCH   1   2
BRANCH   1   8
ATOM      8  C   UNL     1      29.912  28.215  23.640  1.00  0.00     0.000 C 
BRANCH   8   9
ATOM      9  C   UNL     1      30.338  27.302  22.478  1.00  0.00     0.000 C 
BRANCH   9  10
ATOM     10  C   UNL     1      29.965  25.829  22.722  1.00  0.00     0.002 C 
BRANCH  10  11
ATOM     11  C   UNL     1      28.897  25.312  21.741  1.00  0.00     0.028 C 
BRANCH  11  12
ATOM     12  C   UNL     1      28.539  26.317  20.640  1.00  0.00     0.156 C 
BRANCH  12  13
ATOM     13  O   UNL     1      27.235  26.795  20.822  1.00  0.00    -0.396 OA
ATOM     14  H   UNL     1      26.710  26.467  20.046  1.00  0.00     0.210 HD
ENDBRANCH  12  13
ENDBRANCH  11  12
ENDBRANCH  10  11
ENDBRANCH   9  10
ENDBRANCH   8   9
ENDBRANCH   1   8
TORSDOF 11
ENDMDL
MODEL 9
REMARK VINA RESULT:    -3.513      2.024      5.678
REMARK INTER + INTRA:          -6.580
REMARK INTER:                  -5.942
REMARK INTRA:                  -0.638
REMARK UNBOUND:                -0.910
REMARK SMILES CCCCCCCCCCCCO
REMARK SMILES IDX 7 1 6 2 5 3 4 4 3 5 2 6 1 7 8 8 9 9 10 10 11 11 12 12 13 13
REMARK H PARENT 13 14
REMARK Flexibility Score: inf
ROOT
ATOM      1  C   UNL     1      28.641  25.749  21.557  1.00  0.00     0.000 C 
ENDROOT
BRANCH   1   2
ATOM      2  C   UNL     1      28.157  26.503  22.809  1.00  0.00    -0.000 C 
BRANCH   2   3
ATOM      3  C   UNL     1      26.635  26.719  22.894  1.00  0.00    -0.000 C 
BRANCH   3   4
ATOM      4  C   UNL     1      26.253  28.059  23.542  1.00  0.00    -0.000 C 
BRANCH   4   5
ATOM      5  C   UNL     1      24.944  27.932  24.334  1.00  0.00    -0.000 C 
BRANCH   5   6
ATOM      6  C   UNL     1      24.236  29.283  24.523  1.00  0.00    -0.003 C 
ATOM      7  C   UNL     1      24.803  30.379  23.621  1.00  0.00     0.004 C 
ENDBRANCH   5   6
ENDBRANCH   4   5
ENDBRANCH   3   4
ENDBRANCH   2   3
ENDBRANCH   1   2
BRANCH   1   8
ATOM      8  C   UNL     1      29.917  24.927  21.808  1.00  0.00     0.000 C 
BRANCH   8   9
ATOM      9  C   UNL     1      30.625  25.327  23.114  1.00  0.00     0.000 C 
BRANCH   9  10
ATOM     10  C   UNL     1      31.964  26.041  22.860  1.00  0.00     0.002 C 
BRANCH  10  11
ATOM     11  C   UNL     1      31.935  27.527  23.264  1.00  0.00     0.028 C 
BRANCH  11  12
ATOM     12  C   UNL     1      32.010  28.487  22.072  1.00  0.00     0.156 C 
BRANCH  12  13
ATOM     13  O   UNL     1      30.752  28.615  21.468  1.00  0.00    -0.396 OA
ATOM     14  H   UNL     1      30.925  28.830  20.514  1.00  0.00     0.210 HD
ENDBRANCH  12  13
ENDBRANCH  11  12
ENDBRANCH  10  11
ENDBRANCH   9  10
ENDBRANCH   8   9
ENDBRANCH   1   8
TORSDOF 11
ENDMDL
