MODEL 1
REMARK VINA RESULT:    -2.991      0.000      0.000
REMARK INTER + INTRA:          -4.845
REMARK INTER:                  -4.565
REMARK INTRA:                  -0.280
REMARK UNBOUND:                -0.280
REMARK SMILES CC1=CCC[C@H](C)C(=O)C[C@@H](C(C)C)C(=O)C1
REMARK SMILES IDX 8 1 9 2 6 3 7 4 5 5 4 6 3 7 2 8 1 9 10 11 11 12 15 13 16 14
REMARK SMILES IDX 17 15 12 17 13 18 14 19
REMARK H PARENT
REMARK Flexibility Score: 70.00
ROOT
ATOM      1  C   UNL     1     148.107 152.090 168.276  1.00  0.00     0.136 C 
ATOM      2  O   UNL     1     147.489 151.230 168.887  1.00  0.00    -0.299 OA
ENDROOT
BRANCH   1   3
ATOM      3  C   UNL     1     149.620 152.036 168.222  1.00  0.00     0.053 C 
ATOM      4  C   UNL     1     150.133 151.098 169.319  1.00  0.00     0.016 C 
BRANCH   3   5
ATOM      5  C   UNL     1     150.129 151.572 166.838  1.00  0.00     0.015 C 
BRANCH   5   6
ATOM      6  C   UNL     1     150.648 152.724 165.963  1.00  0.00     0.028 C 
BRANCH   6   7
ATOM      7  C   UNL     1     150.128 152.615 164.549  1.00  0.00    -0.028 C 
ATOM      8  C   UNL     1     149.021 153.224 164.067  1.00  0.00    -0.070 CG0
ATOM      9  C   UNL     1     148.660 152.992 162.621  1.00  0.00     0.039 C 
ATOM     10  G   UNL     1     148.155 154.151 164.897  1.00  0.00     0.000 G0
ENDBRANCH   6   7
ENDBRANCH   5   6
ENDBRANCH   3   5
ENDBRANCH   1   3
BRANCH   1  11
ATOM     11  C   UNL     1     147.342 153.201 167.604  1.00  0.00     0.087 C 
BRANCH  11  12
ATOM     12  C   UNL     1     146.537 152.692 166.381  1.00  0.00     0.066 C 
BRANCH  12  13
ATOM     13  C   UNL     1     146.779 153.573 165.167  1.00  0.00     0.140 C 
ATOM     14  O   UNL     1     145.873 153.770 164.369  1.00  0.00    -0.299 OA
BRANCH  13  15
ATOM     15  C   UNL     1     148.133 154.171 164.890  1.00  0.00     0.106 CG0
ATOM     16  G   UNL     1     148.993 153.217 164.084  1.00  0.00     0.000 G0
ENDBRANCH  13  15
ENDBRANCH  12  13
BRANCH  12  17
ATOM     17  C   UNL     1     145.007 152.553 166.655  1.00  0.00    -0.006 C 
ATOM     18  C   UNL     1     144.565 151.081 166.681  1.00  0.00     0.008 C 
ATOM     19  C   UNL     1     144.537 153.266 167.937  1.00  0.00     0.008 C 
ENDBRANCH  12  17
ENDBRANCH  11  12
ENDBRANCH   1  11
TORSDOF 1
ENDMDL
MODEL 2
REMARK VINA RESULT:    -2.818      2.294      4.400
REMARK INTER + INTRA:          -4.581
REMARK INTER:                  -4.353
REMARK INTRA:                  -0.228
REMARK UNBOUND:                -0.280
REMARK SMILES CC1=CCC[C@H](C)C(=O)C[C@@H](C(C)C)C(=O)C1
REMARK SMILES IDX 8 1 9 2 6 3 7 4 5 5 4 6 3 7 2 8 1 9 10 11 11 12 15 13 16 14
REMARK SMILES IDX 17 15 12 17 13 18 14 19
REMARK H PARENT
REMARK Flexibility Score: 70.00
ROOT
ATOM      1  C   UNL     1     149.598 155.329 164.866  1.00  0.00     0.136 C 
ATOM      2  O   UNL     1     150.733 155.528 165.275  1.00  0.00    -0.299 OA
ENDROOT
BRANCH   1   3
ATOM      3  C   UNL     1     149.165 155.908 163.534  1.00  0.00     0.053 C 
ATOM      4  C   UNL     1     149.293 157.434 163.580  1.00  0.00     0.016 C 
BRANCH   3   5
ATOM      5  C   UNL     1     149.995 155.336 162.362  1.00  0.00     0.015 C 
BRANCH   5   6
ATOM      6  C   UNL     1     149.782 153.829 162.147  1.00  0.00     0.028 C 
BRANCH   6   7
ATOM      7  C   UNL     1     148.332 153.515 161.867  1.00  0.00    -0.028 C 
ATOM      8  C   UNL     1     147.605 152.546 162.470  1.00  0.00    -0.070 CG0
ATOM      9  C   UNL     1     146.164 152.381 162.054  1.00  0.00     0.039 C 
ATOM     10  G   UNL     1     148.157 151.651 163.562  1.00  0.00     0.000 G0
ENDBRANCH   6   7
ENDBRANCH   5   6
ENDBRANCH   3   5
ENDBRANCH   1   3
BRANCH   1  11
ATOM     11  C   UNL     1     148.647 154.523 165.712  1.00  0.00     0.087 C 
BRANCH  11  12
ATOM     12  C   UNL     1     148.983 153.010 165.679  1.00  0.00     0.066 C 
BRANCH  12  13
ATOM     13  C   UNL     1     147.906 152.231 164.943  1.00  0.00     0.140 C 
ATOM     14  O   UNL     1     146.829 152.024 165.483  1.00  0.00    -0.299 OA
BRANCH  13  15
ATOM     15  C   UNL     1     148.154 151.654 163.573  1.00  0.00     0.106 CG0
ATOM     16  G   UNL     1     147.596 152.561 162.494  1.00  0.00     0.000 G0
ENDBRANCH  13  15
ENDBRANCH  12  13
BRANCH  12  17
ATOM     17  C   UNL     1     149.228 152.395 167.092  1.00  0.00    -0.006 C 
ATOM     18  C   UNL     1     150.727 152.315 167.425  1.00  0.00     0.008 C 
ATOM     19  C   UNL     1     148.476 153.117 168.225  1.00  0.00     0.008 C 
ENDBRANCH  12  17
ENDBRANCH  11  12
ENDBRANCH   1  11
TORSDOF 1
ENDMDL
MODEL 3
REMARK VINA RESULT:    -2.813      1.522      3.839
REMARK INTER + INTRA:          -4.573
REMARK INTER:                  -4.403
REMARK INTRA:                  -0.170
REMARK UNBOUND:                -0.280
REMARK SMILES CC1=CCC[C@H](C)C(=O)C[C@@H](C(C)C)C(=O)C1
REMARK SMILES IDX 8 1 9 2 6 3 7 4 5 5 4 6 3 7 2 8 1 9 10 11 11 12 15 13 16 14
REMARK SMILES IDX 17 15 12 17 13 18 14 19
REMARK H PARENT
REMARK Flexibility Score: 70.00
ROOT
ATOM      1  C   UNL     1     147.546 153.577 164.181  1.00  0.00     0.136 C 
ATOM      2  O   UNL     1     146.714 154.037 163.412  1.00  0.00    -0.299 OA
ENDROOT
BRANCH   1   3
ATOM      3  C   UNL     1     148.980 154.062 164.117  1.00  0.00     0.053 C 
ATOM      4  C   UNL     1     149.125 155.329 164.966  1.00  0.00     0.016 C 
BRANCH   3   5
ATOM      5  C   UNL     1     149.974 152.980 164.597  1.00  0.00     0.015 C 
BRANCH   5   6
ATOM      6  C   UNL     1     150.734 153.375 165.873  1.00  0.00     0.028 C 
BRANCH   6   7
ATOM      7  C   UNL     1     150.606 152.312 166.938  1.00  0.00    -0.028 C 
ATOM      8  C   UNL     1     149.667 152.280 167.912  1.00  0.00    -0.070 CG0
ATOM      9  C   UNL     1     149.702 151.133 168.890  1.00  0.00     0.039 C 
ATOM     10  G   UNL     1     148.568 153.317 168.040  1.00  0.00     0.000 G0
ENDBRANCH   6   7
ENDBRANCH   5   6
ENDBRANCH   3   5
ENDBRANCH   1   3
BRANCH   1  11
ATOM     11  C   UNL     1     147.124 152.518 165.167  1.00  0.00     0.087 C 
BRANCH  11  12
ATOM     12  C   UNL     1     146.470 153.133 166.430  1.00  0.00     0.066 C 
BRANCH  12  13
ATOM     13  C   UNL     1     147.211 152.709 167.687  1.00  0.00     0.140 C 
ATOM     14  O   UNL     1     146.697 151.908 168.456  1.00  0.00    -0.299 OA
BRANCH  13  15
ATOM     15  C   UNL     1     148.552 153.296 168.042  1.00  0.00     0.106 CG0
ATOM     16  G   UNL     1     149.650 152.259 167.904  1.00  0.00     0.000 G0
ENDBRANCH  13  15
ENDBRANCH  12  13
BRANCH  12  17
ATOM     17  C   UNL     1     144.948 152.812 166.564  1.00  0.00    -0.006 C 
ATOM     18  C   UNL     1     144.085 154.075 166.411  1.00  0.00     0.008 C 
ATOM     19  C   UNL     1     144.456 151.718 165.598  1.00  0.00     0.008 C 
ENDBRANCH  12  17
ENDBRANCH  11  12
ENDBRANCH   1  11
TORSDOF 1
ENDMDL
MODEL 4
REMARK VINA RESULT:    -2.808      1.797      4.157
REMARK INTER + INTRA:          -4.566
REMARK INTER:                  -4.623
REMARK INTRA:                   0.056
REMARK UNBOUND:                -0.280
REMARK SMILES CC1=CCC[C@H](C)C(=O)C[C@@H](C(C)C)C(=O)C1
REMARK SMILES IDX 8 1 9 2 6 3 7 4 5 5 4 6 3 7 2 8 1 9 10 11 11 12 15 13 16 14
REMARK SMILES IDX 17 15 12 17 13 18 14 19
REMARK H PARENT
REMARK Flexibility Score: 70.00
ROOT
ATOM      1  C   UNL     1     149.898 152.099 166.754  1.00  0.00     0.136 C 
ATOM      2  O   UNL     1     151.053 152.499 166.749  1.00  0.00    -0.299 OA
ENDROOT
BRANCH   1   3
ATOM      3  C   UNL     1     149.317 151.491 168.015  1.00  0.00     0.053 C 
ATOM      4  C   UNL     1     150.404 151.422 169.092  1.00  0.00     0.016 C 
BRANCH   3   5
ATOM      5  C   UNL     1     148.101 152.295 168.532  1.00  0.00     0.015 C 
BRANCH   5   6
ATOM      6  C   UNL     1     146.812 151.462 168.611  1.00  0.00     0.028 C 
BRANCH   6   7
ATOM      7  C   UNL     1     145.610 152.272 168.188  1.00  0.00    -0.028 C 
ATOM      8  C   UNL     1     145.294 152.608 166.916  1.00  0.00    -0.070 CG0
ATOM      9  C   UNL     1     144.048 153.427 166.690  1.00  0.00     0.039 C 
ATOM     10  G   UNL     1     146.110 152.173 165.714  1.00  0.00     0.000 G0
ENDBRANCH   6   7
ENDBRANCH   5   6
ENDBRANCH   3   5
ENDBRANCH   1   3
BRANCH   1  11
ATOM     11  C   UNL     1     149.083 152.203 165.491  1.00  0.00     0.087 C 
BRANCH  11  12
ATOM     12  C   UNL     1     148.331 153.556 165.399  1.00  0.00     0.066 C 
BRANCH  12  13
ATOM     13  C   UNL     1     146.859 153.339 165.094  1.00  0.00     0.140 C 
ATOM     14  O   UNL     1     146.261 154.135 164.383  1.00  0.00    -0.299 OA
BRANCH  13  15
ATOM     15  C   UNL     1     146.095 152.188 165.696  1.00  0.00     0.106 CG0
ATOM     16  G   UNL     1     145.309 152.637 166.913  1.00  0.00     0.000 G0
ENDBRANCH  13  15
ENDBRANCH  12  13
BRANCH  12  17
ATOM     17  C   UNL     1     148.958 154.548 164.369  1.00  0.00    -0.006 C 
ATOM     18  C   UNL     1     150.004 155.463 165.026  1.00  0.00     0.008 C 
ATOM     19  C   UNL     1     149.563 153.861 163.132  1.00  0.00     0.008 C 
ENDBRANCH  12  17
ENDBRANCH  11  12
ENDBRANCH   1  11
TORSDOF 1
ENDMDL
MODEL 5
REMARK VINA RESULT:    -2.756      2.674      4.318
REMARK INTER + INTRA:          -4.487
REMARK INTER:                  -4.346
REMARK INTRA:                  -0.141
REMARK UNBOUND:                -0.280
REMARK SMILES CC1=CCC[C@H](C)C(=O)C[C@@H](C(C)C)C(=O)C1
REMARK SMILES IDX 8 1 9 2 6 3 7 4 5 5 4 6 3 7 2 8 1 9 10 11 11 12 15 13 16 14
REMARK SMILES IDX 17 15 12 17 13 18 14 19
REMARK H PARENT
REMARK Flexibility Score: 70.00
ROOT
ATOM      1  C   UNL     1     150.589 150.471 164.577  1.00  0.00     0.136 C 
ATOM      2  O   UNL     1     150.689 149.298 164.907  1.00  0.00    -0.299 OA
ENDROOT
BRANCH   1   3
ATOM      3  C   UNL     1     149.984 150.828 163.235  1.00  0.00     0.053 C 
ATOM      4  C   UNL     1     150.784 150.144 162.121  1.00  0.00     0.016 C 
BRANCH   3   5
ATOM      5  C   UNL     1     148.495 150.424 163.151  1.00  0.00     0.015 C 
BRANCH   5   6
ATOM      6  C   UNL     1     147.542 151.497 163.700  1.00  0.00     0.028 C 
BRANCH   6   7
ATOM      7  C   UNL     1     147.833 152.850 163.095  1.00  0.00    -0.028 C 
ATOM      8  C   UNL     1     148.139 153.973 163.785  1.00  0.00    -0.070 CG0
ATOM      9  C   UNL     1     148.397 155.236 163.002  1.00  0.00     0.039 C 
ATOM     10  G   UNL     1     148.269 154.011 165.295  1.00  0.00     0.000 G0
ENDBRANCH   6   7
ENDBRANCH   5   6
ENDBRANCH   3   5
ENDBRANCH   1   3
BRANCH   1  11
ATOM     11  C   UNL     1     151.092 151.539 165.514  1.00  0.00     0.087 C 
BRANCH  11  12
ATOM     12  C   UNL     1     149.935 152.226 166.283  1.00  0.00     0.066 C 
BRANCH  12  13
ATOM     13  C   UNL     1     149.657 153.611 165.723  1.00  0.00     0.140 C 
ATOM     14  O   UNL     1     150.562 154.431 165.652  1.00  0.00    -0.299 OA
BRANCH  13  15
ATOM     15  C   UNL     1     148.271 154.021 165.298  1.00  0.00     0.106 CG0
ATOM     16  G   UNL     1     148.132 153.975 163.789  1.00  0.00     0.000 G0
ENDBRANCH  13  15
ENDBRANCH  12  13
BRANCH  12  17
ATOM     17  C   UNL     1     150.168 152.301 167.824  1.00  0.00    -0.006 C 
ATOM     18  C   UNL     1     149.431 151.174 168.566  1.00  0.00     0.008 C 
ATOM     19  C   UNL     1     151.653 152.314 168.230  1.00  0.00     0.008 C 
ENDBRANCH  12  17
ENDBRANCH  11  12
ENDBRANCH   1  11
TORSDOF 1
ENDMDL
MODEL 6
REMARK VINA RESULT:    -2.754      2.858      4.507
REMARK INTER + INTRA:          -4.484
REMARK INTER:                  -4.245
REMARK INTRA:                  -0.239
REMARK UNBOUND:                -0.280
REMARK SMILES CC1=CCC[C@H](C)C(=O)C[C@@H](C(C)C)C(=O)C1
REMARK SMILES IDX 8 1 9 2 6 3 7 4 5 5 4 6 3 7 2 8 1 9 10 11 11 12 15 13 16 14
REMARK SMILES IDX 17 15 12 17 13 18 14 19
REMARK H PARENT
REMARK Flexibility Score: 70.00
ROOT
ATOM      1  C   UNL     1     149.366 152.135 165.609  1.00  0.00     0.136 C 
ATOM      2  O   UNL     1     149.799 151.496 166.557  1.00  0.00    -0.299 OA
ENDROOT
BRANCH   1   3
ATOM      3  C   UNL     1     149.211 153.638 165.720  1.00  0.00     0.053 C 
ATOM      4  C   UNL     1     148.506 153.979 167.037  1.00  0.00     0.016 C 
BRANCH   3   5
ATOM      5  C   UNL     1     150.574 154.364 165.639  1.00  0.00     0.015 C 
BRANCH   5   6
ATOM      6  C   UNL     1     150.769 155.144 164.329  1.00  0.00     0.028 C 
BRANCH   6   7
ATOM      7  C   UNL     1     149.459 155.331 163.602  1.00  0.00    -0.028 C 
ATOM      8  C   UNL     1     149.103 154.718 162.450  1.00  0.00    -0.070 CG0
ATOM      9  C   UNL     1     147.747 155.035 161.871  1.00  0.00     0.039 C 
ATOM     10  G   UNL     1     149.983 153.708 161.739  1.00  0.00     0.000 G0
ENDBRANCH   6   7
ENDBRANCH   5   6
ENDBRANCH   3   5
ENDBRANCH   1   3
BRANCH   1  11
ATOM     11  C   UNL     1     148.977 151.402 164.351  1.00  0.00     0.087 C 
BRANCH  11  12
ATOM     12  C   UNL     1     150.062 151.527 163.251  1.00  0.00     0.066 C 
BRANCH  12  13
ATOM     13  C   UNL     1     149.527 152.282 162.045  1.00  0.00     0.140 C 
ATOM     14  O   UNL     1     148.748 151.732 161.279  1.00  0.00    -0.299 OA
BRANCH  13  15
ATOM     15  C   UNL     1     149.979 153.686 161.736  1.00  0.00     0.106 CG0
ATOM     16  G   UNL     1     149.105 154.704 162.443  1.00  0.00     0.000 G0
ENDBRANCH  13  15
ENDBRANCH  12  13
BRANCH  12  17
ATOM     17  C   UNL     1     150.663 150.156 162.809  1.00  0.00    -0.006 C 
ATOM     18  C   UNL     1     152.120 149.999 163.273  1.00  0.00     0.008 C 
ATOM     19  C   UNL     1     149.834 148.939 163.257  1.00  0.00     0.008 C 
ENDBRANCH  12  17
ENDBRANCH  11  12
ENDBRANCH   1  11
TORSDOF 1
ENDMDL
MODEL 7
REMARK VINA RESULT:    -2.622      2.090      3.839
REMARK INTER + INTRA:          -4.282
REMARK INTER:                  -4.000
REMARK INTRA:                  -0.282
REMARK UNBOUND:                -0.280
REMARK SMILES CC1=CCC[C@H](C)C(=O)C[C@@H](C(C)C)C(=O)C1
REMARK SMILES IDX 8 1 9 2 6 3 7 4 5 5 4 6 3 7 2 8 1 9 10 11 11 12 15 13 16 14
REMARK SMILES IDX 17 15 12 17 13 18 14 19
REMARK H PARENT
REMARK Flexibility Score: 70.00
ROOT
ATOM      1  C   UNL     1     145.955 151.975 165.716  1.00  0.00     0.136 C 
ATOM      2  O   UNL     1     145.246 151.016 165.986  1.00  0.00    -0.299 OA
ENDROOT
BRANCH   1   3
ATOM      3  C   UNL     1     146.260 153.010 166.781  1.00  0.00     0.053 C 
ATOM      4  C   UNL     1     144.947 153.520 167.383  1.00  0.00     0.016 C 
BRANCH   3   5
ATOM      5  C   UNL     1     147.173 152.440 167.890  1.00  0.00     0.015 C 
BRANCH   5   6
ATOM      6  C   UNL     1     148.663 152.745 167.668  1.00  0.00     0.028 C 
BRANCH   6   7
ATOM      7  C   UNL     1     148.852 154.069 166.967  1.00  0.00    -0.028 C 
ATOM      8  C   UNL     1     149.436 154.245 165.759  1.00  0.00    -0.070 CG0
ATOM      9  C   UNL     1     149.536 155.651 165.221  1.00  0.00     0.039 C 
ATOM     10  G   UNL     1     149.957 153.100 164.913  1.00  0.00     0.000 G0
ENDBRANCH   6   7
ENDBRANCH   5   6
ENDBRANCH   3   5
ENDBRANCH   1   3
BRANCH   1  11
ATOM     11  C   UNL     1     146.494 152.114 164.316  1.00  0.00     0.087 C 
BRANCH  11  12
ATOM     12  C   UNL     1     147.934 151.552 164.193  1.00  0.00     0.066 C 
BRANCH  12  13
ATOM     13  C   UNL     1     148.927 152.662 163.894  1.00  0.00     0.140 C 
ATOM     14  O   UNL     1     148.931 153.195 162.793  1.00  0.00    -0.299 OA
BRANCH  13  15
ATOM     15  C   UNL     1     149.952 153.091 164.912  1.00  0.00     0.106 CG0
ATOM     16  G   UNL     1     149.425 154.227 165.766  1.00  0.00     0.000 G0
ENDBRANCH  13  15
ENDBRANCH  12  13
BRANCH  12  17
ATOM     17  C   UNL     1     148.068 150.407 163.140  1.00  0.00    -0.006 C 
ATOM     18  C   UNL     1     149.353 149.590 163.350  1.00  0.00     0.008 C 
ATOM     19  C   UNL     1     146.850 149.467 163.085  1.00  0.00     0.008 C 
ENDBRANCH  12  17
ENDBRANCH  11  12
ENDBRANCH   1  11
TORSDOF 1
ENDMDL
MODEL 8
REMARK VINA RESULT:    -2.547      2.172      4.216
REMARK INTER + INTRA:          -4.167
REMARK INTER:                  -4.197
REMARK INTRA:                   0.029
REMARK UNBOUND:                -0.280
REMARK SMILES CC1=CCC[C@H](C)C(=O)C[C@@H](C(C)C)C(=O)C1
REMARK SMILES IDX 8 1 9 2 6 3 7 4 5 5 4 6 3 7 2 8 1 9 10 11 11 12 15 13 16 14
REMARK SMILES IDX 17 15 12 17 13 18 14 19
REMARK H PARENT
REMARK Flexibility Score: 70.00
ROOT
ATOM      1  C   UNL     1     149.689 153.088 165.495  1.00  0.00     0.136 C 
ATOM      2  O   UNL     1     150.790 153.572 165.716  1.00  0.00    -0.299 OA
ENDROOT
BRANCH   1   3
ATOM      3  C   UNL     1     148.981 152.300 166.579  1.00  0.00     0.053 C 
ATOM      4  C   UNL     1     150.012 151.489 167.371  1.00  0.00     0.016 C 
BRANCH   3   5
ATOM      5  C   UNL     1     148.180 153.221 167.528  1.00  0.00     0.015 C 
BRANCH   5   6
ATOM      6  C   UNL     1     146.702 153.364 167.131  1.00  0.00     0.028 C 
BRANCH   6   7
ATOM      7  C   UNL     1     146.300 152.309 166.129  1.00  0.00    -0.028 C 
ATOM      8  C   UNL     1     145.828 152.544 164.883  1.00  0.00    -0.070 CG0
ATOM      9  C   UNL     1     145.475 151.355 164.024  1.00  0.00     0.039 C 
ATOM     10  G   UNL     1     145.673 153.936 164.302  1.00  0.00     0.000 G0
ENDBRANCH   6   7
ENDBRANCH   5   6
ENDBRANCH   3   5
ENDBRANCH   1   3
BRANCH   1  11
ATOM     11  C   UNL     1     149.068 153.273 164.135  1.00  0.00     0.087 C 
BRANCH  11  12
ATOM     12  C   UNL     1     148.223 154.570 164.057  1.00  0.00     0.066 C 
BRANCH  12  13
ATOM     13  C   UNL     1     146.863 154.295 163.438  1.00  0.00     0.140 C 
ATOM     14  O   UNL     1     146.710 154.410 162.229  1.00  0.00    -0.299 OA
BRANCH  13  15
ATOM     15  C   UNL     1     145.673 153.934 164.288  1.00  0.00     0.106 CG0
ATOM     16  G   UNL     1     145.835 152.550 164.886  1.00  0.00     0.000 G0
ENDBRANCH  13  15
ENDBRANCH  12  13
BRANCH  12  17
ATOM     17  C   UNL     1     148.937 155.736 163.303  1.00  0.00    -0.006 C 
ATOM     18  C   UNL     1     149.508 156.778 164.278  1.00  0.00     0.008 C 
ATOM     19  C   UNL     1     150.035 155.268 162.331  1.00  0.00     0.008 C 
ENDBRANCH  12  17
ENDBRANCH  11  12
ENDBRANCH   1  11
TORSDOF 1
ENDMDL
MODEL 9
REMARK VINA RESULT:    -2.513      2.455      4.799
REMARK INTER + INTRA:          -4.115
REMARK INTER:                  -3.947
REMARK INTRA:                  -0.168
REMARK UNBOUND:                -0.280
REMARK SMILES CC1=CCC[C@H](C)C(=O)C[C@@H](C(C)C)C(=O)C1
REMARK SMILES IDX 8 1 9 2 6 3 7 4 5 5 4 6 3 7 2 8 1 9 10 11 11 12 15 13 16 14
REMARK SMILES IDX 17 15 12 17 13 18 14 19
REMARK H PARENT
REMARK Flexibility Score: 70.00
ROOT
ATOM      1  C   UNL     1     149.490 151.336 162.845  1.00  0.00     0.136 C 
ATOM      2  O   UNL     1     150.366 151.484 162.006  1.00  0.00    -0.299 OA
ENDROOT
BRANCH   1   3
ATOM      3  C   UNL     1     149.489 150.102 163.724  1.00  0.00     0.053 C 
ATOM      4  C   UNL     1     149.400 148.852 162.843  1.00  0.00     0.016 C 
BRANCH   3   5
ATOM      5  C   UNL     1     150.745 150.036 164.623  1.00  0.00     0.015 C 
BRANCH   5   6
ATOM      6  C   UNL     1     151.037 151.355 165.356  1.00  0.00     0.028 C 
BRANCH   6   7
ATOM      7  C   UNL     1     150.128 151.532 166.549  1.00  0.00    -0.028 C 
ATOM      8  C   UNL     1     149.481 152.671 166.885  1.00  0.00    -0.070 CG0
ATOM      9  C   UNL     1     148.615 152.655 168.119  1.00  0.00     0.039 C 
ATOM     10  G   UNL     1     149.557 153.943 166.062  1.00  0.00     0.000 G0
ENDBRANCH   6   7
ENDBRANCH   5   6
ENDBRANCH   3   5
ENDBRANCH   1   3
BRANCH   1  11
ATOM     11  C   UNL     1     148.414 152.384 162.972  1.00  0.00     0.087 C 
BRANCH  11  12
ATOM     12  C   UNL     1     148.977 153.728 163.501  1.00  0.00     0.066 C 
BRANCH  12  13
ATOM     13  C   UNL     1     148.557 153.962 164.943  1.00  0.00     0.140 C 
ATOM     14  O   UNL     1     147.387 154.206 165.204  1.00  0.00    -0.299 OA
BRANCH  13  15
ATOM     15  C   UNL     1     149.564 153.954 166.063  1.00  0.00     0.106 CG0
ATOM     16  G   UNL     1     149.467 152.673 166.869  1.00  0.00     0.000 G0
ENDBRANCH  13  15
ENDBRANCH  12  13
BRANCH  12  17
ATOM     17  C   UNL     1     148.591 154.957 162.618  1.00  0.00    -0.006 C 
ATOM     18  C   UNL     1     149.544 156.142 162.847  1.00  0.00     0.008 C 
ATOM     19  C   UNL     1     148.499 154.638 161.115  1.00  0.00     0.008 C 
ENDBRANCH  12  17
ENDBRANCH  11  12
ENDBRANCH   1  11
TORSDOF 1
ENDMDL
