MODEL 1
REMARK VINA RESULT:    -5.581      0.000      0.000
REMARK INTER + INTRA:          -7.253
REMARK INTER:                  -6.886
REMARK INTRA:                  -0.366
REMARK UNBOUND:                -0.366
REMARK SMILES COc1cc(-c2oc3cc(O)cc(O)c3c(=O)c2O)ccc1O
REMARK SMILES IDX 6 1 18 2 16 3 17 4 15 5 13 6 12 7 10 8 9 9 8 10 7 11 5 12
REMARK SMILES IDX 3 13 22 14 4 15 21 16 20 17 2 18 1 19 23 20 19 22 14 24
REMARK SMILES IDX 11 26
REMARK H PARENT 23 21 19 23 14 25 11 27
REMARK Flexibility Score: inf
ROOT
ATOM      1  C   UNL     1      -3.172  15.452 -26.965  1.00  0.00     0.180 A 
ATOM      2  C   UNL     1      -4.376  15.259 -26.267  1.00  0.00     0.208 A 
ATOM      3  C   UNL     1      -4.906  13.963 -26.168  1.00  0.00     0.238 A 
ATOM      4  O   UNL     1      -6.012  13.805 -25.588  1.00  0.00    -0.285 OA
ATOM      5  C   UNL     1      -4.218  12.873 -26.753  1.00  0.00     0.111 A 
ATOM      6  C   UNL     1      -4.641  11.513 -26.680  1.00  0.00     0.134 A 
ATOM      7  C   UNL     1      -3.953  10.534 -27.407  1.00  0.00     0.093 A 
ATOM      8  C   UNL     1      -2.817  10.858 -28.153  1.00  0.00     0.123 A 
ATOM      9  C   UNL     1      -2.360  12.173 -28.182  1.00  0.00     0.094 A 
ATOM     10  C   UNL     1      -3.047  13.177 -27.496  1.00  0.00     0.146 A 
ATOM     11  O   UNL     1      -2.584  14.420 -27.559  1.00  0.00    -0.452 OA
ENDROOT
BRANCH   1  12
ATOM     12  C   UNL     1      -2.538  16.784 -27.092  1.00  0.00     0.025 A 
ATOM     13  C   UNL     1      -0.908  18.420 -26.284  1.00  0.00     0.161 A 
ATOM     14  C   UNL     1      -1.349  19.329 -27.263  1.00  0.00     0.157 A 
ATOM     15  C   UNL     1      -1.514  17.151 -26.202  1.00  0.00     0.062 A 
ATOM     16  C   UNL     1      -2.382  18.972 -28.135  1.00  0.00     0.051 A 
ATOM     17  C   UNL     1      -2.978  17.713 -28.049  1.00  0.00     0.016 A 
BRANCH  13  18
ATOM     18  O   UNL     1       0.125  18.808 -25.417  1.00  0.00    -0.493 OA
ATOM     19  C   UNL     1       0.049  18.757 -23.996  1.00  0.00     0.278 C 
ENDBRANCH  13  18
BRANCH  14  20
ATOM     20  O   UNL     1      -0.777  20.596 -27.381  1.00  0.00    -0.504 OA
ATOM     21  H   UNL     1      -1.253  21.362 -27.844  1.00  0.00     0.293 HD
ENDBRANCH  14  20
ENDBRANCH   1  12
BRANCH   2  22
ATOM     22  O   UNL     1      -5.050  16.352 -25.715  1.00  0.00    -0.502 OA
ATOM     23  H   UNL     1      -5.260  17.187 -26.247  1.00  0.00     0.293 HD
ENDBRANCH   2  22
BRANCH   6  24
ATOM     24  O   UNL     1      -5.708  11.069 -25.892  1.00  0.00    -0.507 OA
ATOM     25  H   UNL     1      -6.011  10.111 -25.821  1.00  0.00     0.293 HD
ENDBRANCH   6  24
BRANCH   8  26
ATOM     26  O   UNL     1      -2.128   9.875 -28.861  1.00  0.00    -0.508 OA
ATOM     27  H   UNL     1      -2.612   9.208 -29.450  1.00  0.00     0.293 HD
ENDBRANCH   8  26
TORSDOF 6
ENDMDL
MODEL 2
REMARK VINA RESULT:    -5.534      2.049      2.909
REMARK INTER + INTRA:          -7.194
REMARK INTER:                  -7.073
REMARK INTRA:                  -0.121
REMARK UNBOUND:                -0.366
REMARK SMILES COc1cc(-c2oc3cc(O)cc(O)c3c(=O)c2O)ccc1O
REMARK SMILES IDX 6 1 18 2 16 3 17 4 15 5 13 6 12 7 10 8 9 9 8 10 7 11 5 12
REMARK SMILES IDX 3 13 22 14 4 15 21 16 20 17 2 18 1 19 23 20 19 22 14 24
REMARK SMILES IDX 11 26
REMARK H PARENT 23 21 19 23 14 25 11 27
REMARK Flexibility Score: inf
ROOT
ATOM      1  C   UNL     1      -3.240  14.209 -27.006  1.00  0.00     0.180 A 
ATOM      2  C   UNL     1      -4.082  13.280 -26.370  1.00  0.00     0.208 A 
ATOM      3  C   UNL     1      -4.618  12.223 -27.122  1.00  0.00     0.238 A 
ATOM      4  O   UNL     1      -5.415  11.425 -26.560  1.00  0.00    -0.285 OA
ATOM      5  C   UNL     1      -4.294  12.097 -28.494  1.00  0.00     0.111 A 
ATOM      6  C   UNL     1      -4.748  11.043 -29.341  1.00  0.00     0.134 A 
ATOM      7  C   UNL     1      -4.472  11.090 -30.713  1.00  0.00     0.093 A 
ATOM      8  C   UNL     1      -3.702  12.121 -31.257  1.00  0.00     0.123 A 
ATOM      9  C   UNL     1      -3.203  13.123 -30.428  1.00  0.00     0.094 A 
ATOM     10  C   UNL     1      -3.493  13.122 -29.062  1.00  0.00     0.146 A 
ATOM     11  O   UNL     1      -3.006  14.102 -28.309  1.00  0.00    -0.452 OA
ENDROOT
BRANCH   1  12
ATOM     12  C   UNL     1      -2.616  15.336 -26.276  1.00  0.00     0.025 A 
ATOM     13  C   UNL     1      -2.092  17.723 -26.146  1.00  0.00     0.161 A 
ATOM     14  C   UNL     1      -1.393  17.495 -24.948  1.00  0.00     0.157 A 
ATOM     15  C   UNL     1      -2.696  16.634 -26.808  1.00  0.00     0.062 A 
ATOM     16  C   UNL     1      -1.296  16.200 -24.428  1.00  0.00     0.051 A 
ATOM     17  C   UNL     1      -1.896  15.127 -25.088  1.00  0.00     0.016 A 
BRANCH  13  18
ATOM     18  O   UNL     1      -2.167  19.031 -26.649  1.00  0.00    -0.493 OA
ATOM     19  C   UNL     1      -1.461  19.499 -27.794  1.00  0.00     0.278 C 
ENDBRANCH  13  18
BRANCH  14  20
ATOM     20  O   UNL     1      -0.782  18.543 -24.259  1.00  0.00    -0.504 OA
ATOM     21  H   UNL     1      -1.209  19.458 -24.180  1.00  0.00     0.293 HD
ENDBRANCH  14  20
ENDBRANCH   1  12
BRANCH   2  22
ATOM     22  O   UNL     1      -4.406  13.435 -25.020  1.00  0.00    -0.502 OA
ATOM     23  H   UNL     1      -5.362  13.518 -24.696  1.00  0.00     0.293 HD
ENDBRANCH   2  22
BRANCH   6  24
ATOM     24  O   UNL     1      -5.446   9.920 -28.884  1.00  0.00    -0.507 OA
ATOM     25  H   UNL     1      -5.278   8.975 -29.190  1.00  0.00     0.293 HD
ENDBRANCH   6  24
BRANCH   8  26
ATOM     26  O   UNL     1      -3.418  12.153 -32.621  1.00  0.00    -0.508 OA
ATOM     27  H   UNL     1      -3.893  11.543 -33.275  1.00  0.00     0.293 HD
ENDBRANCH   8  26
TORSDOF 6
ENDMDL
MODEL 3
REMARK VINA RESULT:    -5.394      2.866      7.302
REMARK INTER + INTRA:          -7.022
REMARK INTER:                  -6.638
REMARK INTRA:                  -0.385
REMARK UNBOUND:                -0.366
REMARK SMILES COc1cc(-c2oc3cc(O)cc(O)c3c(=O)c2O)ccc1O
REMARK SMILES IDX 6 1 18 2 16 3 17 4 15 5 13 6 12 7 10 8 9 9 8 10 7 11 5 12
REMARK SMILES IDX 3 13 22 14 4 15 21 16 20 17 2 18 1 19 23 20 19 22 14 24
REMARK SMILES IDX 11 26
REMARK H PARENT 23 21 19 23 14 25 11 27
REMARK Flexibility Score: inf
ROOT
ATOM      1  C   UNL     1      -4.724  15.292 -27.872  1.00  0.00     0.180 A 
ATOM      2  C   UNL     1      -3.579  16.106 -27.815  1.00  0.00     0.208 A 
ATOM      3  C   UNL     1      -3.589  17.343 -28.479  1.00  0.00     0.238 A 
ATOM      4  O   UNL     1      -2.543  18.042 -28.470  1.00  0.00    -0.285 OA
ATOM      5  C   UNL     1      -4.748  17.758 -29.178  1.00  0.00     0.111 A 
ATOM      6  C   UNL     1      -4.884  19.009 -29.852  1.00  0.00     0.134 A 
ATOM      7  C   UNL     1      -6.027  19.260 -30.620  1.00  0.00     0.093 A 
ATOM      8  C   UNL     1      -7.068  18.331 -30.685  1.00  0.00     0.123 A 
ATOM      9  C   UNL     1      -6.972  17.132 -29.982  1.00  0.00     0.094 A 
ATOM     10  C   UNL     1      -5.828  16.839 -29.236  1.00  0.00     0.146 A 
ATOM     11  O   UNL     1      -5.772  15.681 -28.589  1.00  0.00    -0.452 OA
ENDROOT
BRANCH   1  12
ATOM     12  C   UNL     1      -4.799  13.986 -27.177  1.00  0.00     0.025 A 
ATOM     13  C   UNL     1      -4.387  11.575 -27.187  1.00  0.00     0.161 A 
ATOM     14  C   UNL     1      -4.977  11.478 -25.914  1.00  0.00     0.157 A 
ATOM     15  C   UNL     1      -4.309  12.834 -27.815  1.00  0.00     0.062 A 
ATOM     16  C   UNL     1      -5.483  12.621 -25.288  1.00  0.00     0.051 A 
ATOM     17  C   UNL     1      -5.402  13.866 -25.914  1.00  0.00     0.016 A 
BRANCH  13  18
ATOM     18  O   UNL     1      -3.895  10.410 -27.796  1.00  0.00    -0.493 OA
ATOM     19  C   UNL     1      -2.545  10.221 -28.208  1.00  0.00     0.278 C 
ENDBRANCH  13  18
BRANCH  14  20
ATOM     20  O   UNL     1      -5.075  10.252 -25.255  1.00  0.00    -0.504 OA
ATOM     21  H   UNL     1      -5.934   9.715 -25.240  1.00  0.00     0.293 HD
ENDBRANCH  14  20
ENDBRANCH   1  12
BRANCH   2  22
ATOM     22  O   UNL     1      -2.439  15.666 -27.138  1.00  0.00    -0.502 OA
ATOM     23  H   UNL     1      -1.524  15.641 -27.572  1.00  0.00     0.293 HD
ENDBRANCH   2  22
BRANCH   6  24
ATOM     24  O   UNL     1      -3.943  20.041 -29.777  1.00  0.00    -0.507 OA
ATOM     25  H   UNL     1      -4.042  20.941 -30.219  1.00  0.00     0.293 HD
ENDBRANCH   6  24
BRANCH   8  26
ATOM     26  O   UNL     1      -8.210  18.595 -31.440  1.00  0.00    -0.508 OA
ATOM     27  H   UNL     1      -8.405  19.521 -31.799  1.00  0.00     0.293 HD
ENDBRANCH   8  26
TORSDOF 6
ENDMDL
MODEL 4
REMARK VINA RESULT:    -5.365      1.820      7.301
REMARK INTER + INTRA:          -6.986
REMARK INTER:                  -6.680
REMARK INTRA:                  -0.306
REMARK UNBOUND:                -0.366
REMARK SMILES COc1cc(-c2oc3cc(O)cc(O)c3c(=O)c2O)ccc1O
REMARK SMILES IDX 6 1 18 2 16 3 17 4 15 5 13 6 12 7 10 8 9 9 8 10 7 11 5 12
REMARK SMILES IDX 3 13 22 14 4 15 21 16 20 17 2 18 1 19 23 20 19 22 14 24
REMARK SMILES IDX 11 26
REMARK H PARENT 23 21 19 23 14 25 11 27
REMARK Flexibility Score: inf
ROOT
ATOM      1  C   UNL     1      -2.493  15.486 -26.997  1.00  0.00     0.180 A 
ATOM      2  C   UNL     1      -1.501  15.549 -26.004  1.00  0.00     0.208 A 
ATOM      3  C   UNL     1      -0.886  16.781 -25.733  1.00  0.00     0.238 A 
ATOM      4  O   UNL     1       0.040  16.820 -24.881  1.00  0.00    -0.285 OA
ATOM      5  C   UNL     1      -1.281  17.939 -26.446  1.00  0.00     0.111 A 
ATOM      6  C   UNL     1      -0.755  19.246 -26.225  1.00  0.00     0.134 A 
ATOM      7  C   UNL     1      -1.125  20.294 -27.078  1.00  0.00     0.093 A 
ATOM      8  C   UNL     1      -2.053  20.093 -28.103  1.00  0.00     0.123 A 
ATOM      9  C   UNL     1      -2.618  18.834 -28.288  1.00  0.00     0.094 A 
ATOM     10  C   UNL     1      -2.241  17.762 -27.476  1.00  0.00     0.146 A 
ATOM     11  O   UNL     1      -2.797  16.576 -27.694  1.00  0.00    -0.452 OA
ENDROOT
BRANCH   1  12
ATOM     12  C   UNL     1      -3.205  14.229 -27.323  1.00  0.00     0.025 A 
ATOM     13  C   UNL     1      -3.682  12.439 -28.920  1.00  0.00     0.161 A 
ATOM     14  C   UNL     1      -4.583  11.871 -28.002  1.00  0.00     0.157 A 
ATOM     15  C   UNL     1      -3.002  13.623 -28.574  1.00  0.00     0.062 A 
ATOM     16  C   UNL     1      -4.801  12.485 -26.764  1.00  0.00     0.051 A 
ATOM     17  C   UNL     1      -4.124  13.658 -26.427  1.00  0.00     0.016 A 
BRANCH  13  18
ATOM     18  O   UNL     1      -3.489  11.806 -30.158  1.00  0.00    -0.493 OA
ATOM     19  C   UNL     1      -3.322  12.487 -31.397  1.00  0.00     0.278 C 
ENDBRANCH  13  18
BRANCH  14  20
ATOM     20  O   UNL     1      -5.277  10.699 -28.301  1.00  0.00    -0.504 OA
ATOM     21  H   UNL     1      -4.802   9.828 -28.507  1.00  0.00     0.293 HD
ENDBRANCH  14  20
ENDBRANCH   1  12
BRANCH   2  22
ATOM     22  O   UNL     1      -1.110  14.390 -25.328  1.00  0.00    -0.502 OA
ATOM     23  H   UNL     1      -0.263  13.886 -25.557  1.00  0.00     0.293 HD
ENDBRANCH   2  22
BRANCH   6  24
ATOM     24  O   UNL     1       0.108  19.573 -25.174  1.00  0.00    -0.507 OA
ATOM     25  H   UNL     1       1.096  19.740 -25.273  1.00  0.00     0.293 HD
ENDBRANCH   6  24
BRANCH   8  26
ATOM     26  O   UNL     1      -2.428  21.145 -28.937  1.00  0.00    -0.508 OA
ATOM     27  H   UNL     1      -3.256  21.699 -28.752  1.00  0.00     0.293 HD
ENDBRANCH   8  26
TORSDOF 6
ENDMDL
MODEL 5
REMARK VINA RESULT:    -5.257      1.588      7.232
REMARK INTER + INTRA:          -6.853
REMARK INTER:                  -6.554
REMARK INTRA:                  -0.299
REMARK UNBOUND:                -0.366
REMARK SMILES COc1cc(-c2oc3cc(O)cc(O)c3c(=O)c2O)ccc1O
REMARK SMILES IDX 6 1 18 2 16 3 17 4 15 5 13 6 12 7 10 8 9 9 8 10 7 11 5 12
REMARK SMILES IDX 3 13 22 14 4 15 21 16 20 17 2 18 1 19 23 20 19 22 14 24
REMARK SMILES IDX 11 26
REMARK H PARENT 23 21 19 23 14 25 11 27
REMARK Flexibility Score: inf
ROOT
ATOM      1  C   UNL     1      -2.466  15.494 -27.011  1.00  0.00     0.180 A 
ATOM      2  C   UNL     1      -1.480  15.538 -26.011  1.00  0.00     0.208 A 
ATOM      3  C   UNL     1      -0.866  16.766 -25.714  1.00  0.00     0.238 A 
ATOM      4  O   UNL     1       0.055  16.789 -24.856  1.00  0.00    -0.285 OA
ATOM      5  C   UNL     1      -1.257  17.936 -26.408  1.00  0.00     0.111 A 
ATOM      6  C   UNL     1      -0.732  19.239 -26.161  1.00  0.00     0.134 A 
ATOM      7  C   UNL     1      -1.097  20.302 -26.996  1.00  0.00     0.093 A 
ATOM      8  C   UNL     1      -2.019  20.121 -28.030  1.00  0.00     0.123 A 
ATOM      9  C   UNL     1      -2.584  18.865 -28.241  1.00  0.00     0.094 A 
ATOM     10  C   UNL     1      -2.211  17.778 -27.447  1.00  0.00     0.146 A 
ATOM     11  O   UNL     1      -2.766  16.596 -27.689  1.00  0.00    -0.452 OA
ENDROOT
BRANCH   1  12
ATOM     12  C   UNL     1      -3.176  14.243 -27.364  1.00  0.00     0.025 A 
ATOM     13  C   UNL     1      -4.792  12.505 -26.769  1.00  0.00     0.161 A 
ATOM     14  C   UNL     1      -4.503  11.837 -27.972  1.00  0.00     0.157 A 
ATOM     15  C   UNL     1      -4.117  13.706 -26.470  1.00  0.00     0.062 A 
ATOM     16  C   UNL     1      -3.551  12.361 -28.853  1.00  0.00     0.051 A 
ATOM     17  C   UNL     1      -2.888  13.551 -28.552  1.00  0.00     0.016 A 
BRANCH  13  18
ATOM     18  O   UNL     1      -5.745  11.952 -25.900  1.00  0.00    -0.493 OA
ATOM     19  C   UNL     1      -5.454  11.005 -24.877  1.00  0.00     0.278 C 
ENDBRANCH  13  18
BRANCH  14  20
ATOM     20  O   UNL     1      -5.147  10.647 -28.310  1.00  0.00    -0.504 OA
ATOM     21  H   UNL     1      -4.639   9.827 -28.619  1.00  0.00     0.293 HD
ENDBRANCH  14  20
ENDBRANCH   1  12
BRANCH   2  22
ATOM     22  O   UNL     1      -1.093  14.368 -25.354  1.00  0.00    -0.502 OA
ATOM     23  H   UNL     1      -1.172  13.453 -25.781  1.00  0.00     0.293 HD
ENDBRANCH   2  22
BRANCH   6  24
ATOM     24  O   UNL     1       0.125  19.546 -25.099  1.00  0.00    -0.507 OA
ATOM     25  H   UNL     1       1.128  19.462 -25.128  1.00  0.00     0.293 HD
ENDBRANCH   6  24
BRANCH   8  26
ATOM     26  O   UNL     1      -2.389  21.187 -28.847  1.00  0.00    -0.508 OA
ATOM     27  H   UNL     1      -1.749  21.945 -29.053  1.00  0.00     0.293 HD
ENDBRANCH   8  26
TORSDOF 6
ENDMDL
MODEL 6
REMARK VINA RESULT:    -5.087      3.263      5.908
REMARK INTER + INTRA:          -6.643
REMARK INTER:                  -6.609
REMARK INTRA:                  -0.034
REMARK UNBOUND:                -0.366
REMARK SMILES COc1cc(-c2oc3cc(O)cc(O)c3c(=O)c2O)ccc1O
REMARK SMILES IDX 6 1 18 2 16 3 17 4 15 5 13 6 12 7 10 8 9 9 8 10 7 11 5 12
REMARK SMILES IDX 3 13 22 14 4 15 21 16 20 17 2 18 1 19 23 20 19 22 14 24
REMARK SMILES IDX 11 26
REMARK H PARENT 23 21 19 23 14 25 11 27
REMARK Flexibility Score: inf
ROOT
ATOM      1  C   UNL     1      -4.082  16.667 -28.303  1.00  0.00     0.180 A 
ATOM      2  C   UNL     1      -3.603  15.363 -28.517  1.00  0.00     0.208 A 
ATOM      3  C   UNL     1      -2.586  14.866 -27.688  1.00  0.00     0.238 A 
ATOM      4  O   UNL     1      -2.124  13.718 -27.919  1.00  0.00    -0.285 OA
ATOM      5  C   UNL     1      -2.070  15.672 -26.644  1.00  0.00     0.111 A 
ATOM      6  C   UNL     1      -1.067  15.257 -25.719  1.00  0.00     0.134 A 
ATOM      7  C   UNL     1      -0.539  16.182 -24.809  1.00  0.00     0.093 A 
ATOM      8  C   UNL     1      -1.025  17.490 -24.750  1.00  0.00     0.123 A 
ATOM      9  C   UNL     1      -2.047  17.888 -25.609  1.00  0.00     0.094 A 
ATOM     10  C   UNL     1      -2.568  16.999 -26.551  1.00  0.00     0.146 A 
ATOM     11  O   UNL     1      -3.533  17.422 -27.358  1.00  0.00    -0.452 OA
ENDROOT
BRANCH   1  12
ATOM     12  C   UNL     1      -5.170  17.253 -29.120  1.00  0.00     0.025 A 
ATOM     13  C   UNL     1      -6.082  19.164 -30.344  1.00  0.00     0.161 A 
ATOM     14  C   UNL     1      -7.241  18.420 -30.625  1.00  0.00     0.157 A 
ATOM     15  C   UNL     1      -5.053  18.574 -29.584  1.00  0.00     0.062 A 
ATOM     16  C   UNL     1      -7.367  17.112 -30.146  1.00  0.00     0.051 A 
ATOM     17  C   UNL     1      -6.344  16.532 -29.394  1.00  0.00     0.016 A 
BRANCH  13  18
ATOM     18  O   UNL     1      -5.986  20.477 -30.831  1.00  0.00    -0.493 OA
ATOM     19  C   UNL     1      -4.797  21.261 -30.815  1.00  0.00     0.278 C 
ENDBRANCH  13  18
BRANCH  14  20
ATOM     20  O   UNL     1      -8.284  18.964 -31.375  1.00  0.00    -0.504 OA
ATOM     21  H   UNL     1      -8.456  18.692 -32.336  1.00  0.00     0.293 HD
ENDBRANCH  14  20
ENDBRANCH   1  12
BRANCH   2  22
ATOM     22  O   UNL     1      -4.111  14.593 -29.567  1.00  0.00    -0.502 OA
ATOM     23  H   UNL     1      -3.902  14.791 -30.538  1.00  0.00     0.293 HD
ENDBRANCH   2  22
BRANCH   6  24
ATOM     24  O   UNL     1      -0.578  13.949 -25.633  1.00  0.00    -0.507 OA
ATOM     25  H   UNL     1       0.049  13.526 -26.298  1.00  0.00     0.293 HD
ENDBRANCH   6  24
BRANCH   8  26
ATOM     26  O   UNL     1      -0.505  18.400 -23.832  1.00  0.00    -0.508 OA
ATOM     27  H   UNL     1       0.471  18.382 -23.563  1.00  0.00     0.293 HD
ENDBRANCH   8  26
TORSDOF 6
ENDMDL
MODEL 7
REMARK VINA RESULT:    -5.068      3.182      3.881
REMARK INTER + INTRA:          -6.619
REMARK INTER:                  -6.376
REMARK INTRA:                  -0.243
REMARK UNBOUND:                -0.366
REMARK SMILES COc1cc(-c2oc3cc(O)cc(O)c3c(=O)c2O)ccc1O
REMARK SMILES IDX 6 1 18 2 16 3 17 4 15 5 13 6 12 7 10 8 9 9 8 10 7 11 5 12
REMARK SMILES IDX 3 13 22 14 4 15 21 16 20 17 2 18 1 19 23 20 19 22 14 24
REMARK SMILES IDX 11 26
REMARK H PARENT 23 21 19 23 14 25 11 27
REMARK Flexibility Score: inf
ROOT
ATOM      1  C   UNL     1      -5.082  16.255 -29.110  1.00  0.00     0.180 A 
ATOM      2  C   UNL     1      -5.542  15.793 -27.865  1.00  0.00     0.208 A 
ATOM      3  C   UNL     1      -5.188  14.500 -27.447  1.00  0.00     0.238 A 
ATOM      4  O   UNL     1      -5.648  14.071 -26.356  1.00  0.00    -0.285 OA
ATOM      5  C   UNL     1      -4.366  13.693 -28.269  1.00  0.00     0.111 A 
ATOM      6  C   UNL     1      -3.913  12.384 -27.927  1.00  0.00     0.134 A 
ATOM      7  C   UNL     1      -3.212  11.626 -28.872  1.00  0.00     0.093 A 
ATOM      8  C   UNL     1      -2.892  12.155 -30.125  1.00  0.00     0.123 A 
ATOM      9  C   UNL     1      -3.278  13.454 -30.446  1.00  0.00     0.094 A 
ATOM     10  C   UNL     1      -4.009  14.221 -29.537  1.00  0.00     0.146 A 
ATOM     11  O   UNL     1      -4.367  15.451 -29.888  1.00  0.00    -0.452 OA
ENDROOT
BRANCH   1  12
ATOM     12  C   UNL     1      -5.392  17.615 -29.610  1.00  0.00     0.025 A 
ATOM     13  C   UNL     1      -4.632  19.874 -30.163  1.00  0.00     0.161 A 
ATOM     14  C   UNL     1      -5.951  20.225 -30.500  1.00  0.00     0.157 A 
ATOM     15  C   UNL     1      -4.363  18.566 -29.712  1.00  0.00     0.062 A 
ATOM     16  C   UNL     1      -6.980  19.285 -30.379  1.00  0.00     0.051 A 
ATOM     17  C   UNL     1      -6.706  17.991 -29.932  1.00  0.00     0.016 A 
BRANCH  13  18
ATOM     18  O   UNL     1      -3.622  20.840 -30.286  1.00  0.00    -0.493 OA
ATOM     19  C   UNL     1      -3.205  21.712 -29.241  1.00  0.00     0.278 C 
ENDBRANCH  13  18
BRANCH  14  20
ATOM     20  O   UNL     1      -6.264  21.507 -30.952  1.00  0.00    -0.504 OA
ATOM     21  H   UNL     1      -5.880  21.885 -31.810  1.00  0.00     0.293 HD
ENDBRANCH  14  20
ENDBRANCH   1  12
BRANCH   2  22
ATOM     22  O   UNL     1      -6.370  16.598 -27.080  1.00  0.00    -0.502 OA
ATOM     23  H   UNL     1      -7.204  17.042 -27.445  1.00  0.00     0.293 HD
ENDBRANCH   2  22
BRANCH   6  24
ATOM     24  O   UNL     1      -4.100  11.797 -26.671  1.00  0.00    -0.507 OA
ATOM     25  H   UNL     1      -4.370  12.296 -25.838  1.00  0.00     0.293 HD
ENDBRANCH   6  24
BRANCH   8  26
ATOM     26  O   UNL     1      -2.180  11.399 -31.055  1.00  0.00    -0.508 OA
ATOM     27  H   UNL     1      -1.179  11.265 -30.974  1.00  0.00     0.293 HD
ENDBRANCH   8  26
TORSDOF 6
ENDMDL
MODEL 8
REMARK VINA RESULT:    -5.035      1.725      2.777
REMARK INTER + INTRA:          -6.579
REMARK INTER:                  -6.689
REMARK INTRA:                   0.110
REMARK UNBOUND:                -0.366
REMARK SMILES COc1cc(-c2oc3cc(O)cc(O)c3c(=O)c2O)ccc1O
REMARK SMILES IDX 6 1 18 2 16 3 17 4 15 5 13 6 12 7 10 8 9 9 8 10 7 11 5 12
REMARK SMILES IDX 3 13 22 14 4 15 21 16 20 17 2 18 1 19 23 20 19 22 14 24
REMARK SMILES IDX 11 26
REMARK H PARENT 23 21 19 23 14 25 11 27
REMARK Flexibility Score: inf
ROOT
ATOM      1  C   UNL     1      -3.610  14.440 -27.536  1.00  0.00     0.180 A 
ATOM      2  C   UNL     1      -3.678  13.878 -28.822  1.00  0.00     0.208 A 
ATOM      3  C   UNL     1      -4.200  12.583 -28.972  1.00  0.00     0.238 A 
ATOM      4  O   UNL     1      -4.208  12.064 -30.119  1.00  0.00    -0.285 OA
ATOM      5  C   UNL     1      -4.662  11.874 -27.838  1.00  0.00     0.111 A 
ATOM      6  C   UNL     1      -5.247  10.573 -27.878  1.00  0.00     0.134 A 
ATOM      7  C   UNL     1      -5.549   9.913 -26.681  1.00  0.00     0.093 A 
ATOM      8  C   UNL     1      -5.347  10.534 -25.446  1.00  0.00     0.123 A 
ATOM      9  C   UNL     1      -4.833  11.828 -25.398  1.00  0.00     0.094 A 
ATOM     10  C   UNL     1      -4.488  12.497 -26.575  1.00  0.00     0.146 A 
ATOM     11  O   UNL     1      -3.991  13.725 -26.484  1.00  0.00    -0.452 OA
ENDROOT
BRANCH   1  12
ATOM     12  C   UNL     1      -3.096  15.809 -27.300  1.00  0.00     0.025 A 
ATOM     13  C   UNL     1      -1.945  17.398 -25.838  1.00  0.00     0.161 A 
ATOM     14  C   UNL     1      -2.156  18.412 -26.789  1.00  0.00     0.157 A 
ATOM     15  C   UNL     1      -2.426  16.099 -26.099  1.00  0.00     0.062 A 
ATOM     16  C   UNL     1      -2.841  18.129 -27.975  1.00  0.00     0.051 A 
ATOM     17  C   UNL     1      -3.313  16.840 -28.228  1.00  0.00     0.016 A 
BRANCH  13  18
ATOM     18  O   UNL     1      -1.262  17.712 -24.652  1.00  0.00    -0.493 OA
ATOM     19  C   UNL     1       0.118  17.452 -24.421  1.00  0.00     0.278 C 
ENDBRANCH  13  18
BRANCH  14  20
ATOM     20  O   UNL     1      -1.697  19.711 -26.573  1.00  0.00    -0.504 OA
ATOM     21  H   UNL     1      -1.445  20.048 -25.650  1.00  0.00     0.293 HD
ENDBRANCH  14  20
ENDBRANCH   1  12
BRANCH   2  22
ATOM     22  O   UNL     1      -3.196  14.587 -29.925  1.00  0.00    -0.502 OA
ATOM     23  H   UNL     1      -2.303  14.381 -30.357  1.00  0.00     0.293 HD
ENDBRANCH   2  22
BRANCH   6  24
ATOM     24  O   UNL     1      -5.574   9.901 -29.061  1.00  0.00    -0.507 OA
ATOM     25  H   UNL     1      -5.381   8.928 -29.241  1.00  0.00     0.293 HD
ENDBRANCH   6  24
BRANCH   8  26
ATOM     26  O   UNL     1      -5.665   9.877 -24.259  1.00  0.00    -0.508 OA
ATOM     27  H   UNL     1      -5.155  10.055 -23.402  1.00  0.00     0.293 HD
ENDBRANCH   8  26
TORSDOF 6
ENDMDL
MODEL 9
REMARK VINA RESULT:    -3.028      1.578      7.141
REMARK INTER + INTRA:          -4.102
REMARK INTER:                  -3.717
REMARK INTRA:                  -0.386
REMARK UNBOUND:                -0.366
REMARK SMILES COc1cc(-c2oc3cc(O)cc(O)c3c(=O)c2O)ccc1O
REMARK SMILES IDX 6 1 18 2 16 3 17 4 15 5 13 6 12 7 10 8 9 9 8 10 7 11 5 12
REMARK SMILES IDX 3 13 22 14 4 15 21 16 20 17 2 18 1 19 23 20 19 22 14 24
REMARK SMILES IDX 11 26
REMARK H PARENT 23 21 19 23 14 25 11 27
REMARK Flexibility Score: inf
ROOT
ATOM      1  C   UNL     1      -3.799  14.944 -26.633  1.00  0.00     0.180 A 
ATOM      2  C   UNL     1      -4.117  15.728 -27.756  1.00  0.00     0.208 A 
ATOM      3  C   UNL     1      -3.464  16.958 -27.935  1.00  0.00     0.238 A 
ATOM      4  O   UNL     1      -3.792  17.680 -28.913  1.00  0.00    -0.285 OA
ATOM      5  C   UNL     1      -2.490  17.382 -27.000  1.00  0.00     0.111 A 
ATOM      6  C   UNL     1      -1.737  18.589 -27.103  1.00  0.00     0.134 A 
ATOM      7  C   UNL     1      -0.894  18.971 -26.053  1.00  0.00     0.093 A 
ATOM      8  C   UNL     1      -0.728  18.156 -24.931  1.00  0.00     0.123 A 
ATOM      9  C   UNL     1      -1.412  16.945 -24.848  1.00  0.00     0.094 A 
ATOM     10  C   UNL     1      -2.288  16.555 -25.863  1.00  0.00     0.146 A 
ATOM     11  O   UNL     1      -2.929  15.399 -25.739  1.00  0.00    -0.452 OA
ENDROOT
BRANCH   1  12
ATOM     12  C   UNL     1      -4.427  13.625 -26.389  1.00  0.00     0.025 A 
ATOM     13  C   UNL     1      -4.413  11.200 -26.711  1.00  0.00     0.161 A 
ATOM     14  C   UNL     1      -5.619  11.107 -25.995  1.00  0.00     0.157 A 
ATOM     15  C   UNL     1      -3.827  12.467 -26.909  1.00  0.00     0.062 A 
ATOM     16  C   UNL     1      -6.228  12.263 -25.494  1.00  0.00     0.051 A 
ATOM     17  C   UNL     1      -5.642  13.514 -25.693  1.00  0.00     0.016 A 
BRANCH  13  18
ATOM     18  O   UNL     1      -3.829  10.025 -27.210  1.00  0.00    -0.493 OA
ATOM     19  C   UNL     1      -2.523   9.947 -27.771  1.00  0.00     0.278 C 
ENDBRANCH  13  18
BRANCH  14  20
ATOM     20  O   UNL     1      -6.234   9.875 -25.774  1.00  0.00    -0.504 OA
ATOM     21  H   UNL     1      -5.802   9.148 -25.215  1.00  0.00     0.293 HD
ENDBRANCH  14  20
ENDBRANCH   1  12
BRANCH   2  22
ATOM     22  O   UNL     1      -5.098  15.301 -28.655  1.00  0.00    -0.502 OA
ATOM     23  H   UNL     1      -4.897  15.110 -29.629  1.00  0.00     0.293 HD
ENDBRANCH   2  22
BRANCH   6  24
ATOM     24  O   UNL     1      -1.761  19.430 -28.222  1.00  0.00    -0.507 OA
ATOM     25  H   UNL     1      -1.894  19.119 -29.171  1.00  0.00     0.293 HD
ENDBRANCH   6  24
BRANCH   8  26
ATOM     26  O   UNL     1       0.125  18.536 -23.896  1.00  0.00    -0.508 OA
ATOM     27  H   UNL     1       0.033  19.434 -23.437  1.00  0.00     0.293 HD
ENDBRANCH   8  26
TORSDOF 6
ENDMDL
