MODEL 1
REMARK VINA RESULT:    -4.306      0.000      0.000
REMARK INTER + INTRA:          -5.494
REMARK INTER:                  -5.188
REMARK INTRA:                  -0.306
REMARK UNBOUND:                -0.306
REMARK SMILES O=c1c(O)c(-c2ccc(O)c(O)c2)oc2cc(O)cc(O)c12
REMARK SMILES IDX 5 1 3 2 2 3 1 4 22 5 20 6 19 7 17 8 16 9 15 10 14 11 6 12
REMARK SMILES IDX 7 13 8 14 9 15 13 16 11 17 10 18 12 20 4 22 21 24 18 26
REMARK H PARENT 10 19 12 21 4 23 21 25 18 27
REMARK Flexibility Score: inf
ROOT
ATOM      1  C   UNL     1     136.421 131.334 118.141  1.00  0.00     0.180 A 
ATOM      2  C   UNL     1     137.476 130.619 117.548  1.00  0.00     0.208 A 
ATOM      3  C   UNL     1     138.533 131.329 116.959  1.00  0.00     0.238 A 
ATOM      4  O   UNL     1     139.437 130.683 116.365  1.00  0.00    -0.285 OA
ATOM      5  C   UNL     1     138.552 132.744 117.016  1.00  0.00     0.111 A 
ATOM      6  C   UNL     1     139.596 133.565 116.492  1.00  0.00     0.134 A 
ATOM      7  C   UNL     1     139.455 134.958 116.513  1.00  0.00     0.093 A 
ATOM      8  C   UNL     1     138.338 135.561 117.096  1.00  0.00     0.123 A 
ATOM      9  C   UNL     1     137.341 134.770 117.660  1.00  0.00     0.094 A 
ATOM     10  C   UNL     1     137.434 133.376 117.620  1.00  0.00     0.146 A 
ATOM     11  O   UNL     1     136.449 132.661 118.151  1.00  0.00    -0.452 OA
ENDROOT
BRANCH   1  12
ATOM     12  C   UNL     1     135.264 130.656 118.769  1.00  0.00     0.025 A 
ATOM     13  C   UNL     1     135.224 130.405 120.151  1.00  0.00     0.016 A 
ATOM     14  C   UNL     1     134.132 129.743 120.718  1.00  0.00     0.051 A 
ATOM     15  C   UNL     1     133.073 129.308 119.911  1.00  0.00     0.157 A 
ATOM     16  C   UNL     1     134.210 130.199 117.962  1.00  0.00     0.062 A 
ATOM     17  C   UNL     1     133.114 129.535 118.526  1.00  0.00     0.158 A 
BRANCH  15  18
ATOM     18  O   UNL     1     131.984 128.648 120.480  1.00  0.00    -0.504 OA
ATOM     19  H   UNL     1     132.108 127.926 121.180  1.00  0.00     0.293 HD
ENDBRANCH  15  18
BRANCH  17  20
ATOM     20  O   UNL     1     132.079 129.109 117.694  1.00  0.00    -0.504 OA
ATOM     21  H   UNL     1     131.122 129.409 117.830  1.00  0.00     0.293 HD
ENDBRANCH  17  20
ENDBRANCH   1  12
BRANCH   2  22
ATOM     22  O   UNL     1     137.477 129.221 117.568  1.00  0.00    -0.502 OA
ATOM     23  H   UNL     1     136.909 128.685 118.213  1.00  0.00     0.293 HD
ENDBRANCH   2  22
BRANCH   6  24
ATOM     24  O   UNL     1     140.793 133.069 115.966  1.00  0.00    -0.507 OA
ATOM     25  H   UNL     1     140.933 132.126 115.636  1.00  0.00     0.293 HD
ENDBRANCH   6  24
BRANCH   8  26
ATOM     26  O   UNL     1     138.215 136.949 117.127  1.00  0.00    -0.508 OA
ATOM     27  H   UNL     1     138.459 137.521 116.327  1.00  0.00     0.293 HD
ENDBRANCH   8  26
TORSDOF 6
ENDMDL
MODEL 2
REMARK VINA RESULT:    -3.810      8.791     14.001
REMARK INTER + INTRA:          -4.896
REMARK INTER:                  -4.603
REMARK INTRA:                  -0.293
REMARK UNBOUND:                -0.306
REMARK SMILES O=c1c(O)c(-c2ccc(O)c(O)c2)oc2cc(O)cc(O)c12
REMARK SMILES IDX 5 1 3 2 2 3 1 4 22 5 20 6 19 7 17 8 16 9 15 10 14 11 6 12
REMARK SMILES IDX 7 13 8 14 9 15 13 16 11 17 10 18 12 20 4 22 21 24 18 26
REMARK H PARENT 10 19 12 21 4 23 21 25 18 27
REMARK Flexibility Score: inf
ROOT
ATOM      1  C   UNL     1     137.652 144.308 117.862  1.00  0.00     0.180 A 
ATOM      2  C   UNL     1     136.525 145.005 117.392  1.00  0.00     0.208 A 
ATOM      3  C   UNL     1     135.445 144.279 116.869  1.00  0.00     0.238 A 
ATOM      4  O   UNL     1     134.471 144.913 116.382  1.00  0.00    -0.285 OA
ATOM      5  C   UNL     1     135.478 142.863 116.871  1.00  0.00     0.111 A 
ATOM      6  C   UNL     1     134.420 142.024 116.406  1.00  0.00     0.134 A 
ATOM      7  C   UNL     1     134.609 140.638 116.359  1.00  0.00     0.093 A 
ATOM      8  C   UNL     1     135.792 140.055 116.818  1.00  0.00     0.123 A 
ATOM      9  C   UNL     1     136.808 140.861 117.325  1.00  0.00     0.094 A 
ATOM     10  C   UNL     1     136.666 142.251 117.350  1.00  0.00     0.146 A 
ATOM     11  O   UNL     1     137.669 142.982 117.821  1.00  0.00    -0.452 OA
ENDROOT
BRANCH   1  12
ATOM     12  C   UNL     1     138.836 145.004 118.414  1.00  0.00     0.025 A 
ATOM     13  C   UNL     1     139.014 145.163 119.799  1.00  0.00     0.016 A 
ATOM     14  C   UNL     1     140.127 145.845 120.296  1.00  0.00     0.051 A 
ATOM     15  C   UNL     1     141.071 146.391 119.417  1.00  0.00     0.157 A 
ATOM     16  C   UNL     1     139.774 145.572 117.537  1.00  0.00     0.062 A 
ATOM     17  C   UNL     1     140.892 146.256 118.032  1.00  0.00     0.158 A 
BRANCH  15  18
ATOM     18  O   UNL     1     142.182 147.069 119.916  1.00  0.00    -0.504 OA
ATOM     19  H   UNL     1     143.036 146.581 120.161  1.00  0.00     0.293 HD
ENDBRANCH  15  18
BRANCH  17  20
ATOM     20  O   UNL     1     141.809 146.794 117.129  1.00  0.00    -0.504 OA
ATOM     21  H   UNL     1     142.805 146.633 117.216  1.00  0.00     0.293 HD
ENDBRANCH  17  20
ENDBRANCH   1  12
BRANCH   2  22
ATOM     22  O   UNL     1     136.479 146.400 117.468  1.00  0.00    -0.502 OA
ATOM     23  H   UNL     1     136.037 146.889 118.238  1.00  0.00     0.293 HD
ENDBRANCH   2  22
BRANCH   6  24
ATOM     24  O   UNL     1     133.166 142.495 116.007  1.00  0.00    -0.507 OA
ATOM     25  H   UNL     1     132.283 142.169 116.371  1.00  0.00     0.293 HD
ENDBRANCH   6  24
BRANCH   8  26
ATOM     26  O   UNL     1     135.964 138.672 116.784  1.00  0.00    -0.508 OA
ATOM     27  H   UNL     1     135.178 138.038 116.866  1.00  0.00     0.293 HD
ENDBRANCH   8  26
TORSDOF 6
ENDMDL
MODEL 3
REMARK VINA RESULT:    -3.712      2.581      4.749
REMARK INTER + INTRA:          -4.778
REMARK INTER:                  -4.445
REMARK INTRA:                  -0.333
REMARK UNBOUND:                -0.306
REMARK SMILES O=c1c(O)c(-c2ccc(O)c(O)c2)oc2cc(O)cc(O)c12
REMARK SMILES IDX 5 1 3 2 2 3 1 4 22 5 20 6 19 7 17 8 16 9 15 10 14 11 6 12
REMARK SMILES IDX 7 13 8 14 9 15 13 16 11 17 10 18 12 20 4 22 21 24 18 26
REMARK H PARENT 10 19 12 21 4 23 21 25 18 27
REMARK Flexibility Score: inf
ROOT
ATOM      1  C   UNL     1     137.126 134.748 117.263  1.00  0.00     0.180 A 
ATOM      2  C   UNL     1     138.448 135.147 117.000  1.00  0.00     0.208 A 
ATOM      3  C   UNL     1     138.783 136.506 117.105  1.00  0.00     0.238 A 
ATOM      4  O   UNL     1     139.950 136.865 116.795  1.00  0.00    -0.285 OA
ATOM      5  C   UNL     1     137.807 137.443 117.524  1.00  0.00     0.111 A 
ATOM      6  C   UNL     1     138.047 138.839 117.708  1.00  0.00     0.134 A 
ATOM      7  C   UNL     1     136.979 139.686 118.024  1.00  0.00     0.093 A 
ATOM      8  C   UNL     1     135.692 139.182 118.224  1.00  0.00     0.123 A 
ATOM      9  C   UNL     1     135.459 137.814 118.102  1.00  0.00     0.094 A 
ATOM     10  C   UNL     1     136.497 136.947 117.750  1.00  0.00     0.146 A 
ATOM     11  O   UNL     1     136.225 135.653 117.623  1.00  0.00    -0.452 OA
ENDROOT
BRANCH   1  12
ATOM     12  C   UNL     1     136.693 133.336 117.160  1.00  0.00     0.025 A 
ATOM     13  C   UNL     1     136.250 132.792 115.942  1.00  0.00     0.016 A 
ATOM     14  C   UNL     1     135.824 131.464 115.875  1.00  0.00     0.051 A 
ATOM     15  C   UNL     1     135.820 130.663 117.025  1.00  0.00     0.157 A 
ATOM     16  C   UNL     1     136.667 132.536 118.314  1.00  0.00     0.062 A 
ATOM     17  C   UNL     1     136.241 131.204 118.250  1.00  0.00     0.158 A 
BRANCH  15  18
ATOM     18  O   UNL     1     135.395 129.337 116.954  1.00  0.00    -0.504 OA
ATOM     19  H   UNL     1     134.685 128.974 117.579  1.00  0.00     0.293 HD
ENDBRANCH  15  18
BRANCH  17  20
ATOM     20  O   UNL     1     136.242 130.437 119.415  1.00  0.00    -0.504 OA
ATOM     21  H   UNL     1     136.430 129.442 119.403  1.00  0.00     0.293 HD
ENDBRANCH  17  20
ENDBRANCH   1  12
BRANCH   2  22
ATOM     22  O   UNL     1     139.415 134.196 116.661  1.00  0.00    -0.502 OA
ATOM     23  H   UNL     1     139.196 133.360 116.134  1.00  0.00     0.293 HD
ENDBRANCH   2  22
BRANCH   6  24
ATOM     24  O   UNL     1     139.309 139.435 117.618  1.00  0.00    -0.507 OA
ATOM     25  H   UNL     1     140.187 138.946 117.707  1.00  0.00     0.293 HD
ENDBRANCH   6  24
BRANCH   8  26
ATOM     26  O   UNL     1     134.639 140.031 118.556  1.00  0.00    -0.508 OA
ATOM     27  H   UNL     1     133.827 139.697 119.061  1.00  0.00     0.293 HD
ENDBRANCH   8  26
TORSDOF 6
ENDMDL
MODEL 4
REMARK VINA RESULT:    -3.688      3.085      5.536
REMARK INTER + INTRA:          -4.749
REMARK INTER:                  -4.439
REMARK INTRA:                  -0.310
REMARK UNBOUND:                -0.306
REMARK SMILES O=c1c(O)c(-c2ccc(O)c(O)c2)oc2cc(O)cc(O)c12
REMARK SMILES IDX 5 1 3 2 2 3 1 4 22 5 20 6 19 7 17 8 16 9 15 10 14 11 6 12
REMARK SMILES IDX 7 13 8 14 9 15 13 16 11 17 10 18 12 20 4 22 21 24 18 26
REMARK H PARENT 10 19 12 21 4 23 21 25 18 27
REMARK Flexibility Score: inf
ROOT
ATOM      1  C   UNL     1     133.951 130.907 120.707  1.00  0.00     0.180 A 
ATOM      2  C   UNL     1     133.119 129.882 120.224  1.00  0.00     0.208 A 
ATOM      3  C   UNL     1     133.289 129.432 118.906  1.00  0.00     0.238 A 
ATOM      4  O   UNL     1     132.492 128.566 118.456  1.00  0.00    -0.285 OA
ATOM      5  C   UNL     1     134.324 129.971 118.103  1.00  0.00     0.111 A 
ATOM      6  C   UNL     1     134.617 129.558 116.768  1.00  0.00     0.134 A 
ATOM      7  C   UNL     1     135.597 130.237 116.035  1.00  0.00     0.093 A 
ATOM      8  C   UNL     1     136.338 131.272 116.608  1.00  0.00     0.123 A 
ATOM      9  C   UNL     1     136.098 131.646 117.927  1.00  0.00     0.094 A 
ATOM     10  C   UNL     1     135.100 131.013 118.674  1.00  0.00     0.146 A 
ATOM     11  O   UNL     1     134.891 131.416 119.921  1.00  0.00    -0.452 OA
ENDROOT
BRANCH   1  12
ATOM     12  C   UNL     1     133.822 131.445 122.081  1.00  0.00     0.025 A 
ATOM     13  C   UNL     1     134.606 130.951 123.138  1.00  0.00     0.016 A 
ATOM     14  C   UNL     1     134.449 131.458 124.430  1.00  0.00     0.051 A 
ATOM     15  C   UNL     1     133.500 132.454 124.688  1.00  0.00     0.157 A 
ATOM     16  C   UNL     1     132.857 132.429 122.349  1.00  0.00     0.062 A 
ATOM     17  C   UNL     1     132.698 132.939 123.643  1.00  0.00     0.158 A 
BRANCH  15  18
ATOM     18  O   UNL     1     133.347 132.959 125.979  1.00  0.00    -0.504 OA
ATOM     19  H   UNL     1     132.622 133.631 126.204  1.00  0.00     0.293 HD
ENDBRANCH  15  18
BRANCH  17  20
ATOM     20  O   UNL     1     131.738 133.926 123.868  1.00  0.00    -0.504 OA
ATOM     21  H   UNL     1     131.163 133.936 124.701  1.00  0.00     0.293 HD
ENDBRANCH  17  20
ENDBRANCH   1  12
BRANCH   2  22
ATOM     22  O   UNL     1     132.153 129.309 121.056  1.00  0.00    -0.502 OA
ATOM     23  H   UNL     1     131.241 129.727 121.200  1.00  0.00     0.293 HD
ENDBRANCH   2  22
BRANCH   6  24
ATOM     24  O   UNL     1     133.998 128.479 116.129  1.00  0.00    -0.507 OA
ATOM     25  H   UNL     1     134.307 127.520 116.183  1.00  0.00     0.293 HD
ENDBRANCH   6  24
BRANCH   8  26
ATOM     26  O   UNL     1     137.324 131.931 115.875  1.00  0.00    -0.508 OA
ATOM     27  H   UNL     1     137.601 132.881 116.094  1.00  0.00     0.293 HD
ENDBRANCH   8  26
TORSDOF 6
ENDMDL
MODEL 5
REMARK VINA RESULT:    -3.659      1.548      6.996
REMARK INTER + INTRA:          -4.714
REMARK INTER:                  -4.382
REMARK INTRA:                  -0.332
REMARK UNBOUND:                -0.306
REMARK SMILES O=c1c(O)c(-c2ccc(O)c(O)c2)oc2cc(O)cc(O)c12
REMARK SMILES IDX 5 1 3 2 2 3 1 4 22 5 20 6 19 7 17 8 16 9 15 10 14 11 6 12
REMARK SMILES IDX 7 13 8 14 9 15 13 16 11 17 10 18 12 20 4 22 21 24 18 26
REMARK H PARENT 10 19 12 21 4 23 21 25 18 27
REMARK Flexibility Score: inf
ROOT
ATOM      1  C   UNL     1     136.525 131.988 118.784  1.00  0.00     0.180 A 
ATOM      2  C   UNL     1     136.764 131.536 120.093  1.00  0.00     0.208 A 
ATOM      3  C   UNL     1     135.924 130.553 120.638  1.00  0.00     0.238 A 
ATOM      4  O   UNL     1     136.099 130.208 121.837  1.00  0.00    -0.285 OA
ATOM      5  C   UNL     1     134.889 129.994 119.850  1.00  0.00     0.111 A 
ATOM      6  C   UNL     1     134.005 128.960 120.285  1.00  0.00     0.134 A 
ATOM      7  C   UNL     1     132.951 128.559 119.456  1.00  0.00     0.093 A 
ATOM      8  C   UNL     1     132.786 129.109 118.183  1.00  0.00     0.123 A 
ATOM      9  C   UNL     1     133.676 130.078 117.727  1.00  0.00     0.094 A 
ATOM     10  C   UNL     1     134.715 130.527 118.547  1.00  0.00     0.146 A 
ATOM     11  O   UNL     1     135.527 131.469 118.081  1.00  0.00    -0.452 OA
ENDROOT
BRANCH   1  12
ATOM     12  C   UNL     1     137.359 133.032 118.146  1.00  0.00     0.025 A 
ATOM     13  C   UNL     1     137.071 134.399 118.303  1.00  0.00     0.016 A 
ATOM     14  C   UNL     1     137.858 135.364 117.671  1.00  0.00     0.051 A 
ATOM     15  C   UNL     1     138.934 134.980 116.861  1.00  0.00     0.157 A 
ATOM     16  C   UNL     1     138.426 132.651 117.315  1.00  0.00     0.062 A 
ATOM     17  C   UNL     1     139.217 133.617 116.681  1.00  0.00     0.158 A 
BRANCH  15  18
ATOM     18  O   UNL     1     139.719 135.946 116.233  1.00  0.00    -0.504 OA
ATOM     19  H   UNL     1     139.694 136.918 116.520  1.00  0.00     0.293 HD
ENDBRANCH  15  18
BRANCH  17  20
ATOM     20  O   UNL     1     140.276 133.200 115.875  1.00  0.00    -0.504 OA
ATOM     21  H   UNL     1     140.839 133.855 115.346  1.00  0.00     0.293 HD
ENDBRANCH  17  20
ENDBRANCH   1  12
BRANCH   2  22
ATOM     22  O   UNL     1     137.838 132.046 120.828  1.00  0.00    -0.502 OA
ATOM     23  H   UNL     1     138.182 132.992 120.707  1.00  0.00     0.293 HD
ENDBRANCH   2  22
BRANCH   6  24
ATOM     24  O   UNL     1     134.132 128.281 121.501  1.00  0.00    -0.507 OA
ATOM     25  H   UNL     1     134.258 127.285 121.597  1.00  0.00     0.293 HD
ENDBRANCH   6  24
BRANCH   8  26
ATOM     26  O   UNL     1     131.743 128.691 117.357  1.00  0.00    -0.508 OA
ATOM     27  H   UNL     1     131.606 129.089 116.435  1.00  0.00     0.293 HD
ENDBRANCH   8  26
TORSDOF 6
ENDMDL
MODEL 6
REMARK VINA RESULT:    -3.640      1.605      6.668
REMARK INTER + INTRA:          -4.691
REMARK INTER:                  -4.360
REMARK INTRA:                  -0.331
REMARK UNBOUND:                -0.306
REMARK SMILES O=c1c(O)c(-c2ccc(O)c(O)c2)oc2cc(O)cc(O)c12
REMARK SMILES IDX 5 1 3 2 2 3 1 4 22 5 20 6 19 7 17 8 16 9 15 10 14 11 6 12
REMARK SMILES IDX 7 13 8 14 9 15 13 16 11 17 10 18 12 20 4 22 21 24 18 26
REMARK H PARENT 10 19 12 21 4 23 21 25 18 27
REMARK Flexibility Score: inf
ROOT
ATOM      1  C   UNL     1     136.559 131.956 118.011  1.00  0.00     0.180 A 
ATOM      2  C   UNL     1     136.624 131.093 116.904  1.00  0.00     0.208 A 
ATOM      3  C   UNL     1     135.742 130.004 116.837  1.00  0.00     0.238 A 
ATOM      4  O   UNL     1     135.857 129.193 115.880  1.00  0.00    -0.285 OA
ATOM      5  C   UNL     1     134.769 129.820 117.849  1.00  0.00     0.111 A 
ATOM      6  C   UNL     1     133.795 128.776 117.861  1.00  0.00     0.134 A 
ATOM      7  C   UNL     1     132.951 128.632 118.968  1.00  0.00     0.093 A 
ATOM      8  C   UNL     1     133.002 129.531 120.036  1.00  0.00     0.123 A 
ATOM      9  C   UNL     1     133.910 130.585 120.009  1.00  0.00     0.094 A 
ATOM     10  C   UNL     1     134.793 130.734 118.935  1.00  0.00     0.146 A 
ATOM     11  O   UNL     1     135.657 131.741 118.961  1.00  0.00    -0.452 OA
ENDROOT
BRANCH   1  12
ATOM     12  C   UNL     1     137.465 133.119 118.160  1.00  0.00     0.025 A 
ATOM     13  C   UNL     1     138.707 133.002 118.805  1.00  0.00     0.016 A 
ATOM     14  C   UNL     1     139.534 134.118 118.955  1.00  0.00     0.051 A 
ATOM     15  C   UNL     1     139.126 135.369 118.475  1.00  0.00     0.157 A 
ATOM     16  C   UNL     1     137.051 134.379 117.699  1.00  0.00     0.062 A 
ATOM     17  C   UNL     1     137.877 135.500 117.847  1.00  0.00     0.158 A 
BRANCH  15  18
ATOM     18  O   UNL     1     139.954 136.481 118.624  1.00  0.00    -0.504 OA
ATOM     19  H   UNL     1     139.665 137.289 119.162  1.00  0.00     0.293 HD
ENDBRANCH  15  18
BRANCH  17  20
ATOM     20  O   UNL     1     137.437 136.733 117.365  1.00  0.00    -0.504 OA
ATOM     21  H   UNL     1     138.066 137.390 116.920  1.00  0.00     0.293 HD
ENDBRANCH  17  20
ENDBRANCH   1  12
BRANCH   2  22
ATOM     22  O   UNL     1     137.541 131.335 115.877  1.00  0.00    -0.502 OA
ATOM     23  H   UNL     1     137.385 132.033 115.160  1.00  0.00     0.293 HD
ENDBRANCH   2  22
BRANCH   6  24
ATOM     24  O   UNL     1     133.598 127.877 116.808  1.00  0.00    -0.507 OA
ATOM     25  H   UNL     1     134.318 127.299 116.399  1.00  0.00     0.293 HD
ENDBRANCH   6  24
BRANCH   8  26
ATOM     26  O   UNL     1     132.145 129.389 121.126  1.00  0.00    -0.508 OA
ATOM     27  H   UNL     1     132.369 129.787 122.031  1.00  0.00     0.293 HD
ENDBRANCH   8  26
TORSDOF 6
ENDMDL
MODEL 7
REMARK VINA RESULT:    -3.579      6.058     11.192
REMARK INTER + INTRA:          -4.617
REMARK INTER:                  -4.315
REMARK INTRA:                  -0.302
REMARK UNBOUND:                -0.306
REMARK SMILES O=c1c(O)c(-c2ccc(O)c(O)c2)oc2cc(O)cc(O)c12
REMARK SMILES IDX 5 1 3 2 2 3 1 4 22 5 20 6 19 7 17 8 16 9 15 10 14 11 6 12
REMARK SMILES IDX 7 13 8 14 9 15 13 16 11 17 10 18 12 20 4 22 21 24 18 26
REMARK H PARENT 10 19 12 21 4 23 21 25 18 27
REMARK Flexibility Score: inf
ROOT
ATOM      1  C   UNL     1     137.400 141.142 117.161  1.00  0.00     0.180 A 
ATOM      2  C   UNL     1     136.145 140.615 116.813  1.00  0.00     0.208 A 
ATOM      3  C   UNL     1     135.930 139.233 116.930  1.00  0.00     0.238 A 
ATOM      4  O   UNL     1     134.828 138.759 116.546  1.00  0.00    -0.285 OA
ATOM      5  C   UNL     1     136.954 138.401 117.445  1.00  0.00     0.111 A 
ATOM      6  C   UNL     1     136.832 136.993 117.650  1.00  0.00     0.134 A 
ATOM      7  C   UNL     1     137.947 136.256 118.065  1.00  0.00     0.093 A 
ATOM      8  C   UNL     1     139.163 136.885 118.346  1.00  0.00     0.123 A 
ATOM      9  C   UNL     1     139.276 138.265 118.203  1.00  0.00     0.094 A 
ATOM     10  C   UNL     1     138.192 139.023 117.753  1.00  0.00     0.146 A 
ATOM     11  O   UNL     1     138.352 140.333 117.610  1.00  0.00    -0.452 OA
ENDROOT
BRANCH   1  12
ATOM     12  C   UNL     1     137.707 142.587 117.051  1.00  0.00     0.025 A 
ATOM     13  C   UNL     1     138.436 143.101 115.966  1.00  0.00     0.016 A 
ATOM     14  C   UNL     1     138.733 144.464 115.897  1.00  0.00     0.051 A 
ATOM     15  C   UNL     1     138.320 145.330 116.917  1.00  0.00     0.157 A 
ATOM     16  C   UNL     1     137.313 143.456 118.082  1.00  0.00     0.062 A 
ATOM     17  C   UNL     1     137.610 144.823 118.015  1.00  0.00     0.158 A 
BRANCH  15  18
ATOM     18  O   UNL     1     138.618 146.691 116.844  1.00  0.00    -0.504 OA
ATOM     19  H   UNL     1     139.376 147.038 116.268  1.00  0.00     0.293 HD
ENDBRANCH  15  18
BRANCH  17  20
ATOM     20  O   UNL     1     137.190 145.657 119.052  1.00  0.00    -0.504 OA
ATOM     21  H   UNL     1     137.055 146.652 118.919  1.00  0.00     0.293 HD
ENDBRANCH  17  20
ENDBRANCH   1  12
BRANCH   2  22
ATOM     22  O   UNL     1     135.121 141.462 116.379  1.00  0.00    -0.502 OA
ATOM     23  H   UNL     1     134.166 141.373 116.703  1.00  0.00     0.293 HD
ENDBRANCH   2  22
BRANCH   6  24
ATOM     24  O   UNL     1     135.641 136.278 117.484  1.00  0.00    -0.507 OA
ATOM     25  H   UNL     1     134.758 136.681 117.210  1.00  0.00     0.293 HD
ENDBRANCH   6  24
BRANCH   8  26
ATOM     26  O   UNL     1     140.263 136.145 118.776  1.00  0.00    -0.508 OA
ATOM     27  H   UNL     1     140.888 136.494 119.494  1.00  0.00     0.293 HD
ENDBRANCH   8  26
TORSDOF 6
ENDMDL
MODEL 8
REMARK VINA RESULT:    -3.545     13.727     14.952
REMARK INTER + INTRA:          -4.577
REMARK INTER:                  -4.254
REMARK INTRA:                  -0.323
REMARK UNBOUND:                -0.306
REMARK SMILES O=c1c(O)c(-c2ccc(O)c(O)c2)oc2cc(O)cc(O)c12
REMARK SMILES IDX 5 1 3 2 2 3 1 4 22 5 20 6 19 7 17 8 16 9 15 10 14 11 6 12
REMARK SMILES IDX 7 13 8 14 9 15 13 16 11 17 10 18 12 20 4 22 21 24 18 26
REMARK H PARENT 10 19 12 21 4 23 21 25 18 27
REMARK Flexibility Score: inf
ROOT
ATOM      1  C   UNL     1     140.280 145.528 120.810  1.00  0.00     0.180 A 
ATOM      2  C   UNL     1     141.376 146.233 120.286  1.00  0.00     0.208 A 
ATOM      3  C   UNL     1     141.391 146.551 118.919  1.00  0.00     0.238 A 
ATOM      4  O   UNL     1     142.410 147.117 118.442  1.00  0.00    -0.285 OA
ATOM      5  C   UNL     1     140.285 146.208 118.103  1.00  0.00     0.111 A 
ATOM      6  C   UNL     1     140.173 146.520 116.714  1.00  0.00     0.134 A 
ATOM      7  C   UNL     1     139.080 146.036 115.984  1.00  0.00     0.093 A 
ATOM      8  C   UNL     1     138.064 145.307 116.606  1.00  0.00     0.123 A 
ATOM      9  C   UNL     1     138.136 145.046 117.972  1.00  0.00     0.094 A 
ATOM     10  C   UNL     1     139.234 145.481 118.720  1.00  0.00     0.146 A 
ATOM     11  O   UNL     1     139.273 145.191 120.015  1.00  0.00    -0.452 OA
ENDROOT
BRANCH   1  12
ATOM     12  C   UNL     1     140.199 145.144 122.239  1.00  0.00     0.025 A 
ATOM     13  C   UNL     1     139.631 146.001 123.197  1.00  0.00     0.016 A 
ATOM     14  C   UNL     1     139.588 145.627 124.542  1.00  0.00     0.051 A 
ATOM     15  C   UNL     1     140.124 144.400 124.952  1.00  0.00     0.157 A 
ATOM     16  C   UNL     1     140.754 143.924 122.658  1.00  0.00     0.062 A 
ATOM     17  C   UNL     1     140.712 143.546 124.005  1.00  0.00     0.158 A 
BRANCH  15  18
ATOM     18  O   UNL     1     140.078 144.029 126.295  1.00  0.00    -0.504 OA
ATOM     19  H   UNL     1     140.047 143.056 126.576  1.00  0.00     0.293 HD
ENDBRANCH  15  18
BRANCH  17  20
ATOM     20  O   UNL     1     141.261 142.321 124.382  1.00  0.00    -0.504 OA
ATOM     21  H   UNL     1     142.224 142.233 124.683  1.00  0.00     0.293 HD
ENDBRANCH  17  20
ENDBRANCH   1  12
BRANCH   2  22
ATOM     22  O   UNL     1     142.423 146.630 121.123  1.00  0.00    -0.502 OA
ATOM     23  H   UNL     1     142.275 146.904 122.087  1.00  0.00     0.293 HD
ENDBRANCH   2  22
BRANCH   6  24
ATOM     24  O   UNL     1     141.085 147.314 116.013  1.00  0.00    -0.507 OA
ATOM     25  H   UNL     1     141.024 147.536 115.031  1.00  0.00     0.293 HD
ENDBRANCH   6  24
BRANCH   8  26
ATOM     26  O   UNL     1     136.971 144.846 115.875  1.00  0.00    -0.508 OA
ATOM     27  H   UNL     1     136.372 144.107 116.226  1.00  0.00     0.293 HD
ENDBRANCH   8  26
TORSDOF 6
ENDMDL
MODEL 9
REMARK VINA RESULT:    -3.498      5.645      8.571
REMARK INTER + INTRA:          -4.520
REMARK INTER:                  -4.219
REMARK INTRA:                  -0.300
REMARK UNBOUND:                -0.306
REMARK SMILES O=c1c(O)c(-c2ccc(O)c(O)c2)oc2cc(O)cc(O)c12
REMARK SMILES IDX 5 1 3 2 2 3 1 4 22 5 20 6 19 7 17 8 16 9 15 10 14 11 6 12
REMARK SMILES IDX 7 13 8 14 9 15 13 16 11 17 10 18 12 20 4 22 21 24 18 26
REMARK H PARENT 10 19 12 21 4 23 21 25 18 27
REMARK Flexibility Score: inf
ROOT
ATOM      1  C   UNL     1     137.362 138.508 117.668  1.00  0.00     0.180 A 
ATOM      2  C   UNL     1     135.966 138.525 117.827  1.00  0.00     0.208 A 
ATOM      3  C   UNL     1     135.265 139.712 117.563  1.00  0.00     0.238 A 
ATOM      4  O   UNL     1     134.025 139.741 117.780  1.00  0.00    -0.285 OA
ATOM      5  C   UNL     1     135.960 140.852 117.092  1.00  0.00     0.111 A 
ATOM      6  C   UNL     1     135.346 142.095 116.750  1.00  0.00     0.134 A 
ATOM      7  C   UNL     1     136.148 143.187 116.395  1.00  0.00     0.093 A 
ATOM      8  C   UNL     1     137.536 143.063 116.307  1.00  0.00     0.123 A 
ATOM      9  C   UNL     1     138.140 141.840 116.584  1.00  0.00     0.094 A 
ATOM     10  C   UNL     1     137.371 140.742 116.979  1.00  0.00     0.146 A 
ATOM     11  O   UNL     1     137.991 139.601 117.255  1.00  0.00    -0.452 OA
ENDROOT
BRANCH   1  12
ATOM     12  C   UNL     1     138.171 137.298 117.940  1.00  0.00     0.025 A 
ATOM     13  C   UNL     1     138.503 136.917 119.251  1.00  0.00     0.016 A 
ATOM     14  C   UNL     1     139.288 135.785 119.481  1.00  0.00     0.051 A 
ATOM     15  C   UNL     1     139.766 135.026 118.406  1.00  0.00     0.157 A 
ATOM     16  C   UNL     1     138.670 136.545 116.864  1.00  0.00     0.062 A 
ATOM     17  C   UNL     1     139.457 135.410 117.091  1.00  0.00     0.158 A 
BRANCH  15  18
ATOM     18  O   UNL     1     140.548 133.895 118.639  1.00  0.00    -0.504 OA
ATOM     19  H   UNL     1     141.558 133.924 118.563  1.00  0.00     0.293 HD
ENDBRANCH  15  18
BRANCH  17  20
ATOM     20  O   UNL     1     139.923 134.680 115.997  1.00  0.00    -0.504 OA
ATOM     21  H   UNL     1     139.347 134.505 115.183  1.00  0.00     0.293 HD
ENDBRANCH  17  20
ENDBRANCH   1  12
BRANCH   2  22
ATOM     22  O   UNL     1     135.288 137.368 118.220  1.00  0.00    -0.502 OA
ATOM     23  H   UNL     1     135.720 136.452 118.207  1.00  0.00     0.293 HD
ENDBRANCH   2  22
BRANCH   6  24
ATOM     24  O   UNL     1     133.964 142.303 116.719  1.00  0.00    -0.507 OA
ATOM     25  H   UNL     1     133.386 142.227 115.895  1.00  0.00     0.293 HD
ENDBRANCH   6  24
BRANCH   8  26
ATOM     26  O   UNL     1     138.325 144.151 115.936  1.00  0.00    -0.508 OA
ATOM     27  H   UNL     1     137.923 145.068 115.779  1.00  0.00     0.293 HD
ENDBRANCH   8  26
TORSDOF 6
ENDMDL
