MODEL 1
REMARK VINA RESULT:    -3.531      0.000      0.000
REMARK INTER + INTRA:          -6.143
REMARK INTER:                  -5.389
REMARK INTRA:                  -0.754
REMARK UNBOUND:                -0.754
REMARK SMILES O=C([O-])CCCCCCCCC(=O)[O-]
REMARK SMILES IDX 7 1 6 2 5 3 4 4 2 5 1 6 3 7 8 8 9 9 10 10 11 11 12 12 13 13
REMARK SMILES IDX 14 14
REMARK H PARENT
REMARK Flexibility Score: inf
ROOT
ATOM      1  C   UNL     1       8.332  13.314  31.661  1.00  0.00     0.000 C 
ENDROOT
BRANCH   1   2
ATOM      2  C   UNL     1       8.194  12.837  30.207  1.00  0.00     0.000 C 
BRANCH   2   3
ATOM      3  C   UNL     1       9.468  13.144  29.406  1.00  0.00     0.006 C 
BRANCH   3   4
ATOM      4  C   UNL     1       9.185  13.316  27.907  1.00  0.00     0.053 C 
BRANCH   4   5
ATOM      5  C   UNL     1       9.127  12.000  27.196  1.00  0.00     0.041 C 
ATOM      6  O   UNL     1       8.335  11.836  26.231  1.00  0.00    -0.550 OA
ATOM      7  O   UNL     1       9.924  10.943  27.619  1.00  0.00    -0.550 OA
ENDBRANCH   4   5
ENDBRANCH   3   4
ENDBRANCH   2   3
ENDBRANCH   1   2
BRANCH   1   8
ATOM      8  C   UNL     1       9.733  13.861  31.978  1.00  0.00     0.000 C 
BRANCH   8   9
ATOM      9  C   UNL     1       9.699  15.315  32.479  1.00  0.00     0.000 C 
BRANCH   9  10
ATOM     10  C   UNL     1      11.030  16.049  32.249  1.00  0.00     0.006 C 
BRANCH  10  11
ATOM     11  C   UNL     1      11.769  15.557  30.997  1.00  0.00     0.053 C 
BRANCH  11  12
ATOM     12  C   UNL     1      11.457  16.433  29.827  1.00  0.00     0.041 C 
ATOM     13  O   UNL     1      10.872  17.535  29.999  1.00  0.00    -0.550 OA
ATOM     14  O   UNL     1      11.766  16.012  28.539  1.00  0.00    -0.550 OA
ENDBRANCH  11  12
ENDBRANCH  10  11
ENDBRANCH   9  10
ENDBRANCH   8   9
ENDBRANCH   1   8
TORSDOF 9
ENDMDL
MODEL 2
REMARK VINA RESULT:    -3.531      2.769      3.623
REMARK INTER + INTRA:          -6.142
REMARK INTER:                  -5.283
REMARK INTRA:                  -0.859
REMARK UNBOUND:                -0.754
REMARK SMILES O=C([O-])CCCCCCCCC(=O)[O-]
REMARK SMILES IDX 7 1 6 2 5 3 4 4 2 5 1 6 3 7 8 8 9 9 10 10 11 11 12 12 13 13
REMARK SMILES IDX 14 14
REMARK H PARENT
REMARK Flexibility Score: inf
ROOT
ATOM      1  C   UNL     1       9.316  14.509  32.398  1.00  0.00     0.000 C 
ENDROOT
BRANCH   1   2
ATOM      2  C   UNL     1       9.565  13.274  31.517  1.00  0.00     0.000 C 
BRANCH   2   3
ATOM      3  C   UNL     1       8.276  12.840  30.804  1.00  0.00     0.006 C 
BRANCH   3   4
ATOM      4  C   UNL     1       7.033  13.033  31.684  1.00  0.00     0.053 C 
BRANCH   4   5
ATOM      5  C   UNL     1       6.406  11.726  32.058  1.00  0.00     0.041 C 
ATOM      6  O   UNL     1       7.043  10.651  31.902  1.00  0.00    -0.550 OA
ATOM      7  O   UNL     1       5.107  11.690  32.548  1.00  0.00    -0.550 OA
ENDBRANCH   4   5
ENDBRANCH   3   4
ENDBRANCH   2   3
ENDBRANCH   1   2
BRANCH   1   8
ATOM      8  C   UNL     1      10.443  15.549  32.297  1.00  0.00     0.000 C 
BRANCH   8   9
ATOM      9  C   UNL     1      11.402  15.270  31.126  1.00  0.00     0.000 C 
BRANCH   9  10
ATOM     10  C   UNL     1      11.430  16.416  30.102  1.00  0.00     0.006 C 
BRANCH  10  11
ATOM     11  C   UNL     1      11.378  15.917  28.652  1.00  0.00     0.053 C 
BRANCH  11  12
ATOM     12  C   UNL     1      10.074  15.239  28.379  1.00  0.00     0.041 C 
ATOM     13  O   UNL     1       8.991  15.795  28.699  1.00  0.00    -0.550 OA
ATOM     14  O   UNL     1      10.055  13.968  27.816  1.00  0.00    -0.550 OA
ENDBRANCH  11  12
ENDBRANCH  10  11
ENDBRANCH   9  10
ENDBRANCH   8   9
ENDBRANCH   1   8
TORSDOF 9
ENDMDL
MODEL 3
REMARK VINA RESULT:    -3.511      2.602      5.275
REMARK INTER + INTRA:          -6.112
REMARK INTER:                  -5.480
REMARK INTRA:                  -0.632
REMARK UNBOUND:                -0.754
REMARK SMILES O=C([O-])CCCCCCCCC(=O)[O-]
REMARK SMILES IDX 7 1 6 2 5 3 4 4 2 5 1 6 3 7 8 8 9 9 10 10 11 11 12 12 13 13
REMARK SMILES IDX 14 14
REMARK H PARENT
REMARK Flexibility Score: inf
ROOT
ATOM      1  C   UNL     1       9.587  15.964  32.088  1.00  0.00     0.000 C 
ENDROOT
BRANCH   1   2
ATOM      2  C   UNL     1      11.091  16.067  32.386  1.00  0.00     0.000 C 
BRANCH   2   3
ATOM      3  C   UNL     1      11.919  15.847  31.111  1.00  0.00     0.006 C 
BRANCH   3   4
ATOM      4  C   UNL     1      11.372  16.643  29.918  1.00  0.00     0.053 C 
BRANCH   4   5
ATOM      5  C   UNL     1      11.178  15.777  28.712  1.00  0.00     0.041 C 
ATOM      6  O   UNL     1      10.287  14.888  28.707  1.00  0.00    -0.550 OA
ATOM      7  O   UNL     1      12.003  15.929  27.605  1.00  0.00    -0.550 OA
ENDBRANCH   4   5
ENDBRANCH   3   4
ENDBRANCH   2   3
ENDBRANCH   1   2
BRANCH   1   8
ATOM      8  C   UNL     1       8.950  14.694  32.675  1.00  0.00     0.000 C 
BRANCH   8   9
ATOM      9  C   UNL     1       9.383  13.418  31.932  1.00  0.00     0.000 C 
BRANCH   9  10
ATOM     10  C   UNL     1       8.237  12.791  31.123  1.00  0.00     0.006 C 
BRANCH  10  11
ATOM     11  C   UNL     1       6.864  13.005  31.774  1.00  0.00     0.053 C 
BRANCH  11  12
ATOM     12  C   UNL     1       6.232  11.691  32.105  1.00  0.00     0.041 C 
ATOM     13  O   UNL     1       5.047  11.646  32.529  1.00  0.00    -0.550 OA
ATOM     14  O   UNL     1       6.968  10.517  31.995  1.00  0.00    -0.550 OA
ENDBRANCH  11  12
ENDBRANCH  10  11
ENDBRANCH   9  10
ENDBRANCH   8   9
ENDBRANCH   1   8
TORSDOF 9
ENDMDL
MODEL 4
REMARK VINA RESULT:    -3.504      0.796      4.801
REMARK INTER + INTRA:          -6.101
REMARK INTER:                  -5.370
REMARK INTRA:                  -0.731
REMARK UNBOUND:                -0.754
REMARK SMILES O=C([O-])CCCCCCCCC(=O)[O-]
REMARK SMILES IDX 7 1 6 2 5 3 4 4 2 5 1 6 3 7 8 8 9 9 10 10 11 11 12 12 13 13
REMARK SMILES IDX 14 14
REMARK H PARENT
REMARK Flexibility Score: inf
ROOT
ATOM      1  C   UNL     1       9.390  15.755  31.993  1.00  0.00     0.000 C 
ENDROOT
BRANCH   1   2
ATOM      2  C   UNL     1      10.770  15.969  32.635  1.00  0.00     0.000 C 
BRANCH   2   3
ATOM      3  C   UNL     1      11.764  16.549  31.618  1.00  0.00     0.006 C 
BRANCH   3   4
ATOM      4  C   UNL     1      11.813  15.728  30.322  1.00  0.00     0.053 C 
BRANCH   4   5
ATOM      5  C   UNL     1      11.724  16.599  29.107  1.00  0.00     0.041 C 
ATOM      6  O   UNL     1      11.350  17.797  29.212  1.00  0.00    -0.550 OA
ATOM      7  O   UNL     1      12.021  16.079  27.853  1.00  0.00    -0.550 OA
ENDBRANCH   4   5
ENDBRANCH   3   4
ENDBRANCH   2   3
ENDBRANCH   1   2
BRANCH   1   8
ATOM      8  C   UNL     1       8.795  14.373  32.308  1.00  0.00     0.000 C 
BRANCH   8   9
ATOM      9  C   UNL     1       9.413  13.254  31.451  1.00  0.00     0.000 C 
BRANCH   9  10
ATOM     10  C   UNL     1       8.634  13.013  30.148  1.00  0.00     0.006 C 
BRANCH  10  11
ATOM     11  C   UNL     1       9.485  13.260  28.895  1.00  0.00     0.053 C 
BRANCH  11  12
ATOM     12  C   UNL     1       9.094  12.315  27.804  1.00  0.00     0.041 C 
ATOM     13  O   UNL     1       8.061  12.531  27.118  1.00  0.00    -0.550 OA
ATOM     14  O   UNL     1       9.843  11.166  27.577  1.00  0.00    -0.550 OA
ENDBRANCH  11  12
ENDBRANCH  10  11
ENDBRANCH   9  10
ENDBRANCH   8   9
ENDBRANCH   1   8
TORSDOF 9
ENDMDL
MODEL 5
REMARK VINA RESULT:    -3.501      2.085      4.042
REMARK INTER + INTRA:          -6.096
REMARK INTER:                  -5.188
REMARK INTRA:                  -0.909
REMARK UNBOUND:                -0.754
REMARK SMILES O=C([O-])CCCCCCCCC(=O)[O-]
REMARK SMILES IDX 7 1 6 2 5 3 4 4 2 5 1 6 3 7 8 8 9 9 10 10 11 11 12 12 13 13
REMARK SMILES IDX 14 14
REMARK H PARENT
REMARK Flexibility Score: inf
ROOT
ATOM      1  C   UNL     1      11.616  16.839  31.568  1.00  0.00     0.000 C 
ENDROOT
BRANCH   1   2
ATOM      2  C   UNL     1      11.887  15.916  30.369  1.00  0.00     0.000 C 
BRANCH   2   3
ATOM      3  C   UNL     1      11.441  16.576  29.056  1.00  0.00     0.006 C 
BRANCH   3   4
ATOM      4  C   UNL     1      10.234  15.866  28.430  1.00  0.00     0.053 C 
BRANCH   4   5
ATOM      5  C   UNL     1      10.648  14.884  27.379  1.00  0.00     0.041 C 
ATOM      6  O   UNL     1      11.411  15.242  26.443  1.00  0.00    -0.550 OA
ATOM      7  O   UNL     1      10.164  13.582  27.411  1.00  0.00    -0.550 OA
ENDBRANCH   4   5
ENDBRANCH   3   4
ENDBRANCH   2   3
ENDBRANCH   1   2
BRANCH   1   8
ATOM      8  C   UNL     1      10.809  16.150  32.680  1.00  0.00     0.000 C 
BRANCH   8   9
ATOM      9  C   UNL     1       9.496  15.537  32.164  1.00  0.00     0.000 C 
BRANCH   9  10
ATOM     10  C   UNL     1       9.438  14.014  32.365  1.00  0.00     0.006 C 
BRANCH  10  11
ATOM     11  C   UNL     1       9.504  13.238  31.043  1.00  0.00     0.053 C 
BRANCH  11  12
ATOM     12  C   UNL     1       8.130  12.867  30.586  1.00  0.00     0.041 C 
ATOM     13  O   UNL     1       7.636  13.406  29.560  1.00  0.00    -0.550 OA
ATOM     14  O   UNL     1       7.372  11.963  31.321  1.00  0.00    -0.550 OA
ENDBRANCH  11  12
ENDBRANCH  10  11
ENDBRANCH   9  10
ENDBRANCH   8   9
ENDBRANCH   1   8
TORSDOF 9
ENDMDL
MODEL 6
REMARK VINA RESULT:    -3.446      2.687      5.423
REMARK INTER + INTRA:          -6.013
REMARK INTER:                  -5.465
REMARK INTRA:                  -0.548
REMARK UNBOUND:                -0.754
REMARK SMILES O=C([O-])CCCCCCCCC(=O)[O-]
REMARK SMILES IDX 7 1 6 2 5 3 4 4 2 5 1 6 3 7 8 8 9 9 10 10 11 11 12 12 13 13
REMARK SMILES IDX 14 14
REMARK H PARENT
REMARK Flexibility Score: inf
ROOT
ATOM      1  C   UNL     1      11.366  16.690  29.923  1.00  0.00     0.000 C 
ENDROOT
BRANCH   1   2
ATOM      2  C   UNL     1      11.327  15.977  28.562  1.00  0.00     0.000 C 
BRANCH   2   3
ATOM      3  C   UNL     1      11.804  16.911  27.440  1.00  0.00     0.006 C 
BRANCH   3   4
ATOM      4  C   UNL     1      13.264  16.651  27.048  1.00  0.00     0.053 C 
BRANCH   4   5
ATOM      5  C   UNL     1      13.997  17.922  26.751  1.00  0.00     0.041 C 
ATOM      6  O   UNL     1      15.123  17.887  26.189  1.00  0.00    -0.550 OA
ATOM      7  O   UNL     1      13.454  19.144  27.127  1.00  0.00    -0.550 OA
ENDBRANCH   4   5
ENDBRANCH   3   4
ENDBRANCH   2   3
ENDBRANCH   1   2
BRANCH   1   8
ATOM      8  C   UNL     1      11.876  15.784  31.055  1.00  0.00     0.000 C 
BRANCH   8   9
ATOM      9  C   UNL     1      10.968  15.822  32.297  1.00  0.00     0.000 C 
BRANCH   9  10
ATOM     10  C   UNL     1       9.614  15.135  32.057  1.00  0.00     0.006 C 
BRANCH  10  11
ATOM     11  C   UNL     1       9.751  13.628  31.798  1.00  0.00     0.053 C 
BRANCH  11  12
ATOM     12  C   UNL     1       8.960  13.231  30.594  1.00  0.00     0.041 C 
ATOM     13  O   UNL     1       9.523  13.121  29.473  1.00  0.00    -0.550 OA
ATOM     14  O   UNL     1       7.588  13.031  30.697  1.00  0.00    -0.550 OA
ENDBRANCH  11  12
ENDBRANCH  10  11
ENDBRANCH   9  10
ENDBRANCH   8   9
ENDBRANCH   1   8
TORSDOF 9
ENDMDL
MODEL 7
REMARK VINA RESULT:    -3.422      2.432      3.101
REMARK INTER + INTRA:          -5.977
REMARK INTER:                  -5.182
REMARK INTRA:                  -0.795
REMARK UNBOUND:                -0.754
REMARK SMILES O=C([O-])CCCCCCCCC(=O)[O-]
REMARK SMILES IDX 7 1 6 2 5 3 4 4 2 5 1 6 3 7 8 8 9 9 10 10 11 11 12 12 13 13
REMARK SMILES IDX 14 14
REMARK H PARENT
REMARK Flexibility Score: inf
ROOT
ATOM      1  C   UNL     1       9.458  16.054  32.305  1.00  0.00     0.000 C 
ENDROOT
BRANCH   1   2
ATOM      2  C   UNL     1       8.881  14.695  32.730  1.00  0.00     0.000 C 
BRANCH   2   3
ATOM      3  C   UNL     1       9.586  13.546  31.994  1.00  0.00     0.006 C 
BRANCH   3   4
ATOM      4  C   UNL     1       8.929  13.231  30.643  1.00  0.00     0.053 C 
BRANCH   4   5
ATOM      5  C   UNL     1       7.494  12.835  30.800  1.00  0.00     0.041 C 
ATOM      6  O   UNL     1       6.583  13.547  30.301  1.00  0.00    -0.550 OA
ATOM      7  O   UNL     1       7.160  11.698  31.525  1.00  0.00    -0.550 OA
ENDBRANCH   4   5
ENDBRANCH   3   4
ENDBRANCH   2   3
ENDBRANCH   1   2
BRANCH   1   8
ATOM      8  C   UNL     1      10.954  16.193  32.628  1.00  0.00     0.000 C 
BRANCH   8   9
ATOM      9  C   UNL     1      11.752  16.824  31.473  1.00  0.00     0.000 C 
BRANCH   9  10
ATOM     10  C   UNL     1      11.803  15.922  30.230  1.00  0.00     0.006 C 
BRANCH  10  11
ATOM     11  C   UNL     1      11.083  16.536  29.021  1.00  0.00     0.053 C 
BRANCH  11  12
ATOM     12  C   UNL     1      12.072  17.147  28.080  1.00  0.00     0.041 C 
ATOM     13  O   UNL     1      12.065  18.389  27.872  1.00  0.00    -0.550 OA
ATOM     14  O   UNL     1      12.969  16.338  27.392  1.00  0.00    -0.550 OA
ENDBRANCH  11  12
ENDBRANCH  10  11
ENDBRANCH   9  10
ENDBRANCH   8   9
ENDBRANCH   1   8
TORSDOF 9
ENDMDL
MODEL 8
REMARK VINA RESULT:    -3.410      1.906      5.309
REMARK INTER + INTRA:          -5.958
REMARK INTER:                  -5.029
REMARK INTRA:                  -0.929
REMARK UNBOUND:                -0.754
REMARK SMILES O=C([O-])CCCCCCCCC(=O)[O-]
REMARK SMILES IDX 7 1 6 2 5 3 4 4 2 5 1 6 3 7 8 8 9 9 10 10 11 11 12 12 13 13
REMARK SMILES IDX 14 14
REMARK H PARENT
REMARK Flexibility Score: inf
ROOT
ATOM      1  C   UNL     1      10.960  17.064  29.126  1.00  0.00     0.000 C 
ENDROOT
BRANCH   1   2
ATOM      2  C   UNL     1      11.675  17.235  30.476  1.00  0.00     0.000 C 
BRANCH   2   3
ATOM      3  C   UNL     1      11.775  15.893  31.216  1.00  0.00     0.006 C 
BRANCH   3   4
ATOM      4  C   UNL     1      10.844  15.832  32.435  1.00  0.00     0.053 C 
BRANCH   4   5
ATOM      5  C   UNL     1       9.577  15.095  32.132  1.00  0.00     0.041 C 
ATOM      6  O   UNL     1       8.555  15.723  31.749  1.00  0.00    -0.550 OA
ATOM      7  O   UNL     1       9.513  13.718  32.305  1.00  0.00    -0.550 OA
ENDBRANCH   4   5
ENDBRANCH   3   4
ENDBRANCH   2   3
ENDBRANCH   1   2
BRANCH   1   8
ATOM      8  C   UNL     1      11.779  16.240  28.119  1.00  0.00     0.000 C 
BRANCH   8   9
ATOM      9  C   UNL     1      10.952  15.124  27.457  1.00  0.00     0.000 C 
BRANCH   9  10
ATOM     10  C   UNL     1       9.592  14.915  28.141  1.00  0.00     0.006 C 
BRANCH  10  11
ATOM     11  C   UNL     1       9.432  13.504  28.724  1.00  0.00     0.053 C 
BRANCH  11  12
ATOM     12  C   UNL     1       9.318  12.495  27.627  1.00  0.00     0.041 C 
ATOM     13  O   UNL     1      10.031  11.457  27.644  1.00  0.00    -0.550 OA
ATOM     14  O   UNL     1       8.461  12.725  26.557  1.00  0.00    -0.550 OA
ENDBRANCH  11  12
ENDBRANCH  10  11
ENDBRANCH   9  10
ENDBRANCH   8   9
ENDBRANCH   1   8
TORSDOF 9
ENDMDL
MODEL 9
REMARK VINA RESULT:    -3.370      2.646      4.174
REMARK INTER + INTRA:          -5.897
REMARK INTER:                  -5.367
REMARK INTRA:                  -0.529
REMARK UNBOUND:                -0.754
REMARK SMILES O=C([O-])CCCCCCCCC(=O)[O-]
REMARK SMILES IDX 7 1 6 2 5 3 4 4 2 5 1 6 3 7 8 8 9 9 10 10 11 11 12 12 13 13
REMARK SMILES IDX 14 14
REMARK H PARENT
REMARK Flexibility Score: inf
ROOT
ATOM      1  C   UNL     1      11.819  15.897  31.105  1.00  0.00     0.000 C 
ENDROOT
BRANCH   1   2
ATOM      2  C   UNL     1      10.973  15.707  32.373  1.00  0.00     0.000 C 
BRANCH   2   3
ATOM      3  C   UNL     1       9.660  14.977  32.052  1.00  0.00     0.006 C 
BRANCH   3   4
ATOM      4  C   UNL     1       9.900  13.550  31.540  1.00  0.00     0.053 C 
BRANCH   4   5
ATOM      5  C   UNL     1       9.025  13.224  30.369  1.00  0.00     0.041 C 
ATOM      6  O   UNL     1       9.538  12.869  29.275  1.00  0.00    -0.550 OA
ATOM      7  O   UNL     1       7.645  13.343  30.475  1.00  0.00    -0.550 OA
ENDBRANCH   4   5
ENDBRANCH   3   4
ENDBRANCH   2   3
ENDBRANCH   1   2
BRANCH   1   8
ATOM      8  C   UNL     1      11.043  16.584  29.969  1.00  0.00     0.000 C 
BRANCH   8   9
ATOM      9  C   UNL     1      11.300  15.930  28.600  1.00  0.00     0.000 C 
BRANCH   9  10
ATOM     10  C   UNL     1      11.804  16.935  27.552  1.00  0.00     0.006 C 
BRANCH  10  11
ATOM     11  C   UNL     1      13.250  16.661  27.115  1.00  0.00     0.053 C 
BRANCH  11  12
ATOM     12  C   UNL     1      13.938  17.939  26.757  1.00  0.00     0.041 C 
ATOM     13  O   UNL     1      15.107  17.919  26.288  1.00  0.00    -0.550 OA
ATOM     14  O   UNL     1      13.309  19.157  26.988  1.00  0.00    -0.550 OA
ENDBRANCH  11  12
ENDBRANCH  10  11
ENDBRANCH   9  10
ENDBRANCH   8   9
ENDBRANCH   1   8
TORSDOF 9
ENDMDL
