MODEL 1
REMARK VINA RESULT:    -4.870      0.000      0.000
REMARK INTER + INTRA:          -5.555
REMARK INTER:                  -5.439
REMARK INTRA:                  -0.116
REMARK UNBOUND:                -0.116
REMARK SMILES COc1cc2ccc(=O)oc2cc1OC
REMARK SMILES IDX 3 1 13 2 12 3 11 4 5 5 4 6 6 7 7 8 8 9 9 10 10 11 2 12 1 13
REMARK SMILES IDX 14 14 15 15
REMARK H PARENT
REMARK Flexibility Score: inf
ROOT
ATOM      1  C   UNL     1     -25.887 -54.310 -14.678  1.00  0.00     0.161 A 
ATOM      2  C   UNL     1     -26.657 -53.347 -15.353  1.00  0.00     0.164 A 
ATOM      3  C   UNL     1     -26.017 -52.335 -16.096  1.00  0.00     0.098 A 
ATOM      4  C   UNL     1     -24.623 -52.283 -16.166  1.00  0.00     0.142 A 
ATOM      5  C   UNL     1     -23.850 -53.249 -15.490  1.00  0.00     0.022 A 
ATOM      6  C   UNL     1     -24.480 -54.256 -14.749  1.00  0.00     0.062 A 
ATOM      7  C   UNL     1     -22.457 -53.170 -15.580  1.00  0.00     0.019 A 
ATOM      8  C   UNL     1     -21.876 -52.147 -16.329  1.00  0.00     0.094 A 
ATOM      9  C   UNL     1     -22.705 -51.224 -16.974  1.00  0.00     0.336 A 
ATOM     10  O   UNL     1     -22.202 -50.293 -17.655  1.00  0.00    -0.246 OA
ATOM     11  O   UNL     1     -24.028 -51.323 -16.872  1.00  0.00    -0.423 OA
ENDROOT
BRANCH   1  12
ATOM     12  O   UNL     1     -26.557 -55.304 -13.947  1.00  0.00    -0.493 OA
ATOM     13  C   UNL     1     -26.593 -55.376 -12.526  1.00  0.00     0.278 C 
ENDBRANCH   1  12
BRANCH   2  14
ATOM     14  O   UNL     1     -28.055 -53.430 -15.261  1.00  0.00    -0.493 OA
ATOM     15  C   UNL     1     -28.887 -54.119 -16.189  1.00  0.00     0.278 C 
ENDBRANCH   2  14
TORSDOF 2
ENDMDL
MODEL 2
REMARK VINA RESULT:    -4.864      1.347      5.668
REMARK INTER + INTRA:          -5.549
REMARK INTER:                  -5.434
REMARK INTRA:                  -0.115
REMARK UNBOUND:                -0.116
REMARK SMILES COc1cc2ccc(=O)oc2cc1OC
REMARK SMILES IDX 3 1 13 2 12 3 11 4 5 5 4 6 6 7 7 8 8 9 9 10 10 11 2 12 1 13
REMARK SMILES IDX 14 14 15 15
REMARK H PARENT
REMARK Flexibility Score: inf
ROOT
ATOM      1  C   UNL     1     -25.013 -51.952 -16.529  1.00  0.00     0.161 A 
ATOM      2  C   UNL     1     -24.198 -52.782 -15.741  1.00  0.00     0.164 A 
ATOM      3  C   UNL     1     -24.788 -53.735 -14.887  1.00  0.00     0.098 A 
ATOM      4  C   UNL     1     -26.177 -53.860 -14.819  1.00  0.00     0.142 A 
ATOM      5  C   UNL     1     -26.996 -53.028 -15.611  1.00  0.00     0.022 A 
ATOM      6  C   UNL     1     -26.415 -52.079 -16.460  1.00  0.00     0.062 A 
ATOM      7  C   UNL     1     -28.383 -53.177 -15.521  1.00  0.00     0.019 A 
ATOM      8  C   UNL     1     -28.914 -54.136 -14.659  1.00  0.00     0.094 A 
ATOM      9  C   UNL     1     -28.042 -54.927 -13.904  1.00  0.00     0.336 A 
ATOM     10  O   UNL     1     -28.500 -55.798 -13.120  1.00  0.00    -0.246 OA
ATOM     11  O   UNL     1     -26.725 -54.764 -14.010  1.00  0.00    -0.423 OA
ENDROOT
BRANCH   1  12
ATOM     12  O   UNL     1     -24.391 -51.014 -17.369  1.00  0.00    -0.493 OA
ATOM     13  C   UNL     1     -24.177 -49.646 -17.034  1.00  0.00     0.278 C 
ENDBRANCH   1  12
BRANCH   2  14
ATOM     14  O   UNL     1     -22.805 -52.630 -15.834  1.00  0.00    -0.493 OA
ATOM     15  C   UNL     1     -21.876 -53.707 -15.878  1.00  0.00     0.278 C 
ENDBRANCH   2  14
TORSDOF 2
ENDMDL
MODEL 3
REMARK VINA RESULT:    -4.739      2.125      3.853
REMARK INTER + INTRA:          -5.410
REMARK INTER:                  -5.308
REMARK INTRA:                  -0.102
REMARK UNBOUND:                -0.116
REMARK SMILES COc1cc2ccc(=O)oc2cc1OC
REMARK SMILES IDX 3 1 13 2 12 3 11 4 5 5 4 6 6 7 7 8 8 9 9 10 10 11 2 12 1 13
REMARK SMILES IDX 14 14 15 15
REMARK H PARENT
REMARK Flexibility Score: inf
ROOT
ATOM      1  C   UNL     1     -26.155 -55.061 -12.634  1.00  0.00     0.161 A 
ATOM      2  C   UNL     1     -24.822 -54.620 -12.583  1.00  0.00     0.164 A 
ATOM      3  C   UNL     1     -24.342 -53.726 -13.560  1.00  0.00     0.098 A 
ATOM      4  C   UNL     1     -25.183 -53.274 -14.580  1.00  0.00     0.142 A 
ATOM      5  C   UNL     1     -26.522 -53.715 -14.631  1.00  0.00     0.022 A 
ATOM      6  C   UNL     1     -27.003 -54.604 -13.664  1.00  0.00     0.062 A 
ATOM      7  C   UNL     1     -27.339 -53.244 -15.664  1.00  0.00     0.019 A 
ATOM      8  C   UNL     1     -26.812 -52.360 -16.605  1.00  0.00     0.094 A 
ATOM      9  C   UNL     1     -25.476 -51.966 -16.491  1.00  0.00     0.336 A 
ATOM     10  O   UNL     1     -24.981 -51.168 -17.330  1.00  0.00    -0.246 OA
ATOM     11  O   UNL     1     -24.721 -52.428 -15.498  1.00  0.00    -0.423 OA
ENDROOT
BRANCH   1  12
ATOM     12  O   UNL     1     -26.600 -55.952 -11.644  1.00  0.00    -0.493 OA
ATOM     13  C   UNL     1     -27.835 -56.658 -11.689  1.00  0.00     0.278 C 
ENDBRANCH   1  12
BRANCH   2  14
ATOM     14  O   UNL     1     -24.004 -55.094 -11.545  1.00  0.00    -0.493 OA
ATOM     15  C   UNL     1     -22.785 -54.484 -11.134  1.00  0.00     0.278 C 
ENDBRANCH   2  14
TORSDOF 2
ENDMDL
MODEL 4
REMARK VINA RESULT:    -4.709      2.400      5.543
REMARK INTER + INTRA:          -5.375
REMARK INTER:                  -5.260
REMARK INTRA:                  -0.115
REMARK UNBOUND:                -0.116
REMARK SMILES COc1cc2ccc(=O)oc2cc1OC
REMARK SMILES IDX 3 1 13 2 12 3 11 4 5 5 4 6 6 7 7 8 8 9 9 10 10 11 2 12 1 13
REMARK SMILES IDX 14 14 15 15
REMARK H PARENT
REMARK Flexibility Score: inf
ROOT
ATOM      1  C   UNL     1     -23.776 -53.397 -14.949  1.00  0.00     0.161 A 
ATOM      2  C   UNL     1     -23.717 -53.401 -13.545  1.00  0.00     0.164 A 
ATOM      3  C   UNL     1     -24.906 -53.307 -12.795  1.00  0.00     0.098 A 
ATOM      4  C   UNL     1     -26.143 -53.210 -13.438  1.00  0.00     0.142 A 
ATOM      5  C   UNL     1     -26.202 -53.207 -14.846  1.00  0.00     0.022 A 
ATOM      6  C   UNL     1     -25.024 -53.299 -15.597  1.00  0.00     0.062 A 
ATOM      7  C   UNL     1     -27.455 -53.109 -15.460  1.00  0.00     0.019 A 
ATOM      8  C   UNL     1     -28.600 -53.018 -14.669  1.00  0.00     0.094 A 
ATOM      9  C   UNL     1     -28.465 -53.028 -13.277  1.00  0.00     0.336 A 
ATOM     10  O   UNL     1     -29.485 -52.948 -12.545  1.00  0.00    -0.246 OA
ATOM     11  O   UNL     1     -27.261 -53.123 -12.720  1.00  0.00    -0.423 OA
ENDROOT
BRANCH   1  12
ATOM     12  O   UNL     1     -22.572 -53.492 -15.665  1.00  0.00    -0.493 OA
ATOM     13  C   UNL     1     -21.876 -52.383 -16.226  1.00  0.00     0.278 C 
ENDBRANCH   1  12
BRANCH   2  14
ATOM     14  O   UNL     1     -22.459 -53.500 -12.932  1.00  0.00    -0.493 OA
ATOM     15  C   UNL     1     -22.171 -53.075 -11.604  1.00  0.00     0.278 C 
ENDBRANCH   2  14
TORSDOF 2
ENDMDL
MODEL 5
REMARK VINA RESULT:    -4.707      0.953      2.716
REMARK INTER + INTRA:          -5.374
REMARK INTER:                  -5.243
REMARK INTRA:                  -0.131
REMARK UNBOUND:                -0.116
REMARK SMILES COc1cc2ccc(=O)oc2cc1OC
REMARK SMILES IDX 3 1 13 2 12 3 11 4 5 5 4 6 6 7 7 8 8 9 9 10 10 11 2 12 1 13
REMARK SMILES IDX 14 14 15 15
REMARK H PARENT
REMARK Flexibility Score: inf
ROOT
ATOM      1  C   UNL     1     -27.013 -53.602 -15.198  1.00  0.00     0.161 A 
ATOM      2  C   UNL     1     -25.869 -54.235 -14.684  1.00  0.00     0.164 A 
ATOM      3  C   UNL     1     -24.590 -53.748 -15.019  1.00  0.00     0.098 A 
ATOM      4  C   UNL     1     -24.452 -52.640 -15.859  1.00  0.00     0.142 A 
ATOM      5  C   UNL     1     -25.600 -52.004 -16.374  1.00  0.00     0.022 A 
ATOM      6  C   UNL     1     -26.873 -52.484 -16.046  1.00  0.00     0.062 A 
ATOM      7  C   UNL     1     -25.429 -50.898 -17.212  1.00  0.00     0.019 A 
ATOM      8  C   UNL     1     -24.140 -50.458 -17.512  1.00  0.00     0.094 A 
ATOM      9  C   UNL     1     -23.047 -51.138 -16.963  1.00  0.00     0.336 A 
ATOM     10  O   UNL     1     -21.875 -50.757 -17.220  1.00  0.00    -0.246 OA
ATOM     11  O   UNL     1     -23.239 -52.187 -16.168  1.00  0.00    -0.423 OA
ENDROOT
BRANCH   1  12
ATOM     12  O   UNL     1     -28.272 -54.114 -14.844  1.00  0.00    -0.493 OA
ATOM     13  C   UNL     1     -29.211 -54.659 -15.765  1.00  0.00     0.278 C 
ENDBRANCH   1  12
BRANCH   2  14
ATOM     14  O   UNL     1     -26.044 -55.345 -13.843  1.00  0.00    -0.493 OA
ATOM     15  C   UNL     1     -25.976 -55.301 -12.421  1.00  0.00     0.278 C 
ENDBRANCH   2  14
TORSDOF 2
ENDMDL
MODEL 6
REMARK VINA RESULT:    -4.582     11.292     12.907
REMARK INTER + INTRA:          -5.234
REMARK INTER:                  -5.148
REMARK INTRA:                  -0.087
REMARK UNBOUND:                -0.116
REMARK SMILES COc1cc2ccc(=O)oc2cc1OC
REMARK SMILES IDX 3 1 13 2 12 3 11 4 5 5 4 6 6 7 7 8 8 9 9 10 10 11 2 12 1 13
REMARK SMILES IDX 14 14 15 15
REMARK H PARENT
REMARK Flexibility Score: inf
ROOT
ATOM      1  C   UNL     1     -27.720 -59.667 -27.295  1.00  0.00     0.161 A 
ATOM      2  C   UNL     1     -27.810 -58.265 -27.315  1.00  0.00     0.164 A 
ATOM      3  C   UNL     1     -28.193 -57.572 -26.149  1.00  0.00     0.098 A 
ATOM      4  C   UNL     1     -28.483 -58.270 -24.974  1.00  0.00     0.142 A 
ATOM      5  C   UNL     1     -28.392 -59.677 -24.954  1.00  0.00     0.022 A 
ATOM      6  C   UNL     1     -28.013 -60.370 -26.109  1.00  0.00     0.062 A 
ATOM      7  C   UNL     1     -28.689 -60.347 -23.763  1.00  0.00     0.019 A 
ATOM      8  C   UNL     1     -29.064 -59.612 -22.639  1.00  0.00     0.094 A 
ATOM      9  C   UNL     1     -29.132 -58.218 -22.732  1.00  0.00     0.336 A 
ATOM     10  O   UNL     1     -29.467 -57.536 -21.729  1.00  0.00    -0.246 OA
ATOM     11  O   UNL     1     -28.843 -57.606 -23.878  1.00  0.00    -0.423 OA
ENDROOT
BRANCH   1  12
ATOM     12  O   UNL     1     -27.335 -60.325 -28.475  1.00  0.00    -0.493 OA
ATOM     13  C   UNL     1     -25.990 -60.636 -28.824  1.00  0.00     0.278 C 
ENDBRANCH   1  12
BRANCH   2  14
ATOM     14  O   UNL     1     -27.511 -57.595 -28.511  1.00  0.00    -0.493 OA
ATOM     15  C   UNL     1     -27.473 -56.179 -28.658  1.00  0.00     0.278 C 
ENDBRANCH   2  14
TORSDOF 2
ENDMDL
MODEL 7
REMARK VINA RESULT:    -4.575      2.266      5.052
REMARK INTER + INTRA:          -5.226
REMARK INTER:                  -5.108
REMARK INTRA:                  -0.118
REMARK UNBOUND:                -0.116
REMARK SMILES COc1cc2ccc(=O)oc2cc1OC
REMARK SMILES IDX 3 1 13 2 12 3 11 4 5 5 4 6 6 7 7 8 8 9 9 10 10 11 2 12 1 13
REMARK SMILES IDX 14 14 15 15
REMARK H PARENT
REMARK Flexibility Score: inf
ROOT
ATOM      1  C   UNL     1     -23.695 -53.502 -13.315  1.00  0.00     0.161 A 
ATOM      2  C   UNL     1     -23.597 -53.497 -14.716  1.00  0.00     0.164 A 
ATOM      3  C   UNL     1     -24.767 -53.555 -15.500  1.00  0.00     0.098 A 
ATOM      4  C   UNL     1     -26.023 -53.617 -14.892  1.00  0.00     0.142 A 
ATOM      5  C   UNL     1     -26.122 -53.622 -13.485  1.00  0.00     0.022 A 
ATOM      6  C   UNL     1     -24.963 -53.566 -12.702  1.00  0.00     0.062 A 
ATOM      7  C   UNL     1     -27.394 -53.685 -12.906  1.00  0.00     0.019 A 
ATOM      8  C   UNL     1     -28.518 -53.741 -13.729  1.00  0.00     0.094 A 
ATOM      9  C   UNL     1     -28.344 -53.732 -15.116  1.00  0.00     0.336 A 
ATOM     10  O   UNL     1     -29.346 -53.781 -15.877  1.00  0.00    -0.246 OA
ATOM     11  O   UNL     1     -27.123 -53.671 -15.640  1.00  0.00    -0.423 OA
ENDROOT
BRANCH   1  12
ATOM     12  O   UNL     1     -22.509 -53.443 -12.565  1.00  0.00    -0.493 OA
ATOM     13  C   UNL     1     -22.368 -52.750 -11.330  1.00  0.00     0.278 C 
ENDBRANCH   1  12
BRANCH   2  14
ATOM     14  O   UNL     1     -22.320 -53.433 -15.294  1.00  0.00    -0.493 OA
ATOM     15  C   UNL     1     -21.875 -52.395 -16.161  1.00  0.00     0.278 C 
ENDBRANCH   2  14
TORSDOF 2
ENDMDL
MODEL 8
REMARK VINA RESULT:    -4.531     10.974     12.779
REMARK INTER + INTRA:          -5.177
REMARK INTER:                  -5.114
REMARK INTRA:                  -0.063
REMARK UNBOUND:                -0.116
REMARK SMILES COc1cc2ccc(=O)oc2cc1OC
REMARK SMILES IDX 3 1 13 2 12 3 11 4 5 5 4 6 6 7 7 8 8 9 9 10 10 11 2 12 1 13
REMARK SMILES IDX 14 14 15 15
REMARK H PARENT
REMARK Flexibility Score: inf
ROOT
ATOM      1  C   UNL     1     -27.828 -58.240 -26.834  1.00  0.00     0.161 A 
ATOM      2  C   UNL     1     -27.871 -59.645 -26.828  1.00  0.00     0.164 A 
ATOM      3  C   UNL     1     -28.170 -60.331 -25.635  1.00  0.00     0.098 A 
ATOM      4  C   UNL     1     -28.425 -59.624 -24.457  1.00  0.00     0.142 A 
ATOM      5  C   UNL     1     -28.383 -58.214 -24.462  1.00  0.00     0.022 A 
ATOM      6  C   UNL     1     -28.084 -57.528 -25.645  1.00  0.00     0.062 A 
ATOM      7  C   UNL     1     -28.642 -57.535 -23.267  1.00  0.00     0.019 A 
ATOM      8  C   UNL     1     -28.933 -58.264 -22.115  1.00  0.00     0.094 A 
ATOM      9  C   UNL     1     -28.959 -59.661 -22.184  1.00  0.00     0.336 A 
ATOM     10  O   UNL     1     -29.219 -60.338 -21.156  1.00  0.00    -0.246 OA
ATOM     11  O   UNL     1     -28.708 -60.281 -23.334  1.00  0.00    -0.423 OA
ENDROOT
BRANCH   1  12
ATOM     12  O   UNL     1     -27.526 -57.589 -28.041  1.00  0.00    -0.493 OA
ATOM     13  C   UNL     1     -27.505 -56.176 -28.213  1.00  0.00     0.278 C 
ENDBRANCH   1  12
BRANCH   2  14
ATOM     14  O   UNL     1     -27.610 -60.323 -28.029  1.00  0.00    -0.493 OA
ATOM     15  C   UNL     1     -26.312 -60.694 -28.483  1.00  0.00     0.278 C 
ENDBRANCH   2  14
TORSDOF 2
ENDMDL
