MODEL 1
REMARK VINA RESULT:    -9.816      0.000      0.000
REMARK INTER + INTRA:         -18.402
REMARK INTER:                 -16.127
REMARK INTRA:                  -2.274
REMARK UNBOUND:                -2.274
REMARK SMILES C[C@H]1O[C@@H](OC[C@H]2O[C@H](Oc3c(-c4ccc(O)c(O)c4)oc4cc(O)cc(O)c4c3=O)[C@H](O)[C@H](O)[C@@H]2O)[C@@H](O)[C@@H](O)[C@H]1O
REMARK SMILES IDX 7 1 36 2 34 3 32 4 9 5 8 6 6 7 5 8 4 9 1 10 2 11 42 12 3 13
REMARK SMILES IDX 40 14 38 15 43 16 41 18 39 20 37 22 35 24 10 26 11 27 12 28
REMARK SMILES IDX 30 29 21 30 29 31 31 32 22 33 27 34 23 35 26 36 24 37 13 38
REMARK SMILES IDX 20 39 14 40 18 41 15 42 16 43 19 44 17 46 28 48 25 50 33 52
REMARK H PARENT 43 17 41 19 39 21 37 23 35 25 19 45 17 47 28 49 25 51 33 53
REMARK Flexibility Score: inf
ROOT
ATOM      1  C   UNL     1      51.700  62.274   1.280  1.00  0.00     0.180 C 
ATOM      2  C   UNL     1      52.734  63.470   0.957  1.00  0.00     0.177 C 
ATOM      3  C   UNL     1      52.096  64.874   1.225  1.00  0.00     0.180 C 
ATOM      4  C   UNL     1      51.579  65.013   2.696  1.00  0.00     0.214 C 
ATOM      5  C   UNL     1      51.329  63.487   3.255  1.00  0.00     0.339 C 
ATOM      6  O   UNL     1      50.694  62.740   2.200  1.00  0.00    -0.332 OA
ENDROOT
BRANCH   1   7
ATOM      7  C   UNL     1      52.315  60.900   1.693  1.00  0.00     0.198 C 
BRANCH   7   8
ATOM      8  O   UNL     1      52.314  60.011   0.571  1.00  0.00    -0.347 OA
BRANCH   8   9
ATOM      9  C   UNL     1      53.452  60.167  -0.257  1.00  0.00     0.281 C 
ATOM     10  C   UNL     1      50.705  60.022  -1.726  1.00  0.00     0.041 C 
ATOM     11  C   UNL     1      52.144  59.851  -2.221  1.00  0.00     0.150 C 
ATOM     12  C   UNL     1      52.557  58.347  -2.321  1.00  0.00     0.174 C 
ATOM     13  O   UNL     1      53.086  60.675  -1.542  1.00  0.00    -0.344 OA
ATOM     14  C   UNL     1      53.174  57.759  -1.016  1.00  0.00     0.179 C 
ATOM     15  C   UNL     1      54.195  58.791  -0.506  1.00  0.00     0.202 C 
BRANCH  12  16
ATOM     16  O   UNL     1      51.461  57.583  -2.757  1.00  0.00    -0.388 OA
ATOM     17  H   UNL     1      51.498  56.728  -2.241  1.00  0.00     0.211 HD
ENDBRANCH  12  16
BRANCH  14  18
ATOM     18  O   UNL     1      52.225  57.470  -0.027  1.00  0.00    -0.387 OA
ATOM     19  H   UNL     1      52.347  56.514   0.288  1.00  0.00     0.211 HD
ENDBRANCH  14  18
BRANCH  15  20
ATOM     20  O   UNL     1      54.916  58.258   0.608  1.00  0.00    -0.385 OA
ATOM     21  H   UNL     1      54.253  58.037   1.315  1.00  0.00     0.211 HD
ENDBRANCH  15  20
ENDBRANCH   8   9
ENDBRANCH   7   8
ENDBRANCH   1   7
BRANCH   2  22
ATOM     22  O   UNL     1      53.471  63.476  -0.225  1.00  0.00    -0.387 OA
ATOM     23  H   UNL     1      52.831  63.501  -1.010  1.00  0.00     0.211 HD
ENDBRANCH   2  22
BRANCH   3  24
ATOM     24  O   UNL     1      51.134  65.170   0.242  1.00  0.00    -0.387 OA
ATOM     25  H   UNL     1      50.671  64.322   0.007  1.00  0.00     0.211 HD
ENDBRANCH   3  24
BRANCH   5  26
ATOM     26  O   UNL     1      50.586  63.536   4.452  1.00  0.00    -0.454 OA
BRANCH  26  27
ATOM     27  C   UNL     1      49.468  62.715   4.567  1.00  0.00     0.214 A 
ATOM     28  C   UNL     1      49.542  61.510   5.239  1.00  0.00     0.180 A 
ATOM     29  C   UNL     1      48.226  63.091   3.939  1.00  0.00     0.239 A 
ATOM     30  O   UNL     1      48.486  60.712   5.314  1.00  0.00    -0.452 OA
ATOM     31  C   UNL     1      47.122  62.241   4.147  1.00  0.00     0.111 A 
ATOM     32  O   UNL     1      48.168  64.163   3.304  1.00  0.00    -0.285 OA
ATOM     33  C   UNL     1      47.323  60.981   4.771  1.00  0.00     0.146 A 
ATOM     34  C   UNL     1      45.850  62.514   3.536  1.00  0.00     0.134 A 
ATOM     35  C   UNL     1      46.314  59.987   4.754  1.00  0.00     0.094 A 
ATOM     36  C   UNL     1      44.873  61.510   3.503  1.00  0.00     0.093 A 
ATOM     37  C   UNL     1      45.080  60.238   4.119  1.00  0.00     0.123 A 
BRANCH  28  38
ATOM     38  C   UNL     1      50.791  60.957   5.835  1.00  0.00     0.025 A 
ATOM     39  C   UNL     1      51.638  60.151   5.053  1.00  0.00     0.062 A 
ATOM     40  C   UNL     1      51.262  61.467   7.058  1.00  0.00     0.016 A 
ATOM     41  C   UNL     1      52.929  59.836   5.526  1.00  0.00     0.158 A 
ATOM     42  C   UNL     1      52.558  61.232   7.484  1.00  0.00     0.051 A 
ATOM     43  C   UNL     1      53.420  60.452   6.698  1.00  0.00     0.157 A 
BRANCH  41  44
ATOM     44  O   UNL     1      53.752  59.027   4.737  1.00  0.00    -0.504 OA
ATOM     45  H   UNL     1      54.022  59.312   3.807  1.00  0.00     0.293 HD
ENDBRANCH  41  44
BRANCH  43  46
ATOM     46  O   UNL     1      54.736  60.343   7.080  1.00  0.00    -0.504 OA
ATOM     47  H   UNL     1      55.141  60.977   7.779  1.00  0.00     0.293 HD
ENDBRANCH  43  46
ENDBRANCH  28  38
BRANCH  34  48
ATOM     48  O   UNL     1      45.523  63.755   2.995  1.00  0.00    -0.507 OA
ATOM     49  H   UNL     1      45.047  64.442   3.565  1.00  0.00     0.293 HD
ENDBRANCH  34  48
BRANCH  37  50
ATOM     50  O   UNL     1      44.063  59.242   4.065  1.00  0.00    -0.508 OA
ATOM     51  H   UNL     1      44.218  58.332   3.602  1.00  0.00     0.293 HD
ENDBRANCH  37  50
ENDBRANCH  26  27
ENDBRANCH   5  26
BRANCH   4  52
ATOM     52  O   UNL     1      50.444  65.891   2.762  1.00  0.00    -0.384 OA
ATOM     53  H   UNL     1      50.440  66.390   3.682  1.00  0.00     0.211 HD
ENDBRANCH   4  52
TORSDOF 16
ENDMDL
MODEL 2
REMARK VINA RESULT:    -9.713      2.160      7.096
REMARK INTER + INTRA:         -18.234
REMARK INTER:                 -15.979
REMARK INTRA:                  -2.255
REMARK UNBOUND:                -2.274
REMARK SMILES C[C@H]1O[C@@H](OC[C@H]2O[C@H](Oc3c(-c4ccc(O)c(O)c4)oc4cc(O)cc(O)c4c3=O)[C@H](O)[C@H](O)[C@@H]2O)[C@@H](O)[C@@H](O)[C@H]1O
REMARK SMILES IDX 7 1 36 2 34 3 32 4 9 5 8 6 6 7 5 8 4 9 1 10 2 11 42 12 3 13
REMARK SMILES IDX 40 14 38 15 43 16 41 18 39 20 37 22 35 24 10 26 11 27 12 28
REMARK SMILES IDX 30 29 21 30 29 31 31 32 22 33 27 34 23 35 26 36 24 37 13 38
REMARK SMILES IDX 20 39 14 40 18 41 15 42 16 43 19 44 17 46 28 48 25 50 33 52
REMARK H PARENT 43 17 41 19 39 21 37 23 35 25 19 45 17 47 28 49 25 51 33 53
REMARK Flexibility Score: inf
ROOT
ATOM      1  C   UNL     1      49.825  59.360   5.325  1.00  0.00     0.180 C 
ATOM      2  C   UNL     1      49.083  57.982   5.718  1.00  0.00     0.177 C 
ATOM      3  C   UNL     1      47.535  58.080   5.510  1.00  0.00     0.180 C 
ATOM      4  C   UNL     1      47.162  58.474   4.041  1.00  0.00     0.214 C 
ATOM      5  C   UNL     1      48.479  59.227   3.407  1.00  0.00     0.339 C 
ATOM      6  O   UNL     1      48.998  60.113   4.418  1.00  0.00    -0.332 OA
ENDROOT
BRANCH   1   7
ATOM      7  C   UNL     1      51.309  59.256   4.854  1.00  0.00     0.198 C 
BRANCH   7   8
ATOM      8  O   UNL     1      52.187  59.560   5.943  1.00  0.00    -0.347 OA
BRANCH   8   9
ATOM      9  C   UNL     1      52.481  58.432   6.747  1.00  0.00     0.281 C 
ATOM     10  C   UNL     1      51.492  60.969   8.267  1.00  0.00     0.041 C 
ATOM     11  C   UNL     1      52.212  59.705   8.741  1.00  0.00     0.150 C 
ATOM     12  C   UNL     1      53.754  59.921   8.877  1.00  0.00     0.174 C 
ATOM     13  O   UNL     1      51.845  58.531   8.023  1.00  0.00    -0.344 OA
ATOM     14  C   UNL     1      54.564  59.624   7.578  1.00  0.00     0.179 C 
ATOM     15  C   UNL     1      54.034  58.291   7.022  1.00  0.00     0.202 C 
BRANCH  12  16
ATOM     16  O   UNL     1      54.010  61.218   9.353  1.00  0.00    -0.388 OA
ATOM     17  H   UNL     1      54.163  61.784   8.543  1.00  0.00     0.211 HD
ENDBRANCH  12  16
BRANCH  14  18
ATOM     18  O   UNL     1      54.470  60.636   6.614  1.00  0.00    -0.387 OA
ATOM     19  H   UNL     1      53.520  60.992   6.590  1.00  0.00     0.211 HD
ENDBRANCH  14  18
BRANCH  15  20
ATOM     20  O   UNL     1      54.832  57.872   5.911  1.00  0.00    -0.385 OA
ATOM     21  H   UNL     1      55.557  57.292   6.266  1.00  0.00     0.211 HD
ENDBRANCH  15  20
ENDBRANCH   8   9
ENDBRANCH   7   8
ENDBRANCH   1   7
BRANCH   2  22
ATOM     22  O   UNL     1      49.385  57.323   6.907  1.00  0.00    -0.387 OA
ATOM     23  H   UNL     1      50.288  57.640   7.236  1.00  0.00     0.211 HD
ENDBRANCH   2  22
BRANCH   3  24
ATOM     24  O   UNL     1      46.959  58.904   6.495  1.00  0.00    -0.387 OA
ATOM     25  H   UNL     1      45.995  58.669   6.559  1.00  0.00     0.211 HD
ENDBRANCH   3  24
BRANCH   5  26
ATOM     26  O   UNL     1      48.123  59.872   2.204  1.00  0.00    -0.454 OA
BRANCH  26  27
ATOM     27  C   UNL     1      48.425  61.224   2.068  1.00  0.00     0.214 A 
ATOM     28  C   UNL     1      49.541  61.631   1.362  1.00  0.00     0.180 A 
ATOM     29  C   UNL     1      47.602  62.218   2.709  1.00  0.00     0.239 A 
ATOM     30  O   UNL     1      49.849  62.917   1.266  1.00  0.00    -0.452 OA
ATOM     31  C   UNL     1      47.935  63.568   2.478  1.00  0.00     0.111 A 
ATOM     32  O   UNL     1      46.614  61.850   3.374  1.00  0.00    -0.285 OA
ATOM     33  C   UNL     1      49.152  63.882   1.818  1.00  0.00     0.146 A 
ATOM     34  C   UNL     1      47.192  64.631   3.099  1.00  0.00     0.134 A 
ATOM     35  C   UNL     1      49.661  65.203   1.809  1.00  0.00     0.094 A 
ATOM     36  C   UNL     1      47.723  65.929   3.105  1.00  0.00     0.093 A 
ATOM     37  C   UNL     1      48.955  66.240   2.453  1.00  0.00     0.123 A 
BRANCH  28  38
ATOM     38  C   UNL     1      50.531  60.701   0.748  1.00  0.00     0.025 A 
ATOM     39  C   UNL     1      51.573  60.176   1.534  1.00  0.00     0.062 A 
ATOM     40  C   UNL     1      50.261  60.130  -0.508  1.00  0.00     0.016 A 
ATOM     41  C   UNL     1      52.354  59.114   1.032  1.00  0.00     0.158 A 
ATOM     42  C   UNL     1      50.969  59.032  -0.966  1.00  0.00     0.051 A 
ATOM     43  C   UNL     1      51.992  58.483  -0.178  1.00  0.00     0.157 A 
BRANCH  41  44
ATOM     44  O   UNL     1      53.390  58.612   1.825  1.00  0.00    -0.504 OA
ATOM     45  H   UNL     1      54.264  58.320   1.413  1.00  0.00     0.293 HD
ENDBRANCH  41  44
BRANCH  43  46
ATOM     46  O   UNL     1      52.588  57.318  -0.599  1.00  0.00    -0.504 OA
ATOM     47  H   UNL     1      53.073  56.699   0.062  1.00  0.00     0.293 HD
ENDBRANCH  43  46
ENDBRANCH  28  38
BRANCH  34  48
ATOM     48  O   UNL     1      45.939  64.441   3.676  1.00  0.00    -0.507 OA
ATOM     49  H   UNL     1      45.758  64.785   4.609  1.00  0.00     0.293 HD
ENDBRANCH  34  48
BRANCH  37  50
ATOM     50  O   UNL     1      49.462  67.571   2.480  1.00  0.00    -0.508 OA
ATOM     51  H   UNL     1      50.122  67.886   3.210  1.00  0.00     0.293 HD
ENDBRANCH  37  50
ENDBRANCH  26  27
ENDBRANCH   5  26
BRANCH   4  52
ATOM     52  O   UNL     1      45.940  59.226   4.004  1.00  0.00    -0.384 OA
ATOM     53  H   UNL     1      46.112  60.154   3.552  1.00  0.00     0.211 HD
ENDBRANCH   4  52
TORSDOF 16
ENDMDL
MODEL 3
REMARK VINA RESULT:    -9.712      2.333      6.363
REMARK INTER + INTRA:         -18.232
REMARK INTER:                 -15.718
REMARK INTRA:                  -2.513
REMARK UNBOUND:                -2.274
REMARK SMILES C[C@H]1O[C@@H](OC[C@H]2O[C@H](Oc3c(-c4ccc(O)c(O)c4)oc4cc(O)cc(O)c4c3=O)[C@H](O)[C@H](O)[C@@H]2O)[C@@H](O)[C@@H](O)[C@H]1O
REMARK SMILES IDX 7 1 36 2 34 3 32 4 9 5 8 6 6 7 5 8 4 9 1 10 2 11 42 12 3 13
REMARK SMILES IDX 40 14 38 15 43 16 41 18 39 20 37 22 35 24 10 26 11 27 12 28
REMARK SMILES IDX 30 29 21 30 29 31 31 32 22 33 27 34 23 35 26 36 24 37 13 38
REMARK SMILES IDX 20 39 14 40 18 41 15 42 16 43 19 44 17 46 28 48 25 50 33 52
REMARK H PARENT 43 17 41 19 39 21 37 23 35 25 19 45 17 47 28 49 25 51 33 53
REMARK Flexibility Score: inf
ROOT
ATOM      1  C   UNL     1      48.560  61.635   2.553  1.00  0.00     0.180 C 
ATOM      2  C   UNL     1      48.551  63.235   2.765  1.00  0.00     0.177 C 
ATOM      3  C   UNL     1      47.641  63.654   3.967  1.00  0.00     0.180 C 
ATOM      4  C   UNL     1      48.069  62.953   5.301  1.00  0.00     0.214 C 
ATOM      5  C   UNL     1      48.898  61.598   4.876  1.00  0.00     0.339 C 
ATOM      6  O   UNL     1      48.189  60.983   3.783  1.00  0.00    -0.332 OA
ENDROOT
BRANCH   1   7
ATOM      7  C   UNL     1      49.831  61.015   1.894  1.00  0.00     0.198 C 
BRANCH   7   8
ATOM      8  O   UNL     1      50.798  62.041   1.646  1.00  0.00    -0.347 OA
BRANCH   8   9
ATOM      9  C   UNL     1      51.944  61.567   0.961  1.00  0.00     0.281 C 
ATOM     10  C   UNL     1      52.227  64.357   2.325  1.00  0.00     0.041 C 
ATOM     11  C   UNL     1      53.055  63.653   1.247  1.00  0.00     0.150 C 
ATOM     12  C   UNL     1      52.666  64.121  -0.193  1.00  0.00     0.174 C 
ATOM     13  O   UNL     1      53.123  62.240   1.407  1.00  0.00    -0.344 OA
ATOM     14  C   UNL     1      51.519  63.294  -0.852  1.00  0.00     0.179 C 
ATOM     15  C   UNL     1      51.842  61.811  -0.600  1.00  0.00     0.202 C 
BRANCH  12  16
ATOM     16  O   UNL     1      52.364  65.493  -0.180  1.00  0.00    -0.388 OA
ATOM     17  H   UNL     1      51.810  65.646   0.639  1.00  0.00     0.211 HD
ENDBRANCH  12  16
BRANCH  14  18
ATOM     18  O   UNL     1      50.246  63.615  -0.365  1.00  0.00    -0.387 OA
ATOM     19  H   UNL     1      49.610  62.847  -0.553  1.00  0.00     0.211 HD
ENDBRANCH  14  18
BRANCH  15  20
ATOM     20  O   UNL     1      50.915  60.982  -1.306  1.00  0.00    -0.385 OA
ATOM     21  H   UNL     1      51.171  60.999  -2.266  1.00  0.00     0.211 HD
ENDBRANCH  15  20
ENDBRANCH   8   9
ENDBRANCH   7   8
ENDBRANCH   1   7
BRANCH   2  22
ATOM     22  O   UNL     1      48.377  64.096   1.684  1.00  0.00    -0.387 OA
ATOM     23  H   UNL     1      48.639  65.033   1.966  1.00  0.00     0.211 HD
ENDBRANCH   2  22
BRANCH   3  24
ATOM     24  O   UNL     1      46.284  63.489   3.635  1.00  0.00    -0.387 OA
ATOM     25  H   UNL     1      46.099  62.513   3.597  1.00  0.00     0.211 HD
ENDBRANCH   3  24
BRANCH   5  26
ATOM     26  O   UNL     1      49.053  60.764   6.002  1.00  0.00    -0.454 OA
BRANCH  26  27
ATOM     27  C   UNL     1      50.233  60.036   6.125  1.00  0.00     0.214 A 
ATOM     28  C   UNL     1      50.332  58.759   5.606  1.00  0.00     0.180 A 
ATOM     29  C   UNL     1      51.353  60.589   6.844  1.00  0.00     0.239 A 
ATOM     30  O   UNL     1      51.445  58.053   5.759  1.00  0.00    -0.452 OA
ATOM     31  C   UNL     1      52.533  59.819   6.877  1.00  0.00     0.111 A 
ATOM     32  O   UNL     1      51.252  61.728   7.341  1.00  0.00    -0.285 OA
ATOM     33  C   UNL     1      52.506  58.483   6.397  1.00  0.00     0.146 A 
ATOM     34  C   UNL     1      53.693  60.272   7.595  1.00  0.00     0.134 A 
ATOM     35  C   UNL     1      53.573  57.589   6.659  1.00  0.00     0.094 A 
ATOM     36  C   UNL     1      54.728  59.367   7.870  1.00  0.00     0.093 A 
ATOM     37  C   UNL     1      54.694  58.019   7.399  1.00  0.00     0.123 A 
BRANCH  28  38
ATOM     38  C   UNL     1      49.214  58.034   4.941  1.00  0.00     0.025 A 
ATOM     39  C   UNL     1      47.942  58.015   5.540  1.00  0.00     0.062 A 
ATOM     40  C   UNL     1      49.350  57.627   3.601  1.00  0.00     0.016 A 
ATOM     41  C   UNL     1      46.833  57.551   4.803  1.00  0.00     0.158 A 
ATOM     42  C   UNL     1      48.249  57.254   2.848  1.00  0.00     0.051 A 
ATOM     43  C   UNL     1      46.972  57.258   3.429  1.00  0.00     0.157 A 
BRANCH  41  44
ATOM     44  O   UNL     1      45.579  57.533   5.421  1.00  0.00    -0.504 OA
ATOM     45  H   UNL     1      45.423  56.999   6.263  1.00  0.00     0.293 HD
ENDBRANCH  41  44
BRANCH  43  46
ATOM     46  O   UNL     1      45.886  57.010   2.624  1.00  0.00    -0.504 OA
ATOM     47  H   UNL     1      45.432  56.089   2.612  1.00  0.00     0.293 HD
ENDBRANCH  43  46
ENDBRANCH  28  38
BRANCH  34  48
ATOM     48  O   UNL     1      53.858  61.591   8.010  1.00  0.00    -0.507 OA
ATOM     49  H   UNL     1      53.223  61.986   8.690  1.00  0.00     0.293 HD
ENDBRANCH  34  48
BRANCH  37  50
ATOM     50  O   UNL     1      55.765  57.129   7.698  1.00  0.00    -0.508 OA
ATOM     51  H   UNL     1      56.431  56.816   6.972  1.00  0.00     0.293 HD
ENDBRANCH  37  50
ENDBRANCH  26  27
ENDBRANCH   5  26
BRANCH   4  52
ATOM     52  O   UNL     1      46.936  62.743   6.159  1.00  0.00    -0.384 OA
ATOM     53  H   UNL     1      46.818  61.720   6.339  1.00  0.00     0.211 HD
ENDBRANCH   4  52
TORSDOF 16
ENDMDL
MODEL 4
REMARK VINA RESULT:    -9.615      2.373      7.226
REMARK INTER + INTRA:         -18.072
REMARK INTER:                 -14.899
REMARK INTRA:                  -3.173
REMARK UNBOUND:                -2.274
REMARK SMILES C[C@H]1O[C@@H](OC[C@H]2O[C@H](Oc3c(-c4ccc(O)c(O)c4)oc4cc(O)cc(O)c4c3=O)[C@H](O)[C@H](O)[C@@H]2O)[C@@H](O)[C@@H](O)[C@H]1O
REMARK SMILES IDX 7 1 36 2 34 3 32 4 9 5 8 6 6 7 5 8 4 9 1 10 2 11 42 12 3 13
REMARK SMILES IDX 40 14 38 15 43 16 41 18 39 20 37 22 35 24 10 26 11 27 12 28
REMARK SMILES IDX 30 29 21 30 29 31 31 32 22 33 27 34 23 35 26 36 24 37 13 38
REMARK SMILES IDX 20 39 14 40 18 41 15 42 16 43 19 44 17 46 28 48 25 50 33 52
REMARK H PARENT 43 17 41 19 39 21 37 23 35 25 19 45 17 47 28 49 25 51 33 53
REMARK Flexibility Score: inf
ROOT
ATOM      1  C   UNL     1      48.454  59.482   4.870  1.00  0.00     0.180 C 
ATOM      2  C   UNL     1      49.422  58.209   4.649  1.00  0.00     0.177 C 
ATOM      3  C   UNL     1      49.041  57.411   3.358  1.00  0.00     0.180 C 
ATOM      4  C   UNL     1      49.065  58.314   2.079  1.00  0.00     0.214 C 
ATOM      5  C   UNL     1      48.882  59.865   2.594  1.00  0.00     0.339 C 
ATOM      6  O   UNL     1      47.863  59.864   3.613  1.00  0.00    -0.332 OA
ENDROOT
BRANCH   1   7
ATOM      7  C   UNL     1      49.045  60.692   5.659  1.00  0.00     0.198 C 
BRANCH   7   8
ATOM      8  O   UNL     1      50.353  60.365   6.141  1.00  0.00    -0.347 OA
BRANCH   8   9
ATOM      9  C   UNL     1      50.479  60.516   7.543  1.00  0.00     0.281 C 
ATOM     10  C   UNL     1      52.452  62.194   5.808  1.00  0.00     0.041 C 
ATOM     11  C   UNL     1      52.461  61.808   7.289  1.00  0.00     0.150 C 
ATOM     12  C   UNL     1      53.372  60.569   7.569  1.00  0.00     0.174 C 
ATOM     13  O   UNL     1      51.164  61.727   7.869  1.00  0.00    -0.344 OA
ATOM     14  C   UNL     1      52.645  59.194   7.446  1.00  0.00     0.179 C 
ATOM     15  C   UNL     1      51.307  59.334   8.193  1.00  0.00     0.202 C 
BRANCH  12  16
ATOM     16  O   UNL     1      54.508  60.621   6.744  1.00  0.00    -0.388 OA
ATOM     17  H   UNL     1      55.102  59.875   7.045  1.00  0.00     0.211 HD
ENDBRANCH  12  16
BRANCH  14  18
ATOM     18  O   UNL     1      52.435  58.787   6.123  1.00  0.00    -0.387 OA
ATOM     19  H   UNL     1      51.983  59.535   5.608  1.00  0.00     0.211 HD
ENDBRANCH  14  18
BRANCH  15  20
ATOM     20  O   UNL     1      50.648  58.066   8.257  1.00  0.00    -0.385 OA
ATOM     21  H   UNL     1      50.020  58.095   9.027  1.00  0.00     0.211 HD
ENDBRANCH  15  20
ENDBRANCH   8   9
ENDBRANCH   7   8
ENDBRANCH   1   7
BRANCH   2  22
ATOM     22  O   UNL     1      49.714  57.345   5.701  1.00  0.00    -0.387 OA
ATOM     23  H   UNL     1      48.883  57.225   6.267  1.00  0.00     0.211 HD
ENDBRANCH   2  22
BRANCH   3  24
ATOM     24  O   UNL     1      47.835  56.713   3.552  1.00  0.00    -0.387 OA
ATOM     25  H   UNL     1      47.134  57.165   3.010  1.00  0.00     0.211 HD
ENDBRANCH   3  24
BRANCH   5  26
ATOM     26  O   UNL     1      48.594  60.699   1.494  1.00  0.00    -0.454 OA
BRANCH  26  27
ATOM     27  C   UNL     1      49.246  61.925   1.409  1.00  0.00     0.214 A 
ATOM     28  C   UNL     1      50.473  62.031   0.783  1.00  0.00     0.180 A 
ATOM     29  C   UNL     1      48.670  63.096   2.023  1.00  0.00     0.239 A 
ATOM     30  O   UNL     1      51.110  63.194   0.738  1.00  0.00    -0.452 OA
ATOM     31  C   UNL     1      49.357  64.313   1.846  1.00  0.00     0.111 A 
ATOM     32  O   UNL     1      47.579  62.994   2.617  1.00  0.00    -0.285 OA
ATOM     33  C   UNL     1      50.655  64.302   1.269  1.00  0.00     0.146 A 
ATOM     34  C   UNL     1      48.879  65.528   2.446  1.00  0.00     0.134 A 
ATOM     35  C   UNL     1      51.490  65.445   1.323  1.00  0.00     0.094 A 
ATOM     36  C   UNL     1      49.728  66.642   2.516  1.00  0.00     0.093 A 
ATOM     37  C   UNL     1      51.038  66.626   1.948  1.00  0.00     0.123 A 
BRANCH  28  38
ATOM     38  C   UNL     1      51.224  60.880   0.208  1.00  0.00     0.025 A 
ATOM     39  C   UNL     1      52.280  60.304   0.937  1.00  0.00     0.062 A 
ATOM     40  C   UNL     1      50.702  60.196  -0.904  1.00  0.00     0.016 A 
ATOM     41  C   UNL     1      52.824  59.072   0.517  1.00  0.00     0.158 A 
ATOM     42  C   UNL     1      51.175  58.946  -1.267  1.00  0.00     0.051 A 
ATOM     43  C   UNL     1      52.210  58.350  -0.529  1.00  0.00     0.157 A 
BRANCH  41  44
ATOM     44  O   UNL     1      53.878  58.521   1.251  1.00  0.00    -0.504 OA
ATOM     45  H   UNL     1      54.746  58.267   0.802  1.00  0.00     0.293 HD
ENDBRANCH  41  44
BRANCH  43  46
ATOM     46  O   UNL     1      52.569  57.059  -0.831  1.00  0.00    -0.504 OA
ATOM     47  H   UNL     1      51.908  56.282  -0.717  1.00  0.00     0.293 HD
ENDBRANCH  43  46
ENDBRANCH  28  38
BRANCH  34  48
ATOM     48  O   UNL     1      47.584  65.668   2.940  1.00  0.00    -0.507 OA
ATOM     49  H   UNL     1      46.842  65.974   2.325  1.00  0.00     0.293 HD
ENDBRANCH  34  48
BRANCH  37  50
ATOM     50  O   UNL     1      51.872  67.777   2.038  1.00  0.00    -0.508 OA
ATOM     51  H   UNL     1      52.879  67.737   1.813  1.00  0.00     0.293 HD
ENDBRANCH  37  50
ENDBRANCH  26  27
ENDBRANCH   5  26
BRANCH   4  52
ATOM     52  O   UNL     1      48.104  57.864   1.112  1.00  0.00    -0.384 OA
ATOM     53  H   UNL     1      47.846  58.655   0.479  1.00  0.00     0.211 HD
ENDBRANCH   4  52
TORSDOF 16
ENDMDL
MODEL 5
REMARK VINA RESULT:    -9.611      1.301      2.088
REMARK INTER + INTRA:         -18.065
REMARK INTER:                 -15.496
REMARK INTRA:                  -2.569
REMARK UNBOUND:                -2.274
REMARK SMILES C[C@H]1O[C@@H](OC[C@H]2O[C@H](Oc3c(-c4ccc(O)c(O)c4)oc4cc(O)cc(O)c4c3=O)[C@H](O)[C@H](O)[C@@H]2O)[C@@H](O)[C@@H](O)[C@H]1O
REMARK SMILES IDX 7 1 36 2 34 3 32 4 9 5 8 6 6 7 5 8 4 9 1 10 2 11 42 12 3 13
REMARK SMILES IDX 40 14 38 15 43 16 41 18 39 20 37 22 35 24 10 26 11 27 12 28
REMARK SMILES IDX 30 29 21 30 29 31 31 32 22 33 27 34 23 35 26 36 24 37 13 38
REMARK SMILES IDX 20 39 14 40 18 41 15 42 16 43 19 44 17 46 28 48 25 50 33 52
REMARK H PARENT 43 17 41 19 39 21 37 23 35 25 19 45 17 47 28 49 25 51 33 53
REMARK Flexibility Score: inf
ROOT
ATOM      1  C   UNL     1      51.135  62.691   1.180  1.00  0.00     0.180 C 
ATOM      2  C   UNL     1      52.733  62.661   1.412  1.00  0.00     0.177 C 
ATOM      3  C   UNL     1      53.186  63.737   2.454  1.00  0.00     0.180 C 
ATOM      4  C   UNL     1      52.455  63.569   3.829  1.00  0.00     0.214 C 
ATOM      5  C   UNL     1      51.065  62.746   3.526  1.00  0.00     0.339 C 
ATOM      6  O   UNL     1      50.493  63.291   2.321  1.00  0.00    -0.332 OA
ENDROOT
BRANCH   1   7
ATOM      7  C   UNL     1      50.460  61.358   0.730  1.00  0.00     0.198 C 
BRANCH   7   8
ATOM      8  O   UNL     1      51.437  60.494   0.141  1.00  0.00    -0.347 OA
BRANCH   8   9
ATOM      9  C   UNL     1      50.877  59.304  -0.385  1.00  0.00     0.281 C 
ATOM     10  C   UNL     1      53.742  59.048   0.819  1.00  0.00     0.041 C 
ATOM     11  C   UNL     1      52.937  58.142  -0.116  1.00  0.00     0.150 C 
ATOM     12  C   UNL     1      53.318  58.357  -1.616  1.00  0.00     0.174 C 
ATOM     13  O   UNL     1      51.537  58.151   0.141  1.00  0.00    -0.344 OA
ATOM     14  C   UNL     1      52.490  59.462  -2.340  1.00  0.00     0.179 C 
ATOM     15  C   UNL     1      51.017  59.231  -1.960  1.00  0.00     0.202 C 
BRANCH  12  16
ATOM     16  O   UNL     1      54.698  58.600  -1.723  1.00  0.00    -0.388 OA
ATOM     17  H   UNL     1      55.139  57.703  -1.702  1.00  0.00     0.211 HD
ENDBRANCH  12  16
BRANCH  14  18
ATOM     18  O   UNL     1      52.888  60.765  -2.015  1.00  0.00    -0.387 OA
ATOM     19  H   UNL     1      52.088  61.286  -1.670  1.00  0.00     0.211 HD
ENDBRANCH  14  18
BRANCH  15  20
ATOM     20  O   UNL     1      50.175  60.113  -2.707  1.00  0.00    -0.385 OA
ATOM     21  H   UNL     1      49.376  60.307  -2.147  1.00  0.00     0.211 HD
ENDBRANCH  15  20
ENDBRANCH   8   9
ENDBRANCH   7   8
ENDBRANCH   1   7
BRANCH   2  22
ATOM     22  O   UNL     1      53.609  62.614   0.331  1.00  0.00    -0.387 OA
ATOM     23  H   UNL     1      54.162  63.462   0.320  1.00  0.00     0.211 HD
ENDBRANCH   2  22
BRANCH   3  24
ATOM     24  O   UNL     1      53.090  65.026   1.899  1.00  0.00    -0.387 OA
ATOM     25  H   UNL     1      53.947  65.497   2.080  1.00  0.00     0.211 HD
ENDBRANCH   3  24
BRANCH   5  26
ATOM     26  O   UNL     1      50.216  62.818   4.649  1.00  0.00    -0.454 OA
BRANCH  26  27
ATOM     27  C   UNL     1      49.260  61.821   4.818  1.00  0.00     0.214 A 
ATOM     28  C   UNL     1      49.559  60.665   5.513  1.00  0.00     0.180 A 
ATOM     29  C   UNL     1      47.955  61.960   4.221  1.00  0.00     0.239 A 
ATOM     30  O   UNL     1      48.659  59.699   5.638  1.00  0.00    -0.452 OA
ATOM     31  C   UNL     1      47.021  60.938   4.482  1.00  0.00     0.111 A 
ATOM     32  O   UNL     1      47.695  62.988   3.565  1.00  0.00    -0.285 OA
ATOM     33  C   UNL     1      47.453  59.749   5.127  1.00  0.00     0.146 A 
ATOM     34  C   UNL     1      45.704  60.972   3.906  1.00  0.00     0.134 A 
ATOM     35  C   UNL     1      46.631  58.596   5.164  1.00  0.00     0.094 A 
ATOM     36  C   UNL     1      44.914  59.814   3.926  1.00  0.00     0.093 A 
ATOM     37  C   UNL     1      45.355  58.614   4.563  1.00  0.00     0.123 A 
BRANCH  28  38
ATOM     38  C   UNL     1      50.901  60.351   6.081  1.00  0.00     0.025 A 
ATOM     39  C   UNL     1      51.827  59.620   5.316  1.00  0.00     0.062 A 
ATOM     40  C   UNL     1      51.339  61.020   7.238  1.00  0.00     0.016 A 
ATOM     41  C   UNL     1      53.169  59.537   5.743  1.00  0.00     0.158 A 
ATOM     42  C   UNL     1      52.672  61.013   7.611  1.00  0.00     0.051 A 
ATOM     43  C   UNL     1      53.609  60.310   6.839  1.00  0.00     0.157 A 
BRANCH  41  44
ATOM     44  O   UNL     1      54.072  58.799   4.972  1.00  0.00    -0.504 OA
ATOM     45  H   UNL     1      54.105  57.792   5.035  1.00  0.00     0.293 HD
ENDBRANCH  41  44
BRANCH  43  46
ATOM     46  O   UNL     1      54.941  60.427   7.159  1.00  0.00    -0.504 OA
ATOM     47  H   UNL     1      55.544  61.108   6.684  1.00  0.00     0.293 HD
ENDBRANCH  43  46
ENDBRANCH  28  38
BRANCH  34  48
ATOM     48  O   UNL     1      45.153  62.124   3.349  1.00  0.00    -0.507 OA
ATOM     49  H   UNL     1      45.436  63.032   3.690  1.00  0.00     0.293 HD
ENDBRANCH  34  48
BRANCH  37  50
ATOM     50  O   UNL     1      44.524  57.457   4.563  1.00  0.00    -0.508 OA
ATOM     51  H   UNL     1      44.141  57.064   5.439  1.00  0.00     0.293 HD
ENDBRANCH  37  50
ENDBRANCH  26  27
ENDBRANCH   5  26
BRANCH   4  52
ATOM     52  O   UNL     1      52.294  64.837   4.484  1.00  0.00    -0.384 OA
ATOM     53  H   UNL     1      51.352  64.881   4.937  1.00  0.00     0.211 HD
ENDBRANCH   4  52
TORSDOF 16
ENDMDL
MODEL 6
REMARK VINA RESULT:    -9.591      2.159      5.813
REMARK INTER + INTRA:         -18.032
REMARK INTER:                 -15.779
REMARK INTRA:                  -2.254
REMARK UNBOUND:                -2.274
REMARK SMILES C[C@H]1O[C@@H](OC[C@H]2O[C@H](Oc3c(-c4ccc(O)c(O)c4)oc4cc(O)cc(O)c4c3=O)[C@H](O)[C@H](O)[C@@H]2O)[C@@H](O)[C@@H](O)[C@H]1O
REMARK SMILES IDX 7 1 36 2 34 3 32 4 9 5 8 6 6 7 5 8 4 9 1 10 2 11 42 12 3 13
REMARK SMILES IDX 40 14 38 15 43 16 41 18 39 20 37 22 35 24 10 26 11 27 12 28
REMARK SMILES IDX 30 29 21 30 29 31 31 32 22 33 27 34 23 35 26 36 24 37 13 38
REMARK SMILES IDX 20 39 14 40 18 41 15 42 16 43 19 44 17 46 28 48 25 50 33 52
REMARK H PARENT 43 17 41 19 39 21 37 23 35 25 19 45 17 47 28 49 25 51 33 53
REMARK Flexibility Score: inf
ROOT
ATOM      1  C   UNL     1      49.843  62.144   2.548  1.00  0.00     0.180 C 
ATOM      2  C   UNL     1      49.148  63.580   2.795  1.00  0.00     0.177 C 
ATOM      3  C   UNL     1      47.745  63.434   3.472  1.00  0.00     0.180 C 
ATOM      4  C   UNL     1      47.824  62.652   4.826  1.00  0.00     0.214 C 
ATOM      5  C   UNL     1      49.196  61.748   4.769  1.00  0.00     0.339 C 
ATOM      6  O   UNL     1      49.280  61.173   3.450  1.00  0.00    -0.332 OA
ENDROOT
BRANCH   1   7
ATOM      7  C   UNL     1      51.403  62.109   2.509  1.00  0.00     0.198 C 
BRANCH   7   8
ATOM      8  O   UNL     1      51.844  61.050   1.653  1.00  0.00    -0.347 OA
BRANCH   8   9
ATOM      9  C   UNL     1      52.116  61.484   0.333  1.00  0.00     0.281 C 
ATOM     10  C   UNL     1      50.288  58.971   0.594  1.00  0.00     0.041 C 
ATOM     11  C   UNL     1      51.078  59.547  -0.584  1.00  0.00     0.150 C 
ATOM     12  C   UNL     1      52.454  58.833  -0.776  1.00  0.00     0.174 C 
ATOM     13  O   UNL     1      51.149  60.970  -0.585  1.00  0.00    -0.344 OA
ATOM     14  C   UNL     1      53.629  59.466   0.031  1.00  0.00     0.179 C 
ATOM     15  C   UNL     1      53.533  60.988  -0.171  1.00  0.00     0.202 C 
BRANCH  12  16
ATOM     16  O   UNL     1      52.320  57.463  -0.492  1.00  0.00    -0.388 OA
ATOM     17  H   UNL     1      51.350  57.315  -0.300  1.00  0.00     0.211 HD
ENDBRANCH  12  16
BRANCH  14  18
ATOM     18  O   UNL     1      53.611  59.144   1.393  1.00  0.00    -0.387 OA
ATOM     19  H   UNL     1      54.378  59.614   1.862  1.00  0.00     0.211 HD
ENDBRANCH  14  18
BRANCH  15  20
ATOM     20  O   UNL     1      54.667  61.632   0.415  1.00  0.00    -0.385 OA
ATOM     21  H   UNL     1      55.056  61.004   1.081  1.00  0.00     0.211 HD
ENDBRANCH  15  20
ENDBRANCH   8   9
ENDBRANCH   7   8
ENDBRANCH   1   7
BRANCH   2  22
ATOM     22  O   UNL     1      49.118  64.540   1.786  1.00  0.00    -0.387 OA
ATOM     23  H   UNL     1      48.913  65.442   2.199  1.00  0.00     0.211 HD
ENDBRANCH   2  22
BRANCH   3  24
ATOM     24  O   UNL     1      46.811  62.916   2.557  1.00  0.00    -0.387 OA
ATOM     25  H   UNL     1      46.134  63.623   2.384  1.00  0.00     0.211 HD
ENDBRANCH   3  24
BRANCH   5  26
ATOM     26  O   UNL     1      49.182  60.797   5.810  1.00  0.00    -0.454 OA
BRANCH  26  27
ATOM     27  C   UNL     1      50.317  60.016   6.004  1.00  0.00     0.214 A 
ATOM     28  C   UNL     1      50.350  58.701   5.582  1.00  0.00     0.180 A 
ATOM     29  C   UNL     1      51.459  60.557   6.698  1.00  0.00     0.239 A 
ATOM     30  O   UNL     1      51.418  57.946   5.802  1.00  0.00    -0.452 OA
ATOM     31  C   UNL     1      52.593  59.727   6.805  1.00  0.00     0.111 A 
ATOM     32  O   UNL     1      51.418  61.733   7.109  1.00  0.00    -0.285 OA
ATOM     33  C   UNL     1      52.495  58.362   6.423  1.00  0.00     0.146 A 
ATOM     34  C   UNL     1      53.769  60.165   7.506  1.00  0.00     0.134 A 
ATOM     35  C   UNL     1      53.506  57.432   6.766  1.00  0.00     0.094 A 
ATOM     36  C   UNL     1      54.748  59.227   7.862  1.00  0.00     0.093 A 
ATOM     37  C   UNL     1      54.642  57.852   7.490  1.00  0.00     0.123 A 
BRANCH  28  38
ATOM     38  C   UNL     1      49.199  57.992   4.954  1.00  0.00     0.025 A 
ATOM     39  C   UNL     1      47.897  58.211   5.439  1.00  0.00     0.062 A 
ATOM     40  C   UNL     1      49.373  57.347   3.716  1.00  0.00     0.016 A 
ATOM     41  C   UNL     1      46.792  57.745   4.699  1.00  0.00     0.158 A 
ATOM     42  C   UNL     1      48.287  56.966   2.945  1.00  0.00     0.051 A 
ATOM     43  C   UNL     1      46.984  57.205   3.408  1.00  0.00     0.157 A 
BRANCH  41  44
ATOM     44  O   UNL     1      45.507  57.965   5.203  1.00  0.00    -0.504 OA
ATOM     45  H   UNL     1      45.295  57.796   6.176  1.00  0.00     0.293 HD
ENDBRANCH  41  44
BRANCH  43  46
ATOM     46  O   UNL     1      45.931  56.935   2.567  1.00  0.00    -0.504 OA
ATOM     47  H   UNL     1      45.758  57.505   1.731  1.00  0.00     0.293 HD
ENDBRANCH  43  46
ENDBRANCH  28  38
BRANCH  34  48
ATOM     48  O   UNL     1      54.004  61.500   7.826  1.00  0.00    -0.507 OA
ATOM     49  H   UNL     1      53.501  62.230   7.339  1.00  0.00     0.293 HD
ENDBRANCH  34  48
BRANCH  37  50
ATOM     50  O   UNL     1      55.657  56.928   7.869  1.00  0.00    -0.508 OA
ATOM     51  H   UNL     1      56.540  57.240   8.306  1.00  0.00     0.293 HD
ENDBRANCH  37  50
ENDBRANCH  26  27
ENDBRANCH   5  26
BRANCH   4  52
ATOM     52  O   UNL     1      46.611  61.923   5.071  1.00  0.00    -0.384 OA
ATOM     53  H   UNL     1      45.962  62.040   4.260  1.00  0.00     0.211 HD
ENDBRANCH   4  52
TORSDOF 16
ENDMDL
MODEL 7
REMARK VINA RESULT:    -9.569      1.689      7.263
REMARK INTER + INTRA:         -17.996
REMARK INTER:                 -15.714
REMARK INTRA:                  -2.282
REMARK UNBOUND:                -2.274
REMARK SMILES C[C@H]1O[C@@H](OC[C@H]2O[C@H](Oc3c(-c4ccc(O)c(O)c4)oc4cc(O)cc(O)c4c3=O)[C@H](O)[C@H](O)[C@@H]2O)[C@@H](O)[C@@H](O)[C@H]1O
REMARK SMILES IDX 7 1 36 2 34 3 32 4 9 5 8 6 6 7 5 8 4 9 1 10 2 11 42 12 3 13
REMARK SMILES IDX 40 14 38 15 43 16 41 18 39 20 37 22 35 24 10 26 11 27 12 28
REMARK SMILES IDX 30 29 21 30 29 31 31 32 22 33 27 34 23 35 26 36 24 37 13 38
REMARK SMILES IDX 20 39 14 40 18 41 15 42 16 43 19 44 17 46 28 48 25 50 33 52
REMARK H PARENT 43 17 41 19 39 21 37 23 35 25 19 45 17 47 28 49 25 51 33 53
REMARK Flexibility Score: inf
ROOT
ATOM      1  C   UNL     1      49.190  61.325   4.030  1.00  0.00     0.180 C 
ATOM      2  C   UNL     1      47.595  61.452   3.810  1.00  0.00     0.177 C 
ATOM      3  C   UNL     1      47.214  62.799   3.111  1.00  0.00     0.180 C 
ATOM      4  C   UNL     1      47.948  62.978   1.739  1.00  0.00     0.214 C 
ATOM      5  C   UNL     1      49.285  62.024   1.792  1.00  0.00     0.339 C 
ATOM      6  O   UNL     1      49.876  62.180   3.097  1.00  0.00    -0.332 OA
ENDROOT
BRANCH   1   7
ATOM      7  C   UNL     1      49.784  59.883   4.088  1.00  0.00     0.198 C 
BRANCH   7   8
ATOM      8  O   UNL     1      50.932  59.865   4.943  1.00  0.00    -0.347 OA
BRANCH   8   9
ATOM      9  C   UNL     1      50.645  59.380   6.242  1.00  0.00     0.281 C 
ATOM     10  C   UNL     1      52.264  62.041   6.106  1.00  0.00     0.041 C 
ATOM     11  C   UNL     1      52.043  61.032   7.235  1.00  0.00     0.150 C 
ATOM     12  C   UNL     1      53.231  60.026   7.368  1.00  0.00     0.174 C 
ATOM     13  O   UNL     1      50.756  60.422   7.215  1.00  0.00    -0.344 OA
ATOM     14  C   UNL     1      53.090  58.742   6.495  1.00  0.00     0.179 C 
ATOM     15  C   UNL     1      51.648  58.237   6.682  1.00  0.00     0.202 C 
BRANCH  12  16
ATOM     16  O   UNL     1      54.443  60.689   7.109  1.00  0.00    -0.388 OA
ATOM     17  H   UNL     1      55.112  59.973   6.908  1.00  0.00     0.211 HD
ENDBRANCH  12  16
BRANCH  14  18
ATOM     18  O   UNL     1      53.371  58.951   5.139  1.00  0.00    -0.387 OA
ATOM     19  H   UNL     1      53.434  58.057   4.665  1.00  0.00     0.211 HD
ENDBRANCH  14  18
BRANCH  15  20
ATOM     20  O   UNL     1      51.484  56.974   6.031  1.00  0.00    -0.385 OA
ATOM     21  H   UNL     1      52.231  56.872   5.384  1.00  0.00     0.211 HD
ENDBRANCH  15  20
ENDBRANCH   8   9
ENDBRANCH   7   8
ENDBRANCH   1   7
BRANCH   2  22
ATOM     22  O   UNL     1      46.707  61.156   4.841  1.00  0.00    -0.387 OA
ATOM     23  H   UNL     1      47.195  61.232   5.725  1.00  0.00     0.211 HD
ENDBRANCH   2  22
BRANCH   3  24
ATOM     24  O   UNL     1      47.378  63.876   4.001  1.00  0.00    -0.387 OA
ATOM     25  H   UNL     1      46.580  64.463   3.916  1.00  0.00     0.211 HD
ENDBRANCH   3  24
BRANCH   5  26
ATOM     26  O   UNL     1      50.148  62.357   0.727  1.00  0.00    -0.454 OA
BRANCH  26  27
ATOM     27  C   UNL     1      51.271  61.562   0.516  1.00  0.00     0.214 A 
ATOM     28  C   UNL     1      52.519  61.977   0.937  1.00  0.00     0.180 A 
ATOM     29  C   UNL     1      51.151  60.314  -0.196  1.00  0.00     0.239 A 
ATOM     30  O   UNL     1      53.593  61.236   0.700  1.00  0.00    -0.452 OA
ATOM     31  C   UNL     1      52.319  59.536  -0.320  1.00  0.00     0.111 A 
ATOM     32  O   UNL     1      50.029  59.955  -0.605  1.00  0.00    -0.285 OA
ATOM     33  C   UNL     1      53.569  60.091   0.062  1.00  0.00     0.146 A 
ATOM     34  C   UNL     1      52.307  58.291  -1.039  1.00  0.00     0.134 A 
ATOM     35  C   UNL     1      54.788  59.466  -0.296  1.00  0.00     0.094 A 
ATOM     36  C   UNL     1      53.522  57.700  -1.411  1.00  0.00     0.093 A 
ATOM     37  C   UNL     1      54.779  58.266  -1.037  1.00  0.00     0.123 A 
BRANCH  28  38
ATOM     38  C   UNL     1      52.794  63.292   1.583  1.00  0.00     0.025 A 
ATOM     39  C   UNL     1      52.214  64.461   1.056  1.00  0.00     0.062 A 
ATOM     40  C   UNL     1      53.377  63.329   2.861  1.00  0.00     0.016 A 
ATOM     41  C   UNL     1      52.265  65.657   1.800  1.00  0.00     0.158 A 
ATOM     42  C   UNL     1      53.351  64.481   3.631  1.00  0.00     0.051 A 
ATOM     43  C   UNL     1      52.752  65.644   3.125  1.00  0.00     0.157 A 
BRANCH  41  44
ATOM     44  O   UNL     1      51.691  66.809   1.254  1.00  0.00    -0.504 OA
ATOM     45  H   UNL     1      50.707  66.843   1.030  1.00  0.00     0.293 HD
ENDBRANCH  41  44
BRANCH  43  46
ATOM     46  O   UNL     1      52.626  66.730   3.958  1.00  0.00    -0.504 OA
ATOM     47  H   UNL     1      51.703  67.073   4.249  1.00  0.00     0.293 HD
ENDBRANCH  43  46
ENDBRANCH  28  38
BRANCH  34  48
ATOM     48  O   UNL     1      51.132  57.617  -1.363  1.00  0.00    -0.507 OA
ATOM     49  H   UNL     1      50.866  56.793  -0.841  1.00  0.00     0.293 HD
ENDBRANCH  34  48
BRANCH  37  50
ATOM     50  O   UNL     1      55.994  57.635  -1.433  1.00  0.00    -0.508 OA
ATOM     51  H   UNL     1      56.649  57.236  -0.741  1.00  0.00     0.293 HD
ENDBRANCH  37  50
ENDBRANCH  26  27
ENDBRANCH   5  26
BRANCH   4  52
ATOM     52  O   UNL     1      48.187  64.367   1.461  1.00  0.00    -0.384 OA
ATOM     53  H   UNL     1      48.161  64.527   0.428  1.00  0.00     0.211 HD
ENDBRANCH   4  52
TORSDOF 16
ENDMDL
MODEL 8
REMARK VINA RESULT:    -9.481      1.180      2.199
REMARK INTER + INTRA:         -17.851
REMARK INTER:                 -15.074
REMARK INTRA:                  -2.777
REMARK UNBOUND:                -2.274
REMARK SMILES C[C@H]1O[C@@H](OC[C@H]2O[C@H](Oc3c(-c4ccc(O)c(O)c4)oc4cc(O)cc(O)c4c3=O)[C@H](O)[C@H](O)[C@@H]2O)[C@@H](O)[C@@H](O)[C@H]1O
REMARK SMILES IDX 7 1 36 2 34 3 32 4 9 5 8 6 6 7 5 8 4 9 1 10 2 11 42 12 3 13
REMARK SMILES IDX 40 14 38 15 43 16 41 18 39 20 37 22 35 24 10 26 11 27 12 28
REMARK SMILES IDX 30 29 21 30 29 31 31 32 22 33 27 34 23 35 26 36 24 37 13 38
REMARK SMILES IDX 20 39 14 40 18 41 15 42 16 43 19 44 17 46 28 48 25 50 33 52
REMARK H PARENT 43 17 41 19 39 21 37 23 35 25 19 45 17 47 28 49 25 51 33 53
REMARK Flexibility Score: inf
ROOT
ATOM      1  C   UNL     1      50.550  63.395   0.270  1.00  0.00     0.180 C 
ATOM      2  C   UNL     1      52.153  63.580   0.337  1.00  0.00     0.177 C 
ATOM      3  C   UNL     1      52.557  64.799   1.230  1.00  0.00     0.180 C 
ATOM      4  C   UNL     1      51.984  64.681   2.683  1.00  0.00     0.214 C 
ATOM      5  C   UNL     1      50.690  63.670   2.597  1.00  0.00     0.339 C 
ATOM      6  O   UNL     1      49.944  64.023   1.416  1.00  0.00    -0.332 OA
ENDROOT
BRANCH   1   7
ATOM      7  C   UNL     1      50.014  61.953   0.008  1.00  0.00     0.198 C 
BRANCH   7   8
ATOM      8  O   UNL     1      51.109  61.071  -0.263  1.00  0.00    -0.347 OA
BRANCH   8   9
ATOM      9  C   UNL     1      50.701  59.729  -0.456  1.00  0.00     0.281 C 
ATOM     10  C   UNL     1      53.350  60.134   1.137  1.00  0.00     0.041 C 
ATOM     11  C   UNL     1      52.751  58.912   0.438  1.00  0.00     0.150 C 
ATOM     12  C   UNL     1      53.351  58.697  -0.989  1.00  0.00     0.174 C 
ATOM     13  O   UNL     1      51.329  58.861   0.490  1.00  0.00    -0.344 OA
ATOM     14  C   UNL     1      52.591  59.442  -2.128  1.00  0.00     0.179 C 
ATOM     15  C   UNL     1      51.091  59.193  -1.894  1.00  0.00     0.202 C 
BRANCH  12  16
ATOM     16  O   UNL     1      54.716  59.031  -0.983  1.00  0.00    -0.388 OA
ATOM     17  H   UNL     1      54.946  59.272  -1.926  1.00  0.00     0.211 HD
ENDBRANCH  12  16
BRANCH  14  18
ATOM     18  O   UNL     1      52.864  60.815  -2.181  1.00  0.00    -0.387 OA
ATOM     19  H   UNL     1      53.451  61.072  -1.395  1.00  0.00     0.211 HD
ENDBRANCH  14  18
BRANCH  15  20
ATOM     20  O   UNL     1      50.331  59.719  -2.986  1.00  0.00    -0.385 OA
ATOM     21  H   UNL     1      49.921  58.948  -3.463  1.00  0.00     0.211 HD
ENDBRANCH  15  20
ENDBRANCH   8   9
ENDBRANCH   7   8
ENDBRANCH   1   7
BRANCH   2  22
ATOM     22  O   UNL     1      52.925  63.533  -0.821  1.00  0.00    -0.387 OA
ATOM     23  H   UNL     1      53.366  64.434  -0.957  1.00  0.00     0.211 HD
ENDBRANCH   2  22
BRANCH   3  24
ATOM     24  O   UNL     1      52.244  66.008   0.581  1.00  0.00    -0.387 OA
ATOM     25  H   UNL     1      51.439  65.849   0.020  1.00  0.00     0.211 HD
ENDBRANCH   3  24
BRANCH   5  26
ATOM     26  O   UNL     1      49.946  63.749   3.792  1.00  0.00    -0.454 OA
BRANCH  26  27
ATOM     27  C   UNL     1      48.995  62.764   4.043  1.00  0.00     0.214 A 
ATOM     28  C   UNL     1      49.371  61.527   4.530  1.00  0.00     0.180 A 
ATOM     29  C   UNL     1      47.606  63.007   3.746  1.00  0.00     0.239 A 
ATOM     30  O   UNL     1      48.467  60.577   4.731  1.00  0.00    -0.452 OA
ATOM     31  C   UNL     1      46.694  61.986   4.080  1.00  0.00     0.111 A 
ATOM     32  O   UNL     1      47.270  64.111   3.275  1.00  0.00    -0.285 OA
ATOM     33  C   UNL     1      47.187  60.718   4.487  1.00  0.00     0.146 A 
ATOM     34  C   UNL     1      45.291  62.122   3.794  1.00  0.00     0.134 A 
ATOM     35  C   UNL     1      46.334  59.591   4.565  1.00  0.00     0.094 A 
ATOM     36  C   UNL     1      44.465  60.990   3.848  1.00  0.00     0.093 A 
ATOM     37  C   UNL     1      44.965  59.712   4.245  1.00  0.00     0.123 A 
BRANCH  28  38
ATOM     38  C   UNL     1      50.782  61.114   4.773  1.00  0.00     0.025 A 
ATOM     39  C   UNL     1      51.506  61.694   5.830  1.00  0.00     0.062 A 
ATOM     40  C   UNL     1      51.284  59.959   4.147  1.00  0.00     0.016 A 
ATOM     41  C   UNL     1      52.740  61.133   6.217  1.00  0.00     0.158 A 
ATOM     42  C   UNL     1      52.452  59.355   4.582  1.00  0.00     0.051 A 
ATOM     43  C   UNL     1      53.167  59.911   5.654  1.00  0.00     0.157 A 
BRANCH  41  44
ATOM     44  O   UNL     1      53.447  61.731   7.265  1.00  0.00    -0.504 OA
ATOM     45  H   UNL     1      53.800  62.673   7.182  1.00  0.00     0.293 HD
ENDBRANCH  41  44
BRANCH  43  46
ATOM     46  O   UNL     1      54.249  59.221   6.147  1.00  0.00    -0.504 OA
ATOM     47  H   UNL     1      54.567  58.348   5.710  1.00  0.00     0.293 HD
ENDBRANCH  43  46
ENDBRANCH  28  38
BRANCH  34  48
ATOM     48  O   UNL     1      44.697  63.344   3.492  1.00  0.00    -0.507 OA
ATOM     49  H   UNL     1      44.887  64.152   4.070  1.00  0.00     0.293 HD
ENDBRANCH  34  48
BRANCH  37  50
ATOM     50  O   UNL     1      44.095  58.586   4.288  1.00  0.00    -0.508 OA
ATOM     51  H   UNL     1      43.948  58.046   5.158  1.00  0.00     0.293 HD
ENDBRANCH  37  50
ENDBRANCH  26  27
ENDBRANCH   5  26
BRANCH   4  52
ATOM     52  O   UNL     1      51.721  65.978   3.241  1.00  0.00    -0.384 OA
ATOM     53  H   UNL     1      51.735  65.920   4.285  1.00  0.00     0.211 HD
ENDBRANCH   4  52
TORSDOF 16
ENDMDL
MODEL 9
REMARK VINA RESULT:    -9.436      2.491      6.797
REMARK INTER + INTRA:         -17.778
REMARK INTER:                 -14.977
REMARK INTRA:                  -2.800
REMARK UNBOUND:                -2.274
REMARK SMILES C[C@H]1O[C@@H](OC[C@H]2O[C@H](Oc3c(-c4ccc(O)c(O)c4)oc4cc(O)cc(O)c4c3=O)[C@H](O)[C@H](O)[C@@H]2O)[C@@H](O)[C@@H](O)[C@H]1O
REMARK SMILES IDX 7 1 36 2 34 3 32 4 9 5 8 6 6 7 5 8 4 9 1 10 2 11 42 12 3 13
REMARK SMILES IDX 40 14 38 15 43 16 41 18 39 20 37 22 35 24 10 26 11 27 12 28
REMARK SMILES IDX 30 29 21 30 29 31 31 32 22 33 27 34 23 35 26 36 24 37 13 38
REMARK SMILES IDX 20 39 14 40 18 41 15 42 16 43 19 44 17 46 28 48 25 50 33 52
REMARK H PARENT 43 17 41 19 39 21 37 23 35 25 19 45 17 47 28 49 25 51 33 53
REMARK Flexibility Score: inf
ROOT
ATOM      1  C   UNL     1      48.083  60.291   6.085  1.00  0.00     0.180 C 
ATOM      2  C   UNL     1      48.502  58.746   5.882  1.00  0.00     0.177 C 
ATOM      3  C   UNL     1      47.394  57.941   5.125  1.00  0.00     0.180 C 
ATOM      4  C   UNL     1      47.051  58.577   3.735  1.00  0.00     0.214 C 
ATOM      5  C   UNL     1      47.504  60.155   3.815  1.00  0.00     0.339 C 
ATOM      6  O   UNL     1      47.096  60.657   5.102  1.00  0.00    -0.332 OA
ENDROOT
BRANCH   1   7
ATOM      7  C   UNL     1      49.241  61.330   6.203  1.00  0.00     0.198 C 
BRANCH   7   8
ATOM      8  O   UNL     1      50.453  60.664   6.578  1.00  0.00    -0.347 OA
BRANCH   8   9
ATOM      9  C   UNL     1      51.525  61.559   6.811  1.00  0.00     0.281 C 
ATOM     10  C   UNL     1      52.080  59.269   4.770  1.00  0.00     0.041 C 
ATOM     11  C   UNL     1      53.014  60.206   5.539  1.00  0.00     0.150 C 
ATOM     12  C   UNL     1      53.592  59.534   6.827  1.00  0.00     0.174 C 
ATOM     13  O   UNL     1      52.477  61.508   5.746  1.00  0.00    -0.344 OA
ATOM     14  C   UNL     1      52.716  59.725   8.103  1.00  0.00     0.179 C 
ATOM     15  C   UNL     1      52.309  61.209   8.141  1.00  0.00     0.202 C 
BRANCH  12  16
ATOM     16  O   UNL     1      53.843  58.174   6.579  1.00  0.00    -0.388 OA
ATOM     17  H   UNL     1      54.737  58.136   6.133  1.00  0.00     0.211 HD
ENDBRANCH  12  16
BRANCH  14  18
ATOM     18  O   UNL     1      51.585  58.900   8.135  1.00  0.00    -0.387 OA
ATOM     19  H   UNL     1      50.882  59.314   8.738  1.00  0.00     0.211 HD
ENDBRANCH  14  18
BRANCH  15  20
ATOM     20  O   UNL     1      51.628  61.498   9.365  1.00  0.00    -0.385 OA
ATOM     21  H   UNL     1      52.256  62.009   9.942  1.00  0.00     0.211 HD
ENDBRANCH  15  20
ENDBRANCH   8   9
ENDBRANCH   7   8
ENDBRANCH   1   7
BRANCH   2  22
ATOM     22  O   UNL     1      49.023  58.003   6.939  1.00  0.00    -0.387 OA
ATOM     23  H   UNL     1      48.570  57.098   6.957  1.00  0.00     0.211 HD
ENDBRANCH   2  22
BRANCH   3  24
ATOM     24  O   UNL     1      46.280  57.737   5.960  1.00  0.00    -0.387 OA
ATOM     25  H   UNL     1      46.591  57.235   6.761  1.00  0.00     0.211 HD
ENDBRANCH   3  24
BRANCH   5  26
ATOM     26  O   UNL     1      46.958  60.861   2.723  1.00  0.00    -0.454 OA
BRANCH  26  27
ATOM     27  C   UNL     1      46.899  62.249   2.799  1.00  0.00     0.214 A 
ATOM     28  C   UNL     1      47.999  63.022   2.480  1.00  0.00     0.180 A 
ATOM     29  C   UNL     1      45.699  62.898   3.266  1.00  0.00     0.239 A 
ATOM     30  O   UNL     1      47.952  64.343   2.591  1.00  0.00    -0.452 OA
ATOM     31  C   UNL     1      45.692  64.307   3.261  1.00  0.00     0.111 A 
ATOM     32  O   UNL     1      44.717  62.200   3.586  1.00  0.00    -0.285 OA
ATOM     33  C   UNL     1      46.901  65.008   3.006  1.00  0.00     0.146 A 
ATOM     34  C   UNL     1      44.554  65.045   3.737  1.00  0.00     0.134 A 
ATOM     35  C   UNL     1      47.010  66.397   3.259  1.00  0.00     0.094 A 
ATOM     36  C   UNL     1      44.686  66.414   4.009  1.00  0.00     0.093 A 
ATOM     37  C   UNL     1      45.907  67.115   3.765  1.00  0.00     0.123 A 
BRANCH  28  38
ATOM     38  C   UNL     1      49.328  62.470   2.093  1.00  0.00     0.025 A 
ATOM     39  C   UNL     1      49.570  62.111   0.754  1.00  0.00     0.062 A 
ATOM     40  C   UNL     1      50.411  62.581   2.982  1.00  0.00     0.016 A 
ATOM     41  C   UNL     1      50.887  61.830   0.338  1.00  0.00     0.158 A 
ATOM     42  C   UNL     1      51.715  62.391   2.556  1.00  0.00     0.051 A 
ATOM     43  C   UNL     1      51.969  62.059   1.216  1.00  0.00     0.157 A 
BRANCH  41  44
ATOM     44  O   UNL     1      51.105  61.467  -0.994  1.00  0.00    -0.504 OA
ATOM     45  H   UNL     1      50.341  61.167  -1.582  1.00  0.00     0.293 HD
ENDBRANCH  41  44
BRANCH  43  46
ATOM     46  O   UNL     1      53.275  62.004   0.792  1.00  0.00    -0.504 OA
ATOM     47  H   UNL     1      53.684  62.758   0.228  1.00  0.00     0.293 HD
ENDBRANCH  43  46
ENDBRANCH  28  38
BRANCH  34  48
ATOM     48  O   UNL     1      43.299  64.467   3.913  1.00  0.00    -0.507 OA
ATOM     49  H   UNL     1      42.503  64.834   3.409  1.00  0.00     0.293 HD
ENDBRANCH  34  48
BRANCH  37  50
ATOM     50  O   UNL     1      46.003  68.506   4.055  1.00  0.00    -0.508 OA
ATOM     51  H   UNL     1      46.077  68.856   5.024  1.00  0.00     0.293 HD
ENDBRANCH  37  50
ENDBRANCH  26  27
ENDBRANCH   5  26
BRANCH   4  52
ATOM     52  O   UNL     1      45.677  58.343   3.387  1.00  0.00    -0.384 OA
ATOM     53  H   UNL     1      45.496  58.694   2.419  1.00  0.00     0.211 HD
ENDBRANCH   4  52
TORSDOF 16
ENDMDL
