MODEL 1
REMARK VINA RESULT:    -2.593      0.000      0.000
REMARK INTER + INTRA:          -2.593
REMARK INTER:                  -2.593
REMARK INTRA:                   0.000
REMARK UNBOUND:                 0.000
REMARK SMILES CC(=O)[O-]
REMARK SMILES IDX 1 1 2 2 3 3 4 4
REMARK H PARENT
REMARK Flexibility Score: inf
ROOT
ATOM      1  C   UNL     1       8.521 -10.106  11.682  1.00  0.00     0.063 C 
ATOM      2  C   UNL     1       9.636  -9.194  11.301  1.00  0.00     0.038 C 
ATOM      3  O   UNL     1      10.537  -8.914  12.134  1.00  0.00    -0.550 OA
ATOM      4  O   UNL     1       9.656  -8.606  10.042  1.00  0.00    -0.550 OA
ENDROOT
TORSDOF 0
ENDMDL
MODEL 2
REMARK VINA RESULT:    -2.519      1.449      1.676
REMARK INTER + INTRA:          -2.519
REMARK INTER:                  -2.519
REMARK INTRA:                   0.000
REMARK UNBOUND:                 0.000
REMARK SMILES CC(=O)[O-]
REMARK SMILES IDX 1 1 2 2 3 3 4 4
REMARK H PARENT
REMARK Flexibility Score: inf
ROOT
ATOM      1  C   UNL     1      10.565  -9.771  12.248  1.00  0.00     0.063 C 
ATOM      2  C   UNL     1       9.405  -9.439  11.373  1.00  0.00     0.038 C 
ATOM      3  O   UNL     1       8.274  -9.939  11.607  1.00  0.00    -0.550 OA
ATOM      4  O   UNL     1       9.581  -8.620  10.265  1.00  0.00    -0.550 OA
ENDROOT
TORSDOF 0
ENDMDL
MODEL 3
REMARK VINA RESULT:    -2.193      2.986      3.452
REMARK INTER + INTRA:          -2.193
REMARK INTER:                  -2.193
REMARK INTRA:                   0.000
REMARK UNBOUND:                 0.000
REMARK SMILES CC(=O)[O-]
REMARK SMILES IDX 1 1 2 2 3 3 4 4
REMARK H PARENT
REMARK Flexibility Score: inf
ROOT
ATOM      1  C   UNL     1       7.019 -11.325  13.644  1.00  0.00     0.063 C 
ATOM      2  C   UNL     1       7.110 -10.671  12.307  1.00  0.00     0.038 C 
ATOM      3  O   UNL     1       6.152 -10.757  11.495  1.00  0.00    -0.550 OA
ATOM      4  O   UNL     1       8.274 -10.013  11.932  1.00  0.00    -0.550 OA
ENDROOT
TORSDOF 0
ENDMDL
MODEL 4
REMARK VINA RESULT:    -1.769      8.428      8.584
REMARK INTER + INTRA:          -1.769
REMARK INTER:                  -1.769
REMARK INTRA:                   0.000
REMARK UNBOUND:                 0.000
REMARK SMILES CC(=O)[O-]
REMARK SMILES IDX 1 1 2 2 3 3 4 4
REMARK H PARENT
REMARK Flexibility Score: inf
ROOT
ATOM      1  C   UNL     1      10.865 -15.925   9.651  1.00  0.00     0.063 C 
ATOM      2  C   UNL     1      11.613 -17.080   9.078  1.00  0.00     0.038 C 
ATOM      3  O   UNL     1      10.990 -18.089   8.656  1.00  0.00    -0.550 OA
ATOM      4  O   UNL     1      13.002 -17.069   9.057  1.00  0.00    -0.550 OA
ENDROOT
TORSDOF 0
ENDMDL
MODEL 5
REMARK VINA RESULT:    -1.768     14.357     14.588
REMARK INTER + INTRA:          -1.768
REMARK INTER:                  -1.768
REMARK INTRA:                   0.000
REMARK UNBOUND:                 0.000
REMARK SMILES CC(=O)[O-]
REMARK SMILES IDX 1 1 2 2 3 3 4 4
REMARK H PARENT
REMARK Flexibility Score: inf
ROOT
ATOM      1  C   UNL     1       2.533 -19.304   5.056  1.00  0.00     0.063 C 
ATOM      2  C   UNL     1       1.336 -19.724   5.839  1.00  0.00     0.038 C 
ATOM      3  O   UNL     1       0.209 -19.223   5.588  1.00  0.00    -0.550 OA
ATOM      4  O   UNL     1       1.471 -20.628   6.885  1.00  0.00    -0.550 OA
ENDROOT
TORSDOF 0
ENDMDL
MODEL 6
REMARK VINA RESULT:    -1.752      2.825      3.423
REMARK INTER + INTRA:          -1.752
REMARK INTER:                  -1.752
REMARK INTRA:                   0.000
REMARK UNBOUND:                 0.000
REMARK SMILES CC(=O)[O-]
REMARK SMILES IDX 1 1 2 2 3 3 4 4
REMARK H PARENT
REMARK Flexibility Score: inf
ROOT
ATOM      1  C   UNL     1       6.419 -10.670  11.714  1.00  0.00     0.063 C 
ATOM      2  C   UNL     1       7.578 -10.827  12.639  1.00  0.00     0.038 C 
ATOM      3  O   UNL     1       8.725 -10.449  12.284  1.00  0.00    -0.550 OA
ATOM      4  O   UNL     1       7.406 -11.440  13.873  1.00  0.00    -0.550 OA
ENDROOT
TORSDOF 0
ENDMDL
MODEL 7
REMARK VINA RESULT:    -1.720      8.114      8.208
REMARK INTER + INTRA:          -1.720
REMARK INTER:                  -1.720
REMARK INTRA:                   0.000
REMARK UNBOUND:                 0.000
REMARK SMILES CC(=O)[O-]
REMARK SMILES IDX 1 1 2 2 3 3 4 4
REMARK H PARENT
REMARK Flexibility Score: inf
ROOT
ATOM      1  C   UNL     1      11.204 -18.126   8.660  1.00  0.00     0.063 C 
ATOM      2  C   UNL     1      11.435 -16.740   9.158  1.00  0.00     0.038 C 
ATOM      3  O   UNL     1      10.516 -16.124   9.759  1.00  0.00    -0.550 OA
ATOM      4  O   UNL     1      12.646 -16.105   8.914  1.00  0.00    -0.550 OA
ENDROOT
TORSDOF 0
ENDMDL
MODEL 8
REMARK VINA RESULT:    -1.647      6.601      7.065
REMARK INTER + INTRA:          -1.647
REMARK INTER:                  -1.647
REMARK INTRA:                   0.000
REMARK UNBOUND:                 0.000
REMARK SMILES CC(=O)[O-]
REMARK SMILES IDX 1 1 2 2 3 3 4 4
REMARK H PARENT
REMARK Flexibility Score: inf
ROOT
ATOM      1  C   UNL     1      14.206 -10.247  17.912  1.00  0.00     0.063 C 
ATOM      2  C   UNL     1      13.077 -10.458  16.961  1.00  0.00     0.038 C 
ATOM      3  O   UNL     1      13.120 -11.401  16.128  1.00  0.00    -0.550 OA
ATOM      4  O   UNL     1      12.000  -9.581  16.954  1.00  0.00    -0.550 OA
ENDROOT
TORSDOF 0
ENDMDL
MODEL 9
REMARK VINA RESULT:    -1.632      6.441      7.008
REMARK INTER + INTRA:          -1.632
REMARK INTER:                  -1.632
REMARK INTRA:                   0.000
REMARK UNBOUND:                 0.000
REMARK SMILES CC(=O)[O-]
REMARK SMILES IDX 1 1 2 2 3 3 4 4
REMARK H PARENT
REMARK Flexibility Score: inf
ROOT
ATOM      1  C   UNL     1      11.850  -9.772  16.976  1.00  0.00     0.063 C 
ATOM      2  C   UNL     1      13.113 -10.561  16.901  1.00  0.00     0.038 C 
ATOM      3  O   UNL     1      13.175 -11.587  16.174  1.00  0.00    -0.550 OA
ATOM      4  O   UNL     1      14.207 -10.197  17.675  1.00  0.00    -0.550 OA
ENDROOT
TORSDOF 0
ENDMDL
