MODEL 1
REMARK VINA RESULT:    95.671      0.000      0.000
REMARK INTER + INTRA:         140.776
REMARK INTER:                 140.415
REMARK INTRA:                   0.361
REMARK UNBOUND:                 0.361
REMARK SMILES Cc1cc2c(C(C)C)c(O)c(O)c(C=O)c2c(O)c1-c1c(C)cc2c(C(C)C)c(O)c(O)c(C=O)c2c1O
REMARK SMILES IDX 1 1 2 2 3 3 4 4 16 5 13 6 11 7 9 8 5 9 17 10 19 11 20 12
REMARK SMILES IDX 37 13 21 14 36 15 23 16 22 17 24 18 33 19 25 20 31 21 29 22
REMARK SMILES IDX 38 23 34 25 35 26 26 27 27 28 28 29 32 30 30 32 18 34 6 36
REMARK SMILES IDX 7 37 8 38 14 39 15 40 10 41 12 43
REMARK H PARENT 38 24 32 31 30 33 18 35 10 42 12 44
REMARK Flexibility Score: inf
ROOT
ATOM      1  C   UNL     1      32.186  32.148  -2.062  1.00  0.00     0.045 C 
ATOM      2  C   UNL     1      31.182  31.245  -1.388  1.00  0.00    -0.039 A 
ATOM      3  C   UNL     1      29.822  31.427  -1.634  1.00  0.00     0.013 A 
ATOM      4  C   UNL     1      28.840  30.610  -1.033  1.00  0.00    -0.006 A 
ATOM      5  C   UNL     1      29.247  29.668  -0.041  1.00  0.00     0.039 A 
ATOM      6  C   UNL     1      28.246  29.002   0.729  1.00  0.00     0.072 A 
ATOM      7  C   UNL     1      26.883  29.284   0.499  1.00  0.00     0.169 A 
ATOM      8  C   UNL     1      26.498  30.131  -0.546  1.00  0.00     0.162 A 
ATOM      9  C   UNL     1      27.461  30.734  -1.382  1.00  0.00     0.008 A 
ATOM     10  C   UNL     1      30.642  29.415   0.132  1.00  0.00     0.132 A 
ATOM     11  C   UNL     1      31.599  30.203  -0.542  1.00  0.00     0.031 A 
ENDROOT
BRANCH  11  12
ATOM     12  C   UNL     1      33.050  29.944  -0.347  1.00  0.00     0.031 A 
ATOM     13  C   UNL     1      33.773  30.653   0.635  1.00  0.00     0.132 A 
ATOM     14  C   UNL     1      33.705  29.010  -1.166  1.00  0.00    -0.039 A 
ATOM     15  C   UNL     1      35.160  30.392   0.842  1.00  0.00     0.039 A 
ATOM     16  C   UNL     1      35.078  28.810  -1.021  1.00  0.00     0.013 A 
ATOM     17  C   UNL     1      32.958  28.258  -2.242  1.00  0.00     0.045 C 
ATOM     18  C   UNL     1      35.825  29.460  -0.013  1.00  0.00    -0.006 A 
ATOM     19  C   UNL     1      35.917  31.063   1.846  1.00  0.00     0.072 A 
ATOM     20  C   UNL     1      37.227  29.219   0.138  1.00  0.00     0.008 A 
ATOM     21  C   UNL     1      37.322  30.960   1.845  1.00  0.00     0.169 A 
ATOM     22  C   UNL     1      37.970  30.096   0.964  1.00  0.00     0.162 A 
BRANCH  13  23
ATOM     23  O   UNL     1      33.124  31.648   1.376  1.00  0.00    -0.507 OA
ATOM     24  H   UNL     1      33.314  32.638   1.280  1.00  0.00     0.293 HD
ENDBRANCH  13  23
BRANCH  19  25
ATOM     25  C   UNL     1      35.284  31.850   2.924  1.00  0.00     0.264 C 
ATOM     26  O   UNL     1      35.076  33.083   2.773  1.00  0.00    -0.298 OA
ENDBRANCH  19  25
BRANCH  20  27
ATOM     27  C   UNL     1      37.891  27.991  -0.518  1.00  0.00     0.017 C 
ATOM     28  C   UNL     1      37.548  27.876  -2.009  1.00  0.00     0.012 C 
ATOM     29  C   UNL     1      39.405  27.876  -0.259  1.00  0.00     0.012 C 
ENDBRANCH  20  27
BRANCH  21  30
ATOM     30  O   UNL     1      38.118  31.696   2.730  1.00  0.00    -0.504 OA
ATOM     31  H   UNL     1      37.988  31.706   3.734  1.00  0.00     0.293 HD
ENDBRANCH  21  30
BRANCH  22  32
ATOM     32  O   UNL     1      39.365  30.149   0.948  1.00  0.00    -0.504 OA
ATOM     33  H   UNL     1      39.939  29.518   0.409  1.00  0.00     0.293 HD
ENDBRANCH  22  32
ENDBRANCH  11  12
BRANCH  10  34
ATOM     34  O   UNL     1      31.074  28.364   0.949  1.00  0.00    -0.507 OA
ATOM     35  H   UNL     1      32.045  28.187   1.176  1.00  0.00     0.293 HD
ENDBRANCH  10  34
BRANCH   9  36
ATOM     36  C   UNL     1      27.012  31.514  -2.629  1.00  0.00     0.017 C 
ATOM     37  C   UNL     1      25.740  32.319  -2.344  1.00  0.00     0.012 C 
ATOM     38  C   UNL     1      26.849  30.634  -3.882  1.00  0.00     0.012 C 
ENDBRANCH   9  36
BRANCH   6  39
ATOM     39  C   UNL     1      28.593  28.088   1.837  1.00  0.00     0.264 C 
ATOM     40  O   UNL     1      28.020  28.188   2.954  1.00  0.00    -0.298 OA
ENDBRANCH   6  39
BRANCH   8  41
ATOM     41  O   UNL     1      25.141  30.397  -0.745  1.00  0.00    -0.504 OA
ATOM     42  H   UNL     1      24.416  29.701  -0.620  1.00  0.00     0.293 HD
ENDBRANCH   8  41
BRANCH   7  43
ATOM     43  O   UNL     1      25.876  28.752   1.314  1.00  0.00    -0.504 OA
ATOM     44  H   UNL     1      26.000  28.521   2.291  1.00  0.00     0.293 HD
ENDBRANCH   7  43
TORSDOF 11
ENDMDL
MODEL 2
REMARK VINA RESULT:    95.702     13.015     16.732
REMARK INTER + INTRA:         140.821
REMARK INTER:                 138.040
REMARK INTRA:                   2.781
REMARK UNBOUND:                 0.361
REMARK SMILES Cc1cc2c(C(C)C)c(O)c(O)c(C=O)c2c(O)c1-c1c(C)cc2c(C(C)C)c(O)c(O)c(C=O)c2c1O
REMARK SMILES IDX 1 1 2 2 3 3 4 4 16 5 13 6 11 7 9 8 5 9 17 10 19 11 20 12
REMARK SMILES IDX 37 13 21 14 36 15 23 16 22 17 24 18 33 19 25 20 31 21 29 22
REMARK SMILES IDX 38 23 34 25 35 26 26 27 27 28 28 29 32 30 30 32 18 34 6 36
REMARK SMILES IDX 7 37 8 38 14 39 15 40 10 41 12 43
REMARK H PARENT 38 24 32 31 30 33 18 35 10 42 12 44
REMARK Flexibility Score: inf
ROOT
ATOM      1  C   UNL     1      30.640  46.951   1.832  1.00  0.00     0.045 C 
ATOM      2  C   UNL     1      31.484  45.788   1.370  1.00  0.00    -0.039 A 
ATOM      3  C   UNL     1      32.807  46.010   0.986  1.00  0.00     0.013 A 
ATOM      4  C   UNL     1      33.642  44.960   0.548  1.00  0.00    -0.006 A 
ATOM      5  C   UNL     1      33.072  43.665   0.360  1.00  0.00     0.039 A 
ATOM      6  C   UNL     1      33.847  42.659  -0.292  1.00  0.00     0.072 A 
ATOM      7  C   UNL     1      35.152  42.960  -0.738  1.00  0.00     0.169 A 
ATOM      8  C   UNL     1      35.733  44.200  -0.454  1.00  0.00     0.162 A 
ATOM      9  C   UNL     1      35.024  45.184   0.268  1.00  0.00     0.008 A 
ATOM     10  C   UNL     1      31.753  43.420   0.849  1.00  0.00     0.132 A 
ATOM     11  C   UNL     1      30.969  44.481   1.350  1.00  0.00     0.031 A 
ENDROOT
BRANCH  11  12
ATOM     12  C   UNL     1      29.591  44.222   1.844  1.00  0.00     0.031 A 
ATOM     13  C   UNL     1      29.164  44.763   3.075  1.00  0.00     0.132 A 
ATOM     14  C   UNL     1      28.725  43.411   1.093  1.00  0.00    -0.039 A 
ATOM     15  C   UNL     1      27.835  44.537   3.543  1.00  0.00     0.039 A 
ATOM     16  C   UNL     1      27.452  43.122   1.586  1.00  0.00     0.013 A 
ATOM     17  C   UNL     1      29.168  42.799  -0.214  1.00  0.00     0.045 C 
ATOM     18  C   UNL     1      26.969  43.689   2.786  1.00  0.00    -0.006 A 
ATOM     19  C   UNL     1      27.355  45.094   4.764  1.00  0.00     0.072 A 
ATOM     20  C   UNL     1      25.650  43.402   3.259  1.00  0.00     0.008 A 
ATOM     21  C   UNL     1      26.136  44.641   5.304  1.00  0.00     0.169 A 
ATOM     22  C   UNL     1      25.324  43.762   4.589  1.00  0.00     0.162 A 
BRANCH  13  23
ATOM     23  O   UNL     1      30.072  45.488   3.855  1.00  0.00    -0.507 OA
ATOM     24  H   UNL     1      30.027  46.491   3.989  1.00  0.00     0.293 HD
ENDBRANCH  13  23
BRANCH  19  25
ATOM     25  C   UNL     1      28.075  46.163   5.486  1.00  0.00     0.264 C 
ATOM     26  O   UNL     1      27.516  47.271   5.703  1.00  0.00    -0.298 OA
ENDBRANCH  19  25
BRANCH  20  27
ATOM     27  C   UNL     1      24.590  42.792   2.319  1.00  0.00     0.017 C 
ATOM     28  C   UNL     1      24.111  41.418   2.805  1.00  0.00     0.012 C 
ATOM     29  C   UNL     1      23.416  43.734   1.991  1.00  0.00     0.012 C 
ENDBRANCH  20  27
BRANCH  21  30
ATOM     30  O   UNL     1      25.682  45.063   6.559  1.00  0.00    -0.504 OA
ATOM     31  H   UNL     1      25.848  45.985   6.941  1.00  0.00     0.293 HD
ENDBRANCH  21  30
BRANCH  22  32
ATOM     32  O   UNL     1      24.197  43.271   5.251  1.00  0.00    -0.504 OA
ATOM     33  H   UNL     1      23.368  42.952   4.774  1.00  0.00     0.293 HD
ENDBRANCH  22  32
ENDBRANCH  11  12
BRANCH  10  34
ATOM     34  O   UNL     1      31.234  42.120   0.862  1.00  0.00    -0.507 OA
ATOM     35  H   UNL     1      31.483  41.406   0.189  1.00  0.00     0.293 HD
ENDBRANCH  10  34
BRANCH   9  36
ATOM     36  C   UNL     1      35.742  46.466   0.722  1.00  0.00     0.017 C 
ATOM     37  C   UNL     1      36.141  47.326  -0.480  1.00  0.00     0.012 C 
ATOM     38  C   UNL     1      36.944  46.205   1.648  1.00  0.00     0.012 C 
ENDBRANCH   9  36
BRANCH   6  39
ATOM     39  C   UNL     1      33.290  41.327  -0.608  1.00  0.00     0.264 C 
ATOM     40  O   UNL     1      33.712  40.299  -0.016  1.00  0.00    -0.298 OA
ENDBRANCH   6  39
BRANCH   8  41
ATOM     41  O   UNL     1      37.023  44.471  -0.915  1.00  0.00    -0.504 OA
ATOM     42  H   UNL     1      37.832  43.920  -0.654  1.00  0.00     0.293 HD
ENDBRANCH   8  41
BRANCH   7  43
ATOM     43  O   UNL     1      35.897  42.046  -1.494  1.00  0.00    -0.504 OA
ATOM     44  H   UNL     1      36.239  41.163  -1.141  1.00  0.00     0.293 HD
ENDBRANCH   7  43
TORSDOF 11
ENDMDL
MODEL 3
REMARK VINA RESULT:    97.525      2.187      4.121
REMARK INTER + INTRA:         143.497
REMARK INTER:                 140.115
REMARK INTRA:                   3.381
REMARK UNBOUND:                 0.361
REMARK SMILES Cc1cc2c(C(C)C)c(O)c(O)c(C=O)c2c(O)c1-c1c(C)cc2c(C(C)C)c(O)c(O)c(C=O)c2c1O
REMARK SMILES IDX 1 1 2 2 3 3 4 4 16 5 13 6 11 7 9 8 5 9 17 10 19 11 20 12
REMARK SMILES IDX 37 13 21 14 36 15 23 16 22 17 24 18 33 19 25 20 31 21 29 22
REMARK SMILES IDX 38 23 34 25 35 26 26 27 27 28 28 29 32 30 30 32 18 34 6 36
REMARK SMILES IDX 7 37 8 38 14 39 15 40 10 41 12 43
REMARK H PARENT 38 24 32 31 30 33 18 35 10 42 12 44
REMARK Flexibility Score: inf
ROOT
ATOM      1  C   UNL     1      31.666  29.111   2.015  1.00  0.00     0.045 C 
ATOM      2  C   UNL     1      30.774  29.773   0.993  1.00  0.00    -0.039 A 
ATOM      3  C   UNL     1      29.416  29.457   0.961  1.00  0.00     0.013 A 
ATOM      4  C   UNL     1      28.536  30.047   0.029  1.00  0.00    -0.006 A 
ATOM      5  C   UNL     1      29.080  30.879  -0.995  1.00  0.00     0.039 A 
ATOM      6  C   UNL     1      28.235  31.294  -2.068  1.00  0.00     0.072 A 
ATOM      7  C   UNL     1      26.887  30.878  -2.098  1.00  0.00     0.169 A 
ATOM      8  C   UNL     1      26.343  30.150  -1.035  1.00  0.00     0.162 A 
ATOM      9  C   UNL     1      27.131  29.801   0.082  1.00  0.00     0.008 A 
ATOM     10  C   UNL     1      30.447  31.279  -0.898  1.00  0.00     0.132 A 
ATOM     11  C   UNL     1      31.285  30.725   0.095  1.00  0.00     0.031 A 
ENDROOT
BRANCH  11  12
ATOM     12  C   UNL     1      32.710  31.134   0.182  1.00  0.00     0.031 A 
ATOM     13  C   UNL     1      33.731  30.159   0.201  1.00  0.00     0.132 A 
ATOM     14  C   UNL     1      33.037  32.497   0.275  1.00  0.00    -0.039 A 
ATOM     15  C   UNL     1      35.102  30.548   0.262  1.00  0.00     0.039 A 
ATOM     16  C   UNL     1      34.373  32.877   0.416  1.00  0.00     0.013 A 
ATOM     17  C   UNL     1      31.962  33.557   0.283  1.00  0.00     0.045 C 
ATOM     18  C   UNL     1      35.425  31.934   0.384  1.00  0.00    -0.006 A 
ATOM     19  C   UNL     1      36.162  29.595   0.249  1.00  0.00     0.072 A 
ATOM     20  C   UNL     1      36.789  32.348   0.499  1.00  0.00     0.008 A 
ATOM     21  C   UNL     1      37.472  30.006   0.563  1.00  0.00     0.169 A 
ATOM     22  C   UNL     1      37.769  31.355   0.745  1.00  0.00     0.162 A 
BRANCH  13  23
ATOM     23  O   UNL     1      33.380  28.804   0.205  1.00  0.00    -0.507 OA
ATOM     24  H   UNL     1      33.357  28.229   1.037  1.00  0.00     0.293 HD
ENDBRANCH  13  23
BRANCH  19  25
ATOM     25  C   UNL     1      35.952  28.178  -0.113  1.00  0.00     0.264 C 
ATOM     26  O   UNL     1      35.355  27.877  -1.181  1.00  0.00    -0.298 OA
ENDBRANCH  19  25
BRANCH  20  27
ATOM     27  C   UNL     1      37.188  33.822   0.284  1.00  0.00     0.017 C 
ATOM     28  C   UNL     1      37.290  34.181  -1.205  1.00  0.00     0.012 C 
ATOM     29  C   UNL     1      36.328  34.832   1.067  1.00  0.00     0.012 C 
ENDBRANCH  20  27
BRANCH  21  30
ATOM     30  O   UNL     1      38.524  29.091   0.687  1.00  0.00    -0.504 OA
ATOM     31  H   UNL     1      38.532  28.323   1.346  1.00  0.00     0.293 HD
ENDBRANCH  21  30
BRANCH  22  32
ATOM     32  O   UNL     1      39.062  31.661   1.173  1.00  0.00    -0.504 OA
ATOM     33  H   UNL     1      39.376  32.598   1.372  1.00  0.00     0.293 HD
ENDBRANCH  22  32
ENDBRANCH  11  12
BRANCH  10  34
ATOM     34  O   UNL     1      30.965  32.247  -1.767  1.00  0.00    -0.507 OA
ATOM     35  H   UNL     1      30.415  32.728  -2.468  1.00  0.00     0.293 HD
ENDBRANCH  10  34
BRANCH   9  36
ATOM     36  C   UNL     1      26.470  29.160   1.314  1.00  0.00     0.017 C 
ATOM     37  C   UNL     1      26.310  30.181   2.445  1.00  0.00     0.012 C 
ATOM     38  C   UNL     1      27.183  27.887   1.806  1.00  0.00     0.012 C 
ENDBRANCH   9  36
BRANCH   6  39
ATOM     39  C   UNL     1      28.751  32.074  -3.212  1.00  0.00     0.264 C 
ATOM     40  O   UNL     1      28.921  33.318  -3.116  1.00  0.00    -0.298 OA
ENDBRANCH   6  39
BRANCH   8  41
ATOM     41  O   UNL     1      25.007  29.745  -1.097  1.00  0.00    -0.504 OA
ATOM     42  H   UNL     1      24.393  29.734  -0.291  1.00  0.00     0.293 HD
ENDBRANCH   8  41
BRANCH   7  43
ATOM     43  O   UNL     1      26.059  31.154  -3.194  1.00  0.00    -0.504 OA
ATOM     44  H   UNL     1      26.096  32.009  -3.732  1.00  0.00     0.293 HD
ENDBRANCH   7  43
TORSDOF 11
ENDMDL
MODEL 4
REMARK VINA RESULT:    98.251     13.629     17.595
REMARK INTER + INTRA:         144.562
REMARK INTER:                 144.276
REMARK INTRA:                   0.286
REMARK UNBOUND:                 0.361
REMARK SMILES Cc1cc2c(C(C)C)c(O)c(O)c(C=O)c2c(O)c1-c1c(C)cc2c(C(C)C)c(O)c(O)c(C=O)c2c1O
REMARK SMILES IDX 1 1 2 2 3 3 4 4 16 5 13 6 11 7 9 8 5 9 17 10 19 11 20 12
REMARK SMILES IDX 37 13 21 14 36 15 23 16 22 17 24 18 33 19 25 20 31 21 29 22
REMARK SMILES IDX 38 23 34 25 35 26 26 27 27 28 28 29 32 30 30 32 18 34 6 36
REMARK SMILES IDX 7 37 8 38 14 39 15 40 10 41 12 43
REMARK H PARENT 38 24 32 31 30 33 18 35 10 42 12 44
REMARK Flexibility Score: inf
ROOT
ATOM      1  C   UNL     1      31.247  47.953   2.381  1.00  0.00     0.045 C 
ATOM      2  C   UNL     1      31.947  46.760   1.778  1.00  0.00    -0.039 A 
ATOM      3  C   UNL     1      33.337  46.764   1.668  1.00  0.00     0.013 A 
ATOM      4  C   UNL     1      34.044  45.674   1.115  1.00  0.00    -0.006 A 
ATOM      5  C   UNL     1      33.304  44.605   0.526  1.00  0.00     0.039 A 
ATOM      6  C   UNL     1      34.003  43.617  -0.230  1.00  0.00     0.072 A 
ATOM      7  C   UNL     1      35.402  43.713  -0.383  1.00  0.00     0.169 A 
ATOM      8  C   UNL     1      36.124  44.707   0.286  1.00  0.00     0.162 A 
ATOM      9  C   UNL     1      35.471  45.645   1.112  1.00  0.00     0.008 A 
ATOM     10  C   UNL     1      31.891  44.556   0.732  1.00  0.00     0.132 A 
ATOM     11  C   UNL     1      31.223  45.632   1.356  1.00  0.00     0.031 A 
ENDROOT
BRANCH  11  12
ATOM     12  C   UNL     1      29.751  45.581   1.555  1.00  0.00     0.031 A 
ATOM     13  C   UNL     1      29.199  44.794   2.588  1.00  0.00     0.132 A 
ATOM     14  C   UNL     1      28.909  46.298   0.690  1.00  0.00    -0.039 A 
ATOM     15  C   UNL     1      27.789  44.760   2.798  1.00  0.00     0.039 A 
ATOM     16  C   UNL     1      27.524  46.204   0.842  1.00  0.00     0.013 A 
ATOM     17  C   UNL     1      29.474  47.127  -0.439  1.00  0.00     0.045 C 
ATOM     18  C   UNL     1      26.937  45.471   1.897  1.00  0.00    -0.006 A 
ATOM     19  C   UNL     1      27.196  44.004   3.851  1.00  0.00     0.072 A 
ATOM     20  C   UNL     1      25.516  45.412   2.052  1.00  0.00     0.008 A 
ATOM     21  C   UNL     1      25.802  43.800   3.862  1.00  0.00     0.169 A 
ATOM     22  C   UNL     1      24.981  44.446   2.940  1.00  0.00     0.162 A 
BRANCH  13  23
ATOM     23  O   UNL     1      30.049  44.011   3.378  1.00  0.00    -0.507 OA
ATOM     24  H   UNL     1      30.892  43.569   3.034  1.00  0.00     0.293 HD
ENDBRANCH  13  23
BRANCH  19  25
ATOM     25  C   UNL     1      27.985  43.441   4.965  1.00  0.00     0.264 C 
ATOM     26  O   UNL     1      27.473  43.322   6.110  1.00  0.00    -0.298 OA
ENDBRANCH  19  25
BRANCH  20  27
ATOM     27  C   UNL     1      24.601  46.423   1.333  1.00  0.00     0.017 C 
ATOM     28  C   UNL     1      23.116  46.164   1.619  1.00  0.00     0.012 C 
ATOM     29  C   UNL     1      24.987  47.898   1.557  1.00  0.00     0.012 C 
ENDBRANCH  20  27
BRANCH  21  30
ATOM     30  O   UNL     1      25.185  42.965   4.800  1.00  0.00    -0.504 OA
ATOM     31  H   UNL     1      24.624  42.159   4.558  1.00  0.00     0.293 HD
ENDBRANCH  21  30
BRANCH  22  32
ATOM     32  O   UNL     1      23.631  44.091   2.945  1.00  0.00    -0.504 OA
ATOM     33  H   UNL     1      23.096  43.926   2.106  1.00  0.00     0.293 HD
ENDBRANCH  22  32
ENDBRANCH  11  12
BRANCH  10  34
ATOM     34  O   UNL     1      31.158  43.429   0.343  1.00  0.00    -0.507 OA
ATOM     35  H   UNL     1      31.199  43.021  -0.583  1.00  0.00     0.293 HD
ENDBRANCH  10  34
BRANCH   9  36
ATOM     36  C   UNL     1      36.300  46.612   1.975  1.00  0.00     0.017 C 
ATOM     37  C   UNL     1      37.458  47.209   1.171  1.00  0.00     0.012 C 
ATOM     38  C   UNL     1      36.794  45.993   3.295  1.00  0.00     0.012 C 
ENDBRANCH   9  36
BRANCH   6  39
ATOM     39  C   UNL     1      33.293  42.537  -0.948  1.00  0.00     0.264 C 
ATOM     40  O   UNL     1      33.337  41.351  -0.527  1.00  0.00    -0.298 OA
ENDBRANCH   6  39
BRANCH   8  41
ATOM     41  O   UNL     1      37.508  44.781   0.108  1.00  0.00    -0.504 OA
ATOM     42  H   UNL     1      37.940  45.097  -0.752  1.00  0.00     0.293 HD
ENDBRANCH   8  41
BRANCH   7  43
ATOM     43  O   UNL     1      36.110  42.841  -1.220  1.00  0.00    -0.504 OA
ATOM     44  H   UNL     1      36.348  41.889  -0.976  1.00  0.00     0.293 HD
ENDBRANCH   7  43
TORSDOF 11
ENDMDL
MODEL 5
REMARK VINA RESULT:    98.411     12.098     15.245
REMARK INTER + INTRA:         144.798
REMARK INTER:                 143.419
REMARK INTRA:                   1.379
REMARK UNBOUND:                 0.361
REMARK SMILES Cc1cc2c(C(C)C)c(O)c(O)c(C=O)c2c(O)c1-c1c(C)cc2c(C(C)C)c(O)c(O)c(C=O)c2c1O
REMARK SMILES IDX 1 1 2 2 3 3 4 4 16 5 13 6 11 7 9 8 5 9 17 10 19 11 20 12
REMARK SMILES IDX 37 13 21 14 36 15 23 16 22 17 24 18 33 19 25 20 31 21 29 22
REMARK SMILES IDX 38 23 34 25 35 26 26 27 27 28 28 29 32 30 30 32 18 34 6 36
REMARK SMILES IDX 7 37 8 38 14 39 15 40 10 41 12 43
REMARK H PARENT 38 24 32 31 30 33 18 35 10 42 12 44
REMARK Flexibility Score: inf
ROOT
ATOM      1  C   UNL     1      27.090  42.063   7.089  1.00  0.00     0.045 C 
ATOM      2  C   UNL     1      26.429  42.476   5.796  1.00  0.00    -0.039 A 
ATOM      3  C   UNL     1      26.753  43.705   5.222  1.00  0.00     0.013 A 
ATOM      4  C   UNL     1      26.168  44.141   4.014  1.00  0.00    -0.006 A 
ATOM      5  C   UNL     1      25.114  43.365   3.445  1.00  0.00     0.039 A 
ATOM      6  C   UNL     1      24.368  43.909   2.356  1.00  0.00     0.072 A 
ATOM      7  C   UNL     1      24.681  45.194   1.866  1.00  0.00     0.169 A 
ATOM      8  C   UNL     1      25.783  45.897   2.366  1.00  0.00     0.162 A 
ATOM      9  C   UNL     1      26.593  45.348   3.381  1.00  0.00     0.008 A 
ATOM     10  C   UNL     1      24.858  42.064   3.976  1.00  0.00     0.132 A 
ATOM     11  C   UNL     1      25.516  41.628   5.146  1.00  0.00     0.031 A 
ENDROOT
BRANCH  11  12
ATOM     12  C   UNL     1      25.234  40.279   5.702  1.00  0.00     0.031 A 
ATOM     13  C   UNL     1      26.265  39.319   5.795  1.00  0.00     0.132 A 
ATOM     14  C   UNL     1      23.930  39.954   6.108  1.00  0.00    -0.039 A 
ATOM     15  C   UNL     1      26.005  38.030   6.349  1.00  0.00     0.039 A 
ATOM     16  C   UNL     1      23.655  38.668   6.577  1.00  0.00     0.013 A 
ATOM     17  C   UNL     1      22.806  40.955   5.995  1.00  0.00     0.045 C 
ATOM     18  C   UNL     1      24.670  37.698   6.735  1.00  0.00    -0.006 A 
ATOM     19  C   UNL     1      27.026  37.045   6.491  1.00  0.00     0.072 A 
ATOM     20  C   UNL     1      24.371  36.395   7.245  1.00  0.00     0.008 A 
ATOM     21  C   UNL     1      26.674  35.718   6.803  1.00  0.00     0.169 A 
ATOM     22  C   UNL     1      25.357  35.386   7.117  1.00  0.00     0.162 A 
BRANCH  13  23
ATOM     23  O   UNL     1      27.535  39.629   5.296  1.00  0.00    -0.507 OA
ATOM     24  H   UNL     1      28.383  39.151   5.572  1.00  0.00     0.293 HD
ENDBRANCH  13  23
BRANCH  19  25
ATOM     25  C   UNL     1      28.461  37.364   6.352  1.00  0.00     0.264 C 
ATOM     26  O   UNL     1      28.970  37.523   5.211  1.00  0.00    -0.298 OA
ENDBRANCH  19  25
BRANCH  20  27
ATOM     27  C   UNL     1      23.046  36.121   7.983  1.00  0.00     0.017 C 
ATOM     28  C   UNL     1      21.878  35.903   7.012  1.00  0.00     0.012 C 
ATOM     29  C   UNL     1      23.130  35.011   9.047  1.00  0.00     0.012 C 
ENDBRANCH  20  27
BRANCH  21  30
ATOM     30  O   UNL     1      27.623  34.689   6.831  1.00  0.00    -0.504 OA
ATOM     31  H   UNL     1      27.815  34.075   6.050  1.00  0.00     0.293 HD
ENDBRANCH  21  30
BRANCH  22  32
ATOM     32  O   UNL     1      25.077  34.030   7.292  1.00  0.00    -0.504 OA
ATOM     33  H   UNL     1      24.873  33.616   8.189  1.00  0.00     0.293 HD
ENDBRANCH  22  32
ENDBRANCH  11  12
BRANCH  10  34
ATOM     34  O   UNL     1      23.972  41.196   3.326  1.00  0.00    -0.507 OA
ATOM     35  H   UNL     1      23.500  41.418   2.458  1.00  0.00     0.293 HD
ENDBRANCH  10  34
BRANCH   9  36
ATOM     36  C   UNL     1      27.896  46.057   3.788  1.00  0.00     0.017 C 
ATOM     37  C   UNL     1      29.086  45.095   3.725  1.00  0.00     0.012 C 
ATOM     38  C   UNL     1      27.815  46.760   5.155  1.00  0.00     0.012 C 
ENDBRANCH   9  36
BRANCH   6  39
ATOM     39  C   UNL     1      23.203  43.206   1.780  1.00  0.00     0.264 C 
ATOM     40  O   UNL     1      22.175  42.992   2.475  1.00  0.00    -0.298 OA
ENDBRANCH   6  39
BRANCH   8  41
ATOM     41  O   UNL     1      26.063  47.171   1.866  1.00  0.00    -0.504 OA
ATOM     42  H   UNL     1      26.295  47.960   2.458  1.00  0.00     0.293 HD
ENDBRANCH   8  41
BRANCH   7  43
ATOM     43  O   UNL     1      23.896  45.817   0.888  1.00  0.00    -0.504 OA
ATOM     44  H   UNL     1      24.192  45.964  -0.068  1.00  0.00     0.293 HD
ENDBRANCH   7  43
TORSDOF 11
ENDMDL
