MODEL 1
REMARK VINA RESULT:    -5.308      0.000      0.000
REMARK INTER + INTRA:          -6.105
REMARK INTER:                  -5.773
REMARK INTRA:                  -0.331
REMARK UNBOUND:                -0.331
REMARK SMILES CC1=CCC[C@@]2(C)CC[C@H](C(C)(C)O)C[C@H]12
REMARK SMILES IDX 11 1 12 2 13 3 10 4 1 5 2 6 3 7 16 8 4 9 6 10 15 11 5 12
REMARK SMILES IDX 7 13 8 14 9 15 14 16
REMARK H PARENT 14 17
REMARK Flexibility Score: inf
ROOT
ATOM      1  C   UNL     1     140.707 138.765 143.885  1.00  0.00     0.062 C 
ATOM      2  C   UNL     1     139.341 139.398 143.535  1.00  0.00     0.042 C 
ATOM      3  C   UNL     1     141.235 138.015 142.646  1.00  0.00     0.042 C 
ENDROOT
BRANCH   1   4
ATOM      4  C   UNL     1     141.716 139.856 144.401  1.00  0.00     0.021 C 
ATOM      5  C   UNL     1     140.537 143.871 146.067  1.00  0.00     0.039 C 
ATOM      6  C   UNL     1     141.678 143.738 145.086  1.00  0.00    -0.074 C 
ATOM      7  C   UNL     1     142.422 144.826 144.782  1.00  0.00    -0.028 C 
ATOM      8  C   UNL     1     142.104 142.379 144.552  1.00  0.00     0.021 C 
ATOM      9  C   UNL     1     143.513 144.825 143.727  1.00  0.00     0.028 C 
ATOM     10  C   UNL     1     142.627 142.488 143.087  1.00  0.00    -0.026 C 
ATOM     11  C   UNL     1     141.068 141.246 144.679  1.00  0.00     0.015 C 
ATOM     12  C   UNL     1     143.852 143.437 143.139  1.00  0.00     0.011 C 
ATOM     13  C   UNL     1     141.557 143.086 142.125  1.00  0.00     0.012 C 
ATOM     14  C   UNL     1     143.047 141.083 142.527  1.00  0.00     0.008 C 
ATOM     15  C   UNL     1     143.029 139.945 143.564  1.00  0.00     0.007 C 
ENDBRANCH   1   4
BRANCH   1  16
ATOM     16  O   UNL     1     140.504 137.801 144.893  1.00  0.00    -0.390 OA
ATOM     17  H   UNL     1     139.631 137.988 145.331  1.00  0.00     0.211 HD
ENDBRANCH   1  16
TORSDOF 2
ENDMDL
MODEL 2
REMARK VINA RESULT:    -5.108      9.587     11.414
REMARK INTER + INTRA:          -5.887
REMARK INTER:                  -5.479
REMARK INTRA:                  -0.409
REMARK UNBOUND:                -0.331
REMARK SMILES CC1=CCC[C@@]2(C)CC[C@H](C(C)(C)O)C[C@H]12
REMARK SMILES IDX 11 1 12 2 13 3 10 4 1 5 2 6 3 7 16 8 4 9 6 10 15 11 5 12
REMARK SMILES IDX 7 13 8 14 9 15 14 16
REMARK H PARENT 14 17
REMARK Flexibility Score: inf
ROOT
ATOM      1  C   UNL     1     142.293 131.748 151.764  1.00  0.00     0.062 C 
ATOM      2  C   UNL     1     141.879 130.304 151.401  1.00  0.00     0.042 C 
ATOM      3  C   UNL     1     143.816 131.888 151.572  1.00  0.00     0.042 C 
ENDROOT
BRANCH   1   4
ATOM      4  C   UNL     1     141.482 132.795 150.914  1.00  0.00     0.021 C 
ATOM      5  C   UNL     1     137.013 132.756 150.365  1.00  0.00     0.039 C 
ATOM      6  C   UNL     1     137.939 133.006 149.199  1.00  0.00    -0.074 C 
ATOM      7  C   UNL     1     137.417 133.323 147.991  1.00  0.00    -0.028 C 
ATOM      8  C   UNL     1     139.448 133.058 149.388  1.00  0.00     0.021 C 
ATOM      9  C   UNL     1     138.252 133.479 146.734  1.00  0.00     0.028 C 
ATOM     10  C   UNL     1     140.193 132.512 148.132  1.00  0.00    -0.026 C 
ATOM     11  C   UNL     1     139.992 132.407 150.673  1.00  0.00     0.015 C 
ATOM     12  C   UNL     1     139.781 133.432 146.955  1.00  0.00     0.011 C 
ATOM     13  C   UNL     1     139.786 131.045 147.801  1.00  0.00     0.012 C 
ATOM     14  C   UNL     1     141.749 132.546 148.335  1.00  0.00     0.008 C 
ATOM     15  C   UNL     1     142.216 133.257 149.618  1.00  0.00     0.007 C 
ENDBRANCH   1   4
BRANCH   1  16
ATOM     16  O   UNL     1     142.031 131.954 153.134  1.00  0.00    -0.390 OA
ATOM     17  H   UNL     1     142.899 132.088 153.600  1.00  0.00     0.211 HD
ENDBRANCH   1  16
TORSDOF 2
ENDMDL
MODEL 3
REMARK VINA RESULT:    -5.034      8.017     10.427
REMARK INTER + INTRA:          -5.807
REMARK INTER:                  -5.500
REMARK INTRA:                  -0.307
REMARK UNBOUND:                -0.331
REMARK SMILES CC1=CCC[C@@]2(C)CC[C@H](C(C)(C)O)C[C@H]12
REMARK SMILES IDX 11 1 12 2 13 3 10 4 1 5 2 6 3 7 16 8 4 9 6 10 15 11 5 12
REMARK SMILES IDX 7 13 8 14 9 15 14 16
REMARK H PARENT 14 17
REMARK Flexibility Score: inf
ROOT
ATOM      1  C   UNL     1     143.520 134.618 148.626  1.00  0.00     0.062 C 
ATOM      2  C   UNL     1     144.364 135.805 149.144  1.00  0.00     0.042 C 
ATOM      3  C   UNL     1     143.957 133.340 149.367  1.00  0.00     0.042 C 
ENDROOT
BRANCH   1   4
ATOM      4  C   UNL     1     141.982 134.910 148.788  1.00  0.00     0.021 C 
ATOM      5  C   UNL     1     139.413 133.380 152.155  1.00  0.00     0.039 C 
ATOM      6  C   UNL     1     138.928 133.341 150.725  1.00  0.00    -0.074 C 
ATOM      7  C   UNL     1     137.665 132.936 150.462  1.00  0.00    -0.028 C 
ATOM      8  C   UNL     1     139.778 133.893 149.590  1.00  0.00     0.021 C 
ATOM      9  C   UNL     1     137.120 132.752 149.057  1.00  0.00     0.028 C 
ATOM     10  C   UNL     1     139.556 133.085 148.275  1.00  0.00    -0.026 C 
ATOM     11  C   UNL     1     141.281 134.055 149.885  1.00  0.00     0.015 C 
ATOM     12  C   UNL     1     138.053 133.239 147.926  1.00  0.00     0.011 C 
ATOM     13  C   UNL     1     139.888 131.574 148.452  1.00  0.00     0.012 C 
ATOM     14  C   UNL     1     140.447 133.641 147.109  1.00  0.00     0.008 C 
ATOM     15  C   UNL     1     141.202 134.943 147.438  1.00  0.00     0.007 C 
ENDBRANCH   1   4
BRANCH   1  16
ATOM     16  O   UNL     1     143.817 134.425 147.261  1.00  0.00    -0.390 OA
ATOM     17  H   UNL     1     144.783 134.615 147.123  1.00  0.00     0.211 HD
ENDBRANCH   1  16
TORSDOF 2
ENDMDL
MODEL 4
REMARK VINA RESULT:    -4.968      8.476     10.801
REMARK INTER + INTRA:          -5.735
REMARK INTER:                  -5.508
REMARK INTRA:                  -0.227
REMARK UNBOUND:                -0.331
REMARK SMILES CC1=CCC[C@@]2(C)CC[C@H](C(C)(C)O)C[C@H]12
REMARK SMILES IDX 11 1 12 2 13 3 10 4 1 5 2 6 3 7 16 8 4 9 6 10 15 11 5 12
REMARK SMILES IDX 7 13 8 14 9 15 14 16
REMARK H PARENT 14 17
REMARK Flexibility Score: inf
ROOT
ATOM      1  C   UNL     1     137.769 132.978 149.991  1.00  0.00     0.062 C 
ATOM      2  C   UNL     1     137.542 132.999 148.462  1.00  0.00     0.042 C 
ATOM      3  C   UNL     1     137.626 131.527 150.491  1.00  0.00     0.042 C 
ENDROOT
BRANCH   1   4
ATOM      4  C   UNL     1     139.164 133.605 150.361  1.00  0.00     0.021 C 
ATOM      5  C   UNL     1     142.137 135.208 147.382  1.00  0.00     0.039 C 
ATOM      6  C   UNL     1     142.580 134.341 148.536  1.00  0.00    -0.074 C 
ATOM      7  C   UNL     1     143.900 134.126 148.738  1.00  0.00    -0.028 C 
ATOM      8  C   UNL     1     141.583 133.830 149.567  1.00  0.00     0.021 C 
ATOM      9  C   UNL     1     144.443 133.181 149.794  1.00  0.00     0.028 C 
ATOM     10  C   UNL     1     141.996 132.425 150.101  1.00  0.00    -0.026 C 
ATOM     11  C   UNL     1     140.103 133.840 149.140  1.00  0.00     0.015 C 
ATOM     12  C   UNL     1     143.385 132.609 150.764  1.00  0.00     0.011 C 
ATOM     13  C   UNL     1     142.110 131.372 148.958  1.00  0.00     0.012 C 
ATOM     14  C   UNL     1     140.957 131.888 151.149  1.00  0.00     0.008 C 
ATOM     15  C   UNL     1     139.873 132.901 151.559  1.00  0.00     0.007 C 
ENDBRANCH   1   4
BRANCH   1  16
ATOM     16  O   UNL     1     136.743 133.726 150.602  1.00  0.00    -0.390 OA
ATOM     17  H   UNL     1     135.869 133.356 150.307  1.00  0.00     0.211 HD
ENDBRANCH   1  16
TORSDOF 2
ENDMDL
MODEL 5
REMARK VINA RESULT:    -4.955      8.091      9.751
REMARK INTER + INTRA:          -5.721
REMARK INTER:                  -5.312
REMARK INTRA:                  -0.409
REMARK UNBOUND:                -0.331
REMARK SMILES CC1=CCC[C@@]2(C)CC[C@H](C(C)(C)O)C[C@H]12
REMARK SMILES IDX 11 1 12 2 13 3 10 4 1 5 2 6 3 7 16 8 4 9 6 10 15 11 5 12
REMARK SMILES IDX 7 13 8 14 9 15 14 16
REMARK H PARENT 14 17
REMARK Flexibility Score: inf
ROOT
ATOM      1  C   UNL     1     150.108 135.123 149.499  1.00  0.00     0.062 C 
ATOM      2  C   UNL     1     150.595 136.454 150.115  1.00  0.00     0.042 C 
ATOM      3  C   UNL     1     149.367 134.319 150.585  1.00  0.00     0.042 C 
ENDROOT
BRANCH   1   4
ATOM      4  C   UNL     1     149.214 135.386 148.231  1.00  0.00     0.021 C 
ATOM      5  C   UNL     1     150.148 138.374 144.995  1.00  0.00     0.039 C 
ATOM      6  C   UNL     1     148.752 138.246 145.558  1.00  0.00    -0.074 C 
ATOM      7  C   UNL     1     147.746 138.967 145.012  1.00  0.00    -0.028 C 
ATOM      8  C   UNL     1     148.425 137.210 146.623  1.00  0.00     0.021 C 
ATOM      9  C   UNL     1     146.337 138.997 145.574  1.00  0.00     0.028 C 
ATOM     10  C   UNL     1     147.322 137.731 147.595  1.00  0.00    -0.026 C 
ATOM     11  C   UNL     1     149.623 136.644 147.409  1.00  0.00     0.015 C 
ATOM     12  C   UNL     1     146.070 137.995 146.720  1.00  0.00     0.011 C 
ATOM     13  C   UNL     1     147.741 139.054 148.302  1.00  0.00     0.012 C 
ATOM     14  C   UNL     1     146.998 136.671 148.707  1.00  0.00     0.008 C 
ATOM     15  C   UNL     1     147.682 135.305 148.515  1.00  0.00     0.007 C 
ENDBRANCH   1   4
BRANCH   1  16
ATOM     16  O   UNL     1     151.237 134.367 149.126  1.00  0.00    -0.390 OA
ATOM     17  H   UNL     1     151.336 133.617 149.770  1.00  0.00     0.211 HD
ENDBRANCH   1  16
TORSDOF 2
ENDMDL
MODEL 6
REMARK VINA RESULT:    -4.895      8.080     10.227
REMARK INTER + INTRA:          -5.655
REMARK INTER:                  -5.299
REMARK INTRA:                  -0.357
REMARK UNBOUND:                -0.331
REMARK SMILES CC1=CCC[C@@]2(C)CC[C@H](C(C)(C)O)C[C@H]12
REMARK SMILES IDX 11 1 12 2 13 3 10 4 1 5 2 6 3 7 16 8 4 9 6 10 15 11 5 12
REMARK SMILES IDX 7 13 8 14 9 15 14 16
REMARK H PARENT 14 17
REMARK Flexibility Score: inf
ROOT
ATOM      1  C   UNL     1     149.502 138.892 146.496  1.00  0.00     0.062 C 
ATOM      2  C   UNL     1     150.778 139.683 146.864  1.00  0.00     0.042 C 
ATOM      3  C   UNL     1     149.884 137.770 145.512  1.00  0.00     0.042 C 
ENDROOT
BRANCH   1   4
ATOM      4  C   UNL     1     148.791 138.342 147.787  1.00  0.00     0.021 C 
ATOM      5  C   UNL     1     149.830 134.476 149.850  1.00  0.00     0.039 C 
ATOM      6  C   UNL     1     148.392 134.871 149.615  1.00  0.00    -0.074 C 
ATOM      7  C   UNL     1     147.400 134.103 150.121  1.00  0.00    -0.028 C 
ATOM      8  C   UNL     1     148.037 136.195 148.953  1.00  0.00     0.021 C 
ATOM      9  C   UNL     1     145.928 134.348 149.844  1.00  0.00     0.028 C 
ATOM     10  C   UNL     1     146.738 136.068 148.099  1.00  0.00    -0.026 C 
ATOM     11  C   UNL     1     149.160 136.870 148.143  1.00  0.00     0.015 C 
ATOM     12  C   UNL     1     145.615 135.658 149.086  1.00  0.00     0.011 C 
ATOM     13  C   UNL     1     146.868 134.980 146.992  1.00  0.00     0.012 C 
ATOM     14  C   UNL     1     146.383 137.427 147.400  1.00  0.00     0.008 C 
ATOM     15  C   UNL     1     147.257 138.620 147.828  1.00  0.00     0.007 C 
ENDBRANCH   1   4
BRANCH   1  16
ATOM     16  O   UNL     1     148.625 139.758 145.812  1.00  0.00    -0.390 OA
ATOM     17  H   UNL     1     148.044 139.209 145.222  1.00  0.00     0.211 HD
ENDBRANCH   1  16
TORSDOF 2
ENDMDL
MODEL 7
REMARK VINA RESULT:    -4.814      8.846     11.367
REMARK INTER + INTRA:          -5.567
REMARK INTER:                  -5.161
REMARK INTRA:                  -0.406
REMARK UNBOUND:                -0.331
REMARK SMILES CC1=CCC[C@@]2(C)CC[C@H](C(C)(C)O)C[C@H]12
REMARK SMILES IDX 11 1 12 2 13 3 10 4 1 5 2 6 3 7 16 8 4 9 6 10 15 11 5 12
REMARK SMILES IDX 7 13 8 14 9 15 14 16
REMARK H PARENT 14 17
REMARK Flexibility Score: inf
ROOT
ATOM      1  C   UNL     1     136.818 130.242 149.326  1.00  0.00     0.062 C 
ATOM      2  C   UNL     1     138.045 129.303 149.397  1.00  0.00     0.042 C 
ATOM      3  C   UNL     1     135.999 130.081 150.621  1.00  0.00     0.042 C 
ENDROOT
BRANCH   1   4
ATOM      4  C   UNL     1     137.264 131.730 149.078  1.00  0.00     0.021 C 
ATOM      5  C   UNL     1     140.577 132.998 146.305  1.00  0.00     0.039 C 
ATOM      6  C   UNL     1     140.437 133.606 147.680  1.00  0.00    -0.074 C 
ATOM      7  C   UNL     1     141.256 134.618 148.046  1.00  0.00    -0.028 C 
ATOM      8  C   UNL     1     139.296 133.208 148.604  1.00  0.00     0.021 C 
ATOM      9  C   UNL     1     141.274 135.218 149.440  1.00  0.00     0.028 C 
ATOM     10  C   UNL     1     139.739 133.251 150.098  1.00  0.00    -0.026 C 
ATOM     11  C   UNL     1     138.594 131.875 148.280  1.00  0.00     0.015 C 
ATOM     12  C   UNL     1     140.154 134.718 150.380  1.00  0.00     0.011 C 
ATOM     13  C   UNL     1     140.952 132.314 150.377  1.00  0.00     0.012 C 
ATOM     14  C   UNL     1     138.568 132.821 151.052  1.00  0.00     0.008 C 
ATOM     15  C   UNL     1     137.209 132.624 150.355  1.00  0.00     0.007 C 
ENDBRANCH   1   4
BRANCH   1  16
ATOM     16  O   UNL     1     135.995 129.817 148.264  1.00  0.00    -0.390 OA
ATOM     17  H   UNL     1     135.092 130.212 148.392  1.00  0.00     0.211 HD
ENDBRANCH   1  16
TORSDOF 2
ENDMDL
MODEL 8
REMARK VINA RESULT:    -4.783     10.421     12.092
REMARK INTER + INTRA:          -5.534
REMARK INTER:                  -5.270
REMARK INTRA:                  -0.264
REMARK UNBOUND:                -0.331
REMARK SMILES CC1=CCC[C@@]2(C)CC[C@H](C(C)(C)O)C[C@H]12
REMARK SMILES IDX 11 1 12 2 13 3 10 4 1 5 2 6 3 7 16 8 4 9 6 10 15 11 5 12
REMARK SMILES IDX 7 13 8 14 9 15 14 16
REMARK H PARENT 14 17
REMARK Flexibility Score: inf
ROOT
ATOM      1  C   UNL     1     146.574 136.320 148.624  1.00  0.00     0.062 C 
ATOM      2  C   UNL     1     146.489 136.660 147.118  1.00  0.00     0.042 C 
ATOM      3  C   UNL     1     145.146 136.109 149.163  1.00  0.00     0.042 C 
ENDROOT
BRANCH   1   4
ATOM      4  C   UNL     1     147.498 135.070 148.866  1.00  0.00     0.021 C 
ATOM      5  C   UNL     1     148.163 133.093 152.858  1.00  0.00     0.039 C 
ATOM      6  C   UNL     1     149.316 133.363 151.920  1.00  0.00    -0.074 C 
ATOM      7  C   UNL     1     150.551 132.913 152.239  1.00  0.00    -0.028 C 
ATOM      8  C   UNL     1     149.089 133.995 150.554  1.00  0.00     0.021 C 
ATOM      9  C   UNL     1     151.792 133.230 151.425  1.00  0.00     0.028 C 
ATOM     10  C   UNL     1     150.295 134.894 150.143  1.00  0.00    -0.026 C 
ATOM     11  C   UNL     1     147.758 134.747 150.368  1.00  0.00     0.015 C 
ATOM     12  C   UNL     1     151.528 133.957 150.088  1.00  0.00     0.011 C 
ATOM     13  C   UNL     1     150.560 136.029 151.176  1.00  0.00     0.012 C 
ATOM     14  C   UNL     1     150.053 135.563 148.743  1.00  0.00     0.008 C 
ATOM     15  C   UNL     1     148.797 135.071 148.002  1.00  0.00     0.007 C 
ENDBRANCH   1   4
BRANCH   1  16
ATOM     16  O   UNL     1     147.108 137.435 149.301  1.00  0.00    -0.390 OA
ATOM     17  H   UNL     1     147.984 137.659 148.890  1.00  0.00     0.211 HD
ENDBRANCH   1  16
TORSDOF 2
ENDMDL
MODEL 9
REMARK VINA RESULT:    -4.702      8.257     10.007
REMARK INTER + INTRA:          -5.445
REMARK INTER:                  -5.084
REMARK INTRA:                  -0.361
REMARK UNBOUND:                -0.331
REMARK SMILES CC1=CCC[C@@]2(C)CC[C@H](C(C)(C)O)C[C@H]12
REMARK SMILES IDX 11 1 12 2 13 3 10 4 1 5 2 6 3 7 16 8 4 9 6 10 15 11 5 12
REMARK SMILES IDX 7 13 8 14 9 15 14 16
REMARK H PARENT 14 17
REMARK Flexibility Score: inf
ROOT
ATOM      1  C   UNL     1     150.313 138.498 148.428  1.00  0.00     0.062 C 
ATOM      2  C   UNL     1     150.707 137.481 149.523  1.00  0.00     0.042 C 
ATOM      3  C   UNL     1     151.492 138.648 147.447  1.00  0.00     0.042 C 
ENDROOT
BRANCH   1   4
ATOM      4  C   UNL     1     148.984 138.061 147.709  1.00  0.00     0.021 C 
ATOM      5  C   UNL     1     144.967 137.708 149.713  1.00  0.00     0.039 C 
ATOM      6  C   UNL     1     145.456 136.647 148.756  1.00  0.00    -0.074 C 
ATOM      7  C   UNL     1     144.635 135.627 148.418  1.00  0.00    -0.028 C 
ATOM      8  C   UNL     1     146.796 136.783 148.048  1.00  0.00     0.021 C 
ATOM      9  C   UNL     1     145.068 134.453 147.559  1.00  0.00     0.028 C 
ATOM     10  C   UNL     1     147.458 135.389 147.823  1.00  0.00    -0.026 C 
ATOM     11  C   UNL     1     147.799 137.769 148.677  1.00  0.00     0.015 C 
ATOM     12  C   UNL     1     146.475 134.586 146.933  1.00  0.00     0.011 C 
ATOM     13  C   UNL     1     147.681 134.622 149.160  1.00  0.00     0.012 C 
ATOM     14  C   UNL     1     148.850 135.529 147.110  1.00  0.00     0.008 C 
ATOM     15  C   UNL     1     149.188 136.953 146.630  1.00  0.00     0.007 C 
ENDBRANCH   1   4
BRANCH   1  16
ATOM     16  O   UNL     1     150.124 139.755 149.038  1.00  0.00    -0.390 OA
ATOM     17  H   UNL     1     150.750 139.825 149.807  1.00  0.00     0.211 HD
ENDBRANCH   1  16
TORSDOF 2
ENDMDL
