MODEL 1
REMARK VINA RESULT:    -4.190      0.000      0.000
REMARK INTER + INTRA:          -6.676
REMARK INTER:                  -6.395
REMARK INTRA:                  -0.281
REMARK UNBOUND:                -0.281
REMARK SMILES CC1=CCC[C@@H](C)C(=O)C[C@@H](C(C)C)C(=O)C1
REMARK SMILES IDX 8 1 9 2 6 3 7 4 5 5 4 6 3 7 2 8 1 9 10 11 11 12 15 13 16 14
REMARK SMILES IDX 17 15 12 17 13 18 14 19
REMARK H PARENT
REMARK Flexibility Score: 70.00
ROOT
ATOM      1  C   UNL     1      20.341  29.105  30.064  1.00  0.00     0.136 C 
ATOM      2  O   UNL     1      19.578  28.805  30.970  1.00  0.00    -0.299 OA
ENDROOT
BRANCH   1   3
ATOM      3  C   UNL     1      19.827  30.002  28.930  1.00  0.00     0.053 C 
ATOM      4  C   UNL     1      18.904  31.100  29.469  1.00  0.00     0.016 C 
BRANCH   3   5
ATOM      5  C   UNL     1      19.125  29.055  27.978  1.00  0.00     0.015 C 
BRANCH   5   6
ATOM      6  C   UNL     1      18.055  28.052  28.287  1.00  0.00     0.028 C 
BRANCH   6   7
ATOM      7  C   UNL     1      18.405  26.741  27.569  1.00  0.00    -0.028 C 
ATOM      8  C   UNL     1      19.389  25.806  27.844  1.00  0.00    -0.070 CG0
ATOM      9  C   UNL     1      19.495  24.667  26.856  1.00  0.00     0.039 C 
ATOM     10  G   UNL     1      20.383  25.778  29.042  1.00  0.00     0.000 G0
ENDBRANCH   6   7
ENDBRANCH   5   6
ENDBRANCH   3   5
ENDBRANCH   1   3
BRANCH   1  11
ATOM     11  C   UNL     1      21.789  28.586  30.109  1.00  0.00     0.087 C 
BRANCH  11  12
ATOM     12  C   UNL     1      22.254  27.762  28.849  1.00  0.00     0.066 C 
BRANCH  12  13
ATOM     13  C   UNL     1      21.785  26.285  28.708  1.00  0.00     0.140 C 
ATOM     14  O   UNL     1      22.633  25.460  28.398  1.00  0.00    -0.299 OA
BRANCH  13  15
ATOM     15  C   UNL     1      20.381  25.754  29.031  1.00  0.00     0.106 CG0
ATOM     16  G   UNL     1      19.383  25.802  27.837  1.00  0.00     0.000 G0
ENDBRANCH  13  15
ENDBRANCH  12  13
BRANCH  12  17
ATOM     17  C   UNL     1      23.789  27.916  28.607  1.00  0.00    -0.006 C 
ATOM     18  C   UNL     1      24.179  28.054  27.126  1.00  0.00     0.008 C 
ATOM     19  C   UNL     1      24.387  29.071  29.424  1.00  0.00     0.008 C 
ENDBRANCH  12  17
ENDBRANCH  11  12
ENDBRANCH   1  11
TORSDOF 1
ENDMDL
MODEL 2
REMARK VINA RESULT:    -4.113      2.675      5.375
REMARK INTER + INTRA:          -6.557
REMARK INTER:                  -6.074
REMARK INTRA:                  -0.483
REMARK UNBOUND:                -0.281
REMARK SMILES CC1=CCC[C@@H](C)C(=O)C[C@@H](C(C)C)C(=O)C1
REMARK SMILES IDX 8 1 9 2 6 3 7 4 5 5 4 6 3 7 2 8 1 9 10 11 11 12 15 13 16 14
REMARK SMILES IDX 17 15 12 17 13 18 14 19
REMARK H PARENT
REMARK Flexibility Score: 70.00
ROOT
ATOM      1  C   UNL     1      19.596  29.068  30.186  1.00  0.00     0.136 C 
ATOM      2  O   UNL     1      19.967  29.164  31.346  1.00  0.00    -0.299 OA
ENDROOT
BRANCH   1   3
ATOM      3  C   UNL     1      19.683  27.703  29.490  1.00  0.00     0.053 C 
ATOM      4  C   UNL     1      21.141  27.281  29.283  1.00  0.00     0.016 C 
BRANCH   3   5
ATOM      5  C   UNL     1      18.930  27.886  28.188  1.00  0.00     0.015 C 
BRANCH   5   6
ATOM      6  C   UNL     1      17.684  27.190  27.730  1.00  0.00     0.028 C 
BRANCH   6   7
ATOM      7  C   UNL     1      16.861  26.814  28.970  1.00  0.00    -0.028 C 
ATOM      8  C   UNL     1      16.104  27.609  29.815  1.00  0.00    -0.070 CG0
ATOM      9  C   UNL     1      15.495  26.896  31.001  1.00  0.00     0.039 C 
ATOM     10  G   UNL     1      15.795  29.129  29.687  1.00  0.00     0.000 G0
ENDBRANCH   6   7
ENDBRANCH   5   6
ENDBRANCH   3   5
ENDBRANCH   1   3
BRANCH   1  11
ATOM     11  C   UNL     1      19.039  30.317  29.478  1.00  0.00     0.087 C 
BRANCH  11  12
ATOM     12  C   UNL     1      17.772  30.969  30.149  1.00  0.00     0.066 C 
BRANCH  12  13
ATOM     13  C   UNL     1      16.613  30.041  30.614  1.00  0.00     0.140 C 
ATOM     14  O   UNL     1      16.286  30.107  31.791  1.00  0.00    -0.299 OA
BRANCH  13  15
ATOM     15  C   UNL     1      15.770  29.134  29.706  1.00  0.00     0.106 CG0
ATOM     16  G   UNL     1      16.097  27.616  29.828  1.00  0.00     0.000 G0
ENDBRANCH  13  15
ENDBRANCH  12  13
BRANCH  12  17
ATOM     17  C   UNL     1      17.252  32.183  29.316  1.00  0.00    -0.006 C 
ATOM     18  C   UNL     1      15.856  32.676  29.730  1.00  0.00     0.008 C 
ATOM     19  C   UNL     1      18.250  33.352  29.319  1.00  0.00     0.008 C 
ENDBRANCH  12  17
ENDBRANCH  11  12
ENDBRANCH   1  11
TORSDOF 1
ENDMDL
MODEL 3
REMARK VINA RESULT:    -4.062      1.863      4.775
REMARK INTER + INTRA:          -6.480
REMARK INTER:                  -6.188
REMARK INTRA:                  -0.292
REMARK UNBOUND:                -0.281
REMARK SMILES CC1=CCC[C@@H](C)C(=O)C[C@@H](C(C)C)C(=O)C1
REMARK SMILES IDX 8 1 9 2 6 3 7 4 5 5 4 6 3 7 2 8 1 9 10 11 11 12 15 13 16 14
REMARK SMILES IDX 17 15 12 17 13 18 14 19
REMARK H PARENT
REMARK Flexibility Score: 70.00
ROOT
ATOM      1  C   UNL     1      18.090  27.706  27.805  1.00  0.00     0.136 C 
ATOM      2  O   UNL     1      18.708  28.124  26.838  1.00  0.00    -0.299 OA
ENDROOT
BRANCH   1   3
ATOM      3  C   UNL     1      17.741  26.213  27.873  1.00  0.00     0.053 C 
ATOM      4  C   UNL     1      17.013  25.875  29.178  1.00  0.00     0.016 C 
BRANCH   3   5
ATOM      5  C   UNL     1      19.071  25.501  27.737  1.00  0.00     0.015 C 
BRANCH   5   6
ATOM      6  C   UNL     1      20.161  25.364  28.757  1.00  0.00     0.028 C 
BRANCH   6   7
ATOM      7  C   UNL     1      21.278  26.355  28.403  1.00  0.00    -0.028 C 
ATOM      8  C   UNL     1      21.508  27.643  28.859  1.00  0.00    -0.070 CG0
ATOM      9  C   UNL     1      22.672  28.360  28.213  1.00  0.00     0.039 C 
ATOM     10  G   UNL     1      20.730  28.431  29.954  1.00  0.00     0.000 G0
ENDBRANCH   6   7
ENDBRANCH   5   6
ENDBRANCH   3   5
ENDBRANCH   1   3
BRANCH   1  11
ATOM     11  C   UNL     1      17.703  28.692  28.922  1.00  0.00     0.087 C 
BRANCH  11  12
ATOM     12  C   UNL     1      18.628  29.960  29.058  1.00  0.00     0.066 C 
BRANCH  12  13
ATOM     13  C   UNL     1      20.113  29.760  29.475  1.00  0.00     0.140 C 
ATOM     14  O   UNL     1      20.822  30.756  29.504  1.00  0.00    -0.299 OA
BRANCH  13  15
ATOM     15  C   UNL     1      20.739  28.444  29.961  1.00  0.00     0.106 CG0
ATOM     16  G   UNL     1      21.500  27.647  28.861  1.00  0.00     0.000 G0
ENDBRANCH  13  15
ENDBRANCH  12  13
BRANCH  12  17
ATOM     17  C   UNL     1      17.931  31.082  29.891  1.00  0.00    -0.006 C 
ATOM     18  C   UNL     1      17.363  32.232  29.043  1.00  0.00     0.008 C 
ATOM     19  C   UNL     1      16.843  30.519  30.818  1.00  0.00     0.008 C 
ENDBRANCH  12  17
ENDBRANCH  11  12
ENDBRANCH   1  11
TORSDOF 1
ENDMDL
MODEL 4
REMARK VINA RESULT:    -4.060      3.634      6.003
REMARK INTER + INTRA:          -6.477
REMARK INTER:                  -6.048
REMARK INTRA:                  -0.430
REMARK UNBOUND:                -0.281
REMARK SMILES CC1=CCC[C@@H](C)C(=O)C[C@@H](C(C)C)C(=O)C1
REMARK SMILES IDX 8 1 9 2 6 3 7 4 5 5 4 6 3 7 2 8 1 9 10 11 11 12 15 13 16 14
REMARK SMILES IDX 17 15 12 17 13 18 14 19
REMARK H PARENT
REMARK Flexibility Score: 70.00
ROOT
ATOM      1  C   UNL     1      18.058  32.678  29.326  1.00  0.00     0.136 C 
ATOM      2  O   UNL     1      18.350  33.733  28.783  1.00  0.00    -0.299 OA
ENDROOT
BRANCH   1   3
ATOM      3  C   UNL     1      19.094  32.000  30.232  1.00  0.00     0.053 C 
ATOM      4  C   UNL     1      20.215  32.972  30.615  1.00  0.00     0.016 C 
BRANCH   3   5
ATOM      5  C   UNL     1      19.588  30.814  29.430  1.00  0.00     0.015 C 
BRANCH   5   6
ATOM      6  C   UNL     1      19.802  29.404  29.893  1.00  0.00     0.028 C 
BRANCH   6   7
ATOM      7  C   UNL     1      19.046  28.467  28.940  1.00  0.00    -0.028 C 
ATOM      8  C   UNL     1      17.750  27.981  29.006  1.00  0.00    -0.070 CG0
ATOM      9  C   UNL     1      17.372  26.997  27.922  1.00  0.00     0.039 C 
ATOM     10  G   UNL     1      16.642  28.330  30.042  1.00  0.00     0.000 G0
ENDBRANCH   6   7
ENDBRANCH   5   6
ENDBRANCH   3   5
ENDBRANCH   1   3
BRANCH   1  11
ATOM     11  C   UNL     1      16.657  32.085  29.092  1.00  0.00     0.087 C 
BRANCH  11  12
ATOM     12  C   UNL     1      16.176  31.036  30.165  1.00  0.00     0.066 C 
BRANCH  12  13
ATOM     13  C   UNL     1      15.825  29.596  29.696  1.00  0.00     0.140 C 
ATOM     14  O   UNL     1      14.888  29.476  28.919  1.00  0.00    -0.299 OA
BRANCH  13  15
ATOM     15  C   UNL     1      16.618  28.324  30.033  1.00  0.00     0.106 CG0
ATOM     16  G   UNL     1      17.743  27.977  29.014  1.00  0.00     0.000 G0
ENDBRANCH  13  15
ENDBRANCH  12  13
BRANCH  12  17
ATOM     17  C   UNL     1      15.070  31.638  31.088  1.00  0.00    -0.006 C 
ATOM     18  C   UNL     1      14.232  30.585  31.832  1.00  0.00     0.008 C 
ATOM     19  C   UNL     1      15.643  32.659  32.084  1.00  0.00     0.008 C 
ENDBRANCH  12  17
ENDBRANCH  11  12
ENDBRANCH   1  11
TORSDOF 1
ENDMDL
MODEL 5
REMARK VINA RESULT:    -3.958      3.221      6.247
REMARK INTER + INTRA:          -6.321
REMARK INTER:                  -5.733
REMARK INTRA:                  -0.587
REMARK UNBOUND:                -0.281
REMARK SMILES CC1=CCC[C@@H](C)C(=O)C[C@@H](C(C)C)C(=O)C1
REMARK SMILES IDX 8 1 9 2 6 3 7 4 5 5 4 6 3 7 2 8 1 9 10 11 11 12 15 13 16 14
REMARK SMILES IDX 17 15 12 17 13 18 14 19
REMARK H PARENT
REMARK Flexibility Score: 70.00
ROOT
ATOM      1  C   UNL     1      19.023  28.250  28.644  1.00  0.00     0.136 C 
ATOM      2  O   UNL     1      19.027  27.837  27.494  1.00  0.00    -0.299 OA
ENDROOT
BRANCH   1   3
ATOM      3  C   UNL     1      20.101  29.254  29.073  1.00  0.00     0.053 C 
ATOM      4  C   UNL     1      21.506  28.681  28.860  1.00  0.00     0.016 C 
BRANCH   3   5
ATOM      5  C   UNL     1      19.797  29.547  30.528  1.00  0.00     0.015 C 
BRANCH   5   6
ATOM      6  C   UNL     1      19.563  30.876  31.179  1.00  0.00     0.028 C 
BRANCH   6   7
ATOM      7  C   UNL     1      18.603  31.682  30.293  1.00  0.00    -0.028 C 
ATOM      8  C   UNL     1      17.266  31.469  29.997  1.00  0.00    -0.070 CG0
ATOM      9  C   UNL     1      16.661  32.433  29.003  1.00  0.00     0.039 C 
ATOM     10  G   UNL     1      16.317  30.375  30.568  1.00  0.00     0.000 G0
ENDBRANCH   6   7
ENDBRANCH   5   6
ENDBRANCH   3   5
ENDBRANCH   1   3
BRANCH   1  11
ATOM     11  C   UNL     1      17.926  27.760  29.607  1.00  0.00     0.087 C 
BRANCH  11  12
ATOM     12  C   UNL     1      16.445  28.026  29.139  1.00  0.00     0.066 C 
BRANCH  12  13
ATOM     13  C   UNL     1      15.775  29.378  29.516  1.00  0.00     0.140 C 
ATOM     14  O   UNL     1      14.696  29.629  28.997  1.00  0.00    -0.299 OA
BRANCH  13  15
ATOM     15  C   UNL     1      16.291  30.374  30.565  1.00  0.00     0.106 CG0
ATOM     16  G   UNL     1      17.264  31.453  30.006  1.00  0.00     0.000 G0
ENDBRANCH  13  15
ENDBRANCH  12  13
BRANCH  12  17
ATOM     17  C   UNL     1      15.524  26.806  29.457  1.00  0.00    -0.006 C 
ATOM     18  C   UNL     1      16.123  25.447  29.058  1.00  0.00     0.008 C 
ATOM     19  C   UNL     1      15.089  26.782  30.931  1.00  0.00     0.008 C 
ENDBRANCH  12  17
ENDBRANCH  11  12
ENDBRANCH   1  11
TORSDOF 1
ENDMDL
MODEL 6
REMARK VINA RESULT:    -3.955      1.650      3.752
REMARK INTER + INTRA:          -6.317
REMARK INTER:                  -5.969
REMARK INTRA:                  -0.348
REMARK UNBOUND:                -0.281
REMARK SMILES CC1=CCC[C@@H](C)C(=O)C[C@@H](C(C)C)C(=O)C1
REMARK SMILES IDX 8 1 9 2 6 3 7 4 5 5 4 6 3 7 2 8 1 9 10 11 11 12 15 13 16 14
REMARK SMILES IDX 17 15 12 17 13 18 14 19
REMARK H PARENT
REMARK Flexibility Score: 70.00
ROOT
ATOM      1  C   UNL     1      20.917  25.868  28.879  1.00  0.00     0.136 C 
ATOM      2  O   UNL     1      20.965  25.740  30.093  1.00  0.00    -0.299 OA
ENDROOT
BRANCH   1   3
ATOM      3  C   UNL     1      19.837  25.111  28.096  1.00  0.00     0.053 C 
ATOM      4  C   UNL     1      20.311  24.781  26.677  1.00  0.00     0.016 C 
BRANCH   3   5
ATOM      5  C   UNL     1      18.632  26.028  28.118  1.00  0.00     0.015 C 
BRANCH   5   6
ATOM      6  C   UNL     1      18.537  27.449  27.650  1.00  0.00     0.028 C 
BRANCH   6   7
ATOM      7  C   UNL     1      18.242  28.337  28.867  1.00  0.00    -0.028 C 
ATOM      8  C   UNL     1      19.049  29.252  29.523  1.00  0.00    -0.070 CG0
ATOM      9  C   UNL     1      18.442  29.885  30.754  1.00  0.00     0.039 C 
ATOM     10  G   UNL     1      20.487  29.713  29.144  1.00  0.00     0.000 G0
ENDBRANCH   6   7
ENDBRANCH   5   6
ENDBRANCH   3   5
ENDBRANCH   1   3
BRANCH   1  11
ATOM     11  C   UNL     1      21.933  26.798  28.190  1.00  0.00     0.087 C 
BRANCH  11  12
ATOM     12  C   UNL     1      22.561  27.915  29.106  1.00  0.00     0.066 C 
BRANCH  12  13
ATOM     13  C   UNL     1      21.610  28.917  29.820  1.00  0.00     0.140 C 
ATOM     14  O   UNL     1      21.837  29.159  30.997  1.00  0.00    -0.299 OA
BRANCH  13  15
ATOM     15  C   UNL     1      20.481  29.715  29.151  1.00  0.00     0.106 CG0
ATOM     16  G   UNL     1      19.046  29.249  29.536  1.00  0.00     0.000 G0
ENDBRANCH  13  15
ENDBRANCH  12  13
BRANCH  12  17
ATOM     17  C   UNL     1      23.743  28.638  28.387  1.00  0.00    -0.006 C 
ATOM     18  C   UNL     1      24.934  28.959  29.304  1.00  0.00     0.008 C 
ATOM     19  C   UNL     1      24.220  27.867  27.147  1.00  0.00     0.008 C 
ENDBRANCH  12  17
ENDBRANCH  11  12
ENDBRANCH   1  11
TORSDOF 1
ENDMDL
MODEL 7
REMARK VINA RESULT:    -3.937      2.540      5.015
REMARK INTER + INTRA:          -6.289
REMARK INTER:                  -5.905
REMARK INTRA:                  -0.384
REMARK UNBOUND:                -0.281
REMARK SMILES CC1=CCC[C@@H](C)C(=O)C[C@@H](C(C)C)C(=O)C1
REMARK SMILES IDX 8 1 9 2 6 3 7 4 5 5 4 6 3 7 2 8 1 9 10 11 11 12 15 13 16 14
REMARK SMILES IDX 17 15 12 17 13 18 14 19
REMARK H PARENT
REMARK Flexibility Score: 70.00
ROOT
ATOM      1  C   UNL     1      15.623  28.853  29.738  1.00  0.00     0.136 C 
ATOM      2  O   UNL     1      14.789  29.533  29.159  1.00  0.00    -0.299 OA
ENDROOT
BRANCH   1   3
ATOM      3  C   UNL     1      15.485  27.326  29.708  1.00  0.00     0.053 C 
ATOM      4  C   UNL     1      15.098  26.779  31.086  1.00  0.00     0.016 C 
BRANCH   3   5
ATOM      5  C   UNL     1      16.834  26.826  29.231  1.00  0.00     0.015 C 
BRANCH   5   6
ATOM      6  C   UNL     1      17.586  27.218  27.995  1.00  0.00     0.028 C 
BRANCH   6   7
ATOM      7  C   UNL     1      19.068  26.882  28.208  1.00  0.00    -0.028 C 
ATOM      8  C   UNL     1      20.026  27.514  28.984  1.00  0.00    -0.070 CG0
ATOM      9  C   UNL     1      21.423  26.945  28.879  1.00  0.00     0.039 C 
ATOM     10  G   UNL     1      19.839  28.719  29.951  1.00  0.00     0.000 G0
ENDBRANCH   6   7
ENDBRANCH   5   6
ENDBRANCH   3   5
ENDBRANCH   1   3
BRANCH   1  11
ATOM     11  C   UNL     1      16.787  29.559  30.457  1.00  0.00     0.087 C 
BRANCH  11  12
ATOM     12  C   UNL     1      17.727  30.427  29.537  1.00  0.00     0.066 C 
BRANCH  12  13
ATOM     13  C   UNL     1      19.198  29.969  29.329  1.00  0.00     0.140 C 
ATOM     14  O   UNL     1      19.926  30.711  28.684  1.00  0.00    -0.299 OA
BRANCH  13  15
ATOM     15  C   UNL     1      19.848  28.725  29.953  1.00  0.00     0.106 CG0
ATOM     16  G   UNL     1      20.022  27.528  28.972  1.00  0.00     0.000 G0
ENDBRANCH  13  15
ENDBRANCH  12  13
BRANCH  12  17
ATOM     17  C   UNL     1      17.631  31.943  29.900  1.00  0.00    -0.006 C 
ATOM     18  C   UNL     1      16.439  32.669  29.253  1.00  0.00     0.008 C 
ATOM     19  C   UNL     1      17.630  32.172  31.420  1.00  0.00     0.008 C 
ENDBRANCH  12  17
ENDBRANCH  11  12
ENDBRANCH   1  11
TORSDOF 1
ENDMDL
MODEL 8
REMARK VINA RESULT:    -3.852      3.113      5.486
REMARK INTER + INTRA:          -6.160
REMARK INTER:                  -5.577
REMARK INTRA:                  -0.583
REMARK UNBOUND:                -0.281
REMARK SMILES CC1=CCC[C@@H](C)C(=O)C[C@@H](C(C)C)C(=O)C1
REMARK SMILES IDX 8 1 9 2 6 3 7 4 5 5 4 6 3 7 2 8 1 9 10 11 11 12 15 13 16 14
REMARK SMILES IDX 17 15 12 17 13 18 14 19
REMARK H PARENT
REMARK Flexibility Score: 70.00
ROOT
ATOM      1  C   UNL     1      16.643  29.888  30.910  1.00  0.00     0.136 C 
ATOM      2  O   UNL     1      16.403  29.177  31.874  1.00  0.00    -0.299 OA
ENDROOT
BRANCH   1   3
ATOM      3  C   UNL     1      16.250  31.370  30.967  1.00  0.00     0.053 C 
ATOM      4  C   UNL     1      14.813  31.542  31.469  1.00  0.00     0.016 C 
BRANCH   3   5
ATOM      5  C   UNL     1      16.446  31.875  29.552  1.00  0.00     0.015 C 
BRANCH   5   6
ATOM      6  C   UNL     1      17.501  32.806  29.036  1.00  0.00     0.028 C 
BRANCH   6   7
ATOM      7  C   UNL     1      18.502  33.074  30.169  1.00  0.00    -0.028 C 
ATOM      8  C   UNL     1      19.626  32.363  30.555  1.00  0.00    -0.070 CG0
ATOM      9  C   UNL     1      20.329  32.884  31.788  1.00  0.00     0.039 C 
ATOM     10  G   UNL     1      20.257  31.113  29.874  1.00  0.00     0.000 G0
ENDBRANCH   6   7
ENDBRANCH   5   6
ENDBRANCH   3   5
ENDBRANCH   1   3
BRANCH   1  11
ATOM     11  C   UNL     1      17.345  29.271  29.687  1.00  0.00     0.087 C 
BRANCH  11  12
ATOM     12  C   UNL     1      18.820  28.773  29.931  1.00  0.00     0.066 C 
BRANCH  12  13
ATOM     13  C   UNL     1      19.859  29.773  30.514  1.00  0.00     0.140 C 
ATOM     14  O   UNL     1      20.468  29.422  31.515  1.00  0.00    -0.299 OA
BRANCH  13  15
ATOM     15  C   UNL     1      20.268  31.112  29.883  1.00  0.00     0.106 CG0
ATOM     16  G   UNL     1      19.620  32.362  30.547  1.00  0.00     0.000 G0
ENDBRANCH  13  15
ENDBRANCH  12  13
BRANCH  12  17
ATOM     17  C   UNL     1      19.374  28.012  28.685  1.00  0.00    -0.006 C 
ATOM     18  C   UNL     1      20.309  26.841  29.029  1.00  0.00     0.008 C 
ATOM     19  C   UNL     1      18.248  27.536  27.754  1.00  0.00     0.008 C 
ENDBRANCH  12  17
ENDBRANCH  11  12
ENDBRANCH   1  11
TORSDOF 1
ENDMDL
MODEL 9
REMARK VINA RESULT:    -3.772      2.605      5.000
REMARK INTER + INTRA:          -6.037
REMARK INTER:                  -5.464
REMARK INTRA:                  -0.572
REMARK UNBOUND:                -0.281
REMARK SMILES CC1=CCC[C@@H](C)C(=O)C[C@@H](C(C)C)C(=O)C1
REMARK SMILES IDX 8 1 9 2 6 3 7 4 5 5 4 6 3 7 2 8 1 9 10 11 11 12 15 13 16 14
REMARK SMILES IDX 17 15 12 17 13 18 14 19
REMARK H PARENT
REMARK Flexibility Score: 70.00
ROOT
ATOM      1  C   UNL     1      19.761  30.562  29.367  1.00  0.00     0.136 C 
ATOM      2  O   UNL     1      20.294  31.660  29.315  1.00  0.00    -0.299 OA
ENDROOT
BRANCH   1   3
ATOM      3  C   UNL     1      20.505  29.410  30.054  1.00  0.00     0.053 C 
ATOM      4  C   UNL     1      21.914  29.837  30.478  1.00  0.00     0.016 C 
BRANCH   3   5
ATOM      5  C   UNL     1      20.510  28.292  29.032  1.00  0.00     0.015 C 
BRANCH   5   6
ATOM      6  C   UNL     1      20.200  26.840  29.241  1.00  0.00     0.028 C 
BRANCH   6   7
ATOM      7  C   UNL     1      18.989  26.477  28.372  1.00  0.00    -0.028 C 
ATOM      8  C   UNL     1      17.634  26.621  28.621  1.00  0.00    -0.070 CG0
ATOM      9  C   UNL     1      16.716  26.064  27.556  1.00  0.00     0.039 C 
ATOM     10  G   UNL     1      16.947  27.292  29.846  1.00  0.00     0.000 G0
ENDBRANCH   6   7
ENDBRANCH   5   6
ENDBRANCH   3   5
ENDBRANCH   1   3
BRANCH   1  11
ATOM     11  C   UNL     1      18.357  30.387  28.759  1.00  0.00     0.087 C 
BRANCH  11  12
ATOM     12  C   UNL     1      17.213  30.033  29.782  1.00  0.00     0.066 C 
BRANCH  12  13
ATOM     13  C   UNL     1      16.415  28.713  29.583  1.00  0.00     0.140 C 
ATOM     14  O   UNL     1      15.300  28.807  29.088  1.00  0.00    -0.299 OA
BRANCH  13  15
ATOM     15  C   UNL     1      16.943  27.296  29.847  1.00  0.00     0.106 CG0
ATOM     16  G   UNL     1      17.620  26.621  28.618  1.00  0.00     0.000 G0
ENDBRANCH  13  15
ENDBRANCH  12  13
BRANCH  12  17
ATOM     17  C   UNL     1      16.273  31.256  30.025  1.00  0.00    -0.006 C 
ATOM     18  C   UNL     1      16.159  31.677  31.500  1.00  0.00     0.008 C 
ATOM     19  C   UNL     1      16.662  32.463  29.158  1.00  0.00     0.008 C 
ENDBRANCH  12  17
ENDBRANCH  11  12
ENDBRANCH   1  11
TORSDOF 1
ENDMDL
