MODEL 1
REMARK VINA RESULT:    -5.056      0.000      0.000
REMARK INTER + INTRA:         -10.971
REMARK INTER:                  -9.786
REMARK INTRA:                  -1.185
REMARK UNBOUND:                -1.185
REMARK SMILES CCCCCCCCCCCCCCCCCC(=O)[O-]
REMARK SMILES IDX 10 1 11 2 12 3 13 4 14 5 15 6 16 7 17 8 18 9 19 10 20 11
REMARK SMILES IDX 9 12 8 13 7 14 6 15 5 16 4 17 3 18 2 19 1 20
REMARK H PARENT
REMARK Flexibility Score: inf
ROOT
ATOM      1  C   UNL     1       5.965  -9.243 -22.300  1.00  0.00     0.000 C 
ENDROOT
BRANCH   1   2
ATOM      2  C   UNL     1       5.915  -7.716 -22.467  1.00  0.00     0.000 C 
BRANCH   2   3
ATOM      3  C   UNL     1       4.588  -7.108 -21.988  1.00  0.00     0.000 C 
BRANCH   3   4
ATOM      4  C   UNL     1       3.663  -8.194 -21.418  1.00  0.00     0.000 C 
BRANCH   4   5
ATOM      5  C   UNL     1       2.655  -7.643 -20.397  1.00  0.00     0.000 C 
BRANCH   5   6
ATOM      6  C   UNL     1       2.874  -6.149 -20.100  1.00  0.00     0.000 C 
BRANCH   6   7
ATOM      7  C   UNL     1       3.266  -5.888 -18.637  1.00  0.00     0.006 C 
BRANCH   7   8
ATOM      8  C   UNL     1       3.211  -4.402 -18.264  1.00  0.00     0.053 C 
BRANCH   8   9
ATOM      9  C   UNL     1       4.537  -3.753 -18.502  1.00  0.00     0.041 C 
ATOM     10  O   UNL     1       4.766  -3.156 -19.586  1.00  0.00    -0.550 OA
ATOM     11  O   UNL     1       5.539  -3.849 -17.543  1.00  0.00    -0.550 OA
ENDBRANCH   8   9
ENDBRANCH   7   8
ENDBRANCH   6   7
ENDBRANCH   5   6
ENDBRANCH   4   5
ENDBRANCH   3   4
ENDBRANCH   2   3
ENDBRANCH   1   2
BRANCH   1  12
ATOM     12  C   UNL     1       6.607  -9.951 -23.507  1.00  0.00     0.000 C 
BRANCH  12  13
ATOM     13  C   UNL     1       6.010 -11.345 -23.755  1.00  0.00    -0.000 C 
BRANCH  13  14
ATOM     14  C   UNL     1       4.645 -11.534 -23.070  1.00  0.00    -0.000 C 
BRANCH  14  15
ATOM     15  C   UNL     1       4.687 -12.582 -21.947  1.00  0.00    -0.000 C 
BRANCH  15  16
ATOM     16  C   UNL     1       5.675 -13.722 -22.239  1.00  0.00    -0.000 C 
BRANCH  16  17
ATOM     17  C   UNL     1       5.050 -15.086 -21.911  1.00  0.00    -0.000 C 
BRANCH  17  18
ATOM     18  C   UNL     1       3.516 -15.089 -22.037  1.00  0.00    -0.000 C 
BRANCH  18  19
ATOM     19  C   UNL     1       2.844 -16.442 -21.739  1.00  0.00    -0.003 C 
ATOM     20  C   UNL     1       1.643 -16.319 -20.803  1.00  0.00     0.004 C 
ENDBRANCH  18  19
ENDBRANCH  17  18
ENDBRANCH  16  17
ENDBRANCH  15  16
ENDBRANCH  14  15
ENDBRANCH  13  14
ENDBRANCH  12  13
ENDBRANCH   1  12
TORSDOF 16
ENDMDL
MODEL 2
REMARK VINA RESULT:    -4.967      2.039      3.416
REMARK INTER + INTRA:         -10.798
REMARK INTER:                  -8.780
REMARK INTRA:                  -2.018
REMARK UNBOUND:                -1.185
REMARK SMILES CCCCCCCCCCCCCCCCCC(=O)[O-]
REMARK SMILES IDX 10 1 11 2 12 3 13 4 14 5 15 6 16 7 17 8 18 9 19 10 20 11
REMARK SMILES IDX 9 12 8 13 7 14 6 15 5 16 4 17 3 18 2 19 1 20
REMARK H PARENT
REMARK Flexibility Score: inf
ROOT
ATOM      1  C   UNL     1       6.835  -9.228 -23.242  1.00  0.00     0.000 C 
ENDROOT
BRANCH   1   2
ATOM      2  C   UNL     1       6.051  -8.511 -22.132  1.00  0.00     0.000 C 
BRANCH   2   3
ATOM      3  C   UNL     1       5.269  -7.292 -22.647  1.00  0.00     0.000 C 
BRANCH   3   4
ATOM      4  C   UNL     1       5.492  -6.075 -21.736  1.00  0.00     0.000 C 
BRANCH   4   5
ATOM      5  C   UNL     1       4.262  -5.741 -20.878  1.00  0.00     0.000 C 
BRANCH   5   6
ATOM      6  C   UNL     1       4.309  -6.410 -19.494  1.00  0.00     0.000 C 
BRANCH   6   7
ATOM      7  C   UNL     1       3.616  -5.571 -18.408  1.00  0.00     0.006 C 
BRANCH   7   8
ATOM      8  C   UNL     1       3.752  -4.062 -18.648  1.00  0.00     0.053 C 
BRANCH   8   9
ATOM      9  C   UNL     1       5.123  -3.594 -18.274  1.00  0.00     0.041 C 
ATOM     10  O   UNL     1       5.689  -2.691 -18.943  1.00  0.00    -0.550 OA
ATOM     11  O   UNL     1       5.795  -4.191 -17.215  1.00  0.00    -0.550 OA
ENDBRANCH   8   9
ENDBRANCH   7   8
ENDBRANCH   6   7
ENDBRANCH   5   6
ENDBRANCH   4   5
ENDBRANCH   3   4
ENDBRANCH   2   3
ENDBRANCH   1   2
BRANCH   1  12
ATOM     12  C   UNL     1       6.245 -10.607 -23.589  1.00  0.00     0.000 C 
BRANCH  12  13
ATOM     13  C   UNL     1       5.121 -11.022 -22.626  1.00  0.00    -0.000 C 
BRANCH  13  14
ATOM     14  C   UNL     1       4.453 -12.348 -23.032  1.00  0.00    -0.000 C 
BRANCH  14  15
ATOM     15  C   UNL     1       2.925 -12.230 -23.141  1.00  0.00    -0.000 C 
BRANCH  15  16
ATOM     16  C   UNL     1       2.481 -11.390 -24.348  1.00  0.00    -0.000 C 
BRANCH  16  17
ATOM     17  C   UNL     1       1.477 -10.309 -23.924  1.00  0.00    -0.000 C 
BRANCH  17  18
ATOM     18  C   UNL     1       2.113  -9.205 -23.060  1.00  0.00    -0.000 C 
BRANCH  18  19
ATOM     19  C   UNL     1       1.556  -9.102 -21.628  1.00  0.00    -0.003 C 
ATOM     20  C   UNL     1       2.608  -9.383 -20.556  1.00  0.00     0.004 C 
ENDBRANCH  18  19
ENDBRANCH  17  18
ENDBRANCH  16  17
ENDBRANCH  15  16
ENDBRANCH  14  15
ENDBRANCH  13  14
ENDBRANCH  12  13
ENDBRANCH   1  12
TORSDOF 16
ENDMDL
MODEL 3
REMARK VINA RESULT:    -4.953      2.181      3.773
REMARK INTER + INTRA:         -10.771
REMARK INTER:                  -8.847
REMARK INTRA:                  -1.923
REMARK UNBOUND:                -1.185
REMARK SMILES CCCCCCCCCCCCCCCCCC(=O)[O-]
REMARK SMILES IDX 10 1 11 2 12 3 13 4 14 5 15 6 16 7 17 8 18 9 19 10 20 11
REMARK SMILES IDX 9 12 8 13 7 14 6 15 5 16 4 17 3 18 2 19 1 20
REMARK H PARENT
REMARK Flexibility Score: inf
ROOT
ATOM      1  C   UNL     1       3.839  -5.913 -22.955  1.00  0.00     0.000 C 
ENDROOT
BRANCH   1   2
ATOM      2  C   UNL     1       5.040  -5.017 -23.297  1.00  0.00     0.000 C 
BRANCH   2   3
ATOM      3  C   UNL     1       4.881  -3.582 -22.772  1.00  0.00     0.000 C 
BRANCH   3   4
ATOM      4  C   UNL     1       3.944  -3.546 -21.555  1.00  0.00     0.000 C 
BRANCH   4   5
ATOM      5  C   UNL     1       4.501  -2.699 -20.400  1.00  0.00     0.000 C 
BRANCH   5   6
ATOM      6  C   UNL     1       5.010  -3.559 -19.230  1.00  0.00     0.000 C 
BRANCH   6   7
ATOM      7  C   UNL     1       4.740  -5.057 -19.437  1.00  0.00     0.006 C 
BRANCH   7   8
ATOM      8  C   UNL     1       3.760  -5.631 -18.406  1.00  0.00     0.053 C 
BRANCH   8   9
ATOM      9  C   UNL     1       2.361  -5.204 -18.721  1.00  0.00     0.041 C 
ATOM     10  O   UNL     1       1.739  -5.727 -19.681  1.00  0.00    -0.550 OA
ATOM     11  O   UNL     1       1.762  -4.192 -17.981  1.00  0.00    -0.550 OA
ENDBRANCH   8   9
ENDBRANCH   7   8
ENDBRANCH   6   7
ENDBRANCH   5   6
ENDBRANCH   4   5
ENDBRANCH   3   4
ENDBRANCH   2   3
ENDBRANCH   1   2
BRANCH   1  12
ATOM     12  C   UNL     1       4.262  -7.279 -22.383  1.00  0.00     0.000 C 
BRANCH  12  13
ATOM     13  C   UNL     1       5.785  -7.485 -22.425  1.00  0.00    -0.000 C 
BRANCH  13  14
ATOM     14  C   UNL     1       6.183  -8.969 -22.338  1.00  0.00    -0.000 C 
BRANCH  14  15
ATOM     15  C   UNL     1       7.067  -9.413 -23.514  1.00  0.00    -0.000 C 
BRANCH  15  16
ATOM     16  C   UNL     1       6.752 -10.842 -23.983  1.00  0.00    -0.000 C 
BRANCH  16  17
ATOM     17  C   UNL     1       5.339 -11.261 -23.553  1.00  0.00    -0.000 C 
BRANCH  17  18
ATOM     18  C   UNL     1       5.329 -12.522 -22.669  1.00  0.00    -0.000 C 
BRANCH  18  19
ATOM     19  C   UNL     1       4.086 -12.676 -21.774  1.00  0.00    -0.003 C 
ATOM     20  C   UNL     1       3.471 -11.337 -21.371  1.00  0.00     0.004 C 
ENDBRANCH  18  19
ENDBRANCH  17  18
ENDBRANCH  16  17
ENDBRANCH  15  16
ENDBRANCH  14  15
ENDBRANCH  13  14
ENDBRANCH  12  13
ENDBRANCH   1  12
TORSDOF 16
ENDMDL
MODEL 4
REMARK VINA RESULT:    -4.947      3.352      8.056
REMARK INTER + INTRA:         -10.759
REMARK INTER:                  -8.500
REMARK INTRA:                  -2.259
REMARK UNBOUND:                -1.185
REMARK SMILES CCCCCCCCCCCCCCCCCC(=O)[O-]
REMARK SMILES IDX 10 1 11 2 12 3 13 4 14 5 15 6 16 7 17 8 18 9 19 10 20 11
REMARK SMILES IDX 9 12 8 13 7 14 6 15 5 16 4 17 3 18 2 19 1 20
REMARK H PARENT
REMARK Flexibility Score: inf
ROOT
ATOM      1  C   UNL     1       5.453  -7.150 -22.438  1.00  0.00     0.000 C 
ENDROOT
BRANCH   1   2
ATOM      2  C   UNL     1       5.885  -8.593 -22.127  1.00  0.00     0.000 C 
BRANCH   2   3
ATOM      3  C   UNL     1       6.951  -9.118 -23.100  1.00  0.00     0.000 C 
BRANCH   3   4
ATOM      4  C   UNL     1       6.541 -10.482 -23.676  1.00  0.00     0.000 C 
BRANCH   4   5
ATOM      5  C   UNL     1       5.367 -11.119 -22.918  1.00  0.00     0.000 C 
BRANCH   5   6
ATOM      6  C   UNL     1       4.242 -11.588 -23.858  1.00  0.00     0.000 C 
BRANCH   6   7
ATOM      7  C   UNL     1       2.848 -11.453 -23.225  1.00  0.00     0.006 C 
BRANCH   7   8
ATOM      8  C   UNL     1       2.598 -10.061 -22.632  1.00  0.00     0.053 C 
BRANCH   8   9
ATOM      9  C   UNL     1       2.184 -10.170 -21.199  1.00  0.00     0.041 C 
ATOM     10  O   UNL     1       3.035 -10.440 -20.311  1.00  0.00    -0.550 OA
ATOM     11  O   UNL     1       0.848 -10.019 -20.849  1.00  0.00    -0.550 OA
ENDBRANCH   8   9
ENDBRANCH   7   8
ENDBRANCH   6   7
ENDBRANCH   5   6
ENDBRANCH   4   5
ENDBRANCH   3   4
ENDBRANCH   2   3
ENDBRANCH   1   2
BRANCH   1  12
ATOM     12  C   UNL     1       4.124  -6.770 -21.761  1.00  0.00     0.000 C 
BRANCH  12  13
ATOM     13  C   UNL     1       4.115  -7.102 -20.260  1.00  0.00    -0.000 C 
BRANCH  13  14
ATOM     14  C   UNL     1       2.877  -6.543 -19.538  1.00  0.00    -0.000 C 
BRANCH  14  15
ATOM     15  C   UNL     1       3.243  -5.590 -18.389  1.00  0.00    -0.000 C 
BRANCH  15  16
ATOM     16  C   UNL     1       4.730  -5.206 -18.391  1.00  0.00    -0.000 C 
BRANCH  16  17
ATOM     17  C   UNL     1       4.902  -3.681 -18.326  1.00  0.00    -0.000 C 
BRANCH  17  18
ATOM     18  C   UNL     1       3.962  -2.930 -19.286  1.00  0.00    -0.000 C 
BRANCH  18  19
ATOM     19  C   UNL     1       4.354  -3.012 -20.773  1.00  0.00    -0.003 C 
ATOM     20  C   UNL     1       3.146  -3.067 -21.707  1.00  0.00     0.004 C 
ENDBRANCH  18  19
ENDBRANCH  17  18
ENDBRANCH  16  17
ENDBRANCH  15  16
ENDBRANCH  14  15
ENDBRANCH  13  14
ENDBRANCH  12  13
ENDBRANCH   1  12
TORSDOF 16
ENDMDL
MODEL 5
REMARK VINA RESULT:    -4.905      1.665      2.882
REMARK INTER + INTRA:         -10.678
REMARK INTER:                  -8.813
REMARK INTRA:                  -1.865
REMARK UNBOUND:                -1.185
REMARK SMILES CCCCCCCCCCCCCCCCCC(=O)[O-]
REMARK SMILES IDX 10 1 11 2 12 3 13 4 14 5 15 6 16 7 17 8 18 9 19 10 20 11
REMARK SMILES IDX 9 12 8 13 7 14 6 15 5 16 4 17 3 18 2 19 1 20
REMARK H PARENT
REMARK Flexibility Score: inf
ROOT
ATOM      1  C   UNL     1       4.155  -8.297 -20.717  1.00  0.00     0.000 C 
ENDROOT
BRANCH   1   2
ATOM      2  C   UNL     1       5.261  -8.722 -21.696  1.00  0.00     0.000 C 
BRANCH   2   3
ATOM      3  C   UNL     1       5.935  -7.526 -22.387  1.00  0.00     0.000 C 
BRANCH   3   4
ATOM      4  C   UNL     1       4.905  -6.440 -22.728  1.00  0.00     0.000 C 
BRANCH   4   5
ATOM      5  C   UNL     1       5.315  -5.049 -22.219  1.00  0.00     0.000 C 
BRANCH   5   6
ATOM      6  C   UNL     1       4.447  -4.574 -21.040  1.00  0.00     0.000 C 
BRANCH   6   7
ATOM      7  C   UNL     1       5.122  -4.805 -19.679  1.00  0.00     0.006 C 
BRANCH   7   8
ATOM      8  C   UNL     1       4.376  -4.125 -18.524  1.00  0.00     0.053 C 
BRANCH   8   9
ATOM      9  C   UNL     1       3.050  -4.780 -18.300  1.00  0.00     0.041 C 
ATOM     10  O   UNL     1       2.971  -6.031 -18.192  1.00  0.00    -0.550 OA
ATOM     11  O   UNL     1       1.894  -4.010 -18.258  1.00  0.00    -0.550 OA
ENDBRANCH   8   9
ENDBRANCH   7   8
ENDBRANCH   6   7
ENDBRANCH   5   6
ENDBRANCH   4   5
ENDBRANCH   3   4
ENDBRANCH   2   3
ENDBRANCH   1   2
BRANCH   1  12
ATOM     12  C   UNL     1       2.833  -9.050 -20.952  1.00  0.00     0.000 C 
BRANCH  12  13
ATOM     13  C   UNL     1       2.567  -9.315 -22.443  1.00  0.00    -0.000 C 
BRANCH  13  14
ATOM     14  C   UNL     1       2.141 -10.767 -22.720  1.00  0.00    -0.000 C 
BRANCH  14  15
ATOM     15  C   UNL     1       2.945 -11.411 -23.861  1.00  0.00    -0.000 C 
BRANCH  15  16
ATOM     16  C   UNL     1       4.386 -11.751 -23.451  1.00  0.00    -0.000 C 
BRANCH  16  17
ATOM     17  C   UNL     1       4.409 -12.538 -22.133  1.00  0.00    -0.000 C 
BRANCH  17  18
ATOM     18  C   UNL     1       5.538 -13.584 -22.079  1.00  0.00    -0.000 C 
BRANCH  18  19
ATOM     19  C   UNL     1       5.064 -15.040 -21.918  1.00  0.00    -0.003 C 
ATOM     20  C   UNL     1       3.554 -15.199 -22.087  1.00  0.00     0.004 C 
ENDBRANCH  18  19
ENDBRANCH  17  18
ENDBRANCH  16  17
ENDBRANCH  15  16
ENDBRANCH  14  15
ENDBRANCH  13  14
ENDBRANCH  12  13
ENDBRANCH   1  12
TORSDOF 16
ENDMDL
MODEL 6
REMARK VINA RESULT:    -4.896      3.299      7.993
REMARK INTER + INTRA:         -10.661
REMARK INTER:                  -8.858
REMARK INTRA:                  -1.803
REMARK UNBOUND:                -1.185
REMARK SMILES CCCCCCCCCCCCCCCCCC(=O)[O-]
REMARK SMILES IDX 10 1 11 2 12 3 13 4 14 5 15 6 16 7 17 8 18 9 19 10 20 11
REMARK SMILES IDX 9 12 8 13 7 14 6 15 5 16 4 17 3 18 2 19 1 20
REMARK H PARENT
REMARK Flexibility Score: inf
ROOT
ATOM      1  C   UNL     1       6.119  -8.758 -22.127  1.00  0.00     0.000 C 
ENDROOT
BRANCH   1   2
ATOM      2  C   UNL     1       6.987  -9.130 -23.340  1.00  0.00     0.000 C 
BRANCH   2   3
ATOM      3  C   UNL     1       6.721 -10.556 -23.847  1.00  0.00     0.000 C 
BRANCH   3   4
ATOM      4  C   UNL     1       5.463 -11.145 -23.191  1.00  0.00     0.000 C 
BRANCH   4   5
ATOM      5  C   UNL     1       5.551 -12.666 -22.992  1.00  0.00     0.000 C 
BRANCH   5   6
ATOM      6  C   UNL     1       4.752 -13.148 -21.769  1.00  0.00     0.000 C 
BRANCH   6   7
ATOM      7  C   UNL     1       3.557 -14.034 -22.156  1.00  0.00     0.006 C 
BRANCH   7   8
ATOM      8  C   UNL     1       2.208 -13.407 -21.784  1.00  0.00     0.053 C 
BRANCH   8   9
ATOM      9  C   UNL     1       1.913 -12.237 -22.669  1.00  0.00     0.041 C 
ATOM     10  O   UNL     1       1.413 -11.188 -22.187  1.00  0.00    -0.550 OA
ATOM     11  O   UNL     1       2.148 -12.325 -24.036  1.00  0.00    -0.550 OA
ENDBRANCH   8   9
ENDBRANCH   7   8
ENDBRANCH   6   7
ENDBRANCH   5   6
ENDBRANCH   4   5
ENDBRANCH   3   4
ENDBRANCH   2   3
ENDBRANCH   1   2
BRANCH   1  12
ATOM     12  C   UNL     1       5.738  -7.267 -22.105  1.00  0.00     0.000 C 
BRANCH  12  13
ATOM     13  C   UNL     1       4.255  -7.036 -22.442  1.00  0.00    -0.000 C 
BRANCH  13  14
ATOM     14  C   UNL     1       3.337  -8.116 -21.843  1.00  0.00    -0.000 C 
BRANCH  14  15
ATOM     15  C   UNL     1       3.027  -7.870 -20.358  1.00  0.00    -0.000 C 
BRANCH  15  16
ATOM     16  C   UNL     1       2.060  -6.696 -20.142  1.00  0.00    -0.000 C 
BRANCH  16  17
ATOM     17  C   UNL     1       2.603  -5.727 -19.082  1.00  0.00    -0.000 C 
BRANCH  17  18
ATOM     18  C   UNL     1       4.117  -5.880 -18.848  1.00  0.00    -0.000 C 
BRANCH  18  19
ATOM     19  C   UNL     1       4.975  -4.716 -19.375  1.00  0.00    -0.003 C 
ATOM     20  C   UNL     1       5.429  -3.761 -18.272  1.00  0.00     0.004 C 
ENDBRANCH  18  19
ENDBRANCH  17  18
ENDBRANCH  16  17
ENDBRANCH  15  16
ENDBRANCH  14  15
ENDBRANCH  13  14
ENDBRANCH  12  13
ENDBRANCH   1  12
TORSDOF 16
ENDMDL
MODEL 7
REMARK VINA RESULT:    -4.862      3.225      7.347
REMARK INTER + INTRA:         -10.596
REMARK INTER:                  -8.373
REMARK INTRA:                  -2.223
REMARK UNBOUND:                -1.185
REMARK SMILES CCCCCCCCCCCCCCCCCC(=O)[O-]
REMARK SMILES IDX 10 1 11 2 12 3 13 4 14 5 15 6 16 7 17 8 18 9 19 10 20 11
REMARK SMILES IDX 9 12 8 13 7 14 6 15 5 16 4 17 3 18 2 19 1 20
REMARK H PARENT
REMARK Flexibility Score: inf
ROOT
ATOM      1  C   UNL     1       6.234  -9.178 -22.411  1.00  0.00     0.000 C 
ENDROOT
BRANCH   1   2
ATOM      2  C   UNL     1       6.968  -9.719 -23.648  1.00  0.00     0.000 C 
BRANCH   2   3
ATOM      3  C   UNL     1       6.481 -11.116 -24.066  1.00  0.00     0.000 C 
BRANCH   3   4
ATOM      4  C   UNL     1       5.446 -11.655 -23.067  1.00  0.00     0.000 C 
BRANCH   4   5
ATOM      5  C   UNL     1       4.011 -11.614 -23.616  1.00  0.00     0.000 C 
BRANCH   5   6
ATOM      6  C   UNL     1       2.957 -11.901 -22.533  1.00  0.00     0.000 C 
BRANCH   6   7
ATOM      7  C   UNL     1       1.942 -10.757 -22.379  1.00  0.00     0.006 C 
BRANCH   7   8
ATOM      8  C   UNL     1       2.113  -9.665 -23.442  1.00  0.00     0.053 C 
BRANCH   8   9
ATOM      9  C   UNL     1       1.100  -8.582 -23.247  1.00  0.00     0.041 C 
ATOM     10  O   UNL     1       1.084  -7.583 -24.012  1.00  0.00    -0.550 OA
ATOM     11  O   UNL     1       0.201  -8.654 -22.189  1.00  0.00    -0.550 OA
ENDBRANCH   8   9
ENDBRANCH   7   8
ENDBRANCH   6   7
ENDBRANCH   5   6
ENDBRANCH   4   5
ENDBRANCH   3   4
ENDBRANCH   2   3
ENDBRANCH   1   2
BRANCH   1  12
ATOM     12  C   UNL     1       5.944  -7.670 -22.506  1.00  0.00     0.000 C 
BRANCH  12  13
ATOM     13  C   UNL     1       4.595  -7.291 -21.872  1.00  0.00    -0.000 C 
BRANCH  13  14
ATOM     14  C   UNL     1       4.169  -8.268 -20.762  1.00  0.00    -0.000 C 
BRANCH  14  15
ATOM     15  C   UNL     1       2.987  -7.739 -19.932  1.00  0.00    -0.000 C 
BRANCH  15  16
ATOM     16  C   UNL     1       2.419  -6.423 -20.485  1.00  0.00    -0.000 C 
BRANCH  16  17
ATOM     17  C   UNL     1       2.151  -5.423 -19.351  1.00  0.00    -0.000 C 
BRANCH  17  18
ATOM     18  C   UNL     1       3.320  -5.321 -18.353  1.00  0.00    -0.000 C 
BRANCH  18  19
ATOM     19  C   UNL     1       4.550  -4.555 -18.873  1.00  0.00    -0.003 C 
ATOM     20  C   UNL     1       5.488  -4.102 -17.755  1.00  0.00     0.004 C 
ENDBRANCH  18  19
ENDBRANCH  17  18
ENDBRANCH  16  17
ENDBRANCH  15  16
ENDBRANCH  14  15
ENDBRANCH  13  14
ENDBRANCH  12  13
ENDBRANCH   1  12
TORSDOF 16
ENDMDL
MODEL 8
REMARK VINA RESULT:    -4.854      2.322      3.637
REMARK INTER + INTRA:         -10.579
REMARK INTER:                  -8.369
REMARK INTRA:                  -2.210
REMARK UNBOUND:                -1.185
REMARK SMILES CCCCCCCCCCCCCCCCCC(=O)[O-]
REMARK SMILES IDX 10 1 11 2 12 3 13 4 14 5 15 6 16 7 17 8 18 9 19 10 20 11
REMARK SMILES IDX 9 12 8 13 7 14 6 15 5 16 4 17 3 18 2 19 1 20
REMARK H PARENT
REMARK Flexibility Score: inf
ROOT
ATOM      1  C   UNL     1       6.201 -10.898 -23.622  1.00  0.00     0.000 C 
ENDROOT
BRANCH   1   2
ATOM      2  C   UNL     1       6.723  -9.498 -23.261  1.00  0.00     0.000 C 
BRANCH   2   3
ATOM      3  C   UNL     1       5.906  -8.828 -22.145  1.00  0.00     0.000 C 
BRANCH   3   4
ATOM      4  C   UNL     1       5.765  -7.320 -22.401  1.00  0.00     0.000 C 
BRANCH   4   5
ATOM      5  C   UNL     1       4.493  -6.727 -21.776  1.00  0.00     0.000 C 
BRANCH   5   6
ATOM      6  C   UNL     1       4.318  -7.127 -20.301  1.00  0.00     0.000 C 
BRANCH   6   7
ATOM      7  C   UNL     1       3.244  -6.292 -19.585  1.00  0.00     0.006 C 
BRANCH   7   8
ATOM      8  C   UNL     1       3.790  -5.544 -18.363  1.00  0.00     0.053 C 
BRANCH   8   9
ATOM      9  C   UNL     1       4.443  -4.265 -18.783  1.00  0.00     0.041 C 
ATOM     10  O   UNL     1       3.982  -3.605 -19.750  1.00  0.00    -0.550 OA
ATOM     11  O   UNL     1       5.590  -3.826 -18.134  1.00  0.00    -0.550 OA
ENDBRANCH   8   9
ENDBRANCH   7   8
ENDBRANCH   6   7
ENDBRANCH   5   6
ENDBRANCH   4   5
ENDBRANCH   3   4
ENDBRANCH   2   3
ENDBRANCH   1   2
BRANCH   1  12
ATOM     12  C   UNL     1       4.891 -11.249 -22.894  1.00  0.00     0.000 C 
BRANCH  12  13
ATOM     13  C   UNL     1       3.797 -11.736 -23.858  1.00  0.00    -0.000 C 
BRANCH  13  14
ATOM     14  C   UNL     1       2.453 -11.021 -23.637  1.00  0.00    -0.000 C 
BRANCH  14  15
ATOM     15  C   UNL     1       2.610  -9.684 -22.897  1.00  0.00    -0.000 C 
BRANCH  15  16
ATOM     16  C   UNL     1       1.261  -9.007 -22.606  1.00  0.00    -0.000 C 
BRANCH  16  17
ATOM     17  C   UNL     1       1.041  -8.852 -21.095  1.00  0.00    -0.000 C 
BRANCH  17  18
ATOM     18  C   UNL     1       1.855  -9.860 -20.263  1.00  0.00    -0.000 C 
BRANCH  18  19
ATOM     19  C   UNL     1       1.056 -11.070 -19.748  1.00  0.00    -0.003 C 
ATOM     20  C   UNL     1      -0.455 -10.846 -19.781  1.00  0.00     0.004 C 
ENDBRANCH  18  19
ENDBRANCH  17  18
ENDBRANCH  16  17
ENDBRANCH  15  16
ENDBRANCH  14  15
ENDBRANCH  13  14
ENDBRANCH  12  13
ENDBRANCH   1  12
TORSDOF 16
ENDMDL
MODEL 9
REMARK VINA RESULT:    -4.795      3.786      8.926
REMARK INTER + INTRA:         -10.465
REMARK INTER:                  -8.371
REMARK INTRA:                  -2.093
REMARK UNBOUND:                -1.185
REMARK SMILES CCCCCCCCCCCCCCCCCC(=O)[O-]
REMARK SMILES IDX 10 1 11 2 12 3 13 4 14 5 15 6 16 7 17 8 18 9 19 10 20 11
REMARK SMILES IDX 9 12 8 13 7 14 6 15 5 16 4 17 3 18 2 19 1 20
REMARK H PARENT
REMARK Flexibility Score: inf
ROOT
ATOM      1  C   UNL     1       3.084  -6.516 -19.618  1.00  0.00     0.000 C 
ENDROOT
BRANCH   1   2
ATOM      2  C   UNL     1       4.396  -7.088 -20.180  1.00  0.00     0.000 C 
BRANCH   2   3
ATOM      3  C   UNL     1       4.303  -7.434 -21.674  1.00  0.00     0.000 C 
BRANCH   3   4
ATOM      4  C   UNL     1       5.696  -7.446 -22.321  1.00  0.00     0.000 C 
BRANCH   4   5
ATOM      5  C   UNL     1       6.235  -8.867 -22.547  1.00  0.00     0.000 C 
BRANCH   5   6
ATOM      6  C   UNL     1       5.162  -9.947 -22.325  1.00  0.00     0.000 C 
BRANCH   6   7
ATOM      7  C   UNL     1       5.304 -11.130 -23.296  1.00  0.00     0.006 C 
BRANCH   7   8
ATOM      8  C   UNL     1       4.041 -11.997 -23.363  1.00  0.00     0.053 C 
BRANCH   8   9
ATOM      9  C   UNL     1       4.018 -12.976 -22.233  1.00  0.00     0.041 C 
ATOM     10  O   UNL     1       5.095 -13.414 -21.751  1.00  0.00    -0.550 OA
ATOM     11  O   UNL     1       2.804 -13.441 -21.741  1.00  0.00    -0.550 OA
ENDBRANCH   8   9
ENDBRANCH   7   8
ENDBRANCH   6   7
ENDBRANCH   5   6
ENDBRANCH   4   5
ENDBRANCH   3   4
ENDBRANCH   2   3
ENDBRANCH   1   2
BRANCH   1  12
ATOM     12  C   UNL     1       3.310  -5.594 -18.407  1.00  0.00     0.000 C 
BRANCH  12  13
ATOM     13  C   UNL     1       4.762  -5.095 -18.313  1.00  0.00    -0.000 C 
BRANCH  13  14
ATOM     14  C   UNL     1       4.950  -3.701 -18.936  1.00  0.00    -0.000 C 
BRANCH  14  15
ATOM     15  C   UNL     1       3.623  -2.943 -19.098  1.00  0.00    -0.000 C 
BRANCH  15  16
ATOM     16  C   UNL     1       3.466  -2.315 -20.491  1.00  0.00    -0.000 C 
BRANCH  16  17
ATOM     17  C   UNL     1       2.469  -3.114 -21.343  1.00  0.00    -0.000 C 
BRANCH  17  18
ATOM     18  C   UNL     1       3.157  -4.055 -22.349  1.00  0.00    -0.000 C 
BRANCH  18  19
ATOM     19  C   UNL     1       4.651  -3.767 -22.587  1.00  0.00    -0.003 C 
ATOM     20  C   UNL     1       5.147  -4.269 -23.943  1.00  0.00     0.004 C 
ENDBRANCH  18  19
ENDBRANCH  17  18
ENDBRANCH  16  17
ENDBRANCH  15  16
ENDBRANCH  14  15
ENDBRANCH  13  14
ENDBRANCH  12  13
ENDBRANCH   1  12
TORSDOF 16
ENDMDL
