MODEL 1
REMARK VINA RESULT:    -5.942      0.000      0.000
REMARK INTER + INTRA:          -5.942
REMARK INTER:                  -5.942
REMARK INTRA:                   0.000
REMARK UNBOUND:                 0.000
REMARK SMILES CC(C)=C1CC[C@@H](C)CC1=O
REMARK SMILES IDX 8 1 7 2 6 3 5 4 4 5 2 6 1 7 3 8 10 9 11 10 9 11
REMARK H PARENT
REMARK Flexibility Score: inf
ROOT
ATOM      1  C   UNL     1      -8.188  28.193  23.213  1.00  0.00     0.008 C 
ATOM      2  C   UNL     1      -8.488  29.695  23.243  1.00  0.00    -0.006 C 
ATOM      3  C   UNL     1      -8.172  30.339  21.884  1.00  0.00     0.008 C 
ATOM      4  C   UNL     1      -8.562  31.822  21.865  1.00  0.00     0.039 C 
ATOM      5  C   UNL     1      -7.965  32.599  23.030  1.00  0.00    -0.006 C 
ATOM      6  C   UNL     1      -7.625  33.915  22.906  1.00  0.00    -0.070 C 
ATOM      7  C   UNL     1      -6.979  34.680  24.039  1.00  0.00     0.039 C 
ATOM      8  C   UNL     1      -7.843  34.663  21.610  1.00  0.00     0.039 C 
ATOM      9  C   UNL     1      -7.887  31.870  24.331  1.00  0.00     0.159 C 
ATOM     10  O   UNL     1      -8.002  32.477  25.430  1.00  0.00    -0.295 OA
ATOM     11  C   UNL     1      -7.674  30.384  24.350  1.00  0.00     0.084 C 
ENDROOT
TORSDOF 0
ENDMDL
MODEL 2
REMARK VINA RESULT:    -5.927      1.603      2.467
REMARK INTER + INTRA:          -5.927
REMARK INTER:                  -5.927
REMARK INTRA:                   0.000
REMARK UNBOUND:                 0.000
REMARK SMILES CC(C)=C1CC[C@@H](C)CC1=O
REMARK SMILES IDX 8 1 7 2 6 3 5 4 4 5 2 6 1 7 3 8 10 9 11 10 9 11
REMARK H PARENT
REMARK Flexibility Score: inf
ROOT
ATOM      1  C   UNL     1      -8.662  27.901  22.684  1.00  0.00     0.008 C 
ATOM      2  C   UNL     1      -7.985  29.276  22.710  1.00  0.00    -0.006 C 
ATOM      3  C   UNL     1      -8.218  29.968  24.063  1.00  0.00     0.008 C 
ATOM      4  C   UNL     1      -7.464  31.301  24.145  1.00  0.00     0.039 C 
ATOM      5  C   UNL     1      -7.760  32.214  22.963  1.00  0.00    -0.006 C 
ATOM      6  C   UNL     1      -7.759  33.573  23.098  1.00  0.00    -0.070 C 
ATOM      7  C   UNL     1      -8.108  34.488  21.947  1.00  0.00     0.039 C 
ATOM      8  C   UNL     1      -7.447  34.229  24.424  1.00  0.00     0.039 C 
ATOM      9  C   UNL     1      -7.933  31.540  21.642  1.00  0.00     0.159 C 
ATOM     10  O   UNL     1      -7.590  32.106  20.569  1.00  0.00    -0.295 OA
ATOM     11  C   UNL     1      -8.517  30.159  21.572  1.00  0.00     0.084 C 
ENDROOT
TORSDOF 0
ENDMDL
MODEL 3
REMARK VINA RESULT:    -5.868      1.417      2.053
REMARK INTER + INTRA:          -5.868
REMARK INTER:                  -5.868
REMARK INTRA:                   0.000
REMARK UNBOUND:                 0.000
REMARK SMILES CC(C)=C1CC[C@@H](C)CC1=O
REMARK SMILES IDX 8 1 7 2 6 3 5 4 4 5 2 6 1 7 3 8 10 9 11 10 9 11
REMARK H PARENT
REMARK Flexibility Score: inf
ROOT
ATOM      1  C   UNL     1      -7.452  29.778  26.136  1.00  0.00     0.008 C 
ATOM      2  C   UNL     1      -7.999  30.547  24.929  1.00  0.00    -0.006 C 
ATOM      3  C   UNL     1      -7.254  30.143  23.647  1.00  0.00     0.008 C 
ATOM      4  C   UNL     1      -7.855  30.827  22.413  1.00  0.00     0.039 C 
ATOM      5  C   UNL     1      -7.961  32.337  22.575  1.00  0.00    -0.006 C 
ATOM      6  C   UNL     1      -7.841  33.176  21.504  1.00  0.00    -0.070 C 
ATOM      7  C   UNL     1      -7.887  34.679  21.662  1.00  0.00     0.039 C 
ATOM      8  C   UNL     1      -7.615  32.640  20.109  1.00  0.00     0.039 C 
ATOM      9  C   UNL     1      -8.317  32.826  23.940  1.00  0.00     0.159 C 
ATOM     10  O   UNL     1      -8.996  33.875  24.104  1.00  0.00    -0.295 OA
ATOM     11  C   UNL     1      -7.871  32.061  25.153  1.00  0.00     0.084 C 
ENDROOT
TORSDOF 0
ENDMDL
MODEL 4
REMARK VINA RESULT:    -5.837      1.401      3.997
REMARK INTER + INTRA:          -5.837
REMARK INTER:                  -5.837
REMARK INTRA:                   0.000
REMARK UNBOUND:                 0.000
REMARK SMILES CC(C)=C1CC[C@@H](C)CC1=O
REMARK SMILES IDX 8 1 7 2 6 3 5 4 4 5 2 6 1 7 3 8 10 9 11 10 9 11
REMARK H PARENT
REMARK Flexibility Score: inf
ROOT
ATOM      1  C   UNL     1      -8.244  35.625  26.136  1.00  0.00     0.008 C 
ATOM      2  C   UNL     1      -7.738  34.692  25.031  1.00  0.00    -0.006 C 
ATOM      3  C   UNL     1      -8.154  35.217  23.647  1.00  0.00     0.008 C 
ATOM      4  C   UNL     1      -7.570  34.351  22.523  1.00  0.00     0.039 C 
ATOM      5  C   UNL     1      -7.881  32.872  22.704  1.00  0.00    -0.006 C 
ATOM      6  C   UNL     1      -8.050  32.045  21.630  1.00  0.00    -0.070 C 
ATOM      7  C   UNL     1      -8.415  30.588  21.797  1.00  0.00     0.039 C 
ATOM      8  C   UNL     1      -7.919  32.562  20.216  1.00  0.00     0.039 C 
ATOM      9  C   UNL     1      -7.871  32.367  24.110  1.00  0.00     0.159 C 
ATOM     10  O   UNL     1      -7.516  31.188  24.380  1.00  0.00    -0.295 OA
ATOM     11  C   UNL     1      -8.282  33.271  25.236  1.00  0.00     0.084 C 
ENDROOT
TORSDOF 0
ENDMDL
MODEL 5
REMARK VINA RESULT:    -5.830      1.983      3.542
REMARK INTER + INTRA:          -5.830
REMARK INTER:                  -5.830
REMARK INTRA:                   0.000
REMARK UNBOUND:                 0.000
REMARK SMILES CC(C)=C1CC[C@@H](C)CC1=O
REMARK SMILES IDX 8 1 7 2 6 3 5 4 4 5 2 6 1 7 3 8 10 9 11 10 9 11
REMARK H PARENT
REMARK Flexibility Score: inf
ROOT
ATOM      1  C   UNL     1      -7.505  33.105  19.801  1.00  0.00     0.008 C 
ATOM      2  C   UNL     1      -8.124  33.354  21.180  1.00  0.00    -0.006 C 
ATOM      3  C   UNL     1      -7.526  34.615  21.823  1.00  0.00     0.008 C 
ATOM      4  C   UNL     1      -8.207  34.937  23.160  1.00  0.00     0.039 C 
ATOM      5  C   UNL     1      -8.219  33.748  24.110  1.00  0.00    -0.006 C 
ATOM      6  C   UNL     1      -8.159  33.919  25.464  1.00  0.00    -0.070 C 
ATOM      7  C   UNL     1      -8.113  32.745  26.414  1.00  0.00     0.039 C 
ATOM      8  C   UNL     1      -8.094  35.300  26.076  1.00  0.00     0.039 C 
ATOM      9  C   UNL     1      -8.418  32.408  23.481  1.00  0.00     0.159 C 
ATOM     10  O   UNL     1      -9.024  31.483  24.086  1.00  0.00    -0.295 OA
ATOM     11  C   UNL     1      -7.899  32.142  22.097  1.00  0.00     0.084 C 
ENDROOT
TORSDOF 0
ENDMDL
MODEL 6
REMARK VINA RESULT:    -5.818      1.136      4.230
REMARK INTER + INTRA:          -5.818
REMARK INTER:                  -5.818
REMARK INTRA:                   0.000
REMARK UNBOUND:                 0.000
REMARK SMILES CC(C)=C1CC[C@@H](C)CC1=O
REMARK SMILES IDX 8 1 7 2 6 3 5 4 4 5 2 6 1 7 3 8 10 9 11 10 9 11
REMARK H PARENT
REMARK Flexibility Score: inf
ROOT
ATOM      1  C   UNL     1      -7.783  34.425  23.547  1.00  0.00     0.008 C 
ATOM      2  C   UNL     1      -7.496  32.921  23.494  1.00  0.00    -0.006 C 
ATOM      3  C   UNL     1      -8.184  32.281  22.278  1.00  0.00     0.008 C 
ATOM      4  C   UNL     1      -7.825  30.795  22.152  1.00  0.00     0.039 C 
ATOM      5  C   UNL     1      -8.076  30.021  23.438  1.00  0.00    -0.006 C 
ATOM      6  C   UNL     1      -8.445  28.707  23.416  1.00  0.00    -0.070 C 
ATOM      7  C   UNL     1      -8.753  27.945  24.685  1.00  0.00     0.039 C 
ATOM      8  C   UNL     1      -8.604  27.959  22.112  1.00  0.00     0.039 C 
ATOM      9  C   UNL     1      -7.781  30.749  24.708  1.00  0.00     0.159 C 
ATOM     10  O   UNL     1      -7.366  30.140  25.731  1.00  0.00    -0.295 OA
ATOM     11  C   UNL     1      -7.971  32.237  24.785  1.00  0.00     0.084 C 
ENDROOT
TORSDOF 0
ENDMDL
MODEL 7
REMARK VINA RESULT:    -5.735      2.292      4.230
REMARK INTER + INTRA:          -5.735
REMARK INTER:                  -5.735
REMARK INTRA:                   0.000
REMARK UNBOUND:                 0.000
REMARK SMILES CC(C)=C1CC[C@@H](C)CC1=O
REMARK SMILES IDX 8 1 7 2 6 3 5 4 4 5 2 6 1 7 3 8 10 9 11 10 9 11
REMARK H PARENT
REMARK Flexibility Score: inf
ROOT
ATOM      1  C   UNL     1      -7.781  34.930  26.345  1.00  0.00     0.008 C 
ATOM      2  C   UNL     1      -8.324  34.508  24.975  1.00  0.00    -0.006 C 
ATOM      3  C   UNL     1      -8.589  32.995  24.940  1.00  0.00     0.008 C 
ATOM      4  C   UNL     1      -9.227  32.571  23.611  1.00  0.00     0.039 C 
ATOM      5  C   UNL     1      -8.438  33.054  22.403  1.00  0.00    -0.006 C 
ATOM      6  C   UNL     1      -8.403  32.333  21.243  1.00  0.00    -0.070 C 
ATOM      7  C   UNL     1      -7.577  32.774  20.057  1.00  0.00     0.039 C 
ATOM      8  C   UNL     1      -9.161  31.032  21.106  1.00  0.00     0.039 C 
ATOM      9  C   UNL     1      -7.812  34.404  22.526  1.00  0.00     0.159 C 
ATOM     10  O   UNL     1      -7.674  35.156  21.524  1.00  0.00    -0.295 OA
ATOM     11  C   UNL     1      -7.336  34.893  23.863  1.00  0.00     0.084 C 
ENDROOT
TORSDOF 0
ENDMDL
MODEL 8
REMARK VINA RESULT:    -5.698      1.820      4.709
REMARK INTER + INTRA:          -5.698
REMARK INTER:                  -5.698
REMARK INTRA:                   0.000
REMARK UNBOUND:                 0.000
REMARK SMILES CC(C)=C1CC[C@@H](C)CC1=O
REMARK SMILES IDX 8 1 7 2 6 3 5 4 4 5 2 6 1 7 3 8 10 9 11 10 9 11
REMARK H PARENT
REMARK Flexibility Score: inf
ROOT
ATOM      1  C   UNL     1      -7.488  34.900  22.428  1.00  0.00     0.008 C 
ATOM      2  C   UNL     1      -8.198  33.569  22.697  1.00  0.00    -0.006 C 
ATOM      3  C   UNL     1      -7.569  32.855  23.905  1.00  0.00     0.008 C 
ATOM      4  C   UNL     1      -8.331  31.569  24.251  1.00  0.00     0.039 C 
ATOM      5  C   UNL     1      -8.500  30.648  23.051  1.00  0.00    -0.006 C 
ATOM      6  C   UNL     1      -8.536  29.291  23.197  1.00  0.00    -0.070 C 
ATOM      7  C   UNL     1      -8.646  28.365  22.008  1.00  0.00     0.039 C 
ATOM      8  C   UNL     1      -8.428  28.646  24.560  1.00  0.00     0.039 C 
ATOM      9  C   UNL     1      -8.737  31.319  21.739  1.00  0.00     0.159 C 
ATOM     10  O   UNL     1      -9.451  30.783  20.848  1.00  0.00    -0.295 OA
ATOM     11  C   UNL     1      -8.128  32.663  21.459  1.00  0.00     0.084 C 
ENDROOT
TORSDOF 0
ENDMDL
MODEL 9
REMARK VINA RESULT:    -5.602      1.711      4.791
REMARK INTER + INTRA:          -5.602
REMARK INTER:                  -5.602
REMARK INTRA:                   0.000
REMARK UNBOUND:                 0.000
REMARK SMILES CC(C)=C1CC[C@@H](C)CC1=O
REMARK SMILES IDX 8 1 7 2 6 3 5 4 4 5 2 6 1 7 3 8 10 9 11 10 9 11
REMARK H PARENT
REMARK Flexibility Score: inf
ROOT
ATOM      1  C   UNL     1      -7.906  36.122  25.383  1.00  0.00     0.008 C 
ATOM      2  C   UNL     1      -8.246  34.671  25.028  1.00  0.00    -0.006 C 
ATOM      3  C   UNL     1      -7.948  33.739  26.213  1.00  0.00     0.008 C 
ATOM      4  C   UNL     1      -8.376  32.298  25.911  1.00  0.00     0.039 C 
ATOM      5  C   UNL     1      -7.800  31.779  24.602  1.00  0.00    -0.006 C 
ATOM      6  C   UNL     1      -7.494  30.458  24.434  1.00  0.00    -0.070 C 
ATOM      7  C   UNL     1      -6.868  29.941  23.159  1.00  0.00     0.039 C 
ATOM      8  C   UNL     1      -7.732  29.452  25.538  1.00  0.00     0.039 C 
ATOM      9  C   UNL     1      -7.702  32.771  23.490  1.00  0.00     0.159 C 
ATOM     10  O   UNL     1      -7.833  32.420  22.286  1.00  0.00    -0.295 OA
ATOM     11  C   UNL     1      -7.450  34.219  23.794  1.00  0.00     0.084 C 
ENDROOT
TORSDOF 0
ENDMDL
