MODEL 1
REMARK VINA RESULT:     1.654      0.000      0.000
REMARK INTER + INTRA:           1.654
REMARK INTER:                   1.654
REMARK INTRA:                   0.000
REMARK UNBOUND:                 0.000
REMARK SMILES Cc1cc2cc3c(C)cc(=O)oc3c(C)c2o1
REMARK SMILES IDX 8 1 7 2 9 3 10 4 11 5 12 6 13 7 6 8 5 9 4 10 3 11 2 12 17 13
REMARK SMILES IDX 16 14 14 15 15 16 1 17
REMARK H PARENT
REMARK Flexibility Score: inf
ROOT
ATOM      1  C   UNL     1     -18.932 -12.273   8.935  1.00  0.00     0.045 C 
ATOM      2  C   UNL     1     -18.972 -13.617   9.615  1.00  0.00    -0.033 A 
ATOM      3  C   UNL     1     -18.985 -14.779   8.833  1.00  0.00     0.098 A 
ATOM      4  C   UNL     1     -19.025 -16.029   9.455  1.00  0.00     0.336 A 
ATOM      5  O   UNL     1     -19.038 -17.076   8.758  1.00  0.00    -0.246 OA
ATOM      6  O   UNL     1     -19.048 -16.123  10.779  1.00  0.00    -0.422 OA
ATOM      7  C   UNL     1     -19.035 -15.061  11.581  1.00  0.00     0.145 A 
ATOM      8  C   UNL     1     -18.998 -13.744  11.022  1.00  0.00     0.022 A 
ATOM      9  C   UNL     1     -18.995 -12.619  11.883  1.00  0.00     0.024 A 
ATOM     10  C   UNL     1     -19.033 -12.845  13.255  1.00  0.00     0.022 A 
ATOM     11  C   UNL     1     -19.049 -11.957  14.305  1.00  0.00     0.054 A 
ATOM     12  C   UNL     1     -19.097 -12.765  15.434  1.00  0.00     0.102 A 
ATOM     13  O   UNL     1     -19.104 -14.043  15.098  1.00  0.00    -0.461 OA
ATOM     14  C   UNL     1     -19.067 -14.105  13.787  1.00  0.00     0.140 A 
ATOM     15  C   UNL     1     -19.058 -15.248  12.984  1.00  0.00     0.036 A 
ATOM     16  C   UNL     1     -19.124 -16.622  13.587  1.00  0.00     0.052 C 
ATOM     17  C   UNL     1     -19.118 -12.276  16.843  1.00  0.00     0.087 C 
ENDROOT
TORSDOF 0
ENDMDL
MODEL 2
REMARK VINA RESULT:     3.120      0.997      5.311
REMARK INTER + INTRA:           3.120
REMARK INTER:                   3.120
REMARK INTRA:                   0.000
REMARK UNBOUND:                 0.000
REMARK SMILES Cc1cc2cc3c(C)cc(=O)oc3c(C)c2o1
REMARK SMILES IDX 8 1 7 2 9 3 10 4 11 5 12 6 13 7 6 8 5 9 4 10 3 11 2 12 17 13
REMARK SMILES IDX 16 14 14 15 15 16 1 17
REMARK H PARENT
REMARK Flexibility Score: inf
ROOT
ATOM      1  C   UNL     1     -19.122 -10.115  14.463  1.00  0.00     0.045 C 
ATOM      2  C   UNL     1     -19.121 -11.584  14.791  1.00  0.00    -0.033 A 
ATOM      3  C   UNL     1     -19.121 -11.986  16.133  1.00  0.00     0.098 A 
ATOM      4  C   UNL     1     -19.118 -13.347  16.447  1.00  0.00     0.336 A 
ATOM      5  O   UNL     1     -19.117 -13.713  17.650  1.00  0.00    -0.246 OA
ATOM      6  O   UNL     1     -19.117 -14.261  15.484  1.00  0.00    -0.422 OA
ATOM      7  C   UNL     1     -19.119 -13.950  14.190  1.00  0.00     0.145 A 
ATOM      8  C   UNL     1     -19.119 -12.577  13.785  1.00  0.00     0.022 A 
ATOM      9  C   UNL     1     -19.111 -12.255  12.406  1.00  0.00     0.024 A 
ATOM     10  C   UNL     1     -19.099 -13.301  11.490  1.00  0.00     0.022 A 
ATOM     11  C   UNL     1     -19.080 -13.283  10.114  1.00  0.00     0.054 A 
ATOM     12  C   UNL     1     -19.067 -14.626   9.756  1.00  0.00     0.102 A 
ATOM     13  O   UNL     1     -19.082 -15.398  10.827  1.00  0.00    -0.461 OA
ATOM     14  C   UNL     1     -19.101 -14.613  11.879  1.00  0.00     0.140 A 
ATOM     15  C   UNL     1     -19.122 -14.985  13.225  1.00  0.00     0.036 A 
ATOM     16  C   UNL     1     -19.094 -16.431  13.632  1.00  0.00     0.052 C 
ATOM     17  C   UNL     1     -19.057 -15.143   8.357  1.00  0.00     0.087 C 
ENDROOT
TORSDOF 0
ENDMDL
MODEL 3
REMARK VINA RESULT:     4.033      1.693      5.972
REMARK INTER + INTRA:           4.033
REMARK INTER:                   4.033
REMARK INTRA:                   0.000
REMARK UNBOUND:                 0.000
REMARK SMILES Cc1cc2cc3c(C)cc(=O)oc3c(C)c2o1
REMARK SMILES IDX 8 1 7 2 9 3 10 4 11 5 12 6 13 7 6 8 5 9 4 10 3 11 2 12 17 13
REMARK SMILES IDX 16 14 14 15 15 16 1 17
REMARK H PARENT
REMARK Flexibility Score: inf
ROOT
ATOM      1  C   UNL     1     -19.124 -14.031  17.332  1.00  0.00     0.045 C 
ATOM      2  C   UNL     1     -19.118 -13.061  16.180  1.00  0.00    -0.033 A 
ATOM      3  C   UNL     1     -19.123 -11.685  16.443  1.00  0.00     0.098 A 
ATOM      4  C   UNL     1     -19.119 -10.779  15.381  1.00  0.00     0.336 A 
ATOM      5  O   UNL     1     -19.125  -9.542  15.612  1.00  0.00    -0.246 OA
ATOM      6  O   UNL     1     -19.108 -11.211  14.126  1.00  0.00    -0.422 OA
ATOM      7  C   UNL     1     -19.101 -12.502  13.804  1.00  0.00     0.145 A 
ATOM      8  C   UNL     1     -19.108 -13.496  14.835  1.00  0.00     0.022 A 
ATOM      9  C   UNL     1     -19.109 -14.867  14.483  1.00  0.00     0.024 A 
ATOM     10  C   UNL     1     -19.109 -15.197  13.132  1.00  0.00     0.022 A 
ATOM     11  C   UNL     1     -19.121 -16.425  12.513  1.00  0.00     0.054 A 
ATOM     12  C   UNL     1     -19.122 -16.123  11.157  1.00  0.00     0.102 A 
ATOM     13  O   UNL     1     -19.108 -14.816  10.966  1.00  0.00    -0.461 OA
ATOM     14  C   UNL     1     -19.101 -14.246  12.148  1.00  0.00     0.140 A 
ATOM     15  C   UNL     1     -19.086 -12.880  12.440  1.00  0.00     0.036 A 
ATOM     16  C   UNL     1     -19.106 -11.851  11.346  1.00  0.00     0.052 C 
ATOM     17  C   UNL     1     -19.121 -17.125  10.052  1.00  0.00     0.087 C 
ENDROOT
TORSDOF 0
ENDMDL
