MODEL 1
REMARK VINA RESULT:    -4.814      0.000      0.000
REMARK INTER + INTRA:          -6.645
REMARK INTER:                  -6.784
REMARK INTRA:                   0.140
REMARK UNBOUND:                 0.140
REMARK SMILES CC1=CCC(=C(C)C)C(=O)CC(C)=CCC1
REMARK SMILES IDX 12 1 14 2 13 3 15 4 16 5 2 6 1 7 3 8 11 10 9 11 10 12 5 13
REMARK SMILES IDX 6 14 7 15 8 16 4 17
REMARK H PARENT
REMARK Flexibility Score: 60.00
ROOT
ATOM      1  C   UNL     1      -9.801  74.673  21.125  1.00  0.00    -0.070 C 
ATOM      2  C   UNL     1      -8.717  74.213  20.462  1.00  0.00    -0.027 C 
ATOM      3  C   UNL     1     -11.081  74.847  20.349  1.00  0.00     0.039 C 
ENDROOT
BRANCH   2   4
ATOM      4  C   UNL     1      -7.377  73.882  21.082  1.00  0.00     0.032 C 
BRANCH   4   5
ATOM      5  C   UNL     1      -7.275  72.467  21.689  1.00  0.00     0.034 C 
BRANCH   5   6
ATOM      6  C   UNL     1      -6.612  72.449  23.054  1.00  0.00    -0.077 C 
ATOM      7  C   UNL     1      -5.129  72.716  23.117  1.00  0.00     0.039 C 
ATOM      8  C   UNL     1      -7.276  72.278  24.224  1.00  0.00    -0.023 CG0
ATOM      9  G   UNL     1      -8.751  71.979  24.403  1.00  0.00     0.000 G0
ENDBRANCH   5   6
ENDBRANCH   4   5
ENDBRANCH   2   4
BRANCH   1  10
ATOM     10  C   UNL     1      -9.814  74.934  22.617  1.00  0.00     0.111 C 
BRANCH  10  11
ATOM     11  C   UNL     1     -10.307  73.738  23.387  1.00  0.00     0.163 C 
ATOM     12  O   UNL     1     -11.326  73.133  22.955  1.00  0.00    -0.294 OA
BRANCH  11  13
ATOM     13  C   UNL     1      -9.600  73.213  24.592  1.00  0.00    -0.002 C 
ATOM     14  C   UNL     1      -9.783  73.792  25.817  1.00  0.00    -0.069 C 
ATOM     15  C   UNL     1     -10.579  75.069  25.970  1.00  0.00     0.039 C 
ATOM     16  C   UNL     1      -9.208  73.191  27.081  1.00  0.00     0.039 C 
BRANCH  13  17
ATOM     17  C   UNL     1      -8.752  71.964  24.413  1.00  0.00     0.066 CG0
ATOM     18  G   UNL     1      -7.284  72.288  24.215  1.00  0.00     0.000 G0
ENDBRANCH  13  17
ENDBRANCH  11  13
ENDBRANCH  10  11
ENDBRANCH   1  10
TORSDOF 0
ENDMDL
MODEL 2
REMARK VINA RESULT:    -3.730      2.012      4.572
REMARK INTER + INTRA:          -5.117
REMARK INTER:                  -5.331
REMARK INTRA:                   0.214
REMARK UNBOUND:                 0.140
REMARK SMILES CC1=CCC(=C(C)C)C(=O)CC(C)=CCC1
REMARK SMILES IDX 12 1 14 2 13 3 15 4 16 5 2 6 1 7 3 8 11 10 9 11 10 12 5 13
REMARK SMILES IDX 6 14 7 15 8 16 4 17
REMARK H PARENT
REMARK Flexibility Score: 60.00
ROOT
ATOM      1  C   UNL     1      -9.471  73.235  25.025  1.00  0.00    -0.070 C 
ATOM      2  C   UNL     1      -9.824  74.371  24.384  1.00  0.00    -0.027 C 
ATOM      3  C   UNL     1      -9.712  73.158  26.511  1.00  0.00     0.039 C 
ENDROOT
BRANCH   2   4
ATOM      4  C   UNL     1      -9.751  74.602  22.891  1.00  0.00     0.032 C 
BRANCH   4   5
ATOM      5  C   UNL     1      -8.353  74.986  22.362  1.00  0.00     0.034 C 
BRANCH   5   6
ATOM      6  C   UNL     1      -7.885  74.107  21.218  1.00  0.00    -0.077 C 
ATOM      7  C   UNL     1      -8.568  74.268  19.883  1.00  0.00     0.039 C 
ATOM      8  C   UNL     1      -6.848  73.236  21.298  1.00  0.00    -0.023 CG0
ATOM      9  G   UNL     1      -6.032  72.896  22.530  1.00  0.00     0.000 G0
ENDBRANCH   5   6
ENDBRANCH   4   5
ENDBRANCH   2   4
BRANCH   1  10
ATOM     10  C   UNL     1      -8.934  72.010  24.312  1.00  0.00     0.111 C 
BRANCH  10  11
ATOM     11  C   UNL     1      -7.438  71.902  24.443  1.00  0.00     0.163 C 
ATOM     12  O   UNL     1      -6.937  71.961  25.598  1.00  0.00    -0.294 OA
BRANCH  11  13
ATOM     13  C   UNL     1      -6.546  71.666  23.269  1.00  0.00    -0.002 C 
ATOM     14  C   UNL     1      -6.290  70.396  22.831  1.00  0.00    -0.069 C 
ATOM     15  C   UNL     1      -6.769  69.187  23.605  1.00  0.00     0.039 C 
ATOM     16  C   UNL     1      -5.523  70.129  21.554  1.00  0.00     0.039 C 
BRANCH  13  17
ATOM     17  C   UNL     1      -6.020  72.889  22.536  1.00  0.00     0.066 CG0
ATOM     18  G   UNL     1      -6.838  73.217  21.302  1.00  0.00     0.000 G0
ENDBRANCH  13  17
ENDBRANCH  11  13
ENDBRANCH  10  11
ENDBRANCH   1  10
TORSDOF 0
ENDMDL
MODEL 3
REMARK VINA RESULT:    -3.583      1.751      3.800
REMARK INTER + INTRA:          -4.909
REMARK INTER:                  -5.503
REMARK INTRA:                   0.594
REMARK UNBOUND:                 0.140
REMARK SMILES CC1=CCC(=C(C)C)C(=O)CC(C)=CCC1
REMARK SMILES IDX 12 1 14 2 13 3 15 4 16 5 2 6 1 7 3 8 11 10 9 11 10 12 5 13
REMARK SMILES IDX 6 14 7 15 8 16 4 17
REMARK H PARENT
REMARK Flexibility Score: 60.00
ROOT
ATOM      1  C   UNL     1      -6.635  72.695  22.007  1.00  0.00    -0.070 C 
ATOM      2  C   UNL     1      -6.719  73.312  20.808  1.00  0.00    -0.027 C 
ATOM      3  C   UNL     1      -5.297  72.685  22.702  1.00  0.00     0.039 C 
ENDROOT
BRANCH   2   4
ATOM      4  C   UNL     1      -7.986  73.512  20.005  1.00  0.00     0.032 C 
BRANCH   4   5
ATOM      5  C   UNL     1      -8.651  74.894  20.177  1.00  0.00     0.034 C 
BRANCH   5   6
ATOM      6  C   UNL     1      -9.998  74.827  20.872  1.00  0.00    -0.077 C 
ATOM      7  C   UNL     1     -11.228  74.691  20.008  1.00  0.00     0.039 C 
ATOM      8  C   UNL     1     -10.164  74.810  22.218  1.00  0.00    -0.023 CG0
ATOM      9  G   UNL     1      -9.085  74.952  23.273  1.00  0.00     0.000 G0
ENDBRANCH   5   6
ENDBRANCH   4   5
ENDBRANCH   2   4
BRANCH   1  10
ATOM     10  C   UNL     1      -7.830  72.099  22.722  1.00  0.00     0.111 C 
BRANCH  10  11
ATOM     11  C   UNL     1      -8.049  72.737  24.068  1.00  0.00     0.163 C 
ATOM     12  O   UNL     1      -7.318  72.369  25.026  1.00  0.00    -0.294 OA
BRANCH  11  13
ATOM     13  C   UNL     1      -9.047  73.825  24.285  1.00  0.00    -0.002 C 
ATOM     14  C   UNL     1      -9.839  73.835  25.399  1.00  0.00    -0.069 C 
ATOM     15  C   UNL     1      -9.844  72.674  26.368  1.00  0.00     0.039 C 
ATOM     16  C   UNL     1     -10.746  75.002  25.728  1.00  0.00     0.039 C 
BRANCH  13  17
ATOM     17  C   UNL     1      -9.076  74.957  23.270  1.00  0.00     0.066 CG0
ATOM     18  G   UNL     1     -10.174  74.780  22.240  1.00  0.00     0.000 G0
ENDBRANCH  13  17
ENDBRANCH  11  13
ENDBRANCH  10  11
ENDBRANCH   1  10
TORSDOF 0
ENDMDL
MODEL 4
REMARK VINA RESULT:    -3.516      1.352      3.996
REMARK INTER + INTRA:          -4.815
REMARK INTER:                  -6.017
REMARK INTRA:                   1.202
REMARK UNBOUND:                 0.140
REMARK SMILES CC1=CCC(=C(C)C)C(=O)CC(C)=CCC1
REMARK SMILES IDX 12 1 14 2 13 3 15 4 16 5 2 6 1 7 3 8 11 10 9 11 10 12 5 13
REMARK SMILES IDX 6 14 7 15 8 16 4 17
REMARK H PARENT
REMARK Flexibility Score: 60.00
ROOT
ATOM      1  C   UNL     1     -10.331  73.845  26.134  1.00  0.00    -0.070 C 
ATOM      2  C   UNL     1      -9.331  72.952  26.303  1.00  0.00    -0.027 C 
ATOM      3  C   UNL     1     -11.357  73.971  27.231  1.00  0.00     0.039 C 
ENDROOT
BRANCH   2   4
ATOM      4  C   UNL     1      -8.161  72.750  25.365  1.00  0.00     0.032 C 
BRANCH   4   5
ATOM      5  C   UNL     1      -8.385  71.689  24.267  1.00  0.00     0.034 C 
BRANCH   5   6
ATOM      6  C   UNL     1      -7.541  71.923  23.029  1.00  0.00    -0.077 C 
ATOM      7  C   UNL     1      -6.704  70.775  22.522  1.00  0.00     0.039 C 
ATOM      8  C   UNL     1      -7.543  73.073  22.308  1.00  0.00    -0.023 CG0
ATOM      9  G   UNL     1      -8.284  74.354  22.633  1.00  0.00     0.000 G0
ENDBRANCH   5   6
ENDBRANCH   4   5
ENDBRANCH   2   4
BRANCH   1  10
ATOM     10  C   UNL     1     -10.418  74.783  24.947  1.00  0.00     0.111 C 
BRANCH  10  11
ATOM     11  C   UNL     1     -10.615  74.031  23.658  1.00  0.00     0.163 C 
ATOM     12  O   UNL     1     -11.556  73.195  23.596  1.00  0.00    -0.294 OA
BRANCH  11  13
ATOM     13  C   UNL     1      -9.783  74.287  22.446  1.00  0.00    -0.002 C 
ATOM     14  C   UNL     1     -10.368  74.519  21.232  1.00  0.00    -0.069 C 
ATOM     15  C   UNL     1     -11.862  74.370  21.040  1.00  0.00     0.039 C 
ATOM     16  C   UNL     1      -9.563  74.938  20.021  1.00  0.00     0.039 C 
BRANCH  13  17
ATOM     17  C   UNL     1      -8.278  74.373  22.640  1.00  0.00     0.066 CG0
ATOM     18  G   UNL     1      -7.577  73.074  22.295  1.00  0.00     0.000 G0
ENDBRANCH  13  17
ENDBRANCH  11  13
ENDBRANCH  10  11
ENDBRANCH   1  10
TORSDOF 0
ENDMDL
MODEL 5
REMARK VINA RESULT:    -3.311      2.188      4.336
REMARK INTER + INTRA:          -4.526
REMARK INTER:                  -5.056
REMARK INTRA:                   0.530
REMARK UNBOUND:                 0.140
REMARK SMILES CC1=CCC(=C(C)C)C(=O)CC(C)=CCC1
REMARK SMILES IDX 12 1 14 2 13 3 15 4 16 5 2 6 1 7 3 8 11 10 9 11 10 12 5 13
REMARK SMILES IDX 6 14 7 15 8 16 4 17
REMARK H PARENT
REMARK Flexibility Score: 60.00
ROOT
ATOM      1  C   UNL     1      -4.519  72.370  21.827  1.00  0.00    -0.070 C 
ATOM      2  C   UNL     1      -4.297  71.692  22.975  1.00  0.00    -0.027 C 
ATOM      3  C   UNL     1      -3.888  71.843  20.564  1.00  0.00     0.039 C 
ENDROOT
BRANCH   2   4
ATOM      4  C   UNL     1      -4.917  72.005  24.319  1.00  0.00     0.032 C 
BRANCH   4   5
ATOM      5  C   UNL     1      -5.802  70.882  24.902  1.00  0.00     0.034 C 
BRANCH   5   6
ATOM      6  C   UNL     1      -6.834  70.364  23.918  1.00  0.00    -0.077 C 
ATOM      7  C   UNL     1      -6.814  68.892  23.590  1.00  0.00     0.039 C 
ATOM      8  C   UNL     1      -7.816  71.123  23.369  1.00  0.00    -0.023 CG0
ATOM      9  G   UNL     1      -8.020  72.615  23.538  1.00  0.00     0.000 G0
ENDBRANCH   5   6
ENDBRANCH   4   5
ENDBRANCH   2   4
BRANCH   1  10
ATOM     10  C   UNL     1      -5.439  73.570  21.735  1.00  0.00     0.111 C 
BRANCH  10  11
ATOM     11  C   UNL     1      -6.828  73.176  21.310  1.00  0.00     0.163 C 
ATOM     12  O   UNL     1      -6.971  72.625  20.185  1.00  0.00    -0.294 OA
BRANCH  11  13
ATOM     13  C   UNL     1      -8.017  73.354  22.194  1.00  0.00    -0.002 C 
ATOM     14  C   UNL     1      -9.097  74.082  21.776  1.00  0.00    -0.069 C 
ATOM     15  C   UNL     1      -9.064  74.856  20.477  1.00  0.00     0.039 C 
ATOM     16  C   UNL     1     -10.377  74.151  22.580  1.00  0.00     0.039 C 
BRANCH  13  17
ATOM     17  C   UNL     1      -8.011  72.620  23.526  1.00  0.00     0.066 CG0
ATOM     18  G   UNL     1      -7.803  71.128  23.360  1.00  0.00     0.000 G0
ENDBRANCH  13  17
ENDBRANCH  11  13
ENDBRANCH  10  11
ENDBRANCH   1  10
TORSDOF 0
ENDMDL
MODEL 6
REMARK VINA RESULT:    -3.112     11.111     13.939
REMARK INTER + INTRA:          -4.246
REMARK INTER:                  -4.659
REMARK INTRA:                   0.413
REMARK UNBOUND:                 0.140
REMARK SMILES CC1=CCC(=C(C)C)C(=O)CC(C)=CCC1
REMARK SMILES IDX 12 1 14 2 13 3 15 4 16 5 2 6 1 7 3 8 11 10 9 11 10 12 5 13
REMARK SMILES IDX 6 14 7 15 8 16 4 17
REMARK H PARENT
REMARK Flexibility Score: 60.00
ROOT
ATOM      1  C   UNL     1      -3.920  68.985  35.319  1.00  0.00    -0.070 C 
ATOM      2  C   UNL     1      -4.542  70.027  35.915  1.00  0.00    -0.027 C 
ATOM      3  C   UNL     1      -2.983  69.283  34.177  1.00  0.00     0.039 C 
ENDROOT
BRANCH   2   4
ATOM      4  C   UNL     1      -5.439  69.942  37.131  1.00  0.00     0.032 C 
BRANCH   4   5
ATOM      5  C   UNL     1      -6.948  70.061  36.832  1.00  0.00     0.034 C 
BRANCH   5   6
ATOM      6  C   UNL     1      -7.645  68.717  36.732  1.00  0.00    -0.077 C 
ATOM      7  C   UNL     1      -8.358  68.203  37.958  1.00  0.00     0.039 C 
ATOM      8  C   UNL     1      -7.728  67.981  35.596  1.00  0.00    -0.023 CG0
ATOM      9  G   UNL     1      -7.080  68.286  34.260  1.00  0.00     0.000 G0
ENDBRANCH   5   6
ENDBRANCH   4   5
ENDBRANCH   2   4
BRANCH   1  10
ATOM     10  C   UNL     1      -4.049  67.554  35.800  1.00  0.00     0.111 C 
BRANCH  10  11
ATOM     11  C   UNL     1      -5.152  66.823  35.081  1.00  0.00     0.163 C 
ATOM     12  O   UNL     1      -5.490  65.688  35.511  1.00  0.00    -0.294 OA
BRANCH  11  13
ATOM     13  C   UNL     1      -5.890  67.420  33.930  1.00  0.00    -0.002 C 
ATOM     14  C   UNL     1      -5.536  67.125  32.643  1.00  0.00    -0.069 C 
ATOM     15  C   UNL     1      -4.296  66.314  32.337  1.00  0.00     0.039 C 
ATOM     16  C   UNL     1      -6.359  67.585  31.459  1.00  0.00     0.039 C 
BRANCH  13  17
ATOM     17  C   UNL     1      -7.099  68.285  34.251  1.00  0.00     0.066 CG0
ATOM     18  G   UNL     1      -7.702  67.954  35.601  1.00  0.00     0.000 G0
ENDBRANCH  13  17
ENDBRANCH  11  13
ENDBRANCH  10  11
ENDBRANCH   1  10
TORSDOF 0
ENDMDL
MODEL 7
REMARK VINA RESULT:    -2.956      2.435      4.381
REMARK INTER + INTRA:          -4.026
REMARK INTER:                  -4.267
REMARK INTRA:                   0.241
REMARK UNBOUND:                 0.140
REMARK SMILES CC1=CCC(=C(C)C)C(=O)CC(C)=CCC1
REMARK SMILES IDX 12 1 14 2 13 3 15 4 16 5 2 6 1 7 3 8 11 10 9 11 10 12 5 13
REMARK SMILES IDX 6 14 7 15 8 16 4 17
REMARK H PARENT
REMARK Flexibility Score: 60.00
ROOT
ATOM      1  C   UNL     1      -8.600  73.147  23.984  1.00  0.00    -0.070 C 
ATOM      2  C   UNL     1      -8.684  73.917  22.877  1.00  0.00    -0.027 C 
ATOM      3  C   UNL     1      -9.877  72.828  24.720  1.00  0.00     0.039 C 
ENDROOT
BRANCH   2   4
ATOM      4  C   UNL     1      -7.537  74.266  21.955  1.00  0.00     0.032 C 
BRANCH   4   5
ATOM      5  C   UNL     1      -7.112  73.135  20.994  1.00  0.00     0.034 C 
BRANCH   5   6
ATOM      6  C   UNL     1      -5.607  72.958  20.907  1.00  0.00    -0.077 C 
ATOM      7  C   UNL     1      -4.796  74.109  20.368  1.00  0.00     0.039 C 
ATOM      8  C   UNL     1      -4.940  71.863  21.347  1.00  0.00    -0.023 CG0
ATOM      9  G   UNL     1      -5.541  70.588  21.905  1.00  0.00     0.000 G0
ENDBRANCH   5   6
ENDBRANCH   4   5
ENDBRANCH   2   4
BRANCH   1  10
ATOM     10  C   UNL     1      -7.308  72.519  24.465  1.00  0.00     0.111 C 
BRANCH  10  11
ATOM     11  C   UNL     1      -7.102  71.149  23.874  1.00  0.00     0.163 C 
ATOM     12  O   UNL     1      -8.112  70.413  23.716  1.00  0.00    -0.294 OA
BRANCH  11  13
ATOM     13  C   UNL     1      -5.765  70.667  23.416  1.00  0.00    -0.002 C 
ATOM     14  C   UNL     1      -4.830  70.240  24.318  1.00  0.00    -0.069 C 
ATOM     15  C   UNL     1      -5.053  70.385  25.807  1.00  0.00     0.039 C 
ATOM     16  C   UNL     1      -3.530  69.600  23.881  1.00  0.00     0.039 C 
BRANCH  13  17
ATOM     17  C   UNL     1      -5.531  70.585  21.917  1.00  0.00     0.066 CG0
ATOM     18  G   UNL     1      -4.950  71.867  21.353  1.00  0.00     0.000 G0
ENDBRANCH  13  17
ENDBRANCH  11  13
ENDBRANCH  10  11
ENDBRANCH   1  10
TORSDOF 0
ENDMDL
MODEL 8
REMARK VINA RESULT:    -2.887     12.223     14.803
REMARK INTER + INTRA:          -3.929
REMARK INTER:                  -4.404
REMARK INTRA:                   0.475
REMARK UNBOUND:                 0.140
REMARK SMILES CC1=CCC(=C(C)C)C(=O)CC(C)=CCC1
REMARK SMILES IDX 12 1 14 2 13 3 15 4 16 5 2 6 1 7 3 8 11 10 9 11 10 12 5 13
REMARK SMILES IDX 6 14 7 15 8 16 4 17
REMARK H PARENT
REMARK Flexibility Score: 60.00
ROOT
ATOM      1  C   UNL     1      -5.714  68.624  38.514  1.00  0.00    -0.070 C 
ATOM      2  C   UNL     1      -6.986  68.341  38.874  1.00  0.00    -0.027 C 
ATOM      3  C   UNL     1      -4.880  69.448  39.461  1.00  0.00     0.039 C 
ENDROOT
BRANCH   2   4
ATOM      4  C   UNL     1      -7.944  67.454  38.110  1.00  0.00     0.032 C 
BRANCH   4   5
ATOM      5  C   UNL     1      -9.227  68.157  37.619  1.00  0.00     0.034 C 
BRANCH   5   6
ATOM      6  C   UNL     1      -8.949  69.420  36.825  1.00  0.00    -0.077 C 
ATOM      7  C   UNL     1      -9.435  70.729  37.397  1.00  0.00     0.039 C 
ATOM      8  C   UNL     1      -8.234  69.458  35.673  1.00  0.00    -0.023 CG0
ATOM      9  G   UNL     1      -7.667  68.277  34.911  1.00  0.00     0.000 G0
ENDBRANCH   5   6
ENDBRANCH   4   5
ENDBRANCH   2   4
BRANCH   1  10
ATOM     10  C   UNL     1      -5.065  68.080  37.258  1.00  0.00     0.111 C 
BRANCH  10  11
ATOM     11  C   UNL     1      -5.434  68.893  36.045  1.00  0.00     0.163 C 
ATOM     12  O   UNL     1      -5.084  70.103  36.011  1.00  0.00    -0.294 OA
BRANCH  11  13
ATOM     13  C   UNL     1      -6.137  68.301  34.868  1.00  0.00    -0.002 C 
ATOM     14  C   UNL     1      -5.430  67.719  33.852  1.00  0.00    -0.069 C 
ATOM     15  C   UNL     1      -3.920  67.790  33.806  1.00  0.00     0.039 C 
ATOM     16  C   UNL     1      -6.113  66.972  32.727  1.00  0.00     0.039 C 
BRANCH  13  17
ATOM     17  C   UNL     1      -7.657  68.290  34.897  1.00  0.00     0.066 CG0
ATOM     18  G   UNL     1      -8.226  69.461  35.673  1.00  0.00     0.000 G0
ENDBRANCH  13  17
ENDBRANCH  11  13
ENDBRANCH  10  11
ENDBRANCH   1  10
TORSDOF 0
ENDMDL
MODEL 9
REMARK VINA RESULT:    -2.797      4.965      6.943
REMARK INTER + INTRA:          -3.802
REMARK INTER:                  -4.051
REMARK INTRA:                   0.250
REMARK UNBOUND:                 0.140
REMARK SMILES CC1=CCC(=C(C)C)C(=O)CC(C)=CCC1
REMARK SMILES IDX 12 1 14 2 13 3 15 4 16 5 2 6 1 7 3 8 11 10 9 11 10 12 5 13
REMARK SMILES IDX 6 14 7 15 8 16 4 17
REMARK H PARENT
REMARK Flexibility Score: 60.00
ROOT
ATOM      1  C   UNL     1      -6.067  67.627  23.806  1.00  0.00    -0.070 C 
ATOM      2  C   UNL     1      -6.850  68.559  23.221  1.00  0.00    -0.027 C 
ATOM      3  C   UNL     1      -6.724  66.635  24.733  1.00  0.00     0.039 C 
ENDROOT
BRANCH   2   4
ATOM      4  C   UNL     1      -6.398  69.573  22.193  1.00  0.00     0.032 C 
BRANCH   4   5
ATOM      5  C   UNL     1      -5.383  70.614  22.712  1.00  0.00     0.034 C 
BRANCH   5   6
ATOM      6  C   UNL     1      -5.746  71.173  24.075  1.00  0.00    -0.077 C 
ATOM      7  C   UNL     1      -6.996  72.011  24.180  1.00  0.00     0.039 C 
ATOM      8  C   UNL     1      -5.060  70.913  25.216  1.00  0.00    -0.023 CG0
ATOM      9  G   UNL     1      -3.776  70.119  25.349  1.00  0.00     0.000 G0
ENDBRANCH   5   6
ENDBRANCH   4   5
ENDBRANCH   2   4
BRANCH   1  10
ATOM     10  C   UNL     1      -4.590  67.474  23.507  1.00  0.00     0.111 C 
BRANCH  10  11
ATOM     11  C   UNL     1      -3.753  67.624  24.750  1.00  0.00     0.163 C 
ATOM     12  O   UNL     1      -2.762  66.858  24.894  1.00  0.00    -0.294 OA
BRANCH  11  13
ATOM     13  C   UNL     1      -4.017  68.680  25.771  1.00  0.00    -0.002 C 
ATOM     14  C   UNL     1      -4.385  68.345  27.044  1.00  0.00    -0.069 C 
ATOM     15  C   UNL     1      -4.687  66.911  27.422  1.00  0.00     0.039 C 
ATOM     16  C   UNL     1      -4.506  69.380  28.142  1.00  0.00     0.039 C 
BRANCH  13  17
ATOM     17  C   UNL     1      -3.769  70.123  25.361  1.00  0.00     0.066 CG0
ATOM     18  G   UNL     1      -5.056  70.914  25.231  1.00  0.00     0.000 G0
ENDBRANCH  13  17
ENDBRANCH  11  13
ENDBRANCH  10  11
ENDBRANCH   1  10
TORSDOF 0
ENDMDL
