MODEL 1
REMARK VINA RESULT:    -5.504      0.000      0.000
REMARK INTER + INTRA:          -7.015
REMARK INTER:                  -6.791
REMARK INTRA:                  -0.224
REMARK UNBOUND:                -0.224
REMARK SMILES O=c1c(O)c(-c2cc(O)c(O)c(O)c2)oc2cc(O)cc(O)c12
REMARK SMILES IDX 5 1 3 2 2 3 1 4 23 5 21 6 20 7 18 8 17 9 16 10 15 11 6 12
REMARK SMILES IDX 7 13 8 14 14 15 10 16 12 17 9 18 11 20 13 22 4 24 22 26
REMARK SMILES IDX 19 28
REMARK H PARENT 9 19 11 21 13 23 4 25 22 27 19 29
REMARK Flexibility Score: inf
ROOT
ATOM      1  C   UNL     1      11.834  36.522   5.804  1.00  0.00     0.180 A 
ATOM      2  C   UNL     1      12.402  37.753   6.177  1.00  0.00     0.208 A 
ATOM      3  C   UNL     1      13.741  37.784   6.602  1.00  0.00     0.238 A 
ATOM      4  O   UNL     1      14.227  38.880   6.986  1.00  0.00    -0.285 OA
ATOM      5  C   UNL     1      14.498  36.589   6.632  1.00  0.00     0.111 A 
ATOM      6  C   UNL     1      15.873  36.510   7.007  1.00  0.00     0.134 A 
ATOM      7  C   UNL     1      16.486  35.256   7.126  1.00  0.00     0.093 A 
ATOM      8  C   UNL     1      15.793  34.085   6.823  1.00  0.00     0.123 A 
ATOM      9  C   UNL     1      14.466  34.154   6.398  1.00  0.00     0.094 A 
ATOM     10  C   UNL     1      13.817  35.388   6.304  1.00  0.00     0.146 A 
ATOM     11  O   UNL     1      12.551  35.409   5.906  1.00  0.00    -0.452 OA
ENDROOT
BRANCH   1  12
ATOM     12  C   UNL     1      10.438  36.414   5.323  1.00  0.00     0.029 A 
ATOM     13  C   UNL     1       9.517  35.643   6.047  1.00  0.00     0.062 A 
ATOM     14  C   UNL     1       8.197  35.506   5.605  1.00  0.00     0.162 A 
ATOM     15  C   UNL     1      10.029  37.020   4.123  1.00  0.00     0.062 A 
ATOM     16  C   UNL     1       7.786  36.131   4.416  1.00  0.00     0.200 A 
ATOM     17  C   UNL     1       8.709  36.886   3.671  1.00  0.00     0.162 A 
BRANCH  14  18
ATOM     18  O   UNL     1       7.307  34.742   6.362  1.00  0.00    -0.504 OA
ATOM     19  H   UNL     1       7.623  34.020   6.998  1.00  0.00     0.293 HD
ENDBRANCH  14  18
BRANCH  16  20
ATOM     20  O   UNL     1       6.467  35.992   3.983  1.00  0.00    -0.502 OA
ATOM     21  H   UNL     1       5.899  35.191   4.229  1.00  0.00     0.293 HD
ENDBRANCH  16  20
BRANCH  17  22
ATOM     22  O   UNL     1       8.312  37.498   2.483  1.00  0.00    -0.504 OA
ATOM     23  H   UNL     1       7.722  38.322   2.481  1.00  0.00     0.293 HD
ENDBRANCH  17  22
ENDBRANCH   1  12
BRANCH   2  24
ATOM     24  O   UNL     1      11.630  38.918   6.161  1.00  0.00    -0.502 OA
ATOM     25  H   UNL     1      11.102  39.233   6.966  1.00  0.00     0.293 HD
ENDBRANCH   2  24
BRANCH   6  26
ATOM     26  O   UNL     1      16.683  37.625   7.244  1.00  0.00    -0.507 OA
ATOM     27  H   UNL     1      17.580  37.787   6.810  1.00  0.00     0.293 HD
ENDBRANCH   6  26
BRANCH   8  28
ATOM     28  O   UNL     1      16.439  32.855   6.937  1.00  0.00    -0.508 OA
ATOM     29  H   UNL     1      16.511  32.375   7.827  1.00  0.00     0.293 HD
ENDBRANCH   8  28
TORSDOF 7
ENDMDL
MODEL 2
REMARK VINA RESULT:    -5.361      7.867      9.453
REMARK INTER + INTRA:          -6.839
REMARK INTER:                  -6.969
REMARK INTRA:                   0.131
REMARK UNBOUND:                -0.224
REMARK SMILES O=c1c(O)c(-c2cc(O)c(O)c(O)c2)oc2cc(O)cc(O)c12
REMARK SMILES IDX 5 1 3 2 2 3 1 4 23 5 21 6 20 7 18 8 17 9 16 10 15 11 6 12
REMARK SMILES IDX 7 13 8 14 14 15 10 16 12 17 9 18 11 20 13 22 4 24 22 26
REMARK SMILES IDX 19 28
REMARK H PARENT 9 19 11 21 13 23 4 25 22 27 19 29
REMARK Flexibility Score: inf
ROOT
ATOM      1  C   UNL     1       8.648  27.798   5.923  1.00  0.00     0.180 A 
ATOM      2  C   UNL     1       9.289  29.049   5.901  1.00  0.00     0.208 A 
ATOM      3  C   UNL     1      10.663  29.106   5.613  1.00  0.00     0.238 A 
ATOM      4  O   UNL     1      11.242  30.223   5.648  1.00  0.00    -0.285 OA
ATOM      5  C   UNL     1      11.373  27.914   5.335  1.00  0.00     0.111 A 
ATOM      6  C   UNL     1      12.758  27.857   4.992  1.00  0.00     0.134 A 
ATOM      7  C   UNL     1      13.388  26.613   4.866  1.00  0.00     0.093 A 
ATOM      8  C   UNL     1      12.671  25.425   5.007  1.00  0.00     0.123 A 
ATOM      9  C   UNL     1      11.305  25.469   5.283  1.00  0.00     0.094 A 
ATOM     10  C   UNL     1      10.655  26.695   5.450  1.00  0.00     0.146 A 
ATOM     11  O   UNL     1       9.357  26.692   5.723  1.00  0.00    -0.452 OA
ENDROOT
BRANCH   1  12
ATOM     12  C   UNL     1       7.199  27.661   6.194  1.00  0.00     0.029 A 
ATOM     13  C   UNL     1       6.730  26.533   6.884  1.00  0.00     0.062 A 
ATOM     14  C   UNL     1       5.364  26.367   7.135  1.00  0.00     0.162 A 
ATOM     15  C   UNL     1       6.274  28.608   5.722  1.00  0.00     0.062 A 
ATOM     16  C   UNL     1       4.444  27.327   6.681  1.00  0.00     0.200 A 
ATOM     17  C   UNL     1       4.904  28.449   5.968  1.00  0.00     0.162 A 
BRANCH  14  18
ATOM     18  O   UNL     1       4.939  25.239   7.839  1.00  0.00    -0.504 OA
ATOM     19  H   UNL     1       5.580  24.507   8.120  1.00  0.00     0.293 HD
ENDBRANCH  14  18
BRANCH  16  20
ATOM     20  O   UNL     1       3.084  27.156   6.938  1.00  0.00    -0.502 OA
ATOM     21  H   UNL     1       2.698  26.270   7.240  1.00  0.00     0.293 HD
ENDBRANCH  16  20
BRANCH  17  22
ATOM     22  O   UNL     1       3.995  29.399   5.502  1.00  0.00    -0.504 OA
ATOM     23  H   UNL     1       3.970  29.677   4.528  1.00  0.00     0.293 HD
ENDBRANCH  17  22
ENDBRANCH   1  12
BRANCH   2  24
ATOM     24  O   UNL     1       8.573  30.211   6.199  1.00  0.00    -0.502 OA
ATOM     25  H   UNL     1       8.111  30.764   5.488  1.00  0.00     0.293 HD
ENDBRANCH   2  24
BRANCH   6  26
ATOM     26  O   UNL     1      13.546  28.984   4.740  1.00  0.00    -0.507 OA
ATOM     27  H   UNL     1      14.543  29.033   4.888  1.00  0.00     0.293 HD
ENDBRANCH   6  26
BRANCH   8  28
ATOM     28  O   UNL     1      13.327  24.204   4.859  1.00  0.00    -0.508 OA
ATOM     29  H   UNL     1      12.823  23.356   4.628  1.00  0.00     0.293 HD
ENDBRANCH   8  28
TORSDOF 7
ENDMDL
MODEL 3
REMARK VINA RESULT:    -5.346      2.832      4.658
REMARK INTER + INTRA:          -6.820
REMARK INTER:                  -6.454
REMARK INTRA:                  -0.366
REMARK UNBOUND:                -0.224
REMARK SMILES O=c1c(O)c(-c2cc(O)c(O)c(O)c2)oc2cc(O)cc(O)c12
REMARK SMILES IDX 5 1 3 2 2 3 1 4 23 5 21 6 20 7 18 8 17 9 16 10 15 11 6 12
REMARK SMILES IDX 7 13 8 14 14 15 10 16 12 17 9 18 11 20 13 22 4 24 22 26
REMARK SMILES IDX 19 28
REMARK H PARENT 9 19 11 21 13 23 4 25 22 27 19 29
REMARK Flexibility Score: inf
ROOT
ATOM      1  C   UNL     1      14.423  37.331   6.427  1.00  0.00     0.180 A 
ATOM      2  C   UNL     1      14.464  36.052   7.009  1.00  0.00     0.208 A 
ATOM      3  C   UNL     1      15.628  35.277   6.868  1.00  0.00     0.238 A 
ATOM      4  O   UNL     1      15.639  34.112   7.344  1.00  0.00    -0.285 OA
ATOM      5  C   UNL     1      16.739  35.798   6.164  1.00  0.00     0.111 A 
ATOM      6  C   UNL     1      17.983  35.117   5.994  1.00  0.00     0.134 A 
ATOM      7  C   UNL     1      18.967  35.673   5.167  1.00  0.00     0.093 A 
ATOM      8  C   UNL     1      18.779  36.912   4.557  1.00  0.00     0.123 A 
ATOM      9  C   UNL     1      17.592  37.614   4.764  1.00  0.00     0.094 A 
ATOM     10  C   UNL     1      16.576  37.070   5.554  1.00  0.00     0.146 A 
ATOM     11  O   UNL     1      15.458  37.765   5.717  1.00  0.00    -0.452 OA
ENDROOT
BRANCH   1  12
ATOM     12  C   UNL     1      13.241  38.215   6.554  1.00  0.00     0.029 A 
ATOM     13  C   UNL     1      12.290  38.247   5.523  1.00  0.00     0.062 A 
ATOM     14  C   UNL     1      11.175  39.087   5.606  1.00  0.00     0.162 A 
ATOM     15  C   UNL     1      13.081  39.068   7.659  1.00  0.00     0.062 A 
ATOM     16  C   UNL     1      11.007  39.923   6.723  1.00  0.00     0.200 A 
ATOM     17  C   UNL     1      11.968  39.914   7.750  1.00  0.00     0.162 A 
BRANCH  14  18
ATOM     18  O   UNL     1      10.245  39.078   4.567  1.00  0.00    -0.504 OA
ATOM     19  H   UNL     1      10.388  39.599   3.710  1.00  0.00     0.293 HD
ENDBRANCH  14  18
BRANCH  16  20
ATOM     20  O   UNL     1       9.891  40.756   6.800  1.00  0.00    -0.502 OA
ATOM     21  H   UNL     1       8.955  40.394   6.930  1.00  0.00     0.293 HD
ENDBRANCH  16  20
BRANCH  17  22
ATOM     22  O   UNL     1      11.815  40.751   8.855  1.00  0.00    -0.504 OA
ATOM     23  H   UNL     1      11.000  41.344   8.963  1.00  0.00     0.293 HD
ENDBRANCH  17  22
ENDBRANCH   1  12
BRANCH   2  24
ATOM     24  O   UNL     1      13.348  35.549   7.681  1.00  0.00    -0.502 OA
ATOM     25  H   UNL     1      12.411  35.898   7.519  1.00  0.00     0.293 HD
ENDBRANCH   2  24
BRANCH   6  26
ATOM     26  O   UNL     1      18.309  33.917   6.632  1.00  0.00    -0.507 OA
ATOM     27  H   UNL     1      18.999  33.260   6.302  1.00  0.00     0.293 HD
ENDBRANCH   6  26
BRANCH   8  28
ATOM     28  O   UNL     1      19.787  37.443   3.753  1.00  0.00    -0.508 OA
ATOM     29  H   UNL     1      19.698  38.357   3.326  1.00  0.00     0.293 HD
ENDBRANCH   8  28
TORSDOF 7
ENDMDL
MODEL 4
REMARK VINA RESULT:    -5.340      9.753     13.192
REMARK INTER + INTRA:          -6.813
REMARK INTER:                  -6.644
REMARK INTRA:                  -0.169
REMARK UNBOUND:                -0.224
REMARK SMILES O=c1c(O)c(-c2cc(O)c(O)c(O)c2)oc2cc(O)cc(O)c12
REMARK SMILES IDX 5 1 3 2 2 3 1 4 23 5 21 6 20 7 18 8 17 9 16 10 15 11 6 12
REMARK SMILES IDX 7 13 8 14 14 15 10 16 12 17 9 18 11 20 13 22 4 24 22 26
REMARK SMILES IDX 19 28
REMARK H PARENT 9 19 11 21 13 23 4 25 22 27 19 29
REMARK Flexibility Score: inf
ROOT
ATOM      1  C   UNL     1       9.479  25.171   5.544  1.00  0.00     0.180 A 
ATOM      2  C   UNL     1       8.935  23.927   5.909  1.00  0.00     0.208 A 
ATOM      3  C   UNL     1       7.607  23.872   6.366  1.00  0.00     0.238 A 
ATOM      4  O   UNL     1       7.144  22.765   6.742  1.00  0.00    -0.285 OA
ATOM      5  C   UNL     1       6.837  25.057   6.434  1.00  0.00     0.111 A 
ATOM      6  C   UNL     1       5.470  25.113   6.843  1.00  0.00     0.134 A 
ATOM      7  C   UNL     1       4.846  26.357   6.999  1.00  0.00     0.093 A 
ATOM      8  C   UNL     1       5.517  27.542   6.699  1.00  0.00     0.123 A 
ATOM      9  C   UNL     1       6.834  27.496   6.241  1.00  0.00     0.094 A 
ATOM     10  C   UNL     1       7.495  26.272   6.110  1.00  0.00     0.146 A 
ATOM     11  O   UNL     1       8.751  26.273   5.682  1.00  0.00    -0.452 OA
ENDROOT
BRANCH   1  12
ATOM     12  C   UNL     1      10.862  25.304   5.031  1.00  0.00     0.029 A 
ATOM     13  C   UNL     1      11.761  26.157   5.688  1.00  0.00     0.062 A 
ATOM     14  C   UNL     1      13.067  26.319   5.213  1.00  0.00     0.162 A 
ATOM     15  C   UNL     1      11.277  24.640   3.864  1.00  0.00     0.062 A 
ATOM     16  C   UNL     1      13.485  25.636   4.059  1.00  0.00     0.200 A 
ATOM     17  C   UNL     1      12.582  24.798   3.381  1.00  0.00     0.162 A 
BRANCH  14  18
ATOM     18  O   UNL     1      13.936  27.165   5.904  1.00  0.00    -0.504 OA
ATOM     19  H   UNL     1      14.665  26.810   6.510  1.00  0.00     0.293 HD
ENDBRANCH  14  18
BRANCH  16  20
ATOM     20  O   UNL     1      14.790  25.801   3.594  1.00  0.00    -0.502 OA
ATOM     21  H   UNL     1      15.478  26.346   4.098  1.00  0.00     0.293 HD
ENDBRANCH  16  20
BRANCH  17  22
ATOM     22  O   UNL     1      12.986  24.128   2.227  1.00  0.00    -0.504 OA
ATOM     23  H   UNL     1      12.640  24.392   1.311  1.00  0.00     0.293 HD
ENDBRANCH  17  22
ENDBRANCH   1  12
BRANCH   2  24
ATOM     24  O   UNL     1       9.720  22.772   5.855  1.00  0.00    -0.502 OA
ATOM     25  H   UNL     1      10.387  22.533   6.578  1.00  0.00     0.293 HD
ENDBRANCH   2  24
BRANCH   6  26
ATOM     26  O   UNL     1       4.680  23.984   7.080  1.00  0.00    -0.507 OA
ATOM     27  H   UNL     1       3.984  23.912   7.808  1.00  0.00     0.293 HD
ENDBRANCH   6  26
BRANCH   8  28
ATOM     28  O   UNL     1       4.859  28.761   6.849  1.00  0.00    -0.508 OA
ATOM     29  H   UNL     1       3.849  28.814   6.915  1.00  0.00     0.293 HD
ENDBRANCH   8  28
TORSDOF 7
ENDMDL
MODEL 5
REMARK VINA RESULT:    -5.312      1.801      2.682
REMARK INTER + INTRA:          -6.778
REMARK INTER:                  -6.673
REMARK INTRA:                  -0.105
REMARK UNBOUND:                -0.224
REMARK SMILES O=c1c(O)c(-c2cc(O)c(O)c(O)c2)oc2cc(O)cc(O)c12
REMARK SMILES IDX 5 1 3 2 2 3 1 4 23 5 21 6 20 7 18 8 17 9 16 10 15 11 6 12
REMARK SMILES IDX 7 13 8 14 14 15 10 16 12 17 9 18 11 20 13 22 4 24 22 26
REMARK SMILES IDX 19 28
REMARK H PARENT 9 19 11 21 13 23 4 25 22 27 19 29
REMARK Flexibility Score: inf
ROOT
ATOM      1  C   UNL     1      13.255  35.318   6.197  1.00  0.00     0.180 A 
ATOM      2  C   UNL     1      14.130  35.861   7.154  1.00  0.00     0.208 A 
ATOM      3  C   UNL     1      15.442  35.367   7.237  1.00  0.00     0.238 A 
ATOM      4  O   UNL     1      16.203  35.820   8.131  1.00  0.00    -0.285 OA
ATOM      5  C   UNL     1      15.868  34.350   6.350  1.00  0.00     0.111 A 
ATOM      6  C   UNL     1      17.186  33.802   6.317  1.00  0.00     0.134 A 
ATOM      7  C   UNL     1      17.459  32.708   5.487  1.00  0.00     0.093 A 
ATOM      8  C   UNL     1      16.482  32.183   4.643  1.00  0.00     0.123 A 
ATOM      9  C   UNL     1      15.207  32.748   4.623  1.00  0.00     0.094 A 
ATOM     10  C   UNL     1      14.893  33.818   5.466  1.00  0.00     0.146 A 
ATOM     11  O   UNL     1      13.665  34.318   5.424  1.00  0.00    -0.452 OA
ENDROOT
BRANCH   1  12
ATOM     12  C   UNL     1      11.866  35.804   6.034  1.00  0.00     0.029 A 
ATOM     13  C   UNL     1      10.809  34.882   6.037  1.00  0.00     0.062 A 
ATOM     14  C   UNL     1       9.488  35.311   5.864  1.00  0.00     0.162 A 
ATOM     15  C   UNL     1      11.588  37.165   5.818  1.00  0.00     0.062 A 
ATOM     16  C   UNL     1       9.212  36.675   5.670  1.00  0.00     0.200 A 
ATOM     17  C   UNL     1      10.269  37.602   5.643  1.00  0.00     0.162 A 
BRANCH  14  18
ATOM     18  O   UNL     1       8.463  34.365   5.887  1.00  0.00    -0.504 OA
ATOM     19  H   UNL     1       7.845  34.220   5.099  1.00  0.00     0.293 HD
ENDBRANCH  14  18
BRANCH  16  20
ATOM     20  O   UNL     1       7.892  37.095   5.502  1.00  0.00    -0.502 OA
ATOM     21  H   UNL     1       7.620  37.741   4.771  1.00  0.00     0.293 HD
ENDBRANCH  16  20
BRANCH  17  22
ATOM     22  O   UNL     1      10.003  38.956   5.437  1.00  0.00    -0.504 OA
ATOM     23  H   UNL     1       9.951  39.610   6.209  1.00  0.00     0.293 HD
ENDBRANCH  17  22
ENDBRANCH   1  12
BRANCH   2  24
ATOM     24  O   UNL     1      13.682  36.851   8.034  1.00  0.00    -0.502 OA
ATOM     25  H   UNL     1      12.845  37.394   7.863  1.00  0.00     0.293 HD
ENDBRANCH   2  24
BRANCH   6  26
ATOM     26  O   UNL     1      18.261  34.311   7.053  1.00  0.00    -0.507 OA
ATOM     27  H   UNL     1      18.889  35.032   6.730  1.00  0.00     0.293 HD
ENDBRANCH   6  26
BRANCH   8  28
ATOM     28  O   UNL     1      16.794  31.103   3.818  1.00  0.00    -0.508 OA
ATOM     29  H   UNL     1      16.810  30.154   4.172  1.00  0.00     0.293 HD
ENDBRANCH   8  28
TORSDOF 7
ENDMDL
MODEL 6
REMARK VINA RESULT:    -5.308      1.888      7.026
REMARK INTER + INTRA:          -6.773
REMARK INTER:                  -6.898
REMARK INTRA:                   0.124
REMARK UNBOUND:                -0.224
REMARK SMILES O=c1c(O)c(-c2cc(O)c(O)c(O)c2)oc2cc(O)cc(O)c12
REMARK SMILES IDX 5 1 3 2 2 3 1 4 23 5 21 6 20 7 18 8 17 9 16 10 15 11 6 12
REMARK SMILES IDX 7 13 8 14 14 15 10 16 12 17 9 18 11 20 13 22 4 24 22 26
REMARK SMILES IDX 19 28
REMARK H PARENT 9 19 11 21 13 23 4 25 22 27 19 29
REMARK Flexibility Score: inf
ROOT
ATOM      1  C   UNL     1      12.630  35.340   6.047  1.00  0.00     0.180 A 
ATOM      2  C   UNL     1      11.404  34.705   5.787  1.00  0.00     0.208 A 
ATOM      3  C   UNL     1      10.232  35.479   5.741  1.00  0.00     0.238 A 
ATOM      4  O   UNL     1       9.130  34.897   5.562  1.00  0.00    -0.285 OA
ATOM      5  C   UNL     1      10.304  36.878   5.939  1.00  0.00     0.111 A 
ATOM      6  C   UNL     1       9.187  37.765   5.875  1.00  0.00     0.134 A 
ATOM      7  C   UNL     1       9.354  39.112   6.216  1.00  0.00     0.093 A 
ATOM      8  C   UNL     1      10.608  39.619   6.556  1.00  0.00     0.123 A 
ATOM      9  C   UNL     1      11.718  38.774   6.564  1.00  0.00     0.094 A 
ATOM     10  C   UNL     1      11.577  37.417   6.263  1.00  0.00     0.146 A 
ATOM     11  O   UNL     1      12.656  36.645   6.293  1.00  0.00    -0.452 OA
ENDROOT
BRANCH   1  12
ATOM     12  C   UNL     1      13.909  34.595   6.086  1.00  0.00     0.029 A 
ATOM     13  C   UNL     1      14.914  34.997   6.979  1.00  0.00     0.062 A 
ATOM     14  C   UNL     1      16.140  34.325   7.022  1.00  0.00     0.162 A 
ATOM     15  C   UNL     1      14.162  33.529   5.206  1.00  0.00     0.062 A 
ATOM     16  C   UNL     1      16.381  33.246   6.156  1.00  0.00     0.200 A 
ATOM     17  C   UNL     1      15.388  32.852   5.242  1.00  0.00     0.162 A 
BRANCH  14  18
ATOM     18  O   UNL     1      17.108  34.746   7.935  1.00  0.00    -0.504 OA
ATOM     19  H   UNL     1      16.880  34.981   8.893  1.00  0.00     0.293 HD
ENDBRANCH  14  18
BRANCH  16  20
ATOM     20  O   UNL     1      17.605  32.579   6.208  1.00  0.00    -0.502 OA
ATOM     21  H   UNL     1      18.194  32.594   7.032  1.00  0.00     0.293 HD
ENDBRANCH  16  20
BRANCH  17  22
ATOM     22  O   UNL     1      15.625  31.790   4.370  1.00  0.00    -0.504 OA
ATOM     23  H   UNL     1      15.502  31.887   3.369  1.00  0.00     0.293 HD
ENDBRANCH  17  22
ENDBRANCH   1  12
BRANCH   2  24
ATOM     24  O   UNL     1      11.351  33.319   5.616  1.00  0.00    -0.502 OA
ATOM     25  H   UNL     1      11.520  32.670   6.375  1.00  0.00     0.293 HD
ENDBRANCH   2  24
BRANCH   6  26
ATOM     26  O   UNL     1       7.909  37.381   5.458  1.00  0.00    -0.507 OA
ATOM     27  H   UNL     1       7.646  36.440   5.204  1.00  0.00     0.293 HD
ENDBRANCH   6  26
BRANCH   8  28
ATOM     28  O   UNL     1      10.741  40.969   6.875  1.00  0.00    -0.508 OA
ATOM     29  H   UNL     1      11.644  41.378   7.083  1.00  0.00     0.293 HD
ENDBRANCH   8  28
TORSDOF 7
ENDMDL
MODEL 7
REMARK VINA RESULT:    -5.285      9.013     10.884
REMARK INTER + INTRA:          -6.744
REMARK INTER:                  -6.392
REMARK INTRA:                  -0.353
REMARK UNBOUND:                -0.224
REMARK SMILES O=c1c(O)c(-c2cc(O)c(O)c(O)c2)oc2cc(O)cc(O)c12
REMARK SMILES IDX 5 1 3 2 2 3 1 4 23 5 21 6 20 7 18 8 17 9 16 10 15 11 6 12
REMARK SMILES IDX 7 13 8 14 14 15 10 16 12 17 9 18 11 20 13 22 4 24 22 26
REMARK SMILES IDX 19 28
REMARK H PARENT 9 19 11 21 13 23 4 25 22 27 19 29
REMARK Flexibility Score: inf
ROOT
ATOM      1  C   UNL     1       7.194  26.896   5.185  1.00  0.00     0.180 A 
ATOM      2  C   UNL     1       7.121  25.496   5.079  1.00  0.00     0.208 A 
ATOM      3  C   UNL     1       8.307  24.746   5.146  1.00  0.00     0.238 A 
ATOM      4  O   UNL     1       8.241  23.498   4.997  1.00  0.00    -0.285 OA
ATOM      5  C   UNL     1       9.546  25.403   5.335  1.00  0.00     0.111 A 
ATOM      6  C   UNL     1      10.805  24.740   5.458  1.00  0.00     0.134 A 
ATOM      7  C   UNL     1      11.982  25.497   5.511  1.00  0.00     0.093 A 
ATOM      8  C   UNL     1      11.942  26.890   5.511  1.00  0.00     0.123 A 
ATOM      9  C   UNL     1      10.714  27.549   5.451  1.00  0.00     0.094 A 
ATOM     10  C   UNL     1       9.524  26.822   5.361  1.00  0.00     0.146 A 
ATOM     11  O   UNL     1       8.378  27.487   5.296  1.00  0.00    -0.452 OA
ENDROOT
BRANCH   1  12
ATOM     12  C   UNL     1       5.985  27.751   5.148  1.00  0.00     0.029 A 
ATOM     13  C   UNL     1       5.657  28.429   3.964  1.00  0.00     0.062 A 
ATOM     14  C   UNL     1       4.533  29.261   3.906  1.00  0.00     0.162 A 
ATOM     15  C   UNL     1       5.191  27.946   6.291  1.00  0.00     0.062 A 
ATOM     16  C   UNL     1       3.730  29.436   5.045  1.00  0.00     0.200 A 
ATOM     17  C   UNL     1       4.065  28.778   6.242  1.00  0.00     0.162 A 
BRANCH  14  18
ATOM     18  O   UNL     1       4.232  29.906   2.706  1.00  0.00    -0.504 OA
ATOM     19  H   UNL     1       4.729  30.733   2.400  1.00  0.00     0.293 HD
ENDBRANCH  14  18
BRANCH  16  20
ATOM     20  O   UNL     1       2.609  30.264   4.979  1.00  0.00    -0.502 OA
ATOM     21  H   UNL     1       1.841  30.084   4.343  1.00  0.00     0.293 HD
ENDBRANCH  16  20
BRANCH  17  22
ATOM     22  O   UNL     1       3.280  28.958   7.380  1.00  0.00    -0.504 OA
ATOM     23  H   UNL     1       2.380  29.422   7.337  1.00  0.00     0.293 HD
ENDBRANCH  17  22
ENDBRANCH   1  12
BRANCH   2  24
ATOM     24  O   UNL     1       5.890  24.869   4.871  1.00  0.00    -0.502 OA
ATOM     25  H   UNL     1       5.010  25.370   4.907  1.00  0.00     0.293 HD
ENDBRANCH   2  24
BRANCH   6  26
ATOM     26  O   UNL     1      10.949  23.353   5.559  1.00  0.00    -0.507 OA
ATOM     27  H   UNL     1      11.082  22.730   4.776  1.00  0.00     0.293 HD
ENDBRANCH   6  26
BRANCH   8  28
ATOM     28  O   UNL     1      13.133  27.612   5.581  1.00  0.00    -0.508 OA
ATOM     29  H   UNL     1      14.034  27.149   5.577  1.00  0.00     0.293 HD
ENDBRANCH   8  28
TORSDOF 7
ENDMDL
MODEL 8
REMARK VINA RESULT:    -5.282      2.929      4.542
REMARK INTER + INTRA:          -6.741
REMARK INTER:                  -6.408
REMARK INTRA:                  -0.333
REMARK UNBOUND:                -0.224
REMARK SMILES O=c1c(O)c(-c2cc(O)c(O)c(O)c2)oc2cc(O)cc(O)c12
REMARK SMILES IDX 5 1 3 2 2 3 1 4 23 5 21 6 20 7 18 8 17 9 16 10 15 11 6 12
REMARK SMILES IDX 7 13 8 14 14 15 10 16 12 17 9 18 11 20 13 22 4 24 22 26
REMARK SMILES IDX 19 28
REMARK H PARENT 9 19 11 21 13 23 4 25 22 27 19 29
REMARK Flexibility Score: inf
ROOT
ATOM      1  C   UNL     1      14.473  37.492   6.322  1.00  0.00     0.180 A 
ATOM      2  C   UNL     1      14.511  36.230   6.941  1.00  0.00     0.208 A 
ATOM      3  C   UNL     1      15.674  35.451   6.831  1.00  0.00     0.238 A 
ATOM      4  O   UNL     1      15.682  34.301   7.342  1.00  0.00    -0.285 OA
ATOM      5  C   UNL     1      16.791  35.950   6.119  1.00  0.00     0.111 A 
ATOM      6  C   UNL     1      18.035  35.263   5.977  1.00  0.00     0.134 A 
ATOM      7  C   UNL     1      19.024  35.794   5.141  1.00  0.00     0.093 A 
ATOM      8  C   UNL     1      18.841  37.014   4.492  1.00  0.00     0.123 A 
ATOM      9  C   UNL     1      17.653  37.723   4.671  1.00  0.00     0.094 A 
ATOM     10  C   UNL     1      16.632  37.203   5.471  1.00  0.00     0.146 A 
ATOM     11  O   UNL     1      15.513  37.903   5.605  1.00  0.00    -0.452 OA
ENDROOT
BRANCH   1  12
ATOM     12  C   UNL     1      13.292  38.379   6.414  1.00  0.00     0.029 A 
ATOM     13  C   UNL     1      13.096  39.146   7.572  1.00  0.00     0.062 A 
ATOM     14  C   UNL     1      11.977  39.977   7.697  1.00  0.00     0.162 A 
ATOM     15  C   UNL     1      12.329  38.426   5.392  1.00  0.00     0.062 A 
ATOM     16  C   UNL     1      11.028  40.038   6.663  1.00  0.00     0.200 A 
ATOM     17  C   UNL     1      11.205  39.254   5.509  1.00  0.00     0.162 A 
BRANCH  14  18
ATOM     18  O   UNL     1      11.826  40.736   8.858  1.00  0.00    -0.504 OA
ATOM     19  H   UNL     1      11.067  40.580   9.509  1.00  0.00     0.293 HD
ENDBRANCH  14  18
BRANCH  16  20
ATOM     20  O   UNL     1       9.918  40.871   6.793  1.00  0.00    -0.502 OA
ATOM     21  H   UNL     1      10.005  41.868   6.950  1.00  0.00     0.293 HD
ENDBRANCH  16  20
BRANCH  17  22
ATOM     22  O   UNL     1      10.260  39.298   4.484  1.00  0.00    -0.504 OA
ATOM     23  H   UNL     1       9.862  38.453   4.093  1.00  0.00     0.293 HD
ENDBRANCH  17  22
ENDBRANCH   1  12
BRANCH   2  24
ATOM     24  O   UNL     1      13.389  35.748   7.622  1.00  0.00    -0.502 OA
ATOM     25  H   UNL     1      13.122  36.085   8.538  1.00  0.00     0.293 HD
ENDBRANCH   2  24
BRANCH   6  26
ATOM     26  O   UNL     1      18.356  34.083   6.653  1.00  0.00    -0.507 OA
ATOM     27  H   UNL     1      17.974  33.174   6.436  1.00  0.00     0.293 HD
ENDBRANCH   6  26
BRANCH   8  28
ATOM     28  O   UNL     1      19.855  37.520   3.679  1.00  0.00    -0.508 OA
ATOM     29  H   UNL     1      19.773  37.521   2.670  1.00  0.00     0.293 HD
ENDBRANCH   8  28
TORSDOF 7
ENDMDL
MODEL 9
REMARK VINA RESULT:    -5.258      2.383      7.685
REMARK INTER + INTRA:          -6.712
REMARK INTER:                  -6.360
REMARK INTRA:                  -0.352
REMARK UNBOUND:                -0.224
REMARK SMILES O=c1c(O)c(-c2cc(O)c(O)c(O)c2)oc2cc(O)cc(O)c12
REMARK SMILES IDX 5 1 3 2 2 3 1 4 23 5 21 6 20 7 18 8 17 9 16 10 15 11 6 12
REMARK SMILES IDX 7 13 8 14 14 15 10 16 12 17 9 18 11 20 13 22 4 24 22 26
REMARK SMILES IDX 19 28
REMARK H PARENT 9 19 11 21 13 23 4 25 22 27 19 29
REMARK Flexibility Score: inf
ROOT
ATOM      1  C   UNL     1      13.616  33.717   5.507  1.00  0.00     0.180 A 
ATOM      2  C   UNL     1      12.599  32.765   5.696  1.00  0.00     0.208 A 
ATOM      3  C   UNL     1      11.273  33.205   5.849  1.00  0.00     0.238 A 
ATOM      4  O   UNL     1      10.376  32.351   6.072  1.00  0.00    -0.285 OA
ATOM      5  C   UNL     1      10.980  34.588   5.793  1.00  0.00     0.111 A 
ATOM      6  C   UNL     1       9.668  35.143   5.896  1.00  0.00     0.134 A 
ATOM      7  C   UNL     1       9.510  36.533   5.959  1.00  0.00     0.093 A 
ATOM      8  C   UNL     1      10.606  37.388   5.859  1.00  0.00     0.123 A 
ATOM      9  C   UNL     1      11.886  36.858   5.699  1.00  0.00     0.094 A 
ATOM     10  C   UNL     1      12.081  35.474   5.668  1.00  0.00     0.146 A 
ATOM     11  O   UNL     1      13.316  35.011   5.526  1.00  0.00    -0.452 OA
ENDROOT
BRANCH   1  12
ATOM     12  C   UNL     1      15.031  33.329   5.314  1.00  0.00     0.029 A 
ATOM     13  C   UNL     1      15.483  32.985   4.031  1.00  0.00     0.062 A 
ATOM     14  C   UNL     1      16.809  32.593   3.823  1.00  0.00     0.162 A 
ATOM     15  C   UNL     1      15.920  33.240   6.399  1.00  0.00     0.062 A 
ATOM     16  C   UNL     1      17.701  32.526   4.907  1.00  0.00     0.200 A 
ATOM     17  C   UNL     1      17.250  32.847   6.200  1.00  0.00     0.162 A 
BRANCH  14  18
ATOM     18  O   UNL     1      17.223  32.273   2.529  1.00  0.00    -0.504 OA
ATOM     19  H   UNL     1      16.760  31.563   1.975  1.00  0.00     0.293 HD
ENDBRANCH  14  18
BRANCH  16  20
ATOM     20  O   UNL     1      19.023  32.138   4.690  1.00  0.00    -0.502 OA
ATOM     21  H   UNL     1      19.799  32.778   4.802  1.00  0.00     0.293 HD
ENDBRANCH  16  20
BRANCH  17  22
ATOM     22  O   UNL     1      18.125  32.769   7.282  1.00  0.00    -0.504 OA
ATOM     23  H   UNL     1      19.081  32.450   7.171  1.00  0.00     0.293 HD
ENDBRANCH  17  22
ENDBRANCH   1  12
BRANCH   2  24
ATOM     24  O   UNL     1      12.913  31.405   5.770  1.00  0.00    -0.502 OA
ATOM     25  H   UNL     1      12.792  30.863   6.616  1.00  0.00     0.293 HD
ENDBRANCH   2  24
BRANCH   6  26
ATOM     26  O   UNL     1       8.497  34.380   5.911  1.00  0.00    -0.507 OA
ATOM     27  H   UNL     1       8.358  33.530   5.384  1.00  0.00     0.293 HD
ENDBRANCH   6  26
BRANCH   8  28
ATOM     28  O   UNL     1      10.410  38.767   5.910  1.00  0.00    -0.508 OA
ATOM     29  H   UNL     1      11.172  39.404   6.106  1.00  0.00     0.293 HD
ENDBRANCH   8  28
TORSDOF 7
ENDMDL
