MODEL 1
REMARK VINA RESULT:    -4.693      0.000      0.000
REMARK INTER + INTRA:          -5.138
REMARK INTER:                  -5.105
REMARK INTRA:                  -0.034
REMARK UNBOUND:                -0.034
REMARK SMILES COc1ccccc1O
REMARK SMILES IDX 3 1 4 2 5 3 6 4 7 5 8 6 2 7 1 8 9 9
REMARK H PARENT 9 10
REMARK Flexibility Score: inf
ROOT
ATOM      1  C   UNL     1      -2.202  -1.866  -3.296  1.00  0.00     0.160 A 
ATOM      2  C   UNL     1      -1.457  -3.022  -3.609  1.00  0.00     0.050 A 
ATOM      3  C   UNL     1      -1.094  -3.290  -4.932  1.00  0.00     0.004 A 
ATOM      4  C   UNL     1      -1.469  -2.414  -5.953  1.00  0.00     0.004 A 
ATOM      5  C   UNL     1      -2.207  -1.266  -5.653  1.00  0.00     0.050 A 
ATOM      6  C   UNL     1      -2.575  -0.990  -4.328  1.00  0.00     0.157 A 
ENDROOT
BRANCH   1   7
ATOM      7  O   UNL     1      -2.588  -1.558  -1.983  1.00  0.00    -0.493 OA
ATOM      8  C   UNL     1      -1.736  -1.665  -0.846  1.00  0.00     0.278 C 
ENDBRANCH   1   7
BRANCH   6   9
ATOM      9  O   UNL     1      -3.311   0.154  -4.027  1.00  0.00    -0.504 OA
ATOM     10  H   UNL     1      -3.446   0.892  -4.709  1.00  0.00     0.293 HD
ENDBRANCH   6   9
TORSDOF 2
ENDMDL
MODEL 2
REMARK VINA RESULT:    -4.482      1.448      3.383
REMARK INTER + INTRA:          -4.909
REMARK INTER:                  -4.880
REMARK INTRA:                  -0.029
REMARK UNBOUND:                -0.034
REMARK SMILES COc1ccccc1O
REMARK SMILES IDX 3 1 4 2 5 3 6 4 7 5 8 6 2 7 1 8 9 9
REMARK H PARENT 9 10
REMARK Flexibility Score: inf
ROOT
ATOM      1  C   UNL     1      -2.536  -1.669  -5.742  1.00  0.00     0.160 A 
ATOM      2  C   UNL     1      -1.987  -2.967  -5.797  1.00  0.00     0.050 A 
ATOM      3  C   UNL     1      -1.482  -3.568  -4.641  1.00  0.00     0.004 A 
ATOM      4  C   UNL     1      -1.519  -2.886  -3.423  1.00  0.00     0.004 A 
ATOM      5  C   UNL     1      -2.061  -1.600  -3.358  1.00  0.00     0.050 A 
ATOM      6  C   UNL     1      -2.570  -0.990  -4.514  1.00  0.00     0.157 A 
ENDROOT
BRANCH   1   7
ATOM      7  O   UNL     1      -3.054  -1.027  -6.877  1.00  0.00    -0.493 OA
ATOM      8  C   UNL     1      -3.609  -1.702  -8.002  1.00  0.00     0.278 C 
ENDBRANCH   1   7
BRANCH   6   9
ATOM      9  O   UNL     1      -3.110   0.293  -4.450  1.00  0.00    -0.504 OA
ATOM     10  H   UNL     1      -4.089   0.466  -4.650  1.00  0.00     0.293 HD
ENDBRANCH   6   9
TORSDOF 2
ENDMDL
MODEL 3
REMARK VINA RESULT:    -4.209      1.314      2.943
REMARK INTER + INTRA:          -4.611
REMARK INTER:                  -4.573
REMARK INTRA:                  -0.039
REMARK UNBOUND:                -0.034
REMARK SMILES COc1ccccc1O
REMARK SMILES IDX 3 1 4 2 5 3 6 4 7 5 8 6 2 7 1 8 9 9
REMARK H PARENT 9 10
REMARK Flexibility Score: inf
ROOT
ATOM      1  C   UNL     1      -2.346  -1.111  -5.162  1.00  0.00     0.160 A 
ATOM      2  C   UNL     1      -2.257  -1.823  -6.377  1.00  0.00     0.050 A 
ATOM      3  C   UNL     1      -1.872  -3.166  -6.379  1.00  0.00     0.004 A 
ATOM      4  C   UNL     1      -1.571  -3.812  -5.178  1.00  0.00     0.004 A 
ATOM      5  C   UNL     1      -1.656  -3.116  -3.970  1.00  0.00     0.050 A 
ATOM      6  C   UNL     1      -2.043  -1.767  -3.959  1.00  0.00     0.157 A 
ENDROOT
BRANCH   1   7
ATOM      7  O   UNL     1      -2.730   0.238  -5.113  1.00  0.00    -0.493 OA
ATOM      8  C   UNL     1      -2.093   1.284  -5.838  1.00  0.00     0.278 C 
ENDBRANCH   1   7
BRANCH   6   9
ATOM      9  O   UNL     1      -2.128  -1.072  -2.755  1.00  0.00    -0.504 OA
ATOM     10  H   UNL     1      -3.004  -0.989  -2.251  1.00  0.00     0.293 HD
ENDBRANCH   6   9
TORSDOF 2
ENDMDL
MODEL 4
REMARK VINA RESULT:    -4.102      1.559      2.381
REMARK INTER + INTRA:          -4.495
REMARK INTER:                  -4.468
REMARK INTRA:                  -0.027
REMARK UNBOUND:                -0.034
REMARK SMILES COc1ccccc1O
REMARK SMILES IDX 3 1 4 2 5 3 6 4 7 5 8 6 2 7 1 8 9 9
REMARK H PARENT 9 10
REMARK Flexibility Score: inf
ROOT
ATOM      1  C   UNL     1      -2.100  -1.954  -3.977  1.00  0.00     0.160 A 
ATOM      2  C   UNL     1      -2.101  -0.584  -4.314  1.00  0.00     0.050 A 
ATOM      3  C   UNL     1      -2.107  -0.188  -5.655  1.00  0.00     0.004 A 
ATOM      4  C   UNL     1      -2.113  -1.148  -6.669  1.00  0.00     0.004 A 
ATOM      5  C   UNL     1      -2.112  -2.507  -6.346  1.00  0.00     0.050 A 
ATOM      6  C   UNL     1      -2.106  -2.912  -5.003  1.00  0.00     0.157 A 
ENDROOT
BRANCH   1   7
ATOM      7  O   UNL     1      -2.095  -2.396  -2.646  1.00  0.00    -0.493 OA
ATOM      8  C   UNL     1      -2.317  -1.557  -1.517  1.00  0.00     0.278 C 
ENDBRANCH   1   7
BRANCH   6   9
ATOM      9  O   UNL     1      -2.106  -4.267  -4.678  1.00  0.00    -0.504 OA
ATOM     10  H   UNL     1      -1.482  -4.644  -3.974  1.00  0.00     0.293 HD
ENDBRANCH   6   9
TORSDOF 2
ENDMDL
MODEL 5
REMARK VINA RESULT:    -4.091      2.089      3.782
REMARK INTER + INTRA:          -4.484
REMARK INTER:                  -4.438
REMARK INTRA:                  -0.046
REMARK UNBOUND:                -0.034
REMARK SMILES COc1ccccc1O
REMARK SMILES IDX 3 1 4 2 5 3 6 4 7 5 8 6 2 7 1 8 9 9
REMARK H PARENT 9 10
REMARK Flexibility Score: inf
ROOT
ATOM      1  C   UNL     1      -2.639  -1.544  -5.676  1.00  0.00     0.160 A 
ATOM      2  C   UNL     1      -2.457  -1.033  -4.375  1.00  0.00     0.050 A 
ATOM      3  C   UNL     1      -1.849  -1.815  -3.389  1.00  0.00     0.004 A 
ATOM      4  C   UNL     1      -1.418  -3.109  -3.687  1.00  0.00     0.004 A 
ATOM      5  C   UNL     1      -1.594  -3.625  -4.974  1.00  0.00     0.050 A 
ATOM      6  C   UNL     1      -2.203  -2.846  -5.969  1.00  0.00     0.157 A 
ENDROOT
BRANCH   1   7
ATOM      7  O   UNL     1      -3.244  -0.794  -6.696  1.00  0.00    -0.493 OA
ATOM      8  C   UNL     1      -2.642   0.324  -7.340  1.00  0.00     0.278 C 
ENDBRANCH   1   7
BRANCH   6   9
ATOM      9  O   UNL     1      -2.379  -3.359  -7.252  1.00  0.00    -0.504 OA
ATOM     10  H   UNL     1      -3.247  -3.232  -7.760  1.00  0.00     0.293 HD
ENDBRANCH   6   9
TORSDOF 2
ENDMDL
MODEL 6
REMARK VINA RESULT:    -4.059      4.065      5.349
REMARK INTER + INTRA:          -4.449
REMARK INTER:                  -4.415
REMARK INTRA:                  -0.033
REMARK UNBOUND:                -0.034
REMARK SMILES COc1ccccc1O
REMARK SMILES IDX 3 1 4 2 5 3 6 4 7 5 8 6 2 7 1 8 9 9
REMARK H PARENT 9 10
REMARK Flexibility Score: inf
ROOT
ATOM      1  C   UNL     1      -1.753   1.719  -5.982  1.00  0.00     0.160 A 
ATOM      2  C   UNL     1      -2.682   1.918  -7.025  1.00  0.00     0.050 A 
ATOM      3  C   UNL     1      -2.838   3.184  -7.598  1.00  0.00     0.004 A 
ATOM      4  C   UNL     1      -2.074   4.259  -7.140  1.00  0.00     0.004 A 
ATOM      5  C   UNL     1      -1.152   4.072  -6.107  1.00  0.00     0.050 A 
ATOM      6  C   UNL     1      -0.989   2.805  -5.527  1.00  0.00     0.157 A 
ENDROOT
BRANCH   1   7
ATOM      7  O   UNL     1      -1.564   0.467  -5.379  1.00  0.00    -0.493 OA
ATOM      8  C   UNL     1      -2.617  -0.418  -5.009  1.00  0.00     0.278 C 
ENDBRANCH   1   7
BRANCH   6   9
ATOM      9  O   UNL     1      -0.069   2.617  -4.498  1.00  0.00    -0.504 OA
ATOM     10  H   UNL     1       0.913   2.834  -4.618  1.00  0.00     0.293 HD
ENDBRANCH   6   9
TORSDOF 2
ENDMDL
MODEL 7
REMARK VINA RESULT:    -3.933     11.156     12.609
REMARK INTER + INTRA:          -4.312
REMARK INTER:                  -4.283
REMARK INTRA:                  -0.029
REMARK UNBOUND:                -0.034
REMARK SMILES COc1ccccc1O
REMARK SMILES IDX 3 1 4 2 5 3 6 4 7 5 8 6 2 7 1 8 9 9
REMARK H PARENT 9 10
REMARK Flexibility Score: inf
ROOT
ATOM      1  C   UNL     1      -1.778   3.720   7.529  1.00  0.00     0.160 A 
ATOM      2  C   UNL     1      -1.712   3.184   8.832  1.00  0.00     0.050 A 
ATOM      3  C   UNL     1      -1.160   1.917   9.044  1.00  0.00     0.004 A 
ATOM      4  C   UNL     1      -0.672   1.174   7.967  1.00  0.00     0.004 A 
ATOM      5  C   UNL     1      -0.734   1.697   6.673  1.00  0.00     0.050 A 
ATOM      6  C   UNL     1      -1.286   2.968   6.451  1.00  0.00     0.157 A 
ENDROOT
BRANCH   1   7
ATOM      7  O   UNL     1      -2.323   4.987   7.270  1.00  0.00    -0.493 OA
ATOM      8  C   UNL     1      -3.321   5.614   8.068  1.00  0.00     0.278 C 
ENDBRANCH   1   7
BRANCH   6   9
ATOM      9  O   UNL     1      -1.349   3.491   5.161  1.00  0.00    -0.504 OA
ATOM     10  H   UNL     1      -2.202   3.457   4.616  1.00  0.00     0.293 HD
ENDBRANCH   6   9
TORSDOF 2
ENDMDL
MODEL 8
REMARK VINA RESULT:    -3.821      4.195      5.383
REMARK INTER + INTRA:          -4.190
REMARK INTER:                  -4.149
REMARK INTRA:                  -0.041
REMARK UNBOUND:                -0.034
REMARK SMILES COc1ccccc1O
REMARK SMILES IDX 3 1 4 2 5 3 6 4 7 5 8 6 2 7 1 8 9 9
REMARK H PARENT 9 10
REMARK Flexibility Score: inf
ROOT
ATOM      1  C   UNL     1      -1.940   1.812  -6.267  1.00  0.00     0.160 A 
ATOM      2  C   UNL     1      -0.773   1.788  -5.476  1.00  0.00     0.050 A 
ATOM      3  C   UNL     1      -0.032   2.957  -5.278  1.00  0.00     0.004 A 
ATOM      4  C   UNL     1      -0.443   4.155  -5.863  1.00  0.00     0.004 A 
ATOM      5  C   UNL     1      -1.598   4.190  -6.649  1.00  0.00     0.050 A 
ATOM      6  C   UNL     1      -2.348   3.021  -6.852  1.00  0.00     0.157 A 
ENDROOT
BRANCH   1   7
ATOM      7  O   UNL     1      -2.714   0.664  -6.492  1.00  0.00    -0.493 OA
ATOM      8  C   UNL     1      -3.336  -0.104  -5.467  1.00  0.00     0.278 C 
ENDBRANCH   1   7
BRANCH   6   9
ATOM      9  O   UNL     1      -3.500   3.053  -7.636  1.00  0.00    -0.504 OA
ATOM     10  H   UNL     1      -4.423   2.994  -7.223  1.00  0.00     0.293 HD
ENDBRANCH   6   9
TORSDOF 2
ENDMDL
MODEL 9
REMARK VINA RESULT:    -3.717      2.431      3.752
REMARK INTER + INTRA:          -4.077
REMARK INTER:                  -4.033
REMARK INTRA:                  -0.044
REMARK UNBOUND:                -0.034
REMARK SMILES COc1ccccc1O
REMARK SMILES IDX 3 1 4 2 5 3 6 4 7 5 8 6 2 7 1 8 9 9
REMARK H PARENT 9 10
REMARK Flexibility Score: inf
ROOT
ATOM      1  C   UNL     1      -1.753   0.842  -6.115  1.00  0.00     0.160 A 
ATOM      2  C   UNL     1      -0.921   0.429  -7.176  1.00  0.00     0.050 A 
ATOM      3  C   UNL     1      -0.771  -0.931  -7.465  1.00  0.00     0.004 A 
ATOM      4  C   UNL     1      -1.444  -1.888  -6.704  1.00  0.00     0.004 A 
ATOM      5  C   UNL     1      -2.271  -1.489  -5.651  1.00  0.00     0.050 A 
ATOM      6  C   UNL     1      -2.427  -0.126  -5.354  1.00  0.00     0.157 A 
ENDROOT
BRANCH   1   7
ATOM      7  O   UNL     1      -1.933   2.195  -5.789  1.00  0.00    -0.493 OA
ATOM      8  C   UNL     1      -0.914   3.041  -5.267  1.00  0.00     0.278 C 
ENDBRANCH   1   7
BRANCH   6   9
ATOM      9  O   UNL     1      -3.250   0.274  -4.304  1.00  0.00    -0.504 OA
ATOM     10  H   UNL     1      -4.252   0.123  -4.329  1.00  0.00     0.293 HD
ENDBRANCH   6   9
TORSDOF 2
ENDMDL
