MODEL 1
REMARK VINA RESULT:    -4.859      0.000      0.000
REMARK INTER + INTRA:          -8.204
REMARK INTER:                  -7.699
REMARK INTRA:                  -0.505
REMARK UNBOUND:                -0.505
REMARK SMILES CCCCCCCCCCCC(=O)[O-]
REMARK SMILES IDX 7 1 8 2 9 3 10 4 11 5 12 6 13 7 14 8 6 9 5 10 4 11 3 12 2 13
REMARK SMILES IDX 1 14
REMARK H PARENT
REMARK Flexibility Score: inf
ROOT
ATOM      1  C   UNL     1       6.072  42.631  43.585  1.00  0.00     0.000 C 
ENDROOT
BRANCH   1   2
ATOM      2  C   UNL     1       6.050  41.768  44.858  1.00  0.00     0.000 C 
BRANCH   2   3
ATOM      3  C   UNL     1       5.617  42.558  46.102  1.00  0.00     0.000 C 
BRANCH   3   4
ATOM      4  C   UNL     1       4.809  41.673  47.059  1.00  0.00     0.006 C 
BRANCH   4   5
ATOM      5  C   UNL     1       5.700  40.611  47.711  1.00  0.00     0.053 C 
BRANCH   5   6
ATOM      6  C   UNL     1       6.518  41.214  48.808  1.00  0.00     0.041 C 
ATOM      7  O   UNL     1       5.983  41.984  49.648  1.00  0.00    -0.550 OA
ATOM      8  O   UNL     1       7.884  40.966  48.875  1.00  0.00    -0.550 OA
ENDBRANCH   5   6
ENDBRANCH   4   5
ENDBRANCH   3   4
ENDBRANCH   2   3
ENDBRANCH   1   2
BRANCH   1   9
ATOM      9  C   UNL     1       6.550  44.068  43.854  1.00  0.00     0.000 C 
BRANCH   9  10
ATOM     10  C   UNL     1       7.781  44.456  43.015  1.00  0.00    -0.000 C 
BRANCH  10  11
ATOM     11  C   UNL     1       7.498  44.736  41.527  1.00  0.00    -0.000 C 
BRANCH  11  12
ATOM     12  C   UNL     1       8.664  45.437  40.816  1.00  0.00    -0.000 C 
BRANCH  12  13
ATOM     13  C   UNL     1       8.812  46.885  41.299  1.00  0.00    -0.003 C 
ATOM     14  C   UNL     1       7.576  47.711  40.954  1.00  0.00     0.004 C 
ENDBRANCH  12  13
ENDBRANCH  11  12
ENDBRANCH  10  11
ENDBRANCH   9  10
ENDBRANCH   1   9
TORSDOF 10
ENDMDL
MODEL 2
REMARK VINA RESULT:    -4.836      3.602      7.226
REMARK INTER + INTRA:          -8.169
REMARK INTER:                  -7.502
REMARK INTRA:                  -0.667
REMARK UNBOUND:                -0.505
REMARK SMILES CCCCCCCCCCCC(=O)[O-]
REMARK SMILES IDX 7 1 8 2 9 3 10 4 11 5 12 6 13 7 14 8 6 9 5 10 4 11 3 12 2 13
REMARK SMILES IDX 1 14
REMARK H PARENT
REMARK Flexibility Score: inf
ROOT
ATOM      1  C   UNL     1       5.419  42.570  45.816  1.00  0.00     0.000 C 
ENDROOT
BRANCH   1   2
ATOM      2  C   UNL     1       6.407  41.857  44.878  1.00  0.00     0.000 C 
BRANCH   2   3
ATOM      3  C   UNL     1       6.137  42.153  43.396  1.00  0.00     0.000 C 
BRANCH   3   4
ATOM      4  C   UNL     1       7.290  42.954  42.778  1.00  0.00     0.006 C 
BRANCH   4   5
ATOM      5  C   UNL     1       7.158  44.446  43.097  1.00  0.00     0.053 C 
BRANCH   5   6
ATOM      6  C   UNL     1       7.488  45.270  41.894  1.00  0.00     0.041 C 
ATOM      7  O   UNL     1       8.110  44.760  40.926  1.00  0.00    -0.550 OA
ATOM      8  O   UNL     1       7.153  46.619  41.861  1.00  0.00    -0.550 OA
ENDBRANCH   5   6
ENDBRANCH   4   5
ENDBRANCH   3   4
ENDBRANCH   2   3
ENDBRANCH   1   2
BRANCH   1   9
ATOM      9  C   UNL     1       4.927  41.662  46.955  1.00  0.00     0.000 C 
BRANCH   9  10
ATOM     10  C   UNL     1       5.166  42.267  48.350  1.00  0.00    -0.000 C 
BRANCH  10  11
ATOM     11  C   UNL     1       6.310  41.624  49.156  1.00  0.00    -0.000 C 
BRANCH  11  12
ATOM     12  C   UNL     1       6.878  40.363  48.490  1.00  0.00    -0.000 C 
BRANCH  12  13
ATOM     13  C   UNL     1       8.412  40.371  48.516  1.00  0.00    -0.003 C 
ATOM     14  C   UNL     1       8.988  39.607  47.328  1.00  0.00     0.004 C 
ENDBRANCH  12  13
ENDBRANCH  11  12
ENDBRANCH  10  11
ENDBRANCH   9  10
ENDBRANCH   1   9
TORSDOF 10
ENDMDL
MODEL 3
REMARK VINA RESULT:    -4.823     10.471     13.107
REMARK INTER + INTRA:          -8.148
REMARK INTER:                  -7.392
REMARK INTRA:                  -0.755
REMARK UNBOUND:                -0.505
REMARK SMILES CCCCCCCCCCCC(=O)[O-]
REMARK SMILES IDX 7 1 8 2 9 3 10 4 11 5 12 6 13 7 14 8 6 9 5 10 4 11 3 12 2 13
REMARK SMILES IDX 1 14
REMARK H PARENT
REMARK Flexibility Score: inf
ROOT
ATOM      1  C   UNL     1       9.361  33.900  45.342  1.00  0.00     0.000 C 
ENDROOT
BRANCH   1   2
ATOM      2  C   UNL     1      10.582  34.315  44.505  1.00  0.00     0.000 C 
BRANCH   2   3
ATOM      3  C   UNL     1      10.251  34.479  43.014  1.00  0.00     0.000 C 
BRANCH   3   4
ATOM      4  C   UNL     1      10.796  33.301  42.198  1.00  0.00     0.006 C 
BRANCH   4   5
ATOM      5  C   UNL     1      10.100  33.205  40.837  1.00  0.00     0.053 C 
BRANCH   5   6
ATOM      6  C   UNL     1       8.722  32.644  40.992  1.00  0.00     0.041 C 
ATOM      7  O   UNL     1       8.547  31.399  41.049  1.00  0.00    -0.550 OA
ATOM      8  O   UNL     1       7.624  33.495  41.023  1.00  0.00    -0.550 OA
ENDBRANCH   5   6
ENDBRANCH   4   5
ENDBRANCH   3   4
ENDBRANCH   2   3
ENDBRANCH   1   2
BRANCH   1   9
ATOM      9  C   UNL     1       9.024  32.407  45.194  1.00  0.00     0.000 C 
BRANCH   9  10
ATOM     10  C   UNL     1       7.678  32.164  44.487  1.00  0.00    -0.000 C 
BRANCH  10  11
ATOM     11  C   UNL     1       6.524  31.726  45.408  1.00  0.00    -0.000 C 
BRANCH  11  12
ATOM     12  C   UNL     1       5.984  30.330  45.071  1.00  0.00    -0.000 C 
BRANCH  12  13
ATOM     13  C   UNL     1       6.923  29.595  44.107  1.00  0.00    -0.003 C 
ATOM     14  C   UNL     1       7.142  28.149  44.544  1.00  0.00     0.004 C 
ENDBRANCH  12  13
ENDBRANCH  11  12
ENDBRANCH  10  11
ENDBRANCH   9  10
ENDBRANCH   1   9
TORSDOF 10
ENDMDL
MODEL 4
REMARK VINA RESULT:    -4.810      4.312      7.929
REMARK INTER + INTRA:          -8.128
REMARK INTER:                  -7.776
REMARK INTRA:                  -0.352
REMARK UNBOUND:                -0.505
REMARK SMILES CCCCCCCCCCCC(=O)[O-]
REMARK SMILES IDX 7 1 8 2 9 3 10 4 11 5 12 6 13 7 14 8 6 9 5 10 4 11 3 12 2 13
REMARK SMILES IDX 1 14
REMARK H PARENT
REMARK Flexibility Score: inf
ROOT
ATOM      1  C   UNL     1       5.864  42.875  43.731  1.00  0.00     0.000 C 
ENDROOT
BRANCH   1   2
ATOM      2  C   UNL     1       6.734  44.136  43.873  1.00  0.00     0.000 C 
BRANCH   2   3
ATOM      3  C   UNL     1       7.867  44.193  42.839  1.00  0.00     0.000 C 
BRANCH   3   4
ATOM      4  C   UNL     1       7.491  45.103  41.663  1.00  0.00     0.006 C 
BRANCH   4   5
ATOM      5  C   UNL     1       8.726  45.810  41.097  1.00  0.00     0.053 C 
BRANCH   5   6
ATOM      6  C   UNL     1       8.320  46.912  40.170  1.00  0.00     0.041 C 
ATOM      7  O   UNL     1       8.672  46.887  38.962  1.00  0.00    -0.550 OA
ATOM      8  O   UNL     1       7.592  47.993  40.653  1.00  0.00    -0.550 OA
ENDBRANCH   5   6
ENDBRANCH   4   5
ENDBRANCH   3   4
ENDBRANCH   2   3
ENDBRANCH   1   2
BRANCH   1   9
ATOM      9  C   UNL     1       5.896  41.992  44.990  1.00  0.00     0.000 C 
BRANCH   9  10
ATOM     10  C   UNL     1       4.929  42.476  46.086  1.00  0.00    -0.000 C 
BRANCH  10  11
ATOM     11  C   UNL     1       5.265  42.000  47.513  1.00  0.00    -0.000 C 
BRANCH  11  12
ATOM     12  C   UNL     1       6.422  40.992  47.552  1.00  0.00    -0.000 C 
BRANCH  12  13
ATOM     13  C   UNL     1       7.207  41.108  48.864  1.00  0.00    -0.003 C 
ATOM     14  C   UNL     1       8.576  40.444  48.748  1.00  0.00     0.004 C 
ENDBRANCH  12  13
ENDBRANCH  11  12
ENDBRANCH  10  11
ENDBRANCH   9  10
ENDBRANCH   1   9
TORSDOF 10
ENDMDL
MODEL 5
REMARK VINA RESULT:    -4.778      3.661      7.267
REMARK INTER + INTRA:          -8.077
REMARK INTER:                  -7.436
REMARK INTRA:                  -0.641
REMARK UNBOUND:                -0.505
REMARK SMILES CCCCCCCCCCCC(=O)[O-]
REMARK SMILES IDX 7 1 8 2 9 3 10 4 11 5 12 6 13 7 14 8 6 9 5 10 4 11 3 12 2 13
REMARK SMILES IDX 1 14
REMARK H PARENT
REMARK Flexibility Score: inf
ROOT
ATOM      1  C   UNL     1       5.970  39.907  47.897  1.00  0.00     0.000 C 
ENDROOT
BRANCH   1   2
ATOM      2  C   UNL     1       5.923  41.439  48.025  1.00  0.00     0.000 C 
BRANCH   2   3
ATOM      3  C   UNL     1       5.279  42.116  46.806  1.00  0.00     0.000 C 
BRANCH   3   4
ATOM      4  C   UNL     1       5.991  41.705  45.511  1.00  0.00     0.006 C 
BRANCH   4   5
ATOM      5  C   UNL     1       5.480  42.521  44.319  1.00  0.00     0.053 C 
BRANCH   5   6
ATOM      6  C   UNL     1       6.619  43.192  43.618  1.00  0.00     0.041 C 
ATOM      7  O   UNL     1       7.440  42.513  42.949  1.00  0.00    -0.550 OA
ATOM      8  O   UNL     1       6.802  44.564  43.745  1.00  0.00    -0.550 OA
ENDBRANCH   5   6
ENDBRANCH   4   5
ENDBRANCH   3   4
ENDBRANCH   2   3
ENDBRANCH   1   2
BRANCH   1   9
ATOM      9  C   UNL     1       7.369  39.335  48.178  1.00  0.00     0.000 C 
BRANCH   9  10
ATOM     10  C   UNL     1       8.357  40.395  48.699  1.00  0.00    -0.000 C 
BRANCH  10  11
ATOM     11  C   UNL     1       9.815  40.214  48.238  1.00  0.00    -0.000 C 
BRANCH  11  12
ATOM     12  C   UNL     1      10.829  40.365  49.381  1.00  0.00    -0.000 C 
BRANCH  12  13
ATOM     13  C   UNL     1      11.732  39.130  49.481  1.00  0.00    -0.003 C 
ATOM     14  C   UNL     1      11.321  38.062  48.472  1.00  0.00     0.004 C 
ENDBRANCH  12  13
ENDBRANCH  11  12
ENDBRANCH  10  11
ENDBRANCH   9  10
ENDBRANCH   1   9
TORSDOF 10
ENDMDL
MODEL 6
REMARK VINA RESULT:    -4.772      1.840      3.046
REMARK INTER + INTRA:          -8.067
REMARK INTER:                  -7.558
REMARK INTRA:                  -0.509
REMARK UNBOUND:                -0.505
REMARK SMILES CCCCCCCCCCCC(=O)[O-]
REMARK SMILES IDX 7 1 8 2 9 3 10 4 11 5 12 6 13 7 14 8 6 9 5 10 4 11 3 12 2 13
REMARK SMILES IDX 1 14
REMARK H PARENT
REMARK Flexibility Score: inf
ROOT
ATOM      1  C   UNL     1       4.797  42.162  46.416  1.00  0.00     0.000 C 
ENDROOT
BRANCH   1   2
ATOM      2  C   UNL     1       5.273  42.087  47.876  1.00  0.00     0.000 C 
BRANCH   2   3
ATOM      3  C   UNL     1       5.893  40.727  48.228  1.00  0.00     0.000 C 
BRANCH   3   4
ATOM      4  C   UNL     1       7.352  40.888  48.673  1.00  0.00     0.006 C 
BRANCH   4   5
ATOM      5  C   UNL     1       8.151  39.606  48.414  1.00  0.00     0.053 C 
BRANCH   5   6
ATOM      6  C   UNL     1       9.049  39.779  47.230  1.00  0.00     0.041 C 
ATOM      7  O   UNL     1       8.570  39.785  46.066  1.00  0.00    -0.550 OA
ATOM      8  O   UNL     1      10.423  39.884  47.410  1.00  0.00    -0.550 OA
ENDBRANCH   5   6
ENDBRANCH   4   5
ENDBRANCH   3   4
ENDBRANCH   2   3
ENDBRANCH   1   2
BRANCH   1   9
ATOM      9  C   UNL     1       5.960  42.081  45.412  1.00  0.00     0.000 C 
BRANCH   9  10
ATOM     10  C   UNL     1       5.717  42.921  44.144  1.00  0.00    -0.000 C 
BRANCH  10  11
ATOM     11  C   UNL     1       6.696  44.092  43.938  1.00  0.00    -0.000 C 
BRANCH  11  12
ATOM     12  C   UNL     1       7.780  43.791  42.894  1.00  0.00    -0.000 C 
BRANCH  12  13
ATOM     13  C   UNL     1       7.522  44.564  41.595  1.00  0.00    -0.003 C 
ATOM     14  C   UNL     1       7.403  46.063  41.859  1.00  0.00     0.004 C 
ENDBRANCH  12  13
ENDBRANCH  11  12
ENDBRANCH  10  11
ENDBRANCH   9  10
ENDBRANCH   1   9
TORSDOF 10
ENDMDL
MODEL 7
REMARK VINA RESULT:    -4.767      1.660      2.840
REMARK INTER + INTRA:          -8.059
REMARK INTER:                  -7.216
REMARK INTRA:                  -0.844
REMARK UNBOUND:                -0.505
REMARK SMILES CCCCCCCCCCCC(=O)[O-]
REMARK SMILES IDX 7 1 8 2 9 3 10 4 11 5 12 6 13 7 14 8 6 9 5 10 4 11 3 12 2 13
REMARK SMILES IDX 1 14
REMARK H PARENT
REMARK Flexibility Score: inf
ROOT
ATOM      1  C   UNL     1       5.946  43.214  43.809  1.00  0.00     0.000 C 
ENDROOT
BRANCH   1   2
ATOM      2  C   UNL     1       6.123  42.132  44.886  1.00  0.00     0.000 C 
BRANCH   2   3
ATOM      3  C   UNL     1       5.366  42.455  46.183  1.00  0.00     0.000 C 
BRANCH   3   4
ATOM      4  C   UNL     1       5.197  41.200  47.047  1.00  0.00     0.006 C 
BRANCH   4   5
ATOM      5  C   UNL     1       5.941  41.344  48.379  1.00  0.00     0.053 C 
BRANCH   5   6
ATOM      6  C   UNL     1       7.092  40.392  48.441  1.00  0.00     0.041 C 
ATOM      7  O   UNL     1       6.902  39.156  48.299  1.00  0.00    -0.550 OA
ATOM      8  O   UNL     1       8.372  40.865  48.707  1.00  0.00    -0.550 OA
ENDBRANCH   5   6
ENDBRANCH   4   5
ENDBRANCH   3   4
ENDBRANCH   2   3
ENDBRANCH   1   2
BRANCH   1   9
ATOM      9  C   UNL     1       6.980  44.346  43.934  1.00  0.00     0.000 C 
BRANCH   9  10
ATOM     10  C   UNL     1       7.612  44.732  42.584  1.00  0.00    -0.000 C 
BRANCH  10  11
ATOM     11  C   UNL     1       7.574  43.634  41.505  1.00  0.00    -0.000 C 
BRANCH  11  12
ATOM     12  C   UNL     1       8.784  42.690  41.567  1.00  0.00    -0.000 C 
BRANCH  12  13
ATOM     13  C   UNL     1       8.336  41.235  41.754  1.00  0.00    -0.003 C 
ATOM     14  C   UNL     1       8.996  40.609  42.979  1.00  0.00     0.004 C 
ENDBRANCH  12  13
ENDBRANCH  11  12
ENDBRANCH  10  11
ENDBRANCH   9  10
ENDBRANCH   1   9
TORSDOF 10
ENDMDL
MODEL 8
REMARK VINA RESULT:    -4.759      4.067      7.005
REMARK INTER + INTRA:          -8.046
REMARK INTER:                  -7.053
REMARK INTRA:                  -0.994
REMARK UNBOUND:                -0.505
REMARK SMILES CCCCCCCCCCCC(=O)[O-]
REMARK SMILES IDX 7 1 8 2 9 3 10 4 11 5 12 6 13 7 14 8 6 9 5 10 4 11 3 12 2 13
REMARK SMILES IDX 1 14
REMARK H PARENT
REMARK Flexibility Score: inf
ROOT
ATOM      1  C   UNL     1       7.821  39.544  47.696  1.00  0.00     0.000 C 
ENDROOT
BRANCH   1   2
ATOM      2  C   UNL     1       7.736  40.692  48.714  1.00  0.00     0.000 C 
BRANCH   2   3
ATOM      3  C   UNL     1       6.372  41.397  48.700  1.00  0.00     0.000 C 
BRANCH   3   4
ATOM      4  C   UNL     1       5.570  41.015  47.450  1.00  0.00     0.006 C 
BRANCH   4   5
ATOM      5  C   UNL     1       5.223  42.254  46.619  1.00  0.00     0.053 C 
BRANCH   5   6
ATOM      6  C   UNL     1       5.731  42.105  45.220  1.00  0.00     0.041 C 
ATOM      7  O   UNL     1       6.344  41.061  44.874  1.00  0.00    -0.550 OA
ATOM      8  O   UNL     1       5.570  43.142  44.308  1.00  0.00    -0.550 OA
ENDBRANCH   5   6
ENDBRANCH   4   5
ENDBRANCH   3   4
ENDBRANCH   2   3
ENDBRANCH   1   2
BRANCH   1   9
ATOM      9  C   UNL     1       8.363  38.244  48.316  1.00  0.00     0.000 C 
BRANCH   9  10
ATOM     10  C   UNL     1       9.844  37.991  47.978  1.00  0.00    -0.000 C 
BRANCH  10  11
ATOM     11  C   UNL     1      10.480  39.012  47.015  1.00  0.00    -0.000 C 
BRANCH  11  12
ATOM     12  C   UNL     1      11.464  39.961  47.712  1.00  0.00    -0.000 C 
BRANCH  12  13
ATOM     13  C   UNL     1      11.666  39.563  49.179  1.00  0.00    -0.003 C 
ATOM     14  C   UNL     1      11.248  40.689  50.120  1.00  0.00     0.004 C 
ENDBRANCH  12  13
ENDBRANCH  11  12
ENDBRANCH  10  11
ENDBRANCH   9  10
ENDBRANCH   1   9
TORSDOF 10
ENDMDL
MODEL 9
REMARK VINA RESULT:    -4.672      2.358      3.880
REMARK INTER + INTRA:          -7.909
REMARK INTER:                  -6.868
REMARK INTRA:                  -1.040
REMARK UNBOUND:                -0.505
REMARK SMILES CCCCCCCCCCCC(=O)[O-]
REMARK SMILES IDX 7 1 8 2 9 3 10 4 11 5 12 6 13 7 14 8 6 9 5 10 4 11 3 12 2 13
REMARK SMILES IDX 1 14
REMARK H PARENT
REMARK Flexibility Score: inf
ROOT
ATOM      1  C   UNL     1       7.177  44.839  42.606  1.00  0.00     0.000 C 
ENDROOT
BRANCH   1   2
ATOM      2  C   UNL     1       6.992  43.968  43.860  1.00  0.00     0.000 C 
BRANCH   2   3
ATOM      3  C   UNL     1       5.991  42.823  43.644  1.00  0.00     0.000 C 
BRANCH   3   4
ATOM      4  C   UNL     1       5.956  41.890  44.860  1.00  0.00     0.006 C 
BRANCH   4   5
ATOM      5  C   UNL     1       5.195  42.532  46.025  1.00  0.00     0.053 C 
BRANCH   5   6
ATOM      6  C   UNL     1       5.297  41.680  47.250  1.00  0.00     0.041 C 
ATOM      7  O   UNL     1       5.440  40.434  47.146  1.00  0.00    -0.550 OA
ATOM      8  O   UNL     1       5.185  42.257  48.509  1.00  0.00    -0.550 OA
ENDBRANCH   5   6
ENDBRANCH   4   5
ENDBRANCH   3   4
ENDBRANCH   2   3
ENDBRANCH   1   2
BRANCH   1   9
ATOM      9  C   UNL     1       7.791  44.058  41.431  1.00  0.00     0.000 C 
BRANCH   9  10
ATOM     10  C   UNL     1       9.146  43.416  41.782  1.00  0.00    -0.000 C 
BRANCH  10  11
ATOM     11  C   UNL     1       9.420  42.057  41.110  1.00  0.00    -0.000 C 
BRANCH  11  12
ATOM     12  C   UNL     1       8.514  40.935  41.636  1.00  0.00    -0.000 C 
BRANCH  12  13
ATOM     13  C   UNL     1       8.907  40.536  43.063  1.00  0.00    -0.003 C 
ATOM     14  C   UNL     1      10.406  40.274  43.171  1.00  0.00     0.004 C 
ENDBRANCH  12  13
ENDBRANCH  11  12
ENDBRANCH  10  11
ENDBRANCH   9  10
ENDBRANCH   1   9
TORSDOF 10
ENDMDL
