MODEL 1
REMARK VINA RESULT:    -5.442      0.000      0.000
REMARK INTER + INTRA:          -8.721
REMARK INTER:                  -7.670
REMARK INTRA:                  -1.052
REMARK UNBOUND:                -1.052
REMARK SMILES COc1c(O[C@@H]2O[C@H](C(=O)[O-])[C@@H](O)[C@@H](O)[C@H]2O)cc(O)c2c(=O)cc(-c3ccccc3)oc12
REMARK SMILES IDX 5 1 6 2 8 3 12 4 7 5 14 6 16 7 9 8 10 9 11 10 13 11 15 13
REMARK SMILES IDX 17 15 4 17 3 18 18 19 33 20 19 21 21 22 32 23 22 24 25 25
REMARK SMILES IDX 24 26 23 27 2 28 1 29 20 30 26 32 27 33 31 34 28 35 30 36
REMARK SMILES IDX 29 37
REMARK H PARENT 13 12 15 14 17 16 20 31
REMARK Flexibility Score: inf
ROOT
ATOM      1  O   UNL     1    -114.463  -6.214  34.087  1.00  0.00    -0.458 OA
ENDROOT
BRANCH   1   2
ATOM      2  C   UNL     1    -113.865  -4.945  33.794  1.00  0.00     0.339 C 
ATOM      3  C   UNL     1    -113.300  -3.508  32.044  1.00  0.00     0.199 C 
ATOM      4  C   UNL     1    -112.207  -2.846  32.946  1.00  0.00     0.180 C 
ATOM      5  O   UNL     1    -113.575  -4.853  32.411  1.00  0.00    -0.328 OA
ATOM      6  C   UNL     1    -111.536  -3.916  33.833  1.00  0.00     0.181 C 
ATOM      7  C   UNL     1    -112.580  -4.723  34.641  1.00  0.00     0.214 C 
BRANCH   3   8
ATOM      8  C   UNL     1    -112.864  -3.502  30.609  1.00  0.00     0.073 C 
ATOM      9  O   UNL     1    -113.605  -2.999  29.721  1.00  0.00    -0.547 OA
ATOM     10  O   UNL     1    -111.621  -4.015  30.255  1.00  0.00    -0.547 OA
ENDBRANCH   3   8
BRANCH   4  11
ATOM     11  O   UNL     1    -112.791  -1.859  33.758  1.00  0.00    -0.387 OA
ATOM     12  H   UNL     1    -112.340  -1.002  33.535  1.00  0.00     0.211 HD
ENDBRANCH   4  11
BRANCH   6  13
ATOM     13  O   UNL     1    -110.535  -3.370  34.659  1.00  0.00    -0.387 OA
ATOM     14  H   UNL     1    -109.730  -3.206  34.104  1.00  0.00     0.211 HD
ENDBRANCH   6  13
BRANCH   7  15
ATOM     15  O   UNL     1    -112.907  -4.053  35.832  1.00  0.00    -0.384 OA
ATOM     16  H   UNL     1    -112.873  -4.732  36.557  1.00  0.00     0.211 HD
ENDBRANCH   7  15
ENDBRANCH   1   2
BRANCH   1  17
ATOM     17  C   UNL     1    -113.734  -7.384  34.335  1.00  0.00     0.172 A 
ATOM     18  C   UNL     1    -113.696  -7.960  35.617  1.00  0.00     0.205 A 
ATOM     19  C   UNL     1    -113.014  -7.953  33.284  1.00  0.00     0.097 A 
ATOM     20  C   UNL     1    -112.992  -9.177  35.808  1.00  0.00     0.188 A 
ATOM     21  C   UNL     1    -112.296  -9.138  33.463  1.00  0.00     0.134 A 
ATOM     22  C   UNL     1    -112.291  -9.772  34.725  1.00  0.00     0.111 A 
ATOM     23  O   UNL     1    -112.993  -9.776  36.998  1.00  0.00    -0.452 OA
ATOM     24  C   UNL     1    -111.613 -10.985  34.961  1.00  0.00     0.197 A 
ATOM     25  C   UNL     1    -112.382 -10.932  37.246  1.00  0.00     0.138 A 
ATOM     26  C   UNL     1    -111.662 -11.566  36.226  1.00  0.00     0.100 A 
ATOM     27  O   UNL     1    -110.961 -11.563  34.051  1.00  0.00    -0.289 OA
BRANCH  18  28
ATOM     28  O   UNL     1    -114.356  -7.272  36.652  1.00  0.00    -0.490 OA
ATOM     29  C   UNL     1    -115.678  -7.504  37.121  1.00  0.00     0.278 C 
ENDBRANCH  18  28
BRANCH  21  30
ATOM     30  O   UNL     1    -111.597  -9.681  32.382  1.00  0.00    -0.507 OA
ATOM     31  H   UNL     1    -111.419 -10.676  32.309  1.00  0.00     0.293 HD
ENDBRANCH  21  30
BRANCH  25  32
ATOM     32  C   UNL     1    -112.483 -11.521  38.603  1.00  0.00     0.017 A 
ATOM     33  C   UNL     1    -113.394 -11.020  39.554  1.00  0.00     0.012 A 
ATOM     34  C   UNL     1    -111.628 -12.575  38.972  1.00  0.00     0.012 A 
ATOM     35  C   UNL     1    -113.449 -11.569  40.838  1.00  0.00     0.001 A 
ATOM     36  C   UNL     1    -111.687 -13.121  40.258  1.00  0.00     0.001 A 
ATOM     37  C   UNL     1    -112.595 -12.617  41.191  1.00  0.00     0.000 A 
ENDBRANCH  25  32
ENDBRANCH   1  17
TORSDOF 9
ENDMDL
MODEL 2
REMARK VINA RESULT:    -5.369      3.136      8.890
REMARK INTER + INTRA:          -8.618
REMARK INTER:                  -7.700
REMARK INTRA:                  -0.918
REMARK UNBOUND:                -1.052
REMARK SMILES COc1c(O[C@@H]2O[C@H](C(=O)[O-])[C@@H](O)[C@@H](O)[C@H]2O)cc(O)c2c(=O)cc(-c3ccccc3)oc12
REMARK SMILES IDX 5 1 6 2 8 3 12 4 7 5 14 6 16 7 9 8 10 9 11 10 13 11 15 13
REMARK SMILES IDX 17 15 4 17 3 18 18 19 33 20 19 21 21 22 32 23 22 24 25 25
REMARK SMILES IDX 24 26 23 27 2 28 1 29 20 30 26 32 27 33 31 34 28 35 30 36
REMARK SMILES IDX 29 37
REMARK H PARENT 13 12 15 14 17 16 20 31
REMARK Flexibility Score: inf
ROOT
ATOM      1  O   UNL     1    -113.769 -11.761  39.450  1.00  0.00    -0.458 OA
ENDROOT
BRANCH   1   2
ATOM      2  C   UNL     1    -112.974 -11.918  40.632  1.00  0.00     0.339 C 
ATOM      3  C   UNL     1    -112.812 -11.273  42.869  1.00  0.00     0.199 C 
ATOM      4  C   UNL     1    -111.276 -11.570  42.839  1.00  0.00     0.180 C 
ATOM      5  O   UNL     1    -113.332 -10.939  41.590  1.00  0.00    -0.328 OA
ATOM      6  C   UNL     1    -110.689 -11.170  41.469  1.00  0.00     0.181 C 
ATOM      7  C   UNL     1    -111.458 -11.836  40.303  1.00  0.00     0.214 C 
BRANCH   3   8
ATOM      8  C   UNL     1    -113.102 -10.132  43.799  1.00  0.00     0.073 C 
ATOM      9  O   UNL     1    -112.300  -9.852  44.731  1.00  0.00    -0.547 OA
ATOM     10  O   UNL     1    -114.237  -9.352  43.614  1.00  0.00    -0.547 OA
ENDBRANCH   3   8
BRANCH   4  11
ATOM     11  O   UNL     1    -111.049 -12.938  43.068  1.00  0.00    -0.387 OA
ATOM     12  H   UNL     1    -111.560 -13.433  42.374  1.00  0.00     0.211 HD
ENDBRANCH   4  11
BRANCH   6  13
ATOM     13  O   UNL     1    -109.304 -11.410  41.394  1.00  0.00    -0.387 OA
ATOM     14  H   UNL     1    -108.866 -10.935  42.147  1.00  0.00     0.211 HD
ENDBRANCH   6  13
BRANCH   7  15
ATOM     15  O   UNL     1    -110.956 -13.124  40.054  1.00  0.00    -0.384 OA
ATOM     16  H   UNL     1    -111.709 -13.653  39.677  1.00  0.00     0.211 HD
ENDBRANCH   7  15
ENDBRANCH   1   2
BRANCH   1  17
ATOM     17  C   UNL     1    -113.267 -11.301  38.226  1.00  0.00     0.172 A 
ATOM     18  C   UNL     1    -113.351  -9.944  37.869  1.00  0.00     0.205 A 
ATOM     19  C   UNL     1    -112.708 -12.229  37.347  1.00  0.00     0.097 A 
ATOM     20  C   UNL     1    -112.777  -9.514  36.644  1.00  0.00     0.188 A 
ATOM     21  C   UNL     1    -112.161 -11.825  36.127  1.00  0.00     0.134 A 
ATOM     22  C   UNL     1    -112.175 -10.458  35.770  1.00  0.00     0.111 A 
ATOM     23  O   UNL     1    -112.788  -8.224  36.312  1.00  0.00    -0.452 OA
ATOM     24  C   UNL     1    -111.612  -9.983  34.569  1.00  0.00     0.197 A 
ATOM     25  C   UNL     1    -112.245  -7.743  35.197  1.00  0.00     0.138 A 
ATOM     26  C   UNL     1    -111.646  -8.620  34.284  1.00  0.00     0.100 A 
ATOM     27  O   UNL     1    -111.072 -10.763  33.739  1.00  0.00    -0.289 OA
BRANCH  18  28
ATOM     28  O   UNL     1    -114.026  -9.085  38.756  1.00  0.00    -0.490 OA
ATOM     29  C   UNL     1    -115.421  -8.810  38.781  1.00  0.00     0.278 C 
ENDBRANCH  18  28
BRANCH  21  30
ATOM     30  O   UNL     1    -111.600 -12.784  35.281  1.00  0.00    -0.507 OA
ATOM     31  H   UNL     1    -111.770 -12.777  34.281  1.00  0.00     0.293 HD
ENDBRANCH  21  30
BRANCH  25  32
ATOM     32  C   UNL     1    -112.286  -6.281  34.950  1.00  0.00     0.017 A 
ATOM     33  C   UNL     1    -112.891  -5.400  35.870  1.00  0.00     0.012 A 
ATOM     34  C   UNL     1    -111.752  -5.757  33.760  1.00  0.00     0.012 A 
ATOM     35  C   UNL     1    -112.949  -4.029  35.601  1.00  0.00     0.001 A 
ATOM     36  C   UNL     1    -111.812  -4.385  33.497  1.00  0.00     0.001 A 
ATOM     37  C   UNL     1    -112.411  -3.521  34.415  1.00  0.00     0.000 A 
ENDBRANCH  25  32
ENDBRANCH   1  17
TORSDOF 9
ENDMDL
MODEL 3
REMARK VINA RESULT:    -5.278      1.417      2.306
REMARK INTER + INTRA:          -8.489
REMARK INTER:                  -7.351
REMARK INTRA:                  -1.138
REMARK UNBOUND:                -1.052
REMARK SMILES COc1c(O[C@@H]2O[C@H](C(=O)[O-])[C@@H](O)[C@@H](O)[C@H]2O)cc(O)c2c(=O)cc(-c3ccccc3)oc12
REMARK SMILES IDX 5 1 6 2 8 3 12 4 7 5 14 6 16 7 9 8 10 9 11 10 13 11 15 13
REMARK SMILES IDX 17 15 4 17 3 18 18 19 33 20 19 21 21 22 32 23 22 24 25 25
REMARK SMILES IDX 24 26 23 27 2 28 1 29 20 30 26 32 27 33 31 34 28 35 30 36
REMARK SMILES IDX 29 37
REMARK H PARENT 13 12 15 14 17 16 20 31
REMARK Flexibility Score: inf
ROOT
ATOM      1  O   UNL     1    -114.019  -6.669  33.678  1.00  0.00    -0.458 OA
ENDROOT
BRANCH   1   2
ATOM      2  C   UNL     1    -113.441  -5.358  33.679  1.00  0.00     0.339 C 
ATOM      3  C   UNL     1    -113.833  -3.147  34.317  1.00  0.00     0.199 C 
ATOM      4  C   UNL     1    -112.808  -2.660  33.241  1.00  0.00     0.180 C 
ATOM      5  O   UNL     1    -114.431  -4.392  33.982  1.00  0.00    -0.328 OA
ATOM      6  C   UNL     1    -112.913  -3.540  31.977  1.00  0.00     0.181 C 
ATOM      7  C   UNL     1    -112.766  -5.042  32.316  1.00  0.00     0.214 C 
BRANCH   3   8
ATOM      8  C   UNL     1    -114.930  -2.137  34.485  1.00  0.00     0.073 C 
ATOM      9  O   UNL     1    -114.853  -1.015  33.918  1.00  0.00    -0.547 OA
ATOM     10  O   UNL     1    -116.057  -2.450  35.237  1.00  0.00    -0.547 OA
ENDBRANCH   3   8
BRANCH   4  11
ATOM     11  O   UNL     1    -111.504  -2.727  33.757  1.00  0.00    -0.387 OA
ATOM     12  H   UNL     1    -111.032  -1.908  33.452  1.00  0.00     0.211 HD
ENDBRANCH   4  11
BRANCH   6  13
ATOM     13  O   UNL     1    -112.014  -3.134  30.972  1.00  0.00    -0.387 OA
ATOM     14  H   UNL     1    -112.445  -2.415  30.442  1.00  0.00     0.211 HD
ENDBRANCH   6  13
BRANCH   7  15
ATOM     15  O   UNL     1    -111.410  -5.407  32.363  1.00  0.00    -0.384 OA
ATOM     16  H   UNL     1    -111.379  -6.397  32.281  1.00  0.00     0.211 HD
ENDBRANCH   7  15
ENDBRANCH   1   2
BRANCH   1  17
ATOM     17  C   UNL     1    -113.416  -7.790  34.262  1.00  0.00     0.172 A 
ATOM     18  C   UNL     1    -113.678  -8.145  35.597  1.00  0.00     0.205 A 
ATOM     19  C   UNL     1    -112.518  -8.534  33.497  1.00  0.00     0.097 A 
ATOM     20  C   UNL     1    -113.090  -9.322  36.128  1.00  0.00     0.188 A 
ATOM     21  C   UNL     1    -111.912  -9.682  34.014  1.00  0.00     0.134 A 
ATOM     22  C   UNL     1    -112.205 -10.097  35.332  1.00  0.00     0.111 A 
ATOM     23  O   UNL     1    -113.372  -9.714  37.370  1.00  0.00    -0.452 OA
ATOM     24  C   UNL     1    -111.652 -11.262  35.901  1.00  0.00     0.197 A 
ATOM     25  C   UNL     1    -112.883 -10.820  37.926  1.00  0.00     0.138 A 
ATOM     26  C   UNL     1    -111.995 -11.623  37.201  1.00  0.00     0.100 A 
ATOM     27  O   UNL     1    -110.850 -11.992  35.258  1.00  0.00    -0.289 OA
BRANCH  18  28
ATOM     28  O   UNL     1    -114.509  -7.286  36.340  1.00  0.00    -0.490 OA
ATOM     29  C   UNL     1    -114.094  -6.253  37.225  1.00  0.00     0.278 C 
ENDBRANCH  18  28
BRANCH  21  30
ATOM     30  O   UNL     1    -111.027 -10.406  33.212  1.00  0.00    -0.507 OA
ATOM     31  H   UNL     1    -110.283  -9.951  32.695  1.00  0.00     0.293 HD
ENDBRANCH  21  30
BRANCH  25  32
ATOM     32  C   UNL     1    -113.297 -11.174  39.305  1.00  0.00     0.017 A 
ATOM     33  C   UNL     1    -114.636 -11.035  39.726  1.00  0.00     0.012 A 
ATOM     34  C   UNL     1    -112.337 -11.619  40.230  1.00  0.00     0.012 A 
ATOM     35  C   UNL     1    -114.997 -11.343  41.041  1.00  0.00     0.001 A 
ATOM     36  C   UNL     1    -112.705 -11.926  41.544  1.00  0.00     0.001 A 
ATOM     37  C   UNL     1    -114.033 -11.787  41.950  1.00  0.00     0.000 A 
ENDBRANCH  25  32
ENDBRANCH   1  17
TORSDOF 9
ENDMDL
MODEL 4
REMARK VINA RESULT:    -4.963      1.747      2.141
REMARK INTER + INTRA:          -8.046
REMARK INTER:                  -6.956
REMARK INTRA:                  -1.090
REMARK UNBOUND:                -1.052
REMARK SMILES COc1c(O[C@@H]2O[C@H](C(=O)[O-])[C@@H](O)[C@@H](O)[C@H]2O)cc(O)c2c(=O)cc(-c3ccccc3)oc12
REMARK SMILES IDX 5 1 6 2 8 3 12 4 7 5 14 6 16 7 9 8 10 9 11 10 13 11 15 13
REMARK SMILES IDX 17 15 4 17 3 18 18 19 33 20 19 21 21 22 32 23 22 24 25 25
REMARK SMILES IDX 24 26 23 27 2 28 1 29 20 30 26 32 27 33 31 34 28 35 30 36
REMARK SMILES IDX 29 37
REMARK H PARENT 13 12 15 14 17 16 20 31
REMARK Flexibility Score: inf
ROOT
ATOM      1  O   UNL     1    -112.284  -5.308  35.356  1.00  0.00    -0.458 OA
ENDROOT
BRANCH   1   2
ATOM      2  C   UNL     1    -113.005  -4.665  34.298  1.00  0.00     0.339 C 
ATOM      3  C   UNL     1    -112.960  -4.229  32.006  1.00  0.00     0.199 C 
ATOM      4  C   UNL     1    -113.884  -2.987  32.228  1.00  0.00     0.180 C 
ATOM      5  O   UNL     1    -112.183  -4.548  33.151  1.00  0.00    -0.328 OA
ATOM      6  C   UNL     1    -113.513  -2.284  33.551  1.00  0.00     0.181 C 
ATOM      7  C   UNL     1    -113.528  -3.270  34.743  1.00  0.00     0.214 C 
BRANCH   3   8
ATOM      8  C   UNL     1    -112.020  -3.980  30.863  1.00  0.00     0.073 C 
ATOM      9  O   UNL     1    -112.130  -2.936  30.166  1.00  0.00    -0.547 OA
ATOM     10  O   UNL     1    -110.996  -4.881  30.593  1.00  0.00    -0.547 OA
ENDBRANCH   3   8
BRANCH   4  11
ATOM     11  O   UNL     1    -115.229  -3.392  32.269  1.00  0.00    -0.387 OA
ATOM     12  H   UNL     1    -115.493  -3.410  33.227  1.00  0.00     0.211 HD
ENDBRANCH   4  11
BRANCH   6  13
ATOM     13  O   UNL     1    -114.312  -1.151  33.792  1.00  0.00    -0.387 OA
ATOM     14  H   UNL     1    -114.228  -0.540  33.015  1.00  0.00     0.211 HD
ENDBRANCH   6  13
BRANCH   7  15
ATOM     15  O   UNL     1    -114.827  -3.395  35.264  1.00  0.00    -0.384 OA
ATOM     16  H   UNL     1    -115.049  -2.522  35.683  1.00  0.00     0.211 HD
ENDBRANCH   7  15
ENDBRANCH   1   2
BRANCH   1  17
ATOM     17  C   UNL     1    -112.282  -6.692  35.573  1.00  0.00     0.172 A 
ATOM     18  C   UNL     1    -112.930  -7.254  36.687  1.00  0.00     0.205 A 
ATOM     19  C   UNL     1    -111.592  -7.504  34.673  1.00  0.00     0.097 A 
ATOM     20  C   UNL     1    -112.952  -8.665  36.834  1.00  0.00     0.188 A 
ATOM     21  C   UNL     1    -111.583  -8.893  34.818  1.00  0.00     0.134 A 
ATOM     22  C   UNL     1    -112.278  -9.490  35.894  1.00  0.00     0.111 A 
ATOM     23  O   UNL     1    -113.611  -9.227  37.846  1.00  0.00    -0.452 OA
ATOM     24  C   UNL     1    -112.334 -10.886  36.078  1.00  0.00     0.197 A 
ATOM     25  C   UNL     1    -113.701 -10.541  38.033  1.00  0.00     0.138 A 
ATOM     26  C   UNL     1    -113.051 -11.411  37.151  1.00  0.00     0.100 A 
ATOM     27  O   UNL     1    -111.751 -11.679  35.290  1.00  0.00    -0.289 OA
BRANCH  18  28
ATOM     28  O   UNL     1    -113.511  -6.366  37.610  1.00  0.00    -0.490 OA
ATOM     29  C   UNL     1    -114.871  -5.950  37.651  1.00  0.00     0.278 C 
ENDBRANCH  18  28
BRANCH  21  30
ATOM     30  O   UNL     1    -110.890  -9.672  33.889  1.00  0.00    -0.507 OA
ATOM     31  H   UNL     1    -110.815 -10.678  33.987  1.00  0.00     0.293 HD
ENDBRANCH  21  30
BRANCH  25  32
ATOM     32  C   UNL     1    -114.495 -11.051  39.177  1.00  0.00     0.017 A 
ATOM     33  C   UNL     1    -114.661 -10.289  40.352  1.00  0.00     0.012 A 
ATOM     34  C   UNL     1    -115.063 -12.337  39.116  1.00  0.00     0.012 A 
ATOM     35  C   UNL     1    -115.385 -10.804  41.431  1.00  0.00     0.001 A 
ATOM     36  C   UNL     1    -115.786 -12.846  40.199  1.00  0.00     0.001 A 
ATOM     37  C   UNL     1    -115.947 -12.082  41.356  1.00  0.00     0.000 A 
ENDBRANCH  25  32
ENDBRANCH   1  17
TORSDOF 9
ENDMDL
MODEL 5
REMARK VINA RESULT:    -4.925      1.867      3.817
REMARK INTER + INTRA:          -7.992
REMARK INTER:                  -6.849
REMARK INTRA:                  -1.143
REMARK UNBOUND:                -1.052
REMARK SMILES COc1c(O[C@@H]2O[C@H](C(=O)[O-])[C@@H](O)[C@@H](O)[C@H]2O)cc(O)c2c(=O)cc(-c3ccccc3)oc12
REMARK SMILES IDX 5 1 6 2 8 3 12 4 7 5 14 6 16 7 9 8 10 9 11 10 13 11 15 13
REMARK SMILES IDX 17 15 4 17 3 18 18 19 33 20 19 21 21 22 32 23 22 24 25 25
REMARK SMILES IDX 24 26 23 27 2 28 1 29 20 30 26 32 27 33 31 34 28 35 30 36
REMARK SMILES IDX 29 37
REMARK H PARENT 13 12 15 14 17 16 20 31
REMARK Flexibility Score: inf
ROOT
ATOM      1  O   UNL     1    -112.050  -5.046  34.390  1.00  0.00    -0.458 OA
ENDROOT
BRANCH   1   2
ATOM      2  C   UNL     1    -112.545  -4.820  33.064  1.00  0.00     0.339 C 
ATOM      3  C   UNL     1    -112.307  -5.497  30.844  1.00  0.00     0.199 C 
ATOM      4  C   UNL     1    -112.893  -4.127  30.368  1.00  0.00     0.180 C 
ATOM      5  O   UNL     1    -111.678  -5.414  32.115  1.00  0.00    -0.328 OA
ATOM      6  C   UNL     1    -112.405  -2.994  31.296  1.00  0.00     0.181 C 
ATOM      7  C   UNL     1    -112.713  -3.302  32.781  1.00  0.00     0.214 C 
BRANCH   3   8
ATOM      8  C   UNL     1    -111.292  -5.998  29.858  1.00  0.00     0.073 C 
ATOM      9  O   UNL     1    -111.482  -7.085  29.248  1.00  0.00    -0.547 OA
ATOM     10  O   UNL     1    -110.155  -5.247  29.584  1.00  0.00    -0.547 OA
ENDBRANCH   3   8
BRANCH   4  11
ATOM     11  O   UNL     1    -114.297  -4.177  30.382  1.00  0.00    -0.387 OA
ATOM     12  H   UNL     1    -114.594  -3.660  31.177  1.00  0.00     0.211 HD
ENDBRANCH   4  11
BRANCH   6  13
ATOM     13  O   UNL     1    -112.899  -1.736  30.902  1.00  0.00    -0.387 OA
ATOM     14  H   UNL     1    -112.233  -1.047  31.157  1.00  0.00     0.211 HD
ENDBRANCH   6  13
BRANCH   7  15
ATOM     15  O   UNL     1    -114.020  -2.900  33.106  1.00  0.00    -0.384 OA
ATOM     16  H   UNL     1    -114.240  -3.331  33.975  1.00  0.00     0.211 HD
ENDBRANCH   7  15
ENDBRANCH   1   2
BRANCH   1  17
ATOM     17  C   UNL     1    -112.810  -5.610  35.423  1.00  0.00     0.172 A 
ATOM     18  C   UNL     1    -112.572  -6.922  35.869  1.00  0.00     0.205 A 
ATOM     19  C   UNL     1    -113.836  -4.849  35.983  1.00  0.00     0.097 A 
ATOM     20  C   UNL     1    -113.327  -7.430  36.958  1.00  0.00     0.188 A 
ATOM     21  C   UNL     1    -114.605  -5.344  37.039  1.00  0.00     0.134 A 
ATOM     22  C   UNL     1    -114.346  -6.636  37.549  1.00  0.00     0.111 A 
ATOM     23  O   UNL     1    -113.078  -8.646  37.440  1.00  0.00    -0.452 OA
ATOM     24  C   UNL     1    -115.064  -7.181  38.633  1.00  0.00     0.197 A 
ATOM     25  C   UNL     1    -113.723  -9.178  38.475  1.00  0.00     0.138 A 
ATOM     26  C   UNL     1    -114.748  -8.455  39.097  1.00  0.00     0.100 A 
ATOM     27  O   UNL     1    -115.990  -6.540  39.199  1.00  0.00    -0.289 OA
BRANCH  18  28
ATOM     28  O   UNL     1    -111.594  -7.667  35.185  1.00  0.00    -0.490 OA
ATOM     29  C   UNL     1    -111.813  -8.592  34.127  1.00  0.00     0.278 C 
ENDBRANCH  18  28
BRANCH  21  30
ATOM     30  O   UNL     1    -115.615  -4.546  37.580  1.00  0.00    -0.507 OA
ATOM     31  H   UNL     1    -116.258  -4.901  38.279  1.00  0.00     0.293 HD
ENDBRANCH  21  30
BRANCH  25  32
ATOM     32  C   UNL     1    -113.334 -10.529  38.947  1.00  0.00     0.017 A 
ATOM     33  C   UNL     1    -113.675 -10.981  40.238  1.00  0.00     0.012 A 
ATOM     34  C   UNL     1    -112.575 -11.369  38.113  1.00  0.00     0.012 A 
ATOM     35  C   UNL     1    -113.269 -12.245  40.674  1.00  0.00     0.001 A 
ATOM     36  C   UNL     1    -112.171 -12.633  38.554  1.00  0.00     0.001 A 
ATOM     37  C   UNL     1    -112.516 -13.071  39.834  1.00  0.00     0.000 A 
ENDBRANCH  25  32
ENDBRANCH   1  17
TORSDOF 9
ENDMDL
MODEL 6
REMARK VINA RESULT:    -4.865      1.633      2.118
REMARK INTER + INTRA:          -7.907
REMARK INTER:                  -7.147
REMARK INTRA:                  -0.760
REMARK UNBOUND:                -1.052
REMARK SMILES COc1c(O[C@@H]2O[C@H](C(=O)[O-])[C@@H](O)[C@@H](O)[C@H]2O)cc(O)c2c(=O)cc(-c3ccccc3)oc12
REMARK SMILES IDX 5 1 6 2 8 3 12 4 7 5 14 6 16 7 9 8 10 9 11 10 13 11 15 13
REMARK SMILES IDX 17 15 4 17 3 18 18 19 33 20 19 21 21 22 32 23 22 24 25 25
REMARK SMILES IDX 24 26 23 27 2 28 1 29 20 30 26 32 27 33 31 34 28 35 30 36
REMARK SMILES IDX 29 37
REMARK H PARENT 13 12 15 14 17 16 20 31
REMARK Flexibility Score: inf
ROOT
ATOM      1  O   UNL     1    -115.132  -7.542  35.202  1.00  0.00    -0.458 OA
ENDROOT
BRANCH   1   2
ATOM      2  C   UNL     1    -114.697  -6.291  34.655  1.00  0.00     0.339 C 
ATOM      3  C   UNL     1    -113.520  -5.341  32.878  1.00  0.00     0.199 C 
ATOM      4  C   UNL     1    -113.231  -4.076  33.751  1.00  0.00     0.180 C 
ATOM      5  O   UNL     1    -113.717  -6.513  33.657  1.00  0.00    -0.328 OA
ATOM      6  C   UNL     1    -112.984  -4.492  35.217  1.00  0.00     0.181 C 
ATOM      7  C   UNL     1    -114.146  -5.355  35.767  1.00  0.00     0.214 C 
BRANCH   3   8
ATOM      8  C   UNL     1    -112.376  -5.597  31.940  1.00  0.00     0.073 C 
ATOM      9  O   UNL     1    -111.340  -4.882  31.992  1.00  0.00    -0.547 OA
ATOM     10  O   UNL     1    -112.439  -6.651  31.036  1.00  0.00    -0.547 OA
ENDBRANCH   3   8
BRANCH   4  11
ATOM     11  O   UNL     1    -114.321  -3.192  33.688  1.00  0.00    -0.387 OA
ATOM     12  H   UNL     1    -115.092  -3.714  33.340  1.00  0.00     0.211 HD
ENDBRANCH   4  11
BRANCH   6  13
ATOM     13  O   UNL     1    -112.710  -3.387  36.044  1.00  0.00    -0.387 OA
ATOM     14  H   UNL     1    -111.852  -2.985  35.751  1.00  0.00     0.211 HD
ENDBRANCH   6  13
BRANCH   7  15
ATOM     15  O   UNL     1    -115.180  -4.538  36.253  1.00  0.00    -0.384 OA
ATOM     16  H   UNL     1    -114.835  -3.605  36.237  1.00  0.00     0.211 HD
ENDBRANCH   7  15
ENDBRANCH   1   2
BRANCH   1  17
ATOM     17  C   UNL     1    -114.262  -8.558  35.619  1.00  0.00     0.172 A 
ATOM     18  C   UNL     1    -114.114  -8.875  36.981  1.00  0.00     0.205 A 
ATOM     19  C   UNL     1    -113.517  -9.232  34.652  1.00  0.00     0.097 A 
ATOM     20  C   UNL     1    -113.266  -9.951  37.351  1.00  0.00     0.188 A 
ATOM     21  C   UNL     1    -112.659 -10.277  35.003  1.00  0.00     0.134 A 
ATOM     22  C   UNL     1    -112.537 -10.659  36.358  1.00  0.00     0.111 A 
ATOM     23  O   UNL     1    -113.156 -10.312  38.629  1.00  0.00    -0.452 OA
ATOM     24  C   UNL     1    -111.714 -11.724  36.774  1.00  0.00     0.197 A 
ATOM     25  C   UNL     1    -112.405 -11.327  39.049  1.00  0.00     0.138 A 
ATOM     26  C   UNL     1    -111.651 -12.059  38.124  1.00  0.00     0.100 A 
ATOM     27  O   UNL     1    -111.030 -12.389  35.950  1.00  0.00    -0.289 OA
BRANCH  18  28
ATOM     28  O   UNL     1    -114.814  -8.081  37.907  1.00  0.00    -0.490 OA
ATOM     29  C   UNL     1    -114.259  -7.132  38.808  1.00  0.00     0.278 C 
ENDBRANCH  18  28
BRANCH  21  30
ATOM     30  O   UNL     1    -111.939 -10.934  34.003  1.00  0.00    -0.507 OA
ATOM     31  H   UNL     1    -111.519 -10.429  33.231  1.00  0.00     0.293 HD
ENDBRANCH  21  30
BRANCH  25  32
ATOM     32  C   UNL     1    -112.390 -11.659  40.495  1.00  0.00     0.017 A 
ATOM     33  C   UNL     1    -113.569 -11.623  41.267  1.00  0.00     0.012 A 
ATOM     34  C   UNL     1    -111.174 -11.978  41.126  1.00  0.00     0.012 A 
ATOM     35  C   UNL     1    -113.525 -11.906  42.635  1.00  0.00     0.001 A 
ATOM     36  C   UNL     1    -111.137 -12.261  42.495  1.00  0.00     0.001 A 
ATOM     37  C   UNL     1    -112.311 -12.224  43.250  1.00  0.00     0.000 A 
ENDBRANCH  25  32
ENDBRANCH   1  17
TORSDOF 9
ENDMDL
MODEL 7
REMARK VINA RESULT:    -4.657      1.829      2.366
REMARK INTER + INTRA:          -7.615
REMARK INTER:                  -6.473
REMARK INTRA:                  -1.142
REMARK UNBOUND:                -1.052
REMARK SMILES COc1c(O[C@@H]2O[C@H](C(=O)[O-])[C@@H](O)[C@@H](O)[C@H]2O)cc(O)c2c(=O)cc(-c3ccccc3)oc12
REMARK SMILES IDX 5 1 6 2 8 3 12 4 7 5 14 6 16 7 9 8 10 9 11 10 13 11 15 13
REMARK SMILES IDX 17 15 4 17 3 18 18 19 33 20 19 21 21 22 32 23 22 24 25 25
REMARK SMILES IDX 24 26 23 27 2 28 1 29 20 30 26 32 27 33 31 34 28 35 30 36
REMARK SMILES IDX 29 37
REMARK H PARENT 13 12 15 14 17 16 20 31
REMARK Flexibility Score: inf
ROOT
ATOM      1  O   UNL     1    -112.075  -5.135  32.775  1.00  0.00    -0.458 OA
ENDROOT
BRANCH   1   2
ATOM      2  C   UNL     1    -113.075  -4.191  32.374  1.00  0.00     0.339 C 
ATOM      3  C   UNL     1    -113.663  -2.707  30.671  1.00  0.00     0.199 C 
ATOM      4  C   UNL     1    -114.533  -1.894  31.685  1.00  0.00     0.180 C 
ATOM      5  O   UNL     1    -112.596  -3.405  31.298  1.00  0.00    -0.328 OA
ATOM      6  C   UNL     1    -113.843  -1.863  33.065  1.00  0.00     0.181 C 
ATOM      7  C   UNL     1    -113.504  -3.289  33.564  1.00  0.00     0.214 C 
BRANCH   3   8
ATOM      8  C   UNL     1    -113.073  -1.790  29.640  1.00  0.00     0.073 C 
ATOM      9  O   UNL     1    -113.727  -0.796  29.225  1.00  0.00    -0.547 OA
ATOM     10  O   UNL     1    -111.785  -2.010  29.166  1.00  0.00    -0.547 OA
ENDBRANCH   3   8
BRANCH   4  11
ATOM     11  O   UNL     1    -115.803  -2.483  31.805  1.00  0.00    -0.387 OA
ATOM     12  H   UNL     1    -116.403  -1.792  32.192  1.00  0.00     0.211 HD
ENDBRANCH   4  11
BRANCH   6  13
ATOM     13  O   UNL     1    -114.584  -1.133  34.013  1.00  0.00    -0.387 OA
ATOM     14  H   UNL     1    -115.544  -1.353  33.893  1.00  0.00     0.211 HD
ENDBRANCH   6  13
BRANCH   7  15
ATOM     15  O   UNL     1    -114.610  -3.859  34.216  1.00  0.00    -0.384 OA
ATOM     16  H   UNL     1    -115.344  -3.899  33.547  1.00  0.00     0.211 HD
ENDBRANCH   7  15
ENDBRANCH   1   2
BRANCH   1  17
ATOM     17  C   UNL     1    -112.320  -6.502  32.964  1.00  0.00     0.172 A 
ATOM     18  C   UNL     1    -112.185  -7.097  34.230  1.00  0.00     0.205 A 
ATOM     19  C   UNL     1    -112.672  -7.272  31.855  1.00  0.00     0.097 A 
ATOM     20  C   UNL     1    -112.501  -8.472  34.385  1.00  0.00     0.188 A 
ATOM     21  C   UNL     1    -112.961  -8.632  31.987  1.00  0.00     0.134 A 
ATOM     22  C   UNL     1    -112.895  -9.243  33.260  1.00  0.00     0.111 A 
ATOM     23  O   UNL     1    -112.441  -9.045  35.586  1.00  0.00    -0.452 OA
ATOM     24  C   UNL     1    -113.205 -10.603  33.464  1.00  0.00     0.197 A 
ATOM     25  C   UNL     1    -112.750 -10.319  35.815  1.00  0.00     0.138 A 
ATOM     26  C   UNL     1    -113.134 -11.139  34.748  1.00  0.00     0.100 A 
ATOM     27  O   UNL     1    -113.550 -11.351  32.510  1.00  0.00    -0.289 OA
BRANCH  18  28
ATOM     28  O   UNL     1    -111.722  -6.281  35.279  1.00  0.00    -0.490 OA
ATOM     29  C   UNL     1    -112.512  -5.647  36.277  1.00  0.00     0.278 C 
ENDBRANCH  18  28
BRANCH  21  30
ATOM     30  O   UNL     1    -113.321  -9.366  30.855  1.00  0.00    -0.507 OA
ATOM     31  H   UNL     1    -114.131  -9.975  30.849  1.00  0.00     0.293 HD
ENDBRANCH  21  30
BRANCH  25  32
ATOM     32  C   UNL     1    -112.681 -10.837  37.203  1.00  0.00     0.017 A 
ATOM     33  C   UNL     1    -113.541 -10.353  38.209  1.00  0.00     0.012 A 
ATOM     34  C   UNL     1    -111.715 -11.801  37.542  1.00  0.00     0.012 A 
ATOM     35  C   UNL     1    -113.436 -10.831  39.518  1.00  0.00     0.001 A 
ATOM     36  C   UNL     1    -111.615 -12.276  38.853  1.00  0.00     0.001 A 
ATOM     37  C   UNL     1    -112.473 -11.791  39.841  1.00  0.00     0.000 A 
ENDBRANCH  25  32
ENDBRANCH   1  17
TORSDOF 9
ENDMDL
MODEL 8
REMARK VINA RESULT:    -4.646      9.862     12.303
REMARK INTER + INTRA:          -7.599
REMARK INTER:                  -6.627
REMARK INTRA:                  -0.973
REMARK UNBOUND:                -1.052
REMARK SMILES COc1c(O[C@@H]2O[C@H](C(=O)[O-])[C@@H](O)[C@@H](O)[C@H]2O)cc(O)c2c(=O)cc(-c3ccccc3)oc12
REMARK SMILES IDX 5 1 6 2 8 3 12 4 7 5 14 6 16 7 9 8 10 9 11 10 13 11 15 13
REMARK SMILES IDX 17 15 4 17 3 18 18 19 33 20 19 21 21 22 32 23 22 24 25 25
REMARK SMILES IDX 24 26 23 27 2 28 1 29 20 30 26 32 27 33 31 34 28 35 30 36
REMARK SMILES IDX 29 37
REMARK H PARENT 13 12 15 14 17 16 20 31
REMARK Flexibility Score: inf
ROOT
ATOM      1  O   UNL     1    -112.364  -2.389  46.781  1.00  0.00    -0.458 OA
ENDROOT
BRANCH   1   2
ATOM      2  C   UNL     1    -112.954  -1.089  46.903  1.00  0.00     0.339 C 
ATOM      3  C   UNL     1    -114.022   0.595  45.691  1.00  0.00     0.199 C 
ATOM      4  C   UNL     1    -113.578   1.643  46.764  1.00  0.00     0.180 C 
ATOM      5  O   UNL     1    -113.148  -0.522  45.620  1.00  0.00    -0.328 OA
ATOM      6  C   UNL     1    -112.164   1.302  47.280  1.00  0.00     0.181 C 
ATOM      7  C   UNL     1    -112.080  -0.157  47.788  1.00  0.00     0.214 C 
BRANCH   3   8
ATOM      8  C   UNL     1    -114.071   1.231  44.333  1.00  0.00     0.073 C 
ATOM      9  O   UNL     1    -114.495   2.410  44.198  1.00  0.00    -0.547 OA
ATOM     10  O   UNL     1    -113.611   0.536  43.220  1.00  0.00    -0.547 OA
ENDBRANCH   3   8
BRANCH   4  11
ATOM     11  O   UNL     1    -114.485   1.643  47.837  1.00  0.00    -0.387 OA
ATOM     12  H   UNL     1    -114.302   0.822  48.366  1.00  0.00     0.211 HD
ENDBRANCH   4  11
BRANCH   6  13
ATOM     13  O   UNL     1    -111.714   2.224  48.244  1.00  0.00    -0.387 OA
ATOM     14  H   UNL     1    -112.106   3.110  48.033  1.00  0.00     0.211 HD
ENDBRANCH   6  13
BRANCH   7  15
ATOM     15  O   UNL     1    -112.503  -0.239  49.125  1.00  0.00    -0.384 OA
ATOM     16  H   UNL     1    -112.343   0.655  49.528  1.00  0.00     0.211 HD
ENDBRANCH   7  15
ENDBRANCH   1   2
BRANCH   1  17
ATOM     17  C   UNL     1    -113.084  -3.587  46.872  1.00  0.00     0.172 A 
ATOM     18  C   UNL     1    -112.910  -4.614  45.928  1.00  0.00     0.205 A 
ATOM     19  C   UNL     1    -114.009  -3.728  47.906  1.00  0.00     0.097 A 
ATOM     20  C   UNL     1    -113.618  -5.832  46.093  1.00  0.00     0.188 A 
ATOM     21  C   UNL     1    -114.732  -4.913  48.068  1.00  0.00     0.134 A 
ATOM     22  C   UNL     1    -114.531  -5.985  47.170  1.00  0.00     0.111 A 
ATOM     23  O   UNL     1    -113.424  -6.844  45.248  1.00  0.00    -0.452 OA
ATOM     24  C   UNL     1    -115.205  -7.216  47.297  1.00  0.00     0.197 A 
ATOM     25  C   UNL     1    -114.028  -8.025  45.355  1.00  0.00     0.138 A 
ATOM     26  C   UNL     1    -114.949  -8.238  46.387  1.00  0.00     0.100 A 
ATOM     27  O   UNL     1    -116.039  -7.419  48.221  1.00  0.00    -0.289 OA
BRANCH  18  28
ATOM     28  O   UNL     1    -112.041  -4.358  44.851  1.00  0.00    -0.490 OA
ATOM     29  C   UNL     1    -112.269  -3.468  43.765  1.00  0.00     0.278 C 
ENDBRANCH  18  28
BRANCH  21  30
ATOM     30  O   UNL     1    -115.640  -5.018  49.123  1.00  0.00    -0.507 OA
ATOM     31  H   UNL     1    -115.987  -5.917  49.440  1.00  0.00     0.293 HD
ENDBRANCH  21  30
BRANCH  25  32
ATOM     32  C   UNL     1    -113.704  -9.089  44.375  1.00  0.00     0.017 A 
ATOM     33  C   UNL     1    -114.518  -9.318  43.247  1.00  0.00     0.012 A 
ATOM     34  C   UNL     1    -112.589  -9.919  44.587  1.00  0.00     0.012 A 
ATOM     35  C   UNL     1    -114.212 -10.350  42.354  1.00  0.00     0.001 A 
ATOM     36  C   UNL     1    -112.288 -10.949  43.690  1.00  0.00     0.001 A 
ATOM     37  C   UNL     1    -113.099 -11.165  42.575  1.00  0.00     0.000 A 
ENDBRANCH  25  32
ENDBRANCH   1  17
TORSDOF 9
ENDMDL
MODEL 9
REMARK VINA RESULT:    -4.583      2.986      5.625
REMARK INTER + INTRA:          -7.510
REMARK INTER:                  -6.529
REMARK INTRA:                  -0.981
REMARK UNBOUND:                -1.052
REMARK SMILES COc1c(O[C@@H]2O[C@H](C(=O)[O-])[C@@H](O)[C@@H](O)[C@H]2O)cc(O)c2c(=O)cc(-c3ccccc3)oc12
REMARK SMILES IDX 5 1 6 2 8 3 12 4 7 5 14 6 16 7 9 8 10 9 11 10 13 11 15 13
REMARK SMILES IDX 17 15 4 17 3 18 18 19 33 20 19 21 21 22 32 23 22 24 25 25
REMARK SMILES IDX 24 26 23 27 2 28 1 29 20 30 26 32 27 33 31 34 28 35 30 36
REMARK SMILES IDX 29 37
REMARK H PARENT 13 12 15 14 17 16 20 31
REMARK Flexibility Score: inf
ROOT
ATOM      1  O   UNL     1    -114.615  -9.893  36.843  1.00  0.00    -0.458 OA
ENDROOT
BRANCH   1   2
ATOM      2  C   UNL     1    -113.999  -9.001  35.906  1.00  0.00     0.339 C 
ATOM      3  C   UNL     1    -112.786  -8.934  33.913  1.00  0.00     0.199 C 
ATOM      4  C   UNL     1    -112.220  -7.531  34.309  1.00  0.00     0.180 C 
ATOM      5  O   UNL     1    -113.140  -9.722  35.041  1.00  0.00    -0.328 OA
ATOM      6  C   UNL     1    -111.960  -7.477  35.830  1.00  0.00     0.181 C 
ATOM      7  C   UNL     1    -113.219  -7.872  36.637  1.00  0.00     0.214 C 
BRANCH   3   8
ATOM      8  C   UNL     1    -111.769  -9.699  33.117  1.00  0.00     0.073 C 
ATOM      9  O   UNL     1    -110.821 -10.291  33.699  1.00  0.00    -0.547 OA
ATOM     10  O   UNL     1    -111.890  -9.791  31.736  1.00  0.00    -0.547 OA
ENDBRANCH   3   8
BRANCH   4  11
ATOM     11  O   UNL     1    -113.137  -6.528  33.951  1.00  0.00    -0.387 OA
ATOM     12  H   UNL     1    -113.759  -6.932  33.290  1.00  0.00     0.211 HD
ENDBRANCH   4  11
BRANCH   6  13
ATOM     13  O   UNL     1    -111.440  -6.234  36.235  1.00  0.00    -0.387 OA
ATOM     14  H   UNL     1    -112.124  -5.777  36.789  1.00  0.00     0.211 HD
ENDBRANCH   6  13
BRANCH   7  15
ATOM     15  O   UNL     1    -114.057  -6.759  36.820  1.00  0.00    -0.384 OA
ATOM     16  H   UNL     1    -113.714  -6.274  37.616  1.00  0.00     0.211 HD
ENDBRANCH   7  15
ENDBRANCH   1   2
BRANCH   1  17
ATOM     17  C   UNL     1    -113.991 -10.356  38.009  1.00  0.00     0.172 A 
ATOM     18  C   UNL     1    -114.429  -9.945  39.280  1.00  0.00     0.205 A 
ATOM     19  C   UNL     1    -112.898 -11.212  37.882  1.00  0.00     0.097 A 
ATOM     20  C   UNL     1    -113.805 -10.485  40.434  1.00  0.00     0.188 A 
ATOM     21  C   UNL     1    -112.257 -11.733  39.009  1.00  0.00     0.134 A 
ATOM     22  C   UNL     1    -112.716 -11.387  40.299  1.00  0.00     0.111 A 
ATOM     23  O   UNL     1    -114.242 -10.160  41.650  1.00  0.00    -0.452 OA
ATOM     24  C   UNL     1    -112.134 -11.902  41.475  1.00  0.00     0.197 A 
ATOM     25  C   UNL     1    -113.728 -10.648  42.777  1.00  0.00     0.138 A 
ATOM     26  C   UNL     1    -112.645 -11.531  42.716  1.00  0.00     0.100 A 
ATOM     27  O   UNL     1    -111.156 -12.697  41.432  1.00  0.00    -0.289 OA
BRANCH  18  28
ATOM     28  O   UNL     1    -115.466  -8.995  39.328  1.00  0.00    -0.490 OA
ATOM     29  C   UNL     1    -115.369  -7.649  39.777  1.00  0.00     0.278 C 
ENDBRANCH  18  28
BRANCH  21  30
ATOM     30  O   UNL     1    -111.173 -12.597  38.839  1.00  0.00    -0.507 OA
ATOM     31  H   UNL     1    -110.284 -12.271  38.478  1.00  0.00     0.293 HD
ENDBRANCH  21  30
BRANCH  25  32
ATOM     32  C   UNL     1    -114.322 -10.241  44.073  1.00  0.00     0.017 A 
ATOM     33  C   UNL     1    -114.378  -8.886  44.460  1.00  0.00     0.012 A 
ATOM     34  C   UNL     1    -114.805 -11.220  44.959  1.00  0.00     0.012 A 
ATOM     35  C   UNL     1    -114.912  -8.528  45.702  1.00  0.00     0.001 A 
ATOM     36  C   UNL     1    -115.338 -10.856  46.199  1.00  0.00     0.001 A 
ATOM     37  C   UNL     1    -115.391  -9.512  46.572  1.00  0.00     0.000 A 
ENDBRANCH  25  32
ENDBRANCH   1  17
TORSDOF 9
ENDMDL
