MODEL 1
REMARK VINA RESULT:    -3.860      0.000      0.000
REMARK INTER + INTRA:          -5.989
REMARK INTER:                  -5.439
REMARK INTRA:                  -0.550
REMARK UNBOUND:                -0.550
REMARK SMILES CCCCCCCCC(=O)[O-]
REMARK SMILES IDX 6 1 7 2 8 3 9 4 10 5 11 6 5 7 4 8 3 9 2 10 1 11
REMARK H PARENT
REMARK Flexibility Score: inf
ROOT
ATOM      1  C   UNL     1      16.433   8.743   4.854  1.00  0.00     0.000 C 
ENDROOT
BRANCH   1   2
ATOM      2  C   UNL     1      16.133   7.472   5.663  1.00  0.00     0.006 C 
BRANCH   2   3
ATOM      3  C   UNL     1      17.387   6.615   5.884  1.00  0.00     0.053 C 
BRANCH   3   4
ATOM      4  C   UNL     1      17.858   6.675   7.304  1.00  0.00     0.041 C 
ATOM      5  O   UNL     1      17.074   7.048   8.217  1.00  0.00    -0.550 OA
ATOM      6  O   UNL     1      19.172   6.351   7.617  1.00  0.00    -0.550 OA
ENDBRANCH   3   4
ENDBRANCH   2   3
ENDBRANCH   1   2
BRANCH   1   7
ATOM      7  C   UNL     1      16.665   9.943   5.786  1.00  0.00     0.000 C 
BRANCH   7   8
ATOM      8  C   UNL     1      18.010  10.643   5.530  1.00  0.00    -0.000 C 
BRANCH   8   9
ATOM      9  C   UNL     1      19.198   9.883   6.146  1.00  0.00    -0.000 C 
BRANCH   9  10
ATOM     10  C   UNL     1      19.802  10.616   7.354  1.00  0.00    -0.003 C 
ATOM     11  C   UNL     1      20.657   9.705   8.235  1.00  0.00     0.004 C 
ENDBRANCH   9  10
ENDBRANCH   8   9
ENDBRANCH   7   8
ENDBRANCH   1   7
TORSDOF 7
ENDMDL
MODEL 2
REMARK VINA RESULT:    -3.783      2.817      4.846
REMARK INTER + INTRA:          -5.881
REMARK INTER:                  -5.165
REMARK INTRA:                  -0.716
REMARK UNBOUND:                -0.550
REMARK SMILES CCCCCCCCC(=O)[O-]
REMARK SMILES IDX 6 1 7 2 8 3 9 4 10 5 11 6 5 7 4 8 3 9 2 10 1 11
REMARK H PARENT
REMARK Flexibility Score: inf
ROOT
ATOM      1  C   UNL     1      19.642   9.691   6.751  1.00  0.00     0.000 C 
ENDROOT
BRANCH   1   2
ATOM      2  C   UNL     1      18.858  10.528   5.730  1.00  0.00     0.006 C 
BRANCH   2   3
ATOM      3  C   UNL     1      18.518   9.731   4.463  1.00  0.00     0.053 C 
BRANCH   3   4
ATOM      4  C   UNL     1      17.357  10.325   3.727  1.00  0.00     0.041 C 
ATOM      5  O   UNL     1      17.532  10.881   2.610  1.00  0.00    -0.550 OA
ATOM      6  O   UNL     1      16.086  10.294   4.289  1.00  0.00    -0.550 OA
ENDBRANCH   3   4
ENDBRANCH   2   3
ENDBRANCH   1   2
BRANCH   1   7
ATOM      7  C   UNL     1      19.304   8.198   6.612  1.00  0.00     0.000 C 
BRANCH   7   8
ATOM      8  C   UNL     1      18.247   7.732   7.627  1.00  0.00    -0.000 C 
BRANCH   8   9
ATOM      9  C   UNL     1      17.318   6.646   7.057  1.00  0.00    -0.000 C 
BRANCH   9  10
ATOM     10  C   UNL     1      16.238   7.224   6.129  1.00  0.00    -0.003 C 
ATOM     11  C   UNL     1      16.302   6.648   4.713  1.00  0.00     0.004 C 
ENDBRANCH   9  10
ENDBRANCH   8   9
ENDBRANCH   7   8
ENDBRANCH   1   7
TORSDOF 7
ENDMDL
MODEL 3
REMARK VINA RESULT:    -3.783      2.442      3.384
REMARK INTER + INTRA:          -5.880
REMARK INTER:                  -5.136
REMARK INTRA:                  -0.744
REMARK UNBOUND:                -0.550
REMARK SMILES CCCCCCCCC(=O)[O-]
REMARK SMILES IDX 6 1 7 2 8 3 9 4 10 5 11 6 5 7 4 8 3 9 2 10 1 11
REMARK H PARENT
REMARK Flexibility Score: inf
ROOT
ATOM      1  C   UNL     1      16.225   7.131   6.129  1.00  0.00     0.000 C 
ENDROOT
BRANCH   1   2
ATOM      2  C   UNL     1      16.336   6.633   4.680  1.00  0.00     0.006 C 
BRANCH   2   3
ATOM      3  C   UNL     1      16.732   7.754   3.710  1.00  0.00     0.053 C 
BRANCH   3   4
ATOM      4  C   UNL     1      18.163   7.642   3.285  1.00  0.00     0.041 C 
ATOM      5  O   UNL     1      18.899   6.739   3.766  1.00  0.00    -0.550 OA
ATOM      6  O   UNL     1      18.695   8.554   2.382  1.00  0.00    -0.550 OA
ENDBRANCH   3   4
ENDBRANCH   2   3
ENDBRANCH   1   2
BRANCH   1   7
ATOM      7  C   UNL     1      17.407   6.630   6.974  1.00  0.00     0.000 C 
BRANCH   7   8
ATOM      8  C   UNL     1      18.161   7.770   7.676  1.00  0.00    -0.000 C 
BRANCH   8   9
ATOM      9  C   UNL     1      19.495   8.110   6.987  1.00  0.00    -0.000 C 
BRANCH   9  10
ATOM     10  C   UNL     1      19.724   9.625   6.865  1.00  0.00    -0.003 C 
ATOM     11  C   UNL     1      18.935  10.254   5.716  1.00  0.00     0.004 C 
ENDBRANCH   9  10
ENDBRANCH   8   9
ENDBRANCH   7   8
ENDBRANCH   1   7
TORSDOF 7
ENDMDL
MODEL 4
REMARK VINA RESULT:    -3.777      2.160      2.927
REMARK INTER + INTRA:          -5.873
REMARK INTER:                  -5.276
REMARK INTRA:                  -0.597
REMARK UNBOUND:                -0.550
REMARK SMILES CCCCCCCCC(=O)[O-]
REMARK SMILES IDX 6 1 7 2 8 3 9 4 10 5 11 6 5 7 4 8 3 9 2 10 1 11
REMARK H PARENT
REMARK Flexibility Score: inf
ROOT
ATOM      1  C   UNL     1      17.943   7.639   7.758  1.00  0.00     0.000 C 
ENDROOT
BRANCH   1   2
ATOM      2  C   UNL     1      16.942   6.649   7.146  1.00  0.00     0.006 C 
BRANCH   2   3
ATOM      3  C   UNL     1      16.113   7.281   6.020  1.00  0.00     0.053 C 
BRANCH   3   4
ATOM      4  C   UNL     1      16.846   7.269   4.715  1.00  0.00     0.041 C 
ATOM      5  O   UNL     1      17.157   6.175   4.172  1.00  0.00    -0.550 OA
ATOM      6  O   UNL     1      17.216   8.466   4.113  1.00  0.00    -0.550 OA
ENDBRANCH   3   4
ENDBRANCH   2   3
ENDBRANCH   1   2
BRANCH   1   7
ATOM      7  C   UNL     1      19.387   7.249   7.404  1.00  0.00     0.000 C 
BRANCH   7   8
ATOM      8  C   UNL     1      20.251   8.459   7.010  1.00  0.00    -0.000 C 
BRANCH   8   9
ATOM      9  C   UNL     1      19.409   9.660   6.545  1.00  0.00    -0.000 C 
BRANCH   9  10
ATOM     10  C   UNL     1      19.884  10.985   7.162  1.00  0.00    -0.003 C 
ATOM     11  C   UNL     1      20.698  10.786   8.442  1.00  0.00     0.004 C 
ENDBRANCH   9  10
ENDBRANCH   8   9
ENDBRANCH   7   8
ENDBRANCH   1   7
TORSDOF 7
ENDMDL
MODEL 5
REMARK VINA RESULT:    -3.752      2.069      3.225
REMARK INTER + INTRA:          -5.837
REMARK INTER:                  -5.261
REMARK INTRA:                  -0.576
REMARK UNBOUND:                -0.550
REMARK SMILES CCCCCCCCC(=O)[O-]
REMARK SMILES IDX 6 1 7 2 8 3 9 4 10 5 11 6 5 7 4 8 3 9 2 10 1 11
REMARK H PARENT
REMARK Flexibility Score: inf
ROOT
ATOM      1  C   UNL     1      18.033   8.343   7.652  1.00  0.00     0.000 C 
ENDROOT
BRANCH   1   2
ATOM      2  C   UNL     1      17.485   6.991   7.172  1.00  0.00     0.006 C 
BRANCH   2   3
ATOM      3  C   UNL     1      16.378   7.152   6.122  1.00  0.00     0.053 C 
BRANCH   3   4
ATOM      4  C   UNL     1      16.760   6.539   4.811  1.00  0.00     0.041 C 
ATOM      5  O   UNL     1      15.875   6.259   3.959  1.00  0.00    -0.550 OA
ATOM      6  O   UNL     1      18.092   6.246   4.541  1.00  0.00    -0.550 OA
ENDBRANCH   3   4
ENDBRANCH   2   3
ENDBRANCH   1   2
BRANCH   1   7
ATOM      7  C   UNL     1      19.369   8.668   6.966  1.00  0.00     0.000 C 
BRANCH   7   8
ATOM      8  C   UNL     1      19.552  10.172   6.704  1.00  0.00    -0.000 C 
BRANCH   8   9
ATOM      9  C   UNL     1      18.592  10.705   5.626  1.00  0.00    -0.000 C 
BRANCH   9  10
ATOM     10  C   UNL     1      18.494   9.769   4.411  1.00  0.00    -0.003 C 
ATOM     11  C   UNL     1      18.138  10.507   3.120  1.00  0.00     0.004 C 
ENDBRANCH   9  10
ENDBRANCH   8   9
ENDBRANCH   7   8
ENDBRANCH   1   7
TORSDOF 7
ENDMDL
MODEL 6
REMARK VINA RESULT:    -3.727      1.162      3.379
REMARK INTER + INTRA:          -5.802
REMARK INTER:                  -4.942
REMARK INTRA:                  -0.860
REMARK UNBOUND:                -0.550
REMARK SMILES CCCCCCCCC(=O)[O-]
REMARK SMILES IDX 6 1 7 2 8 3 9 4 10 5 11 6 5 7 4 8 3 9 2 10 1 11
REMARK H PARENT
REMARK Flexibility Score: inf
ROOT
ATOM      1  C   UNL     1      18.813  10.314   5.281  1.00  0.00     0.000 C 
ENDROOT
BRANCH   1   2
ATOM      2  C   UNL     1      19.342   9.887   6.658  1.00  0.00     0.006 C 
BRANCH   2   3
ATOM      3  C   UNL     1      19.574   8.373   6.747  1.00  0.00     0.053 C 
BRANCH   3   4
ATOM      4  C   UNL     1      18.449   7.678   7.451  1.00  0.00     0.041 C 
ATOM      5  O   UNL     1      17.490   8.344   7.924  1.00  0.00    -0.550 OA
ATOM      6  O   UNL     1      18.475   6.299   7.613  1.00  0.00    -0.550 OA
ENDBRANCH   3   4
ENDBRANCH   2   3
ENDBRANCH   1   2
BRANCH   1   7
ATOM      7  C   UNL     1      17.498  11.096   5.417  1.00  0.00     0.000 C 
BRANCH   7   8
ATOM      8  C   UNL     1      16.265  10.259   5.038  1.00  0.00    -0.000 C 
BRANCH   8   9
ATOM      9  C   UNL     1      16.632   8.993   4.244  1.00  0.00    -0.000 C 
BRANCH   9  10
ATOM     10  C   UNL     1      15.878   7.749   4.739  1.00  0.00    -0.003 C 
ATOM     11  C   UNL     1      16.649   6.450   4.493  1.00  0.00     0.004 C 
ENDBRANCH   9  10
ENDBRANCH   8   9
ENDBRANCH   7   8
ENDBRANCH   1   7
TORSDOF 7
ENDMDL
MODEL 7
REMARK VINA RESULT:    -3.712      2.917      4.490
REMARK INTER + INTRA:          -5.781
REMARK INTER:                  -5.147
REMARK INTRA:                  -0.634
REMARK UNBOUND:                -0.550
REMARK SMILES CCCCCCCCC(=O)[O-]
REMARK SMILES IDX 6 1 7 2 8 3 9 4 10 5 11 6 5 7 4 8 3 9 2 10 1 11
REMARK H PARENT
REMARK Flexibility Score: inf
ROOT
ATOM      1  C   UNL     1      19.121  10.428   5.854  1.00  0.00     0.000 C 
ENDROOT
BRANCH   1   2
ATOM      2  C   UNL     1      18.081   9.901   4.853  1.00  0.00     0.006 C 
BRANCH   2   3
ATOM      3  C   UNL     1      18.514  10.118   3.397  1.00  0.00     0.053 C 
BRANCH   3   4
ATOM      4  C   UNL     1      18.262   8.905   2.556  1.00  0.00     0.041 C 
ATOM      5  O   UNL     1      18.535   8.919   1.326  1.00  0.00    -0.550 OA
ATOM      6  O   UNL     1      17.694   7.771   3.122  1.00  0.00    -0.550 OA
ENDBRANCH   3   4
ENDBRANCH   2   3
ENDBRANCH   1   2
BRANCH   1   7
ATOM      7  C   UNL     1      19.520   9.333   6.856  1.00  0.00     0.000 C 
BRANCH   7   8
ATOM      8  C   UNL     1      19.430   7.919   6.259  1.00  0.00    -0.000 C 
BRANCH   8   9
ATOM      9  C   UNL     1      18.891   6.886   7.265  1.00  0.00    -0.000 C 
BRANCH   9  10
ATOM     10  C   UNL     1      17.432   7.158   7.662  1.00  0.00    -0.003 C 
ATOM     11  C   UNL     1      16.464   7.037   6.484  1.00  0.00     0.004 C 
ENDBRANCH   9  10
ENDBRANCH   8   9
ENDBRANCH   7   8
ENDBRANCH   1   7
TORSDOF 7
ENDMDL
MODEL 8
REMARK VINA RESULT:    -3.698      2.035      4.685
REMARK INTER + INTRA:          -5.761
REMARK INTER:                  -5.091
REMARK INTRA:                  -0.669
REMARK UNBOUND:                -0.550
REMARK SMILES CCCCCCCCC(=O)[O-]
REMARK SMILES IDX 6 1 7 2 8 3 9 4 10 5 11 6 5 7 4 8 3 9 2 10 1 11
REMARK H PARENT
REMARK Flexibility Score: inf
ROOT
ATOM      1  C   UNL     1      19.580   7.572   6.281  1.00  0.00     0.000 C 
ENDROOT
BRANCH   1   2
ATOM      2  C   UNL     1      19.618   9.070   6.619  1.00  0.00     0.006 C 
BRANCH   2   3
ATOM      3  C   UNL     1      18.706   9.896   5.702  1.00  0.00     0.053 C 
BRANCH   3   4
ATOM      4  C   UNL     1      17.288   9.898   6.182  1.00  0.00     0.041 C 
ATOM      5  O   UNL     1      17.034  10.027   7.409  1.00  0.00    -0.550 OA
ATOM      6  O   UNL     1      16.247   9.724   5.279  1.00  0.00    -0.550 OA
ENDBRANCH   3   4
ENDBRANCH   2   3
ENDBRANCH   1   2
BRANCH   1   7
ATOM      7  C   UNL     1      18.711   6.804   7.290  1.00  0.00     0.000 C 
BRANCH   7   8
ATOM      8  C   UNL     1      17.411   6.269   6.668  1.00  0.00    -0.000 C 
BRANCH   8   9
ATOM      9  C   UNL     1      17.450   6.260   5.130  1.00  0.00    -0.000 C 
BRANCH   9  10
ATOM     10  C   UNL     1      16.047   6.294   4.505  1.00  0.00    -0.003 C 
ATOM     11  C   UNL     1      16.069   6.619   3.011  1.00  0.00     0.004 C 
ENDBRANCH   9  10
ENDBRANCH   8   9
ENDBRANCH   7   8
ENDBRANCH   1   7
TORSDOF 7
ENDMDL
MODEL 9
REMARK VINA RESULT:    -3.657      2.956      3.710
REMARK INTER + INTRA:          -5.703
REMARK INTER:                  -4.818
REMARK INTRA:                  -0.885
REMARK UNBOUND:                -0.550
REMARK SMILES CCCCCCCCC(=O)[O-]
REMARK SMILES IDX 6 1 7 2 8 3 9 4 10 5 11 6 5 7 4 8 3 9 2 10 1 11
REMARK H PARENT
REMARK Flexibility Score: inf
ROOT
ATOM      1  C   UNL     1      17.417   6.705   5.749  1.00  0.00     0.000 C 
ENDROOT
BRANCH   1   2
ATOM      2  C   UNL     1      17.739   6.339   4.292  1.00  0.00     0.006 C 
BRANCH   2   3
ATOM      3  C   UNL     1      18.739   7.313   3.656  1.00  0.00     0.053 C 
BRANCH   3   4
ATOM      4  C   UNL     1      18.108   8.126   2.568  1.00  0.00     0.041 C 
ATOM      5  O   UNL     1      18.799   8.949   1.910  1.00  0.00    -0.550 OA
ATOM      6  O   UNL     1      16.750   8.000   2.302  1.00  0.00    -0.550 OA
ENDBRANCH   3   4
ENDBRANCH   2   3
ENDBRANCH   1   2
BRANCH   1   7
ATOM      7  C   UNL     1      16.321   7.780   5.815  1.00  0.00     0.000 C 
BRANCH   7   8
ATOM      8  C   UNL     1      16.800   9.077   6.489  1.00  0.00    -0.000 C 
BRANCH   8   9
ATOM      9  C   UNL     1      17.070  10.205   5.478  1.00  0.00    -0.000 C 
BRANCH   9  10
ATOM     10  C   UNL     1      18.558  10.583   5.403  1.00  0.00    -0.003 C 
ATOM     11  C   UNL     1      19.393   9.930   6.506  1.00  0.00     0.004 C 
ENDBRANCH   9  10
ENDBRANCH   8   9
ENDBRANCH   7   8
ENDBRANCH   1   7
TORSDOF 7
ENDMDL
