MODEL 1
REMARK VINA RESULT:    -2.292      0.000      0.000
REMARK INTER + INTRA:          -4.411
REMARK INTER:                  -3.431
REMARK INTRA:                  -0.981
REMARK UNBOUND:                -0.981
REMARK SMILES C=C(CC[C@@H](C(=O)[O-])[C@H]1[C@@H](O)C[C@@]2(C)C3=C(CC[C@@]12C)[C@]1(C)CC[C@H](OC(C)=O)C(C)(C)[C@@H]1CC3)C(C)C
REMARK SMILES IDX 4 1 5 2 6 3 7 4 8 5 9 6 10 7 19 8 12 9 13 10 18 11 20 12
REMARK SMILES IDX 14 13 15 14 17 15 16 16 35 17 21 18 34 19 33 20 23 21 22 22
REMARK SMILES IDX 30 23 24 24 25 25 31 26 32 27 11 28 26 30 27 31 29 32 28 33
REMARK SMILES IDX 3 34 2 35 1 36 36 37 37 38 38 39
REMARK H PARENT 11 29
REMARK Flexibility Score: inf
ROOT
ATOM      1  C   UNL     1      27.093  58.742  18.217  1.00  0.00     0.014 C 
ENDROOT
BRANCH   1   2
ATOM      2  C   UNL     1      28.441  58.451  18.939  1.00  0.00     0.042 C 
BRANCH   2   3
ATOM      3  C   UNL     1      28.152  57.889  20.309  1.00  0.00     0.045 C 
ATOM      4  O   UNL     1      28.766  58.335  21.313  1.00  0.00    -0.550 OA
ATOM      5  O   UNL     1      27.183  56.908  20.487  1.00  0.00    -0.550 OA
ENDBRANCH   2   3
BRANCH   2   6
ATOM      6  C   UNL     1      29.438  57.548  18.124  1.00  0.00     0.033 C 
ATOM      7  C   UNL     1      28.855  56.192  17.637  1.00  0.00     0.119 C 
ATOM      8  C   UNL     1      30.127  58.181  16.860  1.00  0.00    -0.017 C 
ATOM      9  C   UNL     1      29.442  55.913  16.248  1.00  0.00     0.043 C 
ATOM     10  C   UNL     1      30.568  56.938  16.006  1.00  0.00    -0.003 C 
ATOM     11  C   UNL     1      29.122  59.024  16.037  1.00  0.00     0.012 C 
ATOM     12  C   UNL     1      31.337  59.079  17.262  1.00  0.00     0.013 C 
ATOM     13  C   UNL     1      31.907  56.335  16.540  1.00  0.00     0.017 C 
ATOM     14  C   UNL     1      30.696  57.197  14.480  1.00  0.00    -0.064 C 
ATOM     15  C   UNL     1      29.744  59.494  14.731  1.00  0.00     0.032 C 
ATOM     16  C   UNL     1      30.273  58.351  13.871  1.00  0.00    -0.064 C 
ATOM     17  C   UNL     1      31.266  56.068  13.655  1.00  0.00     0.032 C 
ATOM     18  C   UNL     1      30.356  58.582  12.322  1.00  0.00    -0.008 C 
ATOM     19  C   UNL     1      30.749  56.062  12.234  1.00  0.00     0.009 C 
ATOM     20  C   UNL     1      31.090  57.403  11.546  1.00  0.00     0.009 C 
ATOM     21  C   UNL     1      28.896  58.730  11.794  1.00  0.00     0.015 C 
ATOM     22  C   UNL     1      31.139  59.908  12.126  1.00  0.00     0.016 C 
ATOM     23  C   UNL     1      30.866  57.353   9.959  1.00  0.00     0.005 C 
ATOM     24  C   UNL     1      28.780  58.815  10.272  1.00  0.00     0.047 C 
ATOM     25  C   UNL     1      29.368  57.579   9.585  1.00  0.00     0.182 C 
ATOM     26  C   UNL     1      31.751  58.414   9.230  1.00  0.00     0.015 C 
ATOM     27  C   UNL     1      31.326  55.992   9.356  1.00  0.00     0.015 C 
BRANCH   7  28
ATOM     28  O   UNL     1      27.449  56.148  17.602  1.00  0.00    -0.393 OA
ATOM     29  H   UNL     1      27.126  55.773  18.460  1.00  0.00     0.210 HD
ENDBRANCH   7  28
BRANCH  25  30
ATOM     30  O   UNL     1      28.563  56.449   9.946  1.00  0.00    -0.462 OA
BRANCH  30  31
ATOM     31  C   UNL     1      27.311  56.161   9.388  1.00  0.00     0.302 C 
ATOM     32  O   UNL     1      27.156  56.095   8.139  1.00  0.00    -0.253 OA
ATOM     33  C   UNL     1      26.163  55.875  10.294  1.00  0.00     0.139 C 
ENDBRANCH  30  31
ENDBRANCH  25  30
ENDBRANCH   2   6
ENDBRANCH   1   2
BRANCH   1  34
ATOM     34  C   UNL     1      26.386  60.043  18.637  1.00  0.00     0.031 C 
BRANCH  34  35
ATOM     35  C   UNL     1      26.810  61.200  17.747  1.00  0.00    -0.075 C 
ATOM     36  C   UNL     1      25.883  61.780  16.963  1.00  0.00     0.008 C 
BRANCH  35  37
ATOM     37  C   UNL     1      28.221  61.787  17.772  1.00  0.00     0.008 C 
ATOM     38  C   UNL     1      28.498  62.581  16.488  1.00  0.00     0.012 C 
ATOM     39  C   UNL     1      28.507  62.655  19.006  1.00  0.00     0.012 C 
ENDBRANCH  35  37
ENDBRANCH  34  35
ENDBRANCH   1  34
TORSDOF 9
ENDMDL
MODEL 2
REMARK VINA RESULT:    -2.257      1.812      2.616
REMARK INTER + INTRA:          -4.359
REMARK INTER:                  -3.512
REMARK INTRA:                  -0.848
REMARK UNBOUND:                -0.981
REMARK SMILES C=C(CC[C@@H](C(=O)[O-])[C@H]1[C@@H](O)C[C@@]2(C)C3=C(CC[C@@]12C)[C@]1(C)CC[C@H](OC(C)=O)C(C)(C)[C@@H]1CC3)C(C)C
REMARK SMILES IDX 4 1 5 2 6 3 7 4 8 5 9 6 10 7 19 8 12 9 13 10 18 11 20 12
REMARK SMILES IDX 14 13 15 14 17 15 16 16 35 17 21 18 34 19 33 20 23 21 22 22
REMARK SMILES IDX 30 23 24 24 25 25 31 26 32 27 11 28 26 30 27 31 29 32 28 33
REMARK SMILES IDX 3 34 2 35 1 36 36 37 37 38 38 39
REMARK H PARENT 11 29
REMARK Flexibility Score: inf
ROOT
ATOM      1  C   UNL     1      27.721  59.934  19.177  1.00  0.00     0.014 C 
ENDROOT
BRANCH   1   2
ATOM      2  C   UNL     1      28.530  60.420  17.940  1.00  0.00     0.042 C 
BRANCH   2   3
ATOM      3  C   UNL     1      29.192  61.735  18.272  1.00  0.00     0.045 C 
ATOM      4  O   UNL     1      30.119  61.774  19.123  1.00  0.00    -0.550 OA
ATOM      5  O   UNL     1      28.819  62.905  17.620  1.00  0.00    -0.550 OA
ENDBRANCH   2   3
BRANCH   2   6
ATOM      6  C   UNL     1      29.550  59.368  17.370  1.00  0.00     0.033 C 
ATOM      7  C   UNL     1      28.988  57.931  17.189  1.00  0.00     0.119 C 
ATOM      8  C   UNL     1      30.263  59.708  16.009  1.00  0.00    -0.017 C 
ATOM      9  C   UNL     1      29.606  57.353  15.910  1.00  0.00     0.043 C 
ATOM     10  C   UNL     1      30.731  58.310  15.466  1.00  0.00    -0.003 C 
ATOM     11  C   UNL     1      29.271  60.333  14.997  1.00  0.00     0.012 C 
ATOM     12  C   UNL     1      31.458  60.688  16.223  1.00  0.00     0.013 C 
ATOM     13  C   UNL     1      32.062  57.858  16.150  1.00  0.00     0.017 C 
ATOM     14  C   UNL     1      30.890  58.221  13.924  1.00  0.00    -0.064 C 
ATOM     15  C   UNL     1      29.918  60.505  13.632  1.00  0.00     0.032 C 
ATOM     16  C   UNL     1      30.474  59.204  13.062  1.00  0.00    -0.064 C 
ATOM     17  C   UNL     1      31.487  56.942  13.386  1.00  0.00     0.032 C 
ATOM     18  C   UNL     1      30.589  59.081  11.503  1.00  0.00    -0.008 C 
ATOM     19  C   UNL     1      31.001  56.610  11.993  1.00  0.00     0.009 C 
ATOM     20  C   UNL     1      31.347  57.765  11.027  1.00  0.00     0.009 C 
ATOM     21  C   UNL     1      29.141  59.090  10.926  1.00  0.00     0.015 C 
ATOM     22  C   UNL     1      31.367  60.338  11.029  1.00  0.00     0.016 C 
ATOM     23  C   UNL     1      31.159  57.358   9.488  1.00  0.00     0.005 C 
ATOM     24  C   UNL     1      29.058  58.828   9.422  1.00  0.00     0.047 C 
ATOM     25  C   UNL     1      29.669  57.477   9.043  1.00  0.00     0.182 C 
ATOM     26  C   UNL     1      32.054  58.238   8.557  1.00  0.00     0.015 C 
ATOM     27  C   UNL     1      31.641  55.901   9.217  1.00  0.00     0.015 C 
BRANCH   7  28
ATOM     28  O   UNL     1      27.583  57.865  17.136  1.00  0.00    -0.393 OA
ATOM     29  H   UNL     1      27.322  56.951  16.855  1.00  0.00     0.210 HD
ENDBRANCH   7  28
BRANCH  25  30
ATOM     30  O   UNL     1      28.864  56.448   9.633  1.00  0.00    -0.462 OA
BRANCH  30  31
ATOM     31  C   UNL     1      27.535  56.183   9.277  1.00  0.00     0.302 C 
ATOM     32  O   UNL     1      27.228  55.878   8.093  1.00  0.00    -0.253 OA
ATOM     33  C   UNL     1      26.483  56.210  10.332  1.00  0.00     0.139 C 
ENDBRANCH  30  31
ENDBRANCH  25  30
ENDBRANCH   2   6
ENDBRANCH   1   2
BRANCH   1  34
ATOM     34  C   UNL     1      26.324  60.558  19.341  1.00  0.00     0.031 C 
BRANCH  34  35
ATOM     35  C   UNL     1      25.241  59.500  19.211  1.00  0.00    -0.075 C 
ATOM     36  C   UNL     1      25.322  58.400  19.981  1.00  0.00     0.008 C 
BRANCH  35  37
ATOM     37  C   UNL     1      24.020  59.674  18.308  1.00  0.00     0.008 C 
ATOM     38  C   UNL     1      24.313  59.150  16.896  1.00  0.00     0.012 C 
ATOM     39  C   UNL     1      22.745  59.023  18.862  1.00  0.00     0.012 C 
ENDBRANCH  35  37
ENDBRANCH  34  35
ENDBRANCH   1  34
TORSDOF 9
ENDMDL
MODEL 3
REMARK VINA RESULT:    -2.236      1.613      2.246
REMARK INTER + INTRA:          -4.328
REMARK INTER:                  -3.333
REMARK INTRA:                  -0.995
REMARK UNBOUND:                -0.981
REMARK SMILES C=C(CC[C@@H](C(=O)[O-])[C@H]1[C@@H](O)C[C@@]2(C)C3=C(CC[C@@]12C)[C@]1(C)CC[C@H](OC(C)=O)C(C)(C)[C@@H]1CC3)C(C)C
REMARK SMILES IDX 4 1 5 2 6 3 7 4 8 5 9 6 10 7 19 8 12 9 13 10 18 11 20 12
REMARK SMILES IDX 14 13 15 14 17 15 16 16 35 17 21 18 34 19 33 20 23 21 22 22
REMARK SMILES IDX 30 23 24 24 25 25 31 26 32 27 11 28 26 30 27 31 29 32 28 33
REMARK SMILES IDX 3 34 2 35 1 36 36 37 37 38 38 39
REMARK H PARENT 11 29
REMARK Flexibility Score: inf
ROOT
ATOM      1  C   UNL     1      27.277  60.907  17.496  1.00  0.00     0.014 C 
ENDROOT
BRANCH   1   2
ATOM      2  C   UNL     1      28.704  60.943  18.113  1.00  0.00     0.042 C 
BRANCH   2   3
ATOM      3  C   UNL     1      28.589  60.896  19.617  1.00  0.00     0.045 C 
ATOM      4  O   UNL     1      27.497  61.187  20.173  1.00  0.00    -0.550 OA
ATOM      5  O   UNL     1      29.665  60.496  20.403  1.00  0.00    -0.550 OA
ENDBRANCH   2   3
BRANCH   2   6
ATOM      6  C   UNL     1      29.686  59.847  17.559  1.00  0.00     0.033 C 
ATOM      7  C   UNL     1      29.096  58.412  17.474  1.00  0.00     0.119 C 
ATOM      8  C   UNL     1      30.348  60.106  16.155  1.00  0.00    -0.017 C 
ATOM      9  C   UNL     1      29.654  57.759  16.204  1.00  0.00     0.043 C 
ATOM     10  C   UNL     1      30.773  58.674  15.667  1.00  0.00    -0.003 C 
ATOM     11  C   UNL     1      29.326  60.694  15.153  1.00  0.00     0.012 C 
ATOM     12  C   UNL     1      31.564  61.075  16.271  1.00  0.00     0.013 C 
ATOM     13  C   UNL     1      32.124  58.235  16.320  1.00  0.00     0.017 C 
ATOM     14  C   UNL     1      30.870  58.504  14.126  1.00  0.00    -0.064 C 
ATOM     15  C   UNL     1      29.920  60.786  13.756  1.00  0.00     0.032 C 
ATOM     16  C   UNL     1      30.433  59.448  13.232  1.00  0.00    -0.064 C 
ATOM     17  C   UNL     1      31.425  57.189  13.632  1.00  0.00     0.032 C 
ATOM     18  C   UNL     1      30.484  59.244  11.678  1.00  0.00    -0.008 C 
ATOM     19  C   UNL     1      30.879  56.795  12.278  1.00  0.00     0.009 C 
ATOM     20  C   UNL     1      31.203  57.894  11.241  1.00  0.00     0.009 C 
ATOM     21  C   UNL     1      29.014  59.249  11.159  1.00  0.00     0.015 C 
ATOM     22  C   UNL     1      31.260  60.463  11.110  1.00  0.00     0.016 C 
ATOM     23  C   UNL     1      30.947  57.412   9.734  1.00  0.00     0.005 C 
ATOM     24  C   UNL     1      28.866  58.912   9.675  1.00  0.00     0.047 C 
ATOM     25  C   UNL     1      29.442  57.534   9.342  1.00  0.00     0.182 C 
ATOM     26  C   UNL     1      31.816  58.229   8.724  1.00  0.00     0.015 C 
ATOM     27  C   UNL     1      31.397  55.936   9.518  1.00  0.00     0.015 C 
BRANCH   7  28
ATOM     28  O   UNL     1      27.689  58.366  17.481  1.00  0.00    -0.393 OA
ATOM     29  H   UNL     1      27.354  58.930  16.739  1.00  0.00     0.210 HD
ENDBRANCH   7  28
BRANCH  25  30
ATOM     30  O   UNL     1      28.647  56.549  10.016  1.00  0.00    -0.462 OA
BRANCH  30  31
ATOM     31  C   UNL     1      27.409  56.083   9.554  1.00  0.00     0.302 C 
ATOM     32  O   UNL     1      26.451  55.883  10.349  1.00  0.00    -0.253 OA
ATOM     33  C   UNL     1      27.214  55.875   8.091  1.00  0.00     0.139 C 
ENDBRANCH  30  31
ENDBRANCH  25  30
ENDBRANCH   2   6
ENDBRANCH   1   2
BRANCH   1  34
ATOM     34  C   UNL     1      26.749  62.254  16.970  1.00  0.00     0.031 C 
BRANCH  34  35
ATOM     35  C   UNL     1      26.035  62.073  15.641  1.00  0.00    -0.075 C 
ATOM     36  C   UNL     1      25.065  61.146  15.554  1.00  0.00     0.008 C 
BRANCH  35  37
ATOM     37  C   UNL     1      26.312  62.960  14.428  1.00  0.00     0.008 C 
ATOM     38  C   UNL     1      27.490  63.905  14.706  1.00  0.00     0.012 C 
ATOM     39  C   UNL     1      26.557  62.174  13.131  1.00  0.00     0.012 C 
ENDBRANCH  35  37
ENDBRANCH  34  35
ENDBRANCH   1  34
TORSDOF 9
ENDMDL
MODEL 4
REMARK VINA RESULT:    -2.225      2.769      8.413
REMARK INTER + INTRA:          -4.312
REMARK INTER:                  -3.331
REMARK INTRA:                  -0.981
REMARK UNBOUND:                -0.981
REMARK SMILES C=C(CC[C@@H](C(=O)[O-])[C@H]1[C@@H](O)C[C@@]2(C)C3=C(CC[C@@]12C)[C@]1(C)CC[C@H](OC(C)=O)C(C)(C)[C@@H]1CC3)C(C)C
REMARK SMILES IDX 4 1 5 2 6 3 7 4 8 5 9 6 10 7 19 8 12 9 13 10 18 11 20 12
REMARK SMILES IDX 14 13 15 14 17 15 16 16 35 17 21 18 34 19 33 20 23 21 22 22
REMARK SMILES IDX 30 23 24 24 25 25 31 26 32 27 11 28 26 30 27 31 29 32 28 33
REMARK SMILES IDX 3 34 2 35 1 36 36 37 37 38 38 39
REMARK H PARENT 11 29
REMARK Flexibility Score: inf
ROOT
ATOM      1  C   UNL     1      30.508  56.781  11.816  1.00  0.00     0.014 C 
ENDROOT
BRANCH   1   2
ATOM      2  C   UNL     1      31.115  57.825  10.835  1.00  0.00     0.042 C 
BRANCH   2   3
ATOM      3  C   UNL     1      31.543  57.119   9.572  1.00  0.00     0.045 C 
ATOM      4  O   UNL     1      31.340  55.883   9.444  1.00  0.00    -0.550 OA
ATOM      5  O   UNL     1      32.125  57.823   8.523  1.00  0.00    -0.550 OA
ENDBRANCH   2   3
BRANCH   2   6
ATOM      6  C   UNL     1      30.190  59.062  10.540  1.00  0.00     0.033 C 
ATOM      7  C   UNL     1      28.682  58.850  10.850  1.00  0.00     0.119 C 
ATOM      8  C   UNL     1      30.565  60.429  11.221  1.00  0.00    -0.017 C 
ATOM      9  C   UNL     1      28.139  60.169  11.413  1.00  0.00     0.043 C 
ATOM     10  C   UNL     1      29.222  61.245  11.198  1.00  0.00    -0.003 C 
ATOM     11  C   UNL     1      31.000  60.223  12.692  1.00  0.00     0.012 C 
ATOM     12  C   UNL     1      31.709  61.155  10.449  1.00  0.00     0.013 C 
ATOM     13  C   UNL     1      28.990  61.906   9.800  1.00  0.00     0.017 C 
ATOM     14  C   UNL     1      29.087  62.326  12.305  1.00  0.00    -0.064 C 
ATOM     15  C   UNL     1      31.198  61.556  13.397  1.00  0.00     0.032 C 
ATOM     16  C   UNL     1      29.963  62.449  13.353  1.00  0.00    -0.064 C 
ATOM     17  C   UNL     1      27.880  63.229  12.213  1.00  0.00     0.032 C 
ATOM     18  C   UNL     1      29.787  63.508  14.496  1.00  0.00    -0.008 C 
ATOM     19  C   UNL     1      27.422  63.732  13.564  1.00  0.00     0.009 C 
ATOM     20  C   UNL     1      28.570  64.503  14.254  1.00  0.00     0.009 C 
ATOM     21  C   UNL     1      29.570  62.726  15.827  1.00  0.00     0.015 C 
ATOM     22  C   UNL     1      31.118  64.307  14.550  1.00  0.00     0.016 C 
ATOM     23  C   UNL     1      28.071  65.335  15.530  1.00  0.00     0.005 C 
ATOM     24  C   UNL     1      29.232  63.607  17.030  1.00  0.00     0.047 C 
ATOM     25  C   UNL     1      27.963  64.430  16.796  1.00  0.00     0.182 C 
ATOM     26  C   UNL     1      29.024  66.537  15.828  1.00  0.00     0.015 C 
ATOM     27  C   UNL     1      26.685  66.000  15.278  1.00  0.00     0.015 C 
BRANCH   7  28
ATOM     28  O   UNL     1      28.419  57.786  11.733  1.00  0.00    -0.393 OA
ATOM     29  H   UNL     1      29.171  57.142  11.680  1.00  0.00     0.210 HD
ENDBRANCH   7  28
BRANCH  25  30
ATOM     30  O   UNL     1      26.860  63.520  16.695  1.00  0.00    -0.462 OA
BRANCH  30  31
ATOM     31  C   UNL     1      25.908  63.317  17.703  1.00  0.00     0.302 C 
ATOM     32  O   UNL     1      26.236  62.831  18.819  1.00  0.00    -0.253 OA
ATOM     33  C   UNL     1      24.498  63.736  17.462  1.00  0.00     0.139 C 
ENDBRANCH  30  31
ENDBRANCH  25  30
ENDBRANCH   2   6
ENDBRANCH   1   2
BRANCH   1  34
ATOM     34  C   UNL     1      31.454  56.289  12.926  1.00  0.00     0.031 C 
BRANCH  34  35
ATOM     35  C   UNL     1      31.109  56.936  14.257  1.00  0.00    -0.075 C 
ATOM     36  C   UNL     1      32.067  57.624  14.904  1.00  0.00     0.008 C 
BRANCH  35  37
ATOM     37  C   UNL     1      29.699  56.913  14.846  1.00  0.00     0.008 C 
ATOM     38  C   UNL     1      29.660  56.062  16.122  1.00  0.00     0.012 C 
ATOM     39  C   UNL     1      29.122  58.310  15.121  1.00  0.00     0.012 C 
ENDBRANCH  35  37
ENDBRANCH  34  35
ENDBRANCH   1  34
TORSDOF 9
ENDMDL
MODEL 5
REMARK VINA RESULT:    -2.162      3.043      4.504
REMARK INTER + INTRA:          -4.218
REMARK INTER:                  -3.288
REMARK INTRA:                  -0.930
REMARK UNBOUND:                -0.981
REMARK SMILES C=C(CC[C@@H](C(=O)[O-])[C@H]1[C@@H](O)C[C@@]2(C)C3=C(CC[C@@]12C)[C@]1(C)CC[C@H](OC(C)=O)C(C)(C)[C@@H]1CC3)C(C)C
REMARK SMILES IDX 4 1 5 2 6 3 7 4 8 5 9 6 10 7 19 8 12 9 13 10 18 11 20 12
REMARK SMILES IDX 14 13 15 14 17 15 16 16 35 17 21 18 34 19 33 20 23 21 22 22
REMARK SMILES IDX 30 23 24 24 25 25 31 26 32 27 11 28 26 30 27 31 29 32 28 33
REMARK SMILES IDX 3 34 2 35 1 36 36 37 37 38 38 39
REMARK H PARENT 11 29
REMARK Flexibility Score: inf
ROOT
ATOM      1  C   UNL     1      27.476  63.930  15.312  1.00  0.00     0.014 C 
ENDROOT
BRANCH   1   2
ATOM      2  C   UNL     1      28.886  63.966  15.970  1.00  0.00     0.042 C 
BRANCH   2   3
ATOM      3  C   UNL     1      28.763  64.532  17.363  1.00  0.00     0.045 C 
ATOM      4  O   UNL     1      27.982  63.996  18.192  1.00  0.00    -0.550 OA
ATOM      5  O   UNL     1      29.532  65.620  17.761  1.00  0.00    -0.550 OA
ENDBRANCH   2   3
BRANCH   2   6
ATOM      6  C   UNL     1      29.652  62.593  15.952  1.00  0.00     0.033 C 
ATOM      7  C   UNL     1      28.776  61.343  16.244  1.00  0.00     0.119 C 
ATOM      8  C   UNL     1      30.469  62.233  14.657  1.00  0.00    -0.017 C 
ATOM      9  C   UNL     1      29.286  60.206  15.350  1.00  0.00     0.043 C 
ATOM     10  C   UNL     1      30.617  60.669  14.725  1.00  0.00    -0.003 C 
ATOM     11  C   UNL     1      29.686  62.608  13.376  1.00  0.00     0.012 C 
ATOM     12  C   UNL     1      31.852  62.955  14.639  1.00  0.00     0.013 C 
ATOM     13  C   UNL     1      31.782  60.255  15.681  1.00  0.00     0.017 C 
ATOM     14  C   UNL     1      30.804  59.964  13.353  1.00  0.00    -0.064 C 
ATOM     15  C   UNL     1      30.401  62.106  12.131  1.00  0.00     0.032 C 
ATOM     16  C   UNL     1      30.657  60.603  12.149  1.00  0.00    -0.064 C 
ATOM     17  C   UNL     1      31.103  58.485  13.398  1.00  0.00     0.032 C 
ATOM     18  C   UNL     1      30.793  59.870  10.769  1.00  0.00    -0.008 C 
ATOM     19  C   UNL     1      30.601  57.749  12.176  1.00  0.00     0.009 C 
ATOM     20  C   UNL     1      31.240  58.349  10.903  1.00  0.00     0.009 C 
ATOM     21  C   UNL     1      29.407  59.950  10.059  1.00  0.00     0.015 C 
ATOM     22  C   UNL     1      31.859  60.663   9.965  1.00  0.00     0.016 C 
ATOM     23  C   UNL     1      31.014  57.429   9.610  1.00  0.00     0.005 C 
ATOM     24  C   UNL     1      29.316  59.154   8.758  1.00  0.00     0.047 C 
ATOM     25  C   UNL     1      29.608  57.667   8.977  1.00  0.00     0.182 C 
ATOM     26  C   UNL     1      32.120  57.682   8.536  1.00  0.00     0.015 C 
ATOM     27  C   UNL     1      31.152  55.914   9.951  1.00  0.00     0.015 C 
BRANCH   7  28
ATOM     28  O   UNL     1      27.397  61.548  16.051  1.00  0.00    -0.393 OA
ATOM     29  H   UNL     1      27.271  62.407  15.576  1.00  0.00     0.210 HD
ENDBRANCH   7  28
BRANCH  25  30
ATOM     30  O   UNL     1      28.566  57.130   9.802  1.00  0.00    -0.462 OA
BRANCH  30  31
ATOM     31  C   UNL     1      27.557  56.274   9.342  1.00  0.00     0.302 C 
ATOM     32  O   UNL     1      26.641  55.876  10.111  1.00  0.00    -0.253 OA
ATOM     33  C   UNL     1      27.543  55.877   7.905  1.00  0.00     0.139 C 
ENDBRANCH  30  31
ENDBRANCH  25  30
ENDBRANCH   2   6
ENDBRANCH   1   2
BRANCH   1  34
ATOM     34  C   UNL     1      27.126  65.143  14.431  1.00  0.00     0.031 C 
BRANCH  34  35
ATOM     35  C   UNL     1      26.390  64.705  13.176  1.00  0.00    -0.075 C 
ATOM     36  C   UNL     1      26.044  65.642  12.274  1.00  0.00     0.008 C 
BRANCH  35  37
ATOM     37  C   UNL     1      26.106  63.238  12.855  1.00  0.00     0.008 C 
ATOM     38  C   UNL     1      24.652  62.883  13.193  1.00  0.00     0.012 C 
ATOM     39  C   UNL     1      26.424  62.852  11.403  1.00  0.00     0.012 C 
ENDBRANCH  35  37
ENDBRANCH  34  35
ENDBRANCH   1  34
TORSDOF 9
ENDMDL
MODEL 6
REMARK VINA RESULT:    -2.085      3.464      4.979
REMARK INTER + INTRA:          -4.102
REMARK INTER:                  -3.281
REMARK INTRA:                  -0.821
REMARK UNBOUND:                -0.981
REMARK SMILES C=C(CC[C@@H](C(=O)[O-])[C@H]1[C@@H](O)C[C@@]2(C)C3=C(CC[C@@]12C)[C@]1(C)CC[C@H](OC(C)=O)C(C)(C)[C@@H]1CC3)C(C)C
REMARK SMILES IDX 4 1 5 2 6 3 7 4 8 5 9 6 10 7 19 8 12 9 13 10 18 11 20 12
REMARK SMILES IDX 14 13 15 14 17 15 16 16 35 17 21 18 34 19 33 20 23 21 22 22
REMARK SMILES IDX 30 23 24 24 25 25 31 26 32 27 11 28 26 30 27 31 29 32 28 33
REMARK SMILES IDX 3 34 2 35 1 36 36 37 37 38 38 39
REMARK H PARENT 11 29
REMARK Flexibility Score: inf
ROOT
ATOM      1  C   UNL     1      28.008  64.947  16.446  1.00  0.00     0.014 C 
ENDROOT
BRANCH   1   2
ATOM      2  C   UNL     1      29.007  64.609  15.302  1.00  0.00     0.042 C 
BRANCH   2   3
ATOM      3  C   UNL     1      29.991  65.745  15.160  1.00  0.00     0.045 C 
ATOM      4  O   UNL     1      30.009  66.431  14.104  1.00  0.00    -0.550 OA
ATOM      5  O   UNL     1      30.855  66.074  16.198  1.00  0.00    -0.550 OA
ENDBRANCH   2   3
BRANCH   2   6
ATOM      6  C   UNL     1      29.724  63.218  15.448  1.00  0.00     0.033 C 
ATOM      7  C   UNL     1      28.801  62.037  15.858  1.00  0.00     0.119 C 
ATOM      8  C   UNL     1      30.548  62.690  14.216  1.00  0.00    -0.017 C 
ATOM      9  C   UNL     1      29.283  60.793  15.103  1.00  0.00     0.043 C 
ATOM     10  C   UNL     1      30.638  61.140  14.456  1.00  0.00    -0.003 C 
ATOM     11  C   UNL     1      29.797  62.949  12.887  1.00  0.00     0.012 C 
ATOM     12  C   UNL     1      31.955  63.359  14.144  1.00  0.00     0.013 C 
ATOM     13  C   UNL     1      31.774  60.794  15.472  1.00  0.00     0.017 C 
ATOM     14  C   UNL     1      30.820  60.283  13.173  1.00  0.00    -0.064 C 
ATOM     15  C   UNL     1      30.511  62.291  11.717  1.00  0.00     0.032 C 
ATOM     16  C   UNL     1      30.714  60.790  11.903  1.00  0.00    -0.064 C 
ATOM     17  C   UNL     1      31.066  58.808  13.384  1.00  0.00     0.032 C 
ATOM     18  C   UNL     1      30.844  59.907  10.614  1.00  0.00    -0.008 C 
ATOM     19  C   UNL     1      30.556  57.960  12.240  1.00  0.00     0.009 C 
ATOM     20  C   UNL     1      31.234  58.395  10.921  1.00  0.00     0.009 C 
ATOM     21  C   UNL     1      29.472  59.956   9.874  1.00  0.00     0.015 C 
ATOM     22  C   UNL     1      31.949  60.570   9.748  1.00  0.00     0.016 C 
ATOM     23  C   UNL     1      30.995  57.347   9.732  1.00  0.00     0.005 C 
ATOM     24  C   UNL     1      29.372  59.025   8.666  1.00  0.00     0.047 C 
ATOM     25  C   UNL     1      29.608  57.562   9.051  1.00  0.00     0.182 C 
ATOM     26  C   UNL     1      32.125  57.444   8.657  1.00  0.00     0.015 C 
ATOM     27  C   UNL     1      31.074  55.876  10.238  1.00  0.00     0.015 C 
BRANCH   7  28
ATOM     28  O   UNL     1      27.433  62.266  15.619  1.00  0.00    -0.393 OA
ATOM     29  H   UNL     1      27.016  62.581  16.461  1.00  0.00     0.210 HD
ENDBRANCH   7  28
BRANCH  25  30
ATOM     30  O   UNL     1      28.535  57.154   9.910  1.00  0.00    -0.462 OA
BRANCH  30  31
ATOM     31  C   UNL     1      27.274  56.745   9.458  1.00  0.00     0.302 C 
ATOM     32  O   UNL     1      27.147  56.083   8.393  1.00  0.00    -0.253 OA
ATOM     33  C   UNL     1      26.073  57.055  10.285  1.00  0.00     0.139 C 
ENDBRANCH  30  31
ENDBRANCH  25  30
ENDBRANCH   2   6
ENDBRANCH   1   2
BRANCH   1  34
ATOM     34  C   UNL     1      26.980  66.046  16.123  1.00  0.00     0.031 C 
BRANCH  34  35
ATOM     35  C   UNL     1      25.562  65.529  16.302  1.00  0.00    -0.075 C 
ATOM     36  C   UNL     1      25.162  65.163  17.533  1.00  0.00     0.008 C 
BRANCH  35  37
ATOM     37  C   UNL     1      24.547  65.491  15.160  1.00  0.00     0.008 C 
ATOM     38  C   UNL     1      25.152  64.815  13.921  1.00  0.00     0.012 C 
ATOM     39  C   UNL     1      23.219  64.818  15.536  1.00  0.00     0.012 C 
ENDBRANCH  35  37
ENDBRANCH  34  35
ENDBRANCH   1  34
TORSDOF 9
ENDMDL
MODEL 7
REMARK VINA RESULT:    -1.988      4.069      5.812
REMARK INTER + INTRA:          -3.956
REMARK INTER:                  -2.941
REMARK INTRA:                  -1.016
REMARK UNBOUND:                -0.981
REMARK SMILES C=C(CC[C@@H](C(=O)[O-])[C@H]1[C@@H](O)C[C@@]2(C)C3=C(CC[C@@]12C)[C@]1(C)CC[C@H](OC(C)=O)C(C)(C)[C@@H]1CC3)C(C)C
REMARK SMILES IDX 4 1 5 2 6 3 7 4 8 5 9 6 10 7 19 8 12 9 13 10 18 11 20 12
REMARK SMILES IDX 14 13 15 14 17 15 16 16 35 17 21 18 34 19 33 20 23 21 22 22
REMARK SMILES IDX 30 23 24 24 25 25 31 26 32 27 11 28 26 30 27 31 29 32 28 33
REMARK SMILES IDX 3 34 2 35 1 36 36 37 37 38 38 39
REMARK H PARENT 11 29
REMARK Flexibility Score: inf
ROOT
ATOM      1  C   UNL     1      27.930  65.318  13.728  1.00  0.00     0.014 C 
ENDROOT
BRANCH   1   2
ATOM      2  C   UNL     1      29.236  65.455  14.563  1.00  0.00     0.042 C 
BRANCH   2   3
ATOM      3  C   UNL     1      28.945  66.271  15.798  1.00  0.00     0.045 C 
ATOM      4  O   UNL     1      29.645  67.284  16.062  1.00  0.00    -0.550 OA
ATOM      5  O   UNL     1      27.883  65.945  16.635  1.00  0.00    -0.550 OA
ENDBRANCH   2   3
BRANCH   2   6
ATOM      6  C   UNL     1      29.941  64.091  14.905  1.00  0.00     0.033 C 
ATOM      7  C   UNL     1      29.018  63.007  15.528  1.00  0.00     0.119 C 
ATOM      8  C   UNL     1      30.713  63.360  13.746  1.00  0.00    -0.017 C 
ATOM      9  C   UNL     1      29.457  61.651  14.966  1.00  0.00     0.043 C 
ATOM     10  C   UNL     1      30.793  61.866  14.227  1.00  0.00    -0.003 C 
ATOM     11  C   UNL     1      29.919  63.418  12.418  1.00  0.00     0.012 C 
ATOM     12  C   UNL     1      32.125  63.984  13.522  1.00  0.00     0.013 C 
ATOM     13  C   UNL     1      31.960  61.665  15.247  1.00  0.00     0.017 C 
ATOM     14  C   UNL     1      30.918  60.814  13.091  1.00  0.00    -0.064 C 
ATOM     15  C   UNL     1      30.583  62.570  11.345  1.00  0.00     0.032 C 
ATOM     16  C   UNL     1      30.774  61.115  11.761  1.00  0.00    -0.064 C 
ATOM     17  C   UNL     1      31.153  59.387  13.526  1.00  0.00     0.032 C 
ATOM     18  C   UNL     1      30.847  60.036  10.626  1.00  0.00    -0.008 C 
ATOM     19  C   UNL     1      30.593  58.378  12.549  1.00  0.00     0.009 C 
ATOM     20  C   UNL     1      31.229  58.586  11.156  1.00  0.00     0.009 C 
ATOM     21  C   UNL     1      29.450  59.991   9.933  1.00  0.00     0.015 C 
ATOM     22  C   UNL     1      31.928  60.534   9.629  1.00  0.00     0.016 C 
ATOM     23  C   UNL     1      30.934  57.367  10.158  1.00  0.00     0.005 C 
ATOM     24  C   UNL     1      29.296  58.883   8.892  1.00  0.00     0.047 C 
ATOM     25  C   UNL     1      29.527  57.495   9.497  1.00  0.00     0.182 C 
ATOM     26  C   UNL     1      32.027  57.272   9.044  1.00  0.00     0.015 C 
ATOM     27  C   UNL     1      31.013  55.993  10.889  1.00  0.00     0.015 C 
BRANCH   7  28
ATOM     28  O   UNL     1      27.645  63.220  15.301  1.00  0.00    -0.393 OA
ATOM     29  H   UNL     1      27.136  62.521  15.784  1.00  0.00     0.210 HD
ENDBRANCH   7  28
BRANCH  25  30
ATOM     30  O   UNL     1      28.481  57.248  10.445  1.00  0.00    -0.462 OA
BRANCH  30  31
ATOM     31  C   UNL     1      27.187  56.833  10.103  1.00  0.00     0.302 C 
ATOM     32  O   UNL     1      26.984  56.096   9.101  1.00  0.00    -0.253 OA
ATOM     33  C   UNL     1      26.045  57.229  10.976  1.00  0.00     0.139 C 
ENDBRANCH  30  31
ENDBRANCH  25  30
ENDBRANCH   2   6
ENDBRANCH   1   2
BRANCH   1  34
ATOM     34  C   UNL     1      27.662  66.459  12.729  1.00  0.00     0.031 C 
BRANCH  34  35
ATOM     35  C   UNL     1      27.333  65.905  11.353  1.00  0.00    -0.075 C 
ATOM     36  C   UNL     1      27.745  66.589  10.270  1.00  0.00     0.008 C 
BRANCH  35  37
ATOM     37  C   UNL     1      26.634  64.562  11.148  1.00  0.00     0.008 C 
ATOM     38  C   UNL     1      25.121  64.760  10.981  1.00  0.00     0.012 C 
ATOM     39  C   UNL     1      27.195  63.745   9.975  1.00  0.00     0.012 C 
ENDBRANCH  35  37
ENDBRANCH  34  35
ENDBRANCH   1  34
TORSDOF 9
ENDMDL
MODEL 8
REMARK VINA RESULT:    -1.692      2.244      8.341
REMARK INTER + INTRA:          -3.514
REMARK INTER:                  -2.470
REMARK INTRA:                  -1.044
REMARK UNBOUND:                -0.981
REMARK SMILES C=C(CC[C@@H](C(=O)[O-])[C@H]1[C@@H](O)C[C@@]2(C)C3=C(CC[C@@]12C)[C@]1(C)CC[C@H](OC(C)=O)C(C)(C)[C@@H]1CC3)C(C)C
REMARK SMILES IDX 4 1 5 2 6 3 7 4 8 5 9 6 10 7 19 8 12 9 13 10 18 11 20 12
REMARK SMILES IDX 14 13 15 14 17 15 16 16 35 17 21 18 34 19 33 20 23 21 22 22
REMARK SMILES IDX 30 23 24 24 25 25 31 26 32 27 11 28 26 30 27 31 29 32 28 33
REMARK SMILES IDX 3 34 2 35 1 36 36 37 37 38 38 39
REMARK H PARENT 11 29
REMARK Flexibility Score: inf
ROOT
ATOM      1  C   UNL     1      30.600  58.945   9.876  1.00  0.00     0.014 C 
ENDROOT
BRANCH   1   2
ATOM      2  C   UNL     1      31.174  60.314  10.343  1.00  0.00     0.042 C 
BRANCH   2   3
ATOM      3  C   UNL     1      31.530  61.136   9.129  1.00  0.00     0.045 C 
ATOM      4  O   UNL     1      31.963  60.569   8.091  1.00  0.00    -0.550 OA
ATOM      5  O   UNL     1      31.349  62.515   9.123  1.00  0.00    -0.550 OA
ENDBRANCH   2   3
BRANCH   2   6
ATOM      6  C   UNL     1      30.254  61.102  11.345  1.00  0.00     0.033 C 
ATOM      7  C   UNL     1      28.742  60.749  11.273  1.00  0.00     0.119 C 
ATOM      8  C   UNL     1      30.621  61.040  12.874  1.00  0.00    -0.017 C 
ATOM      9  C   UNL     1      28.193  60.786  12.705  1.00  0.00     0.043 C 
ATOM     10  C   UNL     1      29.279  61.412  13.602  1.00  0.00    -0.003 C 
ATOM     11  C   UNL     1      31.039  59.609  13.293  1.00  0.00     0.012 C 
ATOM     12  C   UNL     1      31.775  62.030  13.222  1.00  0.00     0.013 C 
ATOM     13  C   UNL     1      29.064  62.960  13.628  1.00  0.00     0.017 C 
ATOM     14  C   UNL     1      29.132  60.850  15.042  1.00  0.00    -0.064 C 
ATOM     15  C   UNL     1      31.229  59.514  14.798  1.00  0.00     0.032 C 
ATOM     16  C   UNL     1      29.995  59.935  15.589  1.00  0.00    -0.064 C 
ATOM     17  C   UNL     1      27.926  61.318  15.822  1.00  0.00     0.032 C 
ATOM     18  C   UNL     1      29.807  59.331  17.024  1.00  0.00    -0.008 C 
ATOM     19  C   UNL     1      27.453  60.300  16.835  1.00  0.00     0.009 C 
ATOM     20  C   UNL     1      28.593  59.975  17.826  1.00  0.00     0.009 C 
ATOM     21  C   UNL     1      29.573  57.799  16.858  1.00  0.00     0.015 C 
ATOM     22  C   UNL     1      31.137  59.596  17.779  1.00  0.00     0.016 C 
ATOM     23  C   UNL     1      28.080  59.160  19.108  1.00  0.00     0.005 C 
ATOM     24  C   UNL     1      29.222  57.069  18.155  1.00  0.00     0.047 C 
ATOM     25  C   UNL     1      27.956  57.635  18.803  1.00  0.00     0.182 C 
ATOM     26  C   UNL     1      29.030  59.373  20.330  1.00  0.00     0.015 C 
ATOM     27  C   UNL     1      26.697  59.679  19.604  1.00  0.00     0.015 C 
BRANCH   7  28
ATOM     28  O   UNL     1      28.468  59.510  10.666  1.00  0.00    -0.393 OA
ATOM     29  H   UNL     1      29.050  58.823  11.078  1.00  0.00     0.210 HD
ENDBRANCH   7  28
BRANCH  25  30
ATOM     30  O   UNL     1      26.854  57.366  17.928  1.00  0.00    -0.462 OA
BRANCH  30  31
ATOM     31  C   UNL     1      25.884  56.380  18.158  1.00  0.00     0.302 C 
ATOM     32  O   UNL     1      25.220  55.887  17.208  1.00  0.00    -0.253 OA
ATOM     33  C   UNL     1      25.681  55.875  19.545  1.00  0.00     0.139 C 
ENDBRANCH  30  31
ENDBRANCH  25  30
ENDBRANCH   2   6
ENDBRANCH   1   2
BRANCH   1  34
ATOM     34  C   UNL     1      31.395  57.706  10.326  1.00  0.00     0.031 C 
BRANCH  34  35
ATOM     35  C   UNL     1      30.468  56.525  10.562  1.00  0.00    -0.075 C 
ATOM     36  C   UNL     1      29.972  55.875   9.495  1.00  0.00     0.008 C 
BRANCH  35  37
ATOM     37  C   UNL     1      30.148  55.993  11.959  1.00  0.00     0.008 C 
ATOM     38  C   UNL     1      31.415  55.954  12.825  1.00  0.00     0.012 C 
ATOM     39  C   UNL     1      29.037  56.772  12.677  1.00  0.00     0.012 C 
ENDBRANCH  35  37
ENDBRANCH  34  35
ENDBRANCH   1  34
TORSDOF 9
ENDMDL
