MODEL 1
REMARK VINA RESULT:    -4.351      0.000      0.000
REMARK INTER + INTRA:          -9.188
REMARK INTER:                  -7.658
REMARK INTRA:                  -1.530
REMARK UNBOUND:                -1.530
REMARK SMILES CCCCCCC=CCCCCCCCC(=O)[O-]
REMARK SMILES IDX 10 1 11 2 12 3 13 4 14 5 15 6 16 7 17 8 18 9 9 10 8 11 7 12
REMARK SMILES IDX 6 13 5 14 4 15 3 16 2 17 1 18
REMARK H PARENT
REMARK Flexibility Score: inf
ROOT
ATOM      1  C   UNL     1      45.358  25.712   3.007  1.00  0.00     0.004 C 
ENDROOT
BRANCH   1   2
ATOM      2  C   UNL     1      44.137  26.541   2.580  1.00  0.00     0.000 C 
BRANCH   2   3
ATOM      3  C   UNL     1      44.524  27.910   2.002  1.00  0.00     0.000 C 
BRANCH   3   4
ATOM      4  C   UNL     1      43.317  28.589   1.345  1.00  0.00     0.000 C 
BRANCH   4   5
ATOM      5  C   UNL     1      42.712  27.697   0.249  1.00  0.00     0.006 C 
BRANCH   5   6
ATOM      6  C   UNL     1      43.316  27.984  -1.132  1.00  0.00     0.053 C 
BRANCH   6   7
ATOM      7  C   UNL     1      44.134  26.833  -1.633  1.00  0.00     0.041 C 
ATOM      8  O   UNL     1      45.267  27.036  -2.143  1.00  0.00    -0.550 OA
ATOM      9  O   UNL     1      43.660  25.533  -1.503  1.00  0.00    -0.550 OA
ENDBRANCH   6   7
ENDBRANCH   5   6
ENDBRANCH   4   5
ENDBRANCH   3   4
ENDBRANCH   2   3
ENDBRANCH   1   2
BRANCH   1  10
ATOM     10  C   UNL     1      45.497  25.613   4.535  1.00  0.00     0.027 C 
BRANCH  10  11
ATOM     11  C   UNL     1      46.820  26.171   4.995  1.00  0.00    -0.031 C 
ATOM     12  C   UNL     1      47.029  27.452   5.354  1.00  0.00    -0.031 C 
BRANCH  12  13
ATOM     13  C   UNL     1      45.967  28.526   5.402  1.00  0.00     0.027 C 
BRANCH  13  14
ATOM     14  C   UNL     1      46.062  29.349   6.692  1.00  0.00     0.004 C 
BRANCH  14  15
ATOM     15  C   UNL     1      45.116  28.828   7.783  1.00  0.00     0.000 C 
BRANCH  15  16
ATOM     16  C   UNL     1      45.867  27.942   8.784  1.00  0.00    -0.000 C 
BRANCH  16  17
ATOM     17  C   UNL     1      45.423  26.480   8.664  1.00  0.00    -0.003 C 
ATOM     18  C   UNL     1      46.540  25.528   9.085  1.00  0.00     0.004 C 
ENDBRANCH  16  17
ENDBRANCH  15  16
ENDBRANCH  14  15
ENDBRANCH  13  14
ENDBRANCH  12  13
ENDBRANCH  10  11
ENDBRANCH   1  10
TORSDOF 13
ENDMDL
MODEL 2
REMARK VINA RESULT:    -4.309      1.107      2.380
REMARK INTER + INTRA:          -9.115
REMARK INTER:                  -7.862
REMARK INTRA:                  -1.253
REMARK UNBOUND:                -1.530
REMARK SMILES CCCCCCC=CCCCCCCCC(=O)[O-]
REMARK SMILES IDX 10 1 11 2 12 3 13 4 14 5 15 6 16 7 17 8 18 9 9 10 8 11 7 12
REMARK SMILES IDX 6 13 5 14 4 15 3 16 2 17 1 18
REMARK H PARENT
REMARK Flexibility Score: inf
ROOT
ATOM      1  C   UNL     1      42.722  27.481   1.888  1.00  0.00     0.004 C 
ENDROOT
BRANCH   1   2
ATOM      2  C   UNL     1      42.268  28.675   1.034  1.00  0.00     0.000 C 
BRANCH   2   3
ATOM      3  C   UNL     1      43.397  29.684   0.779  1.00  0.00     0.000 C 
BRANCH   3   4
ATOM      4  C   UNL     1      43.572  29.943  -0.722  1.00  0.00     0.000 C 
BRANCH   4   5
ATOM      5  C   UNL     1      42.756  28.940  -1.553  1.00  0.00     0.006 C 
BRANCH   5   6
ATOM      6  C   UNL     1      43.640  28.104  -2.487  1.00  0.00     0.053 C 
BRANCH   6   7
ATOM      7  C   UNL     1      44.434  27.081  -1.735  1.00  0.00     0.041 C 
ATOM      8  O   UNL     1      45.669  27.247  -1.554  1.00  0.00    -0.550 OA
ATOM      9  O   UNL     1      43.804  25.963  -1.204  1.00  0.00    -0.550 OA
ENDBRANCH   6   7
ENDBRANCH   5   6
ENDBRANCH   4   5
ENDBRANCH   3   4
ENDBRANCH   2   3
ENDBRANCH   1   2
BRANCH   1  10
ATOM     10  C   UNL     1      44.250  27.422   2.052  1.00  0.00     0.027 C 
BRANCH  10  11
ATOM     11  C   UNL     1      44.669  26.154   2.752  1.00  0.00    -0.031 C 
ATOM     12  C   UNL     1      45.657  26.072   3.663  1.00  0.00    -0.031 C 
BRANCH  12  13
ATOM     13  C   UNL     1      46.472  27.240   4.169  1.00  0.00     0.027 C 
BRANCH  13  14
ATOM     14  C   UNL     1      46.890  27.038   5.631  1.00  0.00     0.004 C 
BRANCH  14  15
ATOM     15  C   UNL     1      45.801  26.333   6.453  1.00  0.00     0.000 C 
BRANCH  15  16
ATOM     16  C   UNL     1      46.265  26.098   7.894  1.00  0.00    -0.000 C 
BRANCH  16  17
ATOM     17  C   UNL     1      45.286  26.720   8.895  1.00  0.00    -0.003 C 
ATOM     18  C   UNL     1      45.089  28.209   8.622  1.00  0.00     0.004 C 
ENDBRANCH  16  17
ENDBRANCH  15  16
ENDBRANCH  14  15
ENDBRANCH  13  14
ENDBRANCH  12  13
ENDBRANCH  10  11
ENDBRANCH   1  10
TORSDOF 13
ENDMDL
MODEL 3
REMARK VINA RESULT:    -4.251      2.304      3.698
REMARK INTER + INTRA:          -9.013
REMARK INTER:                  -7.945
REMARK INTRA:                  -1.067
REMARK UNBOUND:                -1.530
REMARK SMILES CCCCCCC=CCCCCCCCC(=O)[O-]
REMARK SMILES IDX 10 1 11 2 12 3 13 4 14 5 15 6 16 7 17 8 18 9 9 10 8 11 7 12
REMARK SMILES IDX 6 13 5 14 4 15 3 16 2 17 1 18
REMARK H PARENT
REMARK Flexibility Score: inf
ROOT
ATOM      1  C   UNL     1      42.326  27.478   0.396  1.00  0.00     0.004 C 
ENDROOT
BRANCH   1   2
ATOM      2  C   UNL     1      43.414  26.752  -0.409  1.00  0.00     0.000 C 
BRANCH   2   3
ATOM      3  C   UNL     1      43.880  27.554  -1.632  1.00  0.00     0.000 C 
BRANCH   3   4
ATOM      4  C   UNL     1      42.992  28.784  -1.852  1.00  0.00     0.000 C 
BRANCH   4   5
ATOM      5  C   UNL     1      42.700  28.992  -3.347  1.00  0.00     0.006 C 
BRANCH   5   6
ATOM      6  C   UNL     1      43.479  28.012  -4.233  1.00  0.00     0.053 C 
BRANCH   6   7
ATOM      7  C   UNL     1      42.787  27.771  -5.540  1.00  0.00     0.041 C 
ATOM      8  O   UNL     1      41.623  28.211  -5.730  1.00  0.00    -0.550 OA
ATOM      9  O   UNL     1      43.442  27.091  -6.559  1.00  0.00    -0.550 OA
ENDBRANCH   6   7
ENDBRANCH   5   6
ENDBRANCH   4   5
ENDBRANCH   3   4
ENDBRANCH   2   3
ENDBRANCH   1   2
BRANCH   1  10
ATOM     10  C   UNL     1      42.673  27.589   1.889  1.00  0.00     0.027 C 
BRANCH  10  11
ATOM     11  C   UNL     1      44.057  28.155   2.082  1.00  0.00    -0.031 C 
ATOM     12  C   UNL     1      45.060  27.529   2.727  1.00  0.00    -0.031 C 
BRANCH  12  13
ATOM     13  C   UNL     1      44.978  26.142   3.321  1.00  0.00     0.027 C 
BRANCH  13  14
ATOM     14  C   UNL     1      45.822  26.029   4.596  1.00  0.00     0.004 C 
BRANCH  14  15
ATOM     15  C   UNL     1      46.117  27.402   5.219  1.00  0.00     0.000 C 
BRANCH  15  16
ATOM     16  C   UNL     1      46.514  27.264   6.692  1.00  0.00    -0.000 C 
BRANCH  16  17
ATOM     17  C   UNL     1      45.697  26.165   7.381  1.00  0.00    -0.003 C 
ATOM     18  C   UNL     1      45.289  26.583   8.792  1.00  0.00     0.004 C 
ENDBRANCH  16  17
ENDBRANCH  15  16
ENDBRANCH  14  15
ENDBRANCH  13  14
ENDBRANCH  12  13
ENDBRANCH  10  11
ENDBRANCH   1  10
TORSDOF 13
ENDMDL
MODEL 4
REMARK VINA RESULT:    -4.207      3.295      4.784
REMARK INTER + INTRA:          -8.934
REMARK INTER:                  -6.804
REMARK INTRA:                  -2.130
REMARK UNBOUND:                -1.530
REMARK SMILES CCCCCCC=CCCCCCCCC(=O)[O-]
REMARK SMILES IDX 10 1 11 2 12 3 13 4 14 5 15 6 16 7 17 8 18 9 9 10 8 11 7 12
REMARK SMILES IDX 6 13 5 14 4 15 3 16 2 17 1 18
REMARK H PARENT
REMARK Flexibility Score: inf
ROOT
ATOM      1  C   UNL     1      42.628  27.125   0.023  1.00  0.00     0.004 C 
ENDROOT
BRANCH   1   2
ATOM      2  C   UNL     1      44.076  27.118  -0.488  1.00  0.00     0.000 C 
BRANCH   2   3
ATOM      3  C   UNL     1      44.313  28.139  -1.611  1.00  0.00     0.000 C 
BRANCH   3   4
ATOM      4  C   UNL     1      43.009  28.848  -1.991  1.00  0.00     0.000 C 
BRANCH   4   5
ATOM      5  C   UNL     1      42.895  29.013  -3.515  1.00  0.00     0.006 C 
BRANCH   5   6
ATOM      6  C   UNL     1      42.986  27.671  -4.253  1.00  0.00     0.053 C 
BRANCH   6   7
ATOM      7  C   UNL     1      42.684  27.816  -5.713  1.00  0.00     0.041 C 
ATOM      8  O   UNL     1      43.451  27.306  -6.571  1.00  0.00    -0.550 OA
ATOM      9  O   UNL     1      41.537  28.484  -6.124  1.00  0.00    -0.550 OA
ENDBRANCH   6   7
ENDBRANCH   5   6
ENDBRANCH   4   5
ENDBRANCH   3   4
ENDBRANCH   2   3
ENDBRANCH   1   2
BRANCH   1  10
ATOM     10  C   UNL     1      42.528  27.518   1.505  1.00  0.00     0.027 C 
BRANCH  10  11
ATOM     11  C   UNL     1      42.149  28.969   1.656  1.00  0.00    -0.031 C 
ATOM     12  C   UNL     1      43.024  29.974   1.853  1.00  0.00    -0.031 C 
BRANCH  12  13
ATOM     13  C   UNL     1      44.526  29.820   1.907  1.00  0.00     0.027 C 
BRANCH  13  14
ATOM     14  C   UNL     1      45.029  29.746   3.354  1.00  0.00     0.004 C 
BRANCH  14  15
ATOM     15  C   UNL     1      45.666  28.387   3.677  1.00  0.00     0.000 C 
BRANCH  15  16
ATOM     16  C   UNL     1      46.190  27.709   2.406  1.00  0.00    -0.000 C 
BRANCH  16  17
ATOM     17  C   UNL     1      46.256  26.188   2.581  1.00  0.00    -0.003 C 
ATOM     18  C   UNL     1      45.057  25.671   3.372  1.00  0.00     0.004 C 
ENDBRANCH  16  17
ENDBRANCH  15  16
ENDBRANCH  14  15
ENDBRANCH  13  14
ENDBRANCH  12  13
ENDBRANCH  10  11
ENDBRANCH   1  10
TORSDOF 13
ENDMDL
MODEL 5
REMARK VINA RESULT:    -4.169      2.133      3.199
REMARK INTER + INTRA:          -8.869
REMARK INTER:                  -8.236
REMARK INTRA:                  -0.632
REMARK UNBOUND:                -1.530
REMARK SMILES CCCCCCC=CCCCCCCCC(=O)[O-]
REMARK SMILES IDX 10 1 11 2 12 3 13 4 14 5 15 6 16 7 17 8 18 9 9 10 8 11 7 12
REMARK SMILES IDX 6 13 5 14 4 15 3 16 2 17 1 18
REMARK H PARENT
REMARK Flexibility Score: inf
ROOT
ATOM      1  C   UNL     1      42.946  27.700   2.073  1.00  0.00     0.004 C 
ENDROOT
BRANCH   1   2
ATOM      2  C   UNL     1      42.471  27.519   0.623  1.00  0.00     0.000 C 
BRANCH   2   3
ATOM      3  C   UNL     1      42.792  28.732  -0.261  1.00  0.00     0.000 C 
BRANCH   3   4
ATOM      4  C   UNL     1      43.243  28.290  -1.658  1.00  0.00     0.000 C 
BRANCH   4   5
ATOM      5  C   UNL     1      42.534  29.105  -2.751  1.00  0.00     0.006 C 
BRANCH   5   6
ATOM      6  C   UNL     1      43.222  28.970  -4.115  1.00  0.00     0.053 C 
BRANCH   6   7
ATOM      7  C   UNL     1      42.621  27.872  -4.937  1.00  0.00     0.041 C 
ATOM      8  O   UNL     1      41.563  28.075  -5.588  1.00  0.00    -0.550 OA
ATOM      9  O   UNL     1      43.249  26.635  -5.012  1.00  0.00    -0.550 OA
ENDBRANCH   6   7
ENDBRANCH   5   6
ENDBRANCH   4   5
ENDBRANCH   3   4
ENDBRANCH   2   3
ENDBRANCH   1   2
BRANCH   1  10
ATOM     10  C   UNL     1      44.435  27.364   2.251  1.00  0.00     0.027 C 
BRANCH  10  11
ATOM     11  C   UNL     1      44.612  25.985   2.834  1.00  0.00    -0.031 C 
ATOM     12  C   UNL     1      45.277  25.713   3.973  1.00  0.00    -0.031 C 
BRANCH  12  13
ATOM     13  C   UNL     1      45.909  26.746   4.877  1.00  0.00     0.027 C 
BRANCH  13  14
ATOM     14  C   UNL     1      45.799  26.340   6.352  1.00  0.00     0.004 C 
BRANCH  14  15
ATOM     15  C   UNL     1      46.292  27.447   7.296  1.00  0.00     0.000 C 
BRANCH  15  16
ATOM     16  C   UNL     1      45.409  27.538   8.545  1.00  0.00    -0.000 C 
BRANCH  16  17
ATOM     17  C   UNL     1      44.852  28.954   8.723  1.00  0.00    -0.003 C 
ATOM     18  C   UNL     1      45.387  29.897   7.649  1.00  0.00     0.004 C 
ENDBRANCH  16  17
ENDBRANCH  15  16
ENDBRANCH  14  15
ENDBRANCH  13  14
ENDBRANCH  12  13
ENDBRANCH  10  11
ENDBRANCH   1  10
TORSDOF 13
ENDMDL
MODEL 6
REMARK VINA RESULT:    -4.096      3.919      8.791
REMARK INTER + INTRA:          -8.739
REMARK INTER:                  -7.883
REMARK INTRA:                  -0.856
REMARK UNBOUND:                -1.530
REMARK SMILES CCCCCCC=CCCCCCCCC(=O)[O-]
REMARK SMILES IDX 10 1 11 2 12 3 13 4 14 5 15 6 16 7 17 8 18 9 9 10 8 11 7 12
REMARK SMILES IDX 6 13 5 14 4 15 3 16 2 17 1 18
REMARK H PARENT
REMARK Flexibility Score: inf
ROOT
ATOM      1  C   UNL     1      44.580  27.041   2.455  1.00  0.00     0.004 C 
ENDROOT
BRANCH   1   2
ATOM      2  C   UNL     1      44.953  25.717   3.140  1.00  0.00     0.000 C 
BRANCH   2   3
ATOM      3  C   UNL     1      45.835  25.920   4.380  1.00  0.00     0.000 C 
BRANCH   3   4
ATOM      4  C   UNL     1      46.081  27.410   4.640  1.00  0.00     0.000 C 
BRANCH   4   5
ATOM      5  C   UNL     1      46.085  27.713   6.147  1.00  0.00     0.006 C 
BRANCH   5   6
ATOM      6  C   UNL     1      45.909  26.447   6.995  1.00  0.00     0.053 C 
BRANCH   6   7
ATOM      7  C   UNL     1      45.385  26.760   8.363  1.00  0.00     0.041 C 
ATOM      8  O   UNL     1      45.314  25.855   9.236  1.00  0.00    -0.550 OA
ATOM      9  O   UNL     1      45.009  28.058   8.684  1.00  0.00    -0.550 OA
ENDBRANCH   6   7
ENDBRANCH   5   6
ENDBRANCH   4   5
ENDBRANCH   3   4
ENDBRANCH   2   3
ENDBRANCH   1   2
BRANCH   1  10
ATOM     10  C   UNL     1      43.532  26.855   1.346  1.00  0.00     0.027 C 
BRANCH  10  11
ATOM     11  C   UNL     1      42.475  27.928   1.416  1.00  0.00    -0.031 C 
ATOM     12  C   UNL     1      42.409  28.995   0.597  1.00  0.00    -0.031 C 
BRANCH  12  13
ATOM     13  C   UNL     1      43.350  29.266  -0.554  1.00  0.00     0.027 C 
BRANCH  13  14
ATOM     14  C   UNL     1      42.649  29.081  -1.905  1.00  0.00     0.004 C 
BRANCH  14  15
ATOM     15  C   UNL     1      43.635  28.723  -3.026  1.00  0.00     0.000 C 
BRANCH  15  16
ATOM     16  C   UNL     1      43.892  27.213  -3.071  1.00  0.00    -0.000 C 
BRANCH  16  17
ATOM     17  C   UNL     1      43.638  26.655  -4.476  1.00  0.00    -0.003 C 
ATOM     18  C   UNL     1      42.685  27.551  -5.262  1.00  0.00     0.004 C 
ENDBRANCH  16  17
ENDBRANCH  15  16
ENDBRANCH  14  15
ENDBRANCH  13  14
ENDBRANCH  12  13
ENDBRANCH  10  11
ENDBRANCH   1  10
TORSDOF 13
ENDMDL
MODEL 7
REMARK VINA RESULT:    -3.971      3.798      7.734
REMARK INTER + INTRA:          -8.518
REMARK INTER:                  -6.875
REMARK INTRA:                  -1.643
REMARK UNBOUND:                -1.530
REMARK SMILES CCCCCCC=CCCCCCCCC(=O)[O-]
REMARK SMILES IDX 10 1 11 2 12 3 13 4 14 5 15 6 16 7 17 8 18 9 9 10 8 11 7 12
REMARK SMILES IDX 6 13 5 14 4 15 3 16 2 17 1 18
REMARK H PARENT
REMARK Flexibility Score: inf
ROOT
ATOM      1  C   UNL     1      44.870  25.982   2.948  1.00  0.00     0.004 C 
ENDROOT
BRANCH   1   2
ATOM      2  C   UNL     1      45.999  25.118   3.530  1.00  0.00     0.000 C 
BRANCH   2   3
ATOM      3  C   UNL     1      46.804  25.848   4.615  1.00  0.00     0.000 C 
BRANCH   3   4
ATOM      4  C   UNL     1      45.912  26.215   5.806  1.00  0.00     0.000 C 
BRANCH   4   5
ATOM      5  C   UNL     1      46.067  27.699   6.174  1.00  0.00     0.006 C 
BRANCH   5   6
ATOM      6  C   UNL     1      45.484  28.019   7.556  1.00  0.00     0.053 C 
BRANCH   6   7
ATOM      7  C   UNL     1      45.948  27.046   8.596  1.00  0.00     0.041 C 
ATOM      8  O   UNL     1      47.125  27.106   9.040  1.00  0.00    -0.550 OA
ATOM      9  O   UNL     1      45.069  26.095   9.100  1.00  0.00    -0.550 OA
ENDBRANCH   6   7
ENDBRANCH   5   6
ENDBRANCH   4   5
ENDBRANCH   3   4
ENDBRANCH   2   3
ENDBRANCH   1   2
BRANCH   1  10
ATOM     10  C   UNL     1      45.395  27.082   2.011  1.00  0.00     0.027 C 
BRANCH  10  11
ATOM     11  C   UNL     1      45.055  28.452   2.541  1.00  0.00    -0.031 C 
ATOM     12  C   UNL     1      43.917  29.118   2.270  1.00  0.00    -0.031 C 
BRANCH  12  13
ATOM     13  C   UNL     1      42.776  28.586   1.434  1.00  0.00     0.027 C 
BRANCH  13  14
ATOM     14  C   UNL     1      42.451  29.528   0.268  1.00  0.00     0.004 C 
BRANCH  14  15
ATOM     15  C   UNL     1      42.745  28.884  -1.095  1.00  0.00     0.000 C 
BRANCH  15  16
ATOM     16  C   UNL     1      43.260  27.450  -0.927  1.00  0.00    -0.000 C 
BRANCH  16  17
ATOM     17  C   UNL     1      44.402  27.158  -1.906  1.00  0.00    -0.003 C 
ATOM     18  C   UNL     1      45.655  27.950  -1.544  1.00  0.00     0.004 C 
ENDBRANCH  16  17
ENDBRANCH  15  16
ENDBRANCH  14  15
ENDBRANCH  13  14
ENDBRANCH  12  13
ENDBRANCH  10  11
ENDBRANCH   1  10
TORSDOF 13
ENDMDL
MODEL 8
REMARK VINA RESULT:    -3.904      1.901      3.351
REMARK INTER + INTRA:          -8.401
REMARK INTER:                  -6.412
REMARK INTRA:                  -1.989
REMARK UNBOUND:                -1.530
REMARK SMILES CCCCCCC=CCCCCCCCC(=O)[O-]
REMARK SMILES IDX 10 1 11 2 12 3 13 4 14 5 15 6 16 7 17 8 18 9 9 10 8 11 7 12
REMARK SMILES IDX 6 13 5 14 4 15 3 16 2 17 1 18
REMARK H PARENT
REMARK Flexibility Score: inf
ROOT
ATOM      1  C   UNL     1      42.605  27.537   1.100  1.00  0.00     0.004 C 
ENDROOT
BRANCH   1   2
ATOM      2  C   UNL     1      42.373  29.036   1.348  1.00  0.00     0.000 C 
BRANCH   2   3
ATOM      3  C   UNL     1      42.249  29.839   0.045  1.00  0.00     0.000 C 
BRANCH   3   4
ATOM      4  C   UNL     1      43.485  29.641  -0.841  1.00  0.00     0.000 C 
BRANCH   4   5
ATOM      5  C   UNL     1      43.120  28.898  -2.137  1.00  0.00     0.006 C 
BRANCH   5   6
ATOM      6  C   UNL     1      44.362  28.481  -2.935  1.00  0.00     0.053 C 
BRANCH   6   7
ATOM      7  C   UNL     1      44.913  27.170  -2.464  1.00  0.00     0.041 C 
ATOM      8  O   UNL     1      44.152  26.315  -1.940  1.00  0.00    -0.550 OA
ATOM      9  O   UNL     1      46.261  26.879  -2.637  1.00  0.00    -0.550 OA
ENDBRANCH   6   7
ENDBRANCH   5   6
ENDBRANCH   4   5
ENDBRANCH   3   4
ENDBRANCH   2   3
ENDBRANCH   1   2
BRANCH   1  10
ATOM     10  C   UNL     1      43.779  26.980   1.922  1.00  0.00     0.027 C 
BRANCH  10  11
ATOM     11  C   UNL     1      45.093  27.233   1.228  1.00  0.00    -0.031 C 
ATOM     12  C   UNL     1      46.013  28.130   1.631  1.00  0.00    -0.031 C 
BRANCH  12  13
ATOM     13  C   UNL     1      45.902  28.992   2.867  1.00  0.00     0.027 C 
BRANCH  13  14
ATOM     14  C   UNL     1      46.811  28.478   3.990  1.00  0.00     0.004 C 
BRANCH  14  15
ATOM     15  C   UNL     1      46.012  28.032   5.223  1.00  0.00     0.000 C 
BRANCH  15  16
ATOM     16  C   UNL     1      46.215  26.538   5.499  1.00  0.00    -0.000 C 
BRANCH  16  17
ATOM     17  C   UNL     1      47.112  25.899   4.433  1.00  0.00    -0.003 C 
ATOM     18  C   UNL     1      46.336  24.890   3.591  1.00  0.00     0.004 C 
ENDBRANCH  16  17
ENDBRANCH  15  16
ENDBRANCH  14  15
ENDBRANCH  13  14
ENDBRANCH  12  13
ENDBRANCH  10  11
ENDBRANCH   1  10
TORSDOF 13
ENDMDL
MODEL 9
REMARK VINA RESULT:    -3.807      3.652      8.333
REMARK INTER + INTRA:          -8.231
REMARK INTER:                  -6.163
REMARK INTRA:                  -2.068
REMARK UNBOUND:                -1.530
REMARK SMILES CCCCCCC=CCCCCCCCC(=O)[O-]
REMARK SMILES IDX 10 1 11 2 12 3 13 4 14 5 15 6 16 7 17 8 18 9 9 10 8 11 7 12
REMARK SMILES IDX 6 13 5 14 4 15 3 16 2 17 1 18
REMARK H PARENT
REMARK Flexibility Score: inf
ROOT
ATOM      1  C   UNL     1      42.236  27.792   1.327  1.00  0.00     0.004 C 
ENDROOT
BRANCH   1   2
ATOM      2  C   UNL     1      42.455  29.308   1.449  1.00  0.00     0.000 C 
BRANCH   2   3
ATOM      3  C   UNL     1      43.673  29.663   2.312  1.00  0.00     0.000 C 
BRANCH   3   4
ATOM      4  C   UNL     1      44.905  29.931   1.440  1.00  0.00     0.000 C 
BRANCH   4   5
ATOM      5  C   UNL     1      45.910  28.772   1.534  1.00  0.00     0.006 C 
BRANCH   5   6
ATOM      6  C   UNL     1      45.652  27.877   2.753  1.00  0.00     0.053 C 
BRANCH   6   7
ATOM      7  C   UNL     1      45.730  26.422   2.404  1.00  0.00     0.041 C 
ATOM      8  O   UNL     1      44.789  25.646   2.716  1.00  0.00    -0.550 OA
ATOM      9  O   UNL     1      46.824  25.932   1.702  1.00  0.00    -0.550 OA
ENDBRANCH   6   7
ENDBRANCH   5   6
ENDBRANCH   4   5
ENDBRANCH   3   4
ENDBRANCH   2   3
ENDBRANCH   1   2
BRANCH   1  10
ATOM     10  C   UNL     1      42.848  27.210   0.042  1.00  0.00     0.027 C 
BRANCH  10  11
ATOM     11  C   UNL     1      42.822  28.222  -1.075  1.00  0.00    -0.031 C 
ATOM     12  C   UNL     1      43.835  28.442  -1.935  1.00  0.00    -0.031 C 
BRANCH  12  13
ATOM     13  C   UNL     1      45.140  27.680  -1.953  1.00  0.00     0.027 C 
BRANCH  13  14
ATOM     14  C   UNL     1      45.481  27.188  -3.365  1.00  0.00     0.004 C 
BRANCH  14  15
ATOM     15  C   UNL     1      45.334  28.298  -4.416  1.00  0.00     0.000 C 
BRANCH  15  16
ATOM     16  C   UNL     1      44.754  27.745  -5.722  1.00  0.00    -0.000 C 
BRANCH  16  17
ATOM     17  C   UNL     1      43.411  27.048  -5.476  1.00  0.00    -0.003 C 
ATOM     18  C   UNL     1      42.262  28.052  -5.461  1.00  0.00     0.004 C 
ENDBRANCH  16  17
ENDBRANCH  15  16
ENDBRANCH  14  15
ENDBRANCH  13  14
ENDBRANCH  12  13
ENDBRANCH  10  11
ENDBRANCH   1  10
TORSDOF 13
ENDMDL
