MODEL 1
REMARK VINA RESULT:    -4.435      0.000      0.000
REMARK INTER + INTRA:          -4.857
REMARK INTER:                  -4.824
REMARK INTRA:                  -0.032
REMARK UNBOUND:                -0.032
REMARK SMILES O=C([O-])c1ccc(O)cc1
REMARK SMILES IDX 7 1 6 2 9 3 5 4 10 5 4 6 8 7 2 9 1 10 3 11
REMARK H PARENT 8 8
REMARK Flexibility Score: inf
ROOT
ATOM      1  C   UNL     1      35.838 -31.991   9.594  1.00  0.00     0.115 A 
ATOM      2  C   UNL     1      34.895 -32.372  10.558  1.00  0.00     0.047 A 
ATOM      3  C   UNL     1      36.218 -30.651   9.488  1.00  0.00     0.047 A 
ATOM      4  C   UNL     1      34.337 -31.415  11.412  1.00  0.00     0.014 A 
ATOM      5  C   UNL     1      35.662 -29.691  10.341  1.00  0.00     0.014 A 
ATOM      6  C   UNL     1      34.715 -30.064  11.312  1.00  0.00    -0.003 A 
ENDROOT
BRANCH   1   7
ATOM      7  O   UNL     1      36.400 -32.936   8.738  1.00  0.00    -0.508 OA
ATOM      8  H   UNL     1      35.939 -33.817   8.547  1.00  0.00     0.293 HD
ENDBRANCH   1   7
BRANCH   6   9
ATOM      9  C   UNL     1      34.128 -29.048  12.212  1.00  0.00     0.071 C 
ATOM     10  O   UNL     1      33.869 -27.890  11.789  1.00  0.00    -0.545 OA
ATOM     11  O   UNL     1      33.854 -29.357  13.540  1.00  0.00    -0.545 OA
ENDBRANCH   6   9
TORSDOF 2
ENDMDL
MODEL 2
REMARK VINA RESULT:    -4.403      0.997      4.252
REMARK INTER + INTRA:          -4.821
REMARK INTER:                  -4.791
REMARK INTRA:                  -0.030
REMARK UNBOUND:                -0.032
REMARK SMILES O=C([O-])c1ccc(O)cc1
REMARK SMILES IDX 7 1 6 2 9 3 5 4 10 5 4 6 8 7 2 9 1 10 3 11
REMARK H PARENT 8 8
REMARK Flexibility Score: inf
ROOT
ATOM      1  C   UNL     1      34.183 -29.324  11.779  1.00  0.00     0.115 A 
ATOM      2  C   UNL     1      33.795 -30.663  11.640  1.00  0.00     0.047 A 
ATOM      3  C   UNL     1      35.359 -28.876  11.173  1.00  0.00     0.047 A 
ATOM      4  C   UNL     1      34.581 -31.548  10.896  1.00  0.00     0.014 A 
ATOM      5  C   UNL     1      36.147 -29.759  10.427  1.00  0.00     0.014 A 
ATOM      6  C   UNL     1      35.767 -31.105  10.282  1.00  0.00    -0.003 A 
ENDROOT
BRANCH   1   7
ATOM      7  O   UNL     1      33.407 -28.433  12.519  1.00  0.00    -0.508 OA
ATOM      8  H   UNL     1      32.419 -28.594  12.674  1.00  0.00     0.293 HD
ENDBRANCH   1   7
BRANCH   6   9
ATOM      9  C   UNL     1      36.602 -32.037   9.493  1.00  0.00     0.071 C 
ATOM     10  O   UNL     1      36.994 -33.125   9.993  1.00  0.00    -0.545 OA
ATOM     11  O   UNL     1      36.966 -31.725   8.188  1.00  0.00    -0.545 OA
ENDBRANCH   6   9
TORSDOF 2
ENDMDL
MODEL 3
REMARK VINA RESULT:    -4.359      1.140      4.392
REMARK INTER + INTRA:          -4.774
REMARK INTER:                  -4.747
REMARK INTRA:                  -0.027
REMARK UNBOUND:                -0.032
REMARK SMILES O=C([O-])c1ccc(O)cc1
REMARK SMILES IDX 7 1 6 2 9 3 5 4 10 5 4 6 8 7 2 9 1 10 3 11
REMARK H PARENT 8 8
REMARK Flexibility Score: inf
ROOT
ATOM      1  C   UNL     1      34.201 -29.119  11.555  1.00  0.00     0.115 A 
ATOM      2  C   UNL     1      35.556 -28.812  11.376  1.00  0.00     0.047 A 
ATOM      3  C   UNL     1      33.670 -30.276  10.978  1.00  0.00     0.047 A 
ATOM      4  C   UNL     1      36.375 -29.660  10.624  1.00  0.00     0.014 A 
ATOM      5  C   UNL     1      34.487 -31.127  10.226  1.00  0.00     0.014 A 
ATOM      6  C   UNL     1      35.848 -30.827  10.040  1.00  0.00    -0.003 A 
ENDROOT
BRANCH   1   7
ATOM      7  O   UNL     1      33.375 -28.281  12.302  1.00  0.00    -0.508 OA
ATOM      8  H   UNL     1      32.368 -28.385  12.292  1.00  0.00     0.293 HD
ENDBRANCH   1   7
BRANCH   6   9
ATOM      9  C   UNL     1      36.710 -31.728   9.244  1.00  0.00     0.071 C 
ATOM     10  O   UNL     1      36.759 -31.624   7.989  1.00  0.00    -0.545 OA
ATOM     11  O   UNL     1      37.479 -32.702   9.870  1.00  0.00    -0.545 OA
ENDBRANCH   6   9
TORSDOF 2
ENDMDL
MODEL 4
REMARK VINA RESULT:    -3.775     18.616     20.466
REMARK INTER + INTRA:          -4.139
REMARK INTER:                  -4.109
REMARK INTRA:                  -0.030
REMARK UNBOUND:                -0.032
REMARK SMILES O=C([O-])c1ccc(O)cc1
REMARK SMILES IDX 7 1 6 2 9 3 5 4 10 5 4 6 8 7 2 9 1 10 3 11
REMARK H PARENT 8 8
REMARK Flexibility Score: inf
ROOT
ATOM      1  C   UNL     1      21.539 -13.766   5.745  1.00  0.00     0.115 A 
ATOM      2  C   UNL     1      22.574 -13.302   6.567  1.00  0.00     0.047 A 
ATOM      3  C   UNL     1      21.241 -15.131   5.710  1.00  0.00     0.047 A 
ATOM      4  C   UNL     1      23.306 -14.200   7.351  1.00  0.00     0.014 A 
ATOM      5  C   UNL     1      21.971 -16.032   6.493  1.00  0.00     0.014 A 
ATOM      6  C   UNL     1      23.012 -15.576   7.321  1.00  0.00    -0.003 A 
ENDROOT
BRANCH   1   7
ATOM      7  O   UNL     1      20.804 -12.880   4.960  1.00  0.00    -0.508 OA
ATOM      8  H   UNL     1      19.993 -12.396   5.326  1.00  0.00     0.293 HD
ENDBRANCH   1   7
BRANCH   6   9
ATOM      9  C   UNL     1      23.783 -16.530   8.147  1.00  0.00     0.071 C 
ATOM     10  O   UNL     1      24.314 -17.546   7.625  1.00  0.00    -0.545 OA
ATOM     11  O   UNL     1      23.932 -16.318   9.513  1.00  0.00    -0.545 OA
ENDBRANCH   6   9
TORSDOF 2
ENDMDL
MODEL 5
REMARK VINA RESULT:    -3.221      2.479      4.475
REMARK INTER + INTRA:          -3.535
REMARK INTER:                  -3.500
REMARK INTRA:                  -0.035
REMARK UNBOUND:                -0.032
REMARK SMILES O=C([O-])c1ccc(O)cc1
REMARK SMILES IDX 7 1 6 2 9 3 5 4 10 5 4 6 8 7 2 9 1 10 3 11
REMARK H PARENT 8 8
REMARK Flexibility Score: inf
ROOT
ATOM      1  C   UNL     1      34.878 -30.860   9.715  1.00  0.00     0.115 A 
ATOM      2  C   UNL     1      35.732 -30.016  10.435  1.00  0.00     0.047 A 
ATOM      3  C   UNL     1      35.369 -32.056   9.185  1.00  0.00     0.047 A 
ATOM      4  C   UNL     1      37.073 -30.369  10.625  1.00  0.00     0.014 A 
ATOM      5  C   UNL     1      36.708 -32.413   9.374  1.00  0.00     0.014 A 
ATOM      6  C   UNL     1      37.574 -31.572  10.096  1.00  0.00    -0.003 A 
ENDROOT
BRANCH   1   7
ATOM      7  O   UNL     1      33.541 -30.518   9.519  1.00  0.00    -0.508 OA
ATOM      8  H   UNL     1      33.218 -29.563   9.623  1.00  0.00     0.293 HD
ENDBRANCH   1   7
BRANCH   6   9
ATOM      9  C   UNL     1      38.990 -31.951  10.294  1.00  0.00     0.071 C 
ATOM     10  O   UNL     1      39.379 -33.125  10.055  1.00  0.00    -0.545 OA
ATOM     11  O   UNL     1      39.913 -31.014  10.746  1.00  0.00    -0.545 OA
ENDBRANCH   6   9
TORSDOF 2
ENDMDL
MODEL 6
REMARK VINA RESULT:    -3.063     19.407     21.135
REMARK INTER + INTRA:          -3.364
REMARK INTER:                  -3.337
REMARK INTRA:                  -0.027
REMARK UNBOUND:                -0.032
REMARK SMILES O=C([O-])c1ccc(O)cc1
REMARK SMILES IDX 7 1 6 2 9 3 5 4 10 5 4 6 8 7 2 9 1 10 3 11
REMARK H PARENT 8 8
REMARK Flexibility Score: inf
ROOT
ATOM      1  C   UNL     1      23.509 -15.565   7.881  1.00  0.00     0.115 A 
ATOM      2  C   UNL     1      22.587 -16.245   7.076  1.00  0.00     0.047 A 
ATOM      3  C   UNL     1      23.610 -14.174   7.798  1.00  0.00     0.047 A 
ATOM      4  C   UNL     1      21.768 -15.534   6.192  1.00  0.00     0.014 A 
ATOM      5  C   UNL     1      22.792 -13.460   6.916  1.00  0.00     0.014 A 
ATOM      6  C   UNL     1      21.862 -14.133   6.103  1.00  0.00    -0.003 A 
ENDROOT
BRANCH   1   7
ATOM      7  O   UNL     1      24.331 -16.263   8.764  1.00  0.00    -0.508 OA
ATOM      8  H   UNL     1      23.960 -16.977   9.380  1.00  0.00     0.293 HD
ENDBRANCH   1   7
BRANCH   6   9
ATOM      9  C   UNL     1      20.999 -13.376   5.171  1.00  0.00     0.071 C 
ATOM     10  O   UNL     1      19.913 -12.875   5.566  1.00  0.00    -0.545 OA
ATOM     11  O   UNL     1      21.375 -13.207   3.843  1.00  0.00    -0.545 OA
ENDBRANCH   6   9
TORSDOF 2
ENDMDL
MODEL 7
REMARK VINA RESULT:    -3.055     19.393     21.161
REMARK INTER + INTRA:          -3.356
REMARK INTER:                  -3.329
REMARK INTRA:                  -0.027
REMARK UNBOUND:                -0.032
REMARK SMILES O=C([O-])c1ccc(O)cc1
REMARK SMILES IDX 7 1 6 2 9 3 5 4 10 5 4 6 8 7 2 9 1 10 3 11
REMARK H PARENT 8 8
REMARK Flexibility Score: inf
ROOT
ATOM      1  C   UNL     1      23.539 -15.553   7.882  1.00  0.00     0.115 A 
ATOM      2  C   UNL     1      23.624 -14.160   7.775  1.00  0.00     0.047 A 
ATOM      3  C   UNL     1      22.605 -16.252   7.113  1.00  0.00     0.047 A 
ATOM      4  C   UNL     1      22.779 -13.469   6.900  1.00  0.00     0.014 A 
ATOM      5  C   UNL     1      21.758 -15.565   6.236  1.00  0.00     0.014 A 
ATOM      6  C   UNL     1      21.836 -14.165   6.122  1.00  0.00    -0.003 A 
ENDROOT
BRANCH   1   7
ATOM      7  O   UNL     1      24.376 -16.252   8.751  1.00  0.00    -0.508 OA
ATOM      8  H   UNL     1      24.753 -17.159   8.507  1.00  0.00     0.293 HD
ENDBRANCH   1   7
BRANCH   6   9
ATOM      9  C   UNL     1      20.940 -13.440   5.195  1.00  0.00     0.071 C 
ATOM     10  O   UNL     1      19.880 -12.904   5.616  1.00  0.00    -0.545 OA
ATOM     11  O   UNL     1      21.255 -13.340   3.844  1.00  0.00    -0.545 OA
ENDBRANCH   6   9
TORSDOF 2
ENDMDL
