MODEL 1
REMARK VINA RESULT:    -5.500      0.000      0.000
REMARK INTER + INTRA:         -10.755
REMARK INTER:                 -10.002
REMARK INTRA:                  -0.753
REMARK UNBOUND:                -0.753
REMARK SMILES CCCCCCCCCCCCCCCC(=O)[O-]
REMARK SMILES IDX 9 1 10 2 11 3 12 4 13 5 14 6 15 7 16 8 17 9 18 10 8 11 7 12
REMARK SMILES IDX 6 13 5 14 4 15 3 16 2 17 1 18
REMARK H PARENT
REMARK Flexibility Score: inf
ROOT
ATOM      1  C   UNL     1      13.437   7.250 -20.275  1.00  0.00     0.000 C 
ENDROOT
BRANCH   1   2
ATOM      2  C   UNL     1      14.805   6.736 -20.749  1.00  0.00     0.000 C 
BRANCH   2   3
ATOM      3  C   UNL     1      15.376   7.557 -21.915  1.00  0.00     0.000 C 
BRANCH   3   4
ATOM      4  C   UNL     1      16.507   8.478 -21.434  1.00  0.00     0.000 C 
BRANCH   4   5
ATOM      5  C   UNL     1      16.698   8.447 -19.906  1.00  0.00     0.000 C 
BRANCH   5   6
ATOM      6  C   UNL     1      17.779   9.404 -19.363  1.00  0.00     0.006 C 
BRANCH   6   7
ATOM      7  C   UNL     1      18.553  10.172 -20.444  1.00  0.00     0.053 C 
BRANCH   7   8
ATOM      8  C   UNL     1      18.163  11.618 -20.494  1.00  0.00     0.041 C 
ATOM      9  O   UNL     1      17.666  12.175 -19.480  1.00  0.00    -0.550 OA
ATOM     10  O   UNL     1      18.382  12.359 -21.648  1.00  0.00    -0.550 OA
ENDBRANCH   7   8
ENDBRANCH   6   7
ENDBRANCH   5   6
ENDBRANCH   4   5
ENDBRANCH   3   4
ENDBRANCH   2   3
ENDBRANCH   1   2
BRANCH   1  11
ATOM     11  C   UNL     1      13.303   7.256 -18.742  1.00  0.00     0.000 C 
BRANCH  11  12
ATOM     12  C   UNL     1      12.366   8.376 -18.242  1.00  0.00    -0.000 C 
BRANCH  12  13
ATOM     13  C   UNL     1      11.669   9.154 -19.374  1.00  0.00    -0.000 C 
BRANCH  13  14
ATOM     14  C   UNL     1      10.808  10.340 -18.906  1.00  0.00    -0.000 C 
BRANCH  14  15
ATOM     15  C   UNL     1      10.408  11.276 -20.056  1.00  0.00    -0.000 C 
BRANCH  15  16
ATOM     16  C   UNL     1       9.582  12.461 -19.536  1.00  0.00    -0.000 C 
BRANCH  16  17
ATOM     17  C   UNL     1       8.498  12.906 -20.528  1.00  0.00    -0.003 C 
ATOM     18  C   UNL     1       8.471  14.419 -20.736  1.00  0.00     0.004 C 
ENDBRANCH  16  17
ENDBRANCH  15  16
ENDBRANCH  14  15
ENDBRANCH  13  14
ENDBRANCH  12  13
ENDBRANCH  11  12
ENDBRANCH   1  11
TORSDOF 14
ENDMDL
MODEL 2
REMARK VINA RESULT:    -5.466      1.010      1.696
REMARK INTER + INTRA:         -10.692
REMARK INTER:                 -10.116
REMARK INTRA:                  -0.576
REMARK UNBOUND:                -0.753
REMARK SMILES CCCCCCCCCCCCCCCC(=O)[O-]
REMARK SMILES IDX 9 1 10 2 11 3 12 4 13 5 14 6 15 7 16 8 17 9 18 10 8 11 7 12
REMARK SMILES IDX 6 13 5 14 4 15 3 16 2 17 1 18
REMARK H PARENT
REMARK Flexibility Score: inf
ROOT
ATOM      1  C   UNL     1      12.841   7.867 -20.134  1.00  0.00     0.000 C 
ENDROOT
BRANCH   1   2
ATOM      2  C   UNL     1      13.808   6.796 -19.604  1.00  0.00     0.000 C 
BRANCH   2   3
ATOM      3  C   UNL     1      14.813   6.327 -20.666  1.00  0.00     0.000 C 
BRANCH   3   4
ATOM      4  C   UNL     1      15.148   7.464 -21.644  1.00  0.00     0.000 C 
BRANCH   4   5
ATOM      5  C   UNL     1      16.373   8.288 -21.209  1.00  0.00     0.000 C 
BRANCH   5   6
ATOM      6  C   UNL     1      16.448   9.710 -21.803  1.00  0.00     0.006 C 
BRANCH   6   7
ATOM      7  C   UNL     1      17.736  10.476 -21.464  1.00  0.00     0.053 C 
BRANCH   7   8
ATOM      8  C   UNL     1      17.814  10.827 -20.009  1.00  0.00     0.041 C 
ATOM      9  O   UNL     1      18.162   9.959 -19.166  1.00  0.00    -0.550 OA
ATOM     10  O   UNL     1      17.536  12.121 -19.589  1.00  0.00    -0.550 OA
ENDBRANCH   7   8
ENDBRANCH   6   7
ENDBRANCH   5   6
ENDBRANCH   4   5
ENDBRANCH   3   4
ENDBRANCH   2   3
ENDBRANCH   1   2
BRANCH   1  11
ATOM     11  C   UNL     1      11.929   8.440 -19.035  1.00  0.00     0.000 C 
BRANCH  11  12
ATOM     12  C   UNL     1      11.185   9.710 -19.497  1.00  0.00    -0.000 C 
BRANCH  12  13
ATOM     13  C   UNL     1      10.785  10.650 -18.343  1.00  0.00    -0.000 C 
BRANCH  13  14
ATOM     14  C   UNL     1      10.467  12.094 -18.769  1.00  0.00    -0.000 C 
BRANCH  14  15
ATOM     15  C   UNL     1      10.083  12.205 -20.252  1.00  0.00    -0.000 C 
BRANCH  15  16
ATOM     16  C   UNL     1       8.559  12.312 -20.416  1.00  0.00    -0.000 C 
BRANCH  16  17
ATOM     17  C   UNL     1       8.120  13.671 -20.980  1.00  0.00    -0.003 C 
ATOM     18  C   UNL     1       8.701  14.851 -20.202  1.00  0.00     0.004 C 
ENDBRANCH  16  17
ENDBRANCH  15  16
ENDBRANCH  14  15
ENDBRANCH  13  14
ENDBRANCH  12  13
ENDBRANCH  11  12
ENDBRANCH   1  11
TORSDOF 14
ENDMDL
MODEL 3
REMARK VINA RESULT:    -5.465      1.656      2.518
REMARK INTER + INTRA:         -10.691
REMARK INTER:                  -9.822
REMARK INTRA:                  -0.869
REMARK UNBOUND:                -0.753
REMARK SMILES CCCCCCCCCCCCCCCC(=O)[O-]
REMARK SMILES IDX 9 1 10 2 11 3 12 4 13 5 14 6 15 7 16 8 17 9 18 10 8 11 7 12
REMARK SMILES IDX 6 13 5 14 4 15 3 16 2 17 1 18
REMARK H PARENT
REMARK Flexibility Score: inf
ROOT
ATOM      1  C   UNL     1      12.957   7.958 -18.572  1.00  0.00     0.000 C 
ENDROOT
BRANCH   1   2
ATOM      2  C   UNL     1      13.674   6.770 -19.233  1.00  0.00     0.000 C 
BRANCH   2   3
ATOM      3  C   UNL     1      13.694   6.865 -20.765  1.00  0.00     0.000 C 
BRANCH   3   4
ATOM      4  C   UNL     1      15.135   6.927 -21.293  1.00  0.00     0.000 C 
BRANCH   4   5
ATOM      5  C   UNL     1      15.512   8.312 -21.849  1.00  0.00     0.000 C 
BRANCH   5   6
ATOM      6  C   UNL     1      16.725   8.980 -21.171  1.00  0.00     0.006 C 
BRANCH   6   7
ATOM      7  C   UNL     1      17.071   8.419 -19.784  1.00  0.00     0.053 C 
BRANCH   7   8
ATOM      8  C   UNL     1      17.698   9.453 -18.899  1.00  0.00     0.041 C 
ATOM      9  O   UNL     1      18.202   9.119 -17.795  1.00  0.00    -0.550 OA
ATOM     10  O   UNL     1      17.756  10.778 -19.310  1.00  0.00    -0.550 OA
ENDBRANCH   7   8
ENDBRANCH   6   7
ENDBRANCH   5   6
ENDBRANCH   4   5
ENDBRANCH   3   4
ENDBRANCH   2   3
ENDBRANCH   1   2
BRANCH   1  11
ATOM     11  C   UNL     1      11.908   8.604 -19.493  1.00  0.00     0.000 C 
BRANCH  11  12
ATOM     12  C   UNL     1      11.118   9.724 -18.783  1.00  0.00    -0.000 C 
BRANCH  12  13
ATOM     13  C   UNL     1      10.629  10.836 -19.730  1.00  0.00    -0.000 C 
BRANCH  13  14
ATOM     14  C   UNL     1      10.465  12.217 -19.073  1.00  0.00    -0.000 C 
BRANCH  14  15
ATOM     15  C   UNL     1       9.296  13.021 -19.661  1.00  0.00    -0.000 C 
BRANCH  15  16
ATOM     16  C   UNL     1       9.227  14.423 -19.037  1.00  0.00    -0.000 C 
BRANCH  16  17
ATOM     17  C   UNL     1       9.593  14.424 -17.546  1.00  0.00    -0.003 C 
ATOM     18  C   UNL     1       9.283  15.754 -16.862  1.00  0.00     0.004 C 
ENDBRANCH  16  17
ENDBRANCH  15  16
ENDBRANCH  14  15
ENDBRANCH  13  14
ENDBRANCH  12  13
ENDBRANCH  11  12
ENDBRANCH   1  11
TORSDOF 14
ENDMDL
MODEL 4
REMARK VINA RESULT:    -5.462      3.200      5.189
REMARK INTER + INTRA:         -10.685
REMARK INTER:                  -9.188
REMARK INTRA:                  -1.497
REMARK UNBOUND:                -0.753
REMARK SMILES CCCCCCCCCCCCCCCC(=O)[O-]
REMARK SMILES IDX 9 1 10 2 11 3 12 4 13 5 14 6 15 7 16 8 17 9 18 10 8 11 7 12
REMARK SMILES IDX 6 13 5 14 4 15 3 16 2 17 1 18
REMARK H PARENT
REMARK Flexibility Score: inf
ROOT
ATOM      1  C   UNL     1      18.350   9.001 -19.042  1.00  0.00     0.000 C 
ENDROOT
BRANCH   1   2
ATOM      2  C   UNL     1      19.411   9.035 -20.154  1.00  0.00     0.000 C 
BRANCH   2   3
ATOM      3  C   UNL     1      19.969  10.445 -20.399  1.00  0.00     0.000 C 
BRANCH   3   4
ATOM      4  C   UNL     1      19.770  10.867 -21.863  1.00  0.00     0.000 C 
BRANCH   4   5
ATOM      5  C   UNL     1      18.862  12.101 -22.013  1.00  0.00     0.000 C 
BRANCH   5   6
ATOM      6  C   UNL     1      17.892  12.345 -20.838  1.00  0.00     0.006 C 
BRANCH   6   7
ATOM      7  C   UNL     1      17.438  13.803 -20.678  1.00  0.00     0.053 C 
BRANCH   7   8
ATOM      8  C   UNL     1      17.947  14.413 -19.407  1.00  0.00     0.041 C 
ATOM      9  O   UNL     1      19.181  14.606 -19.248  1.00  0.00    -0.550 OA
ATOM     10  O   UNL     1      17.057  14.801 -18.415  1.00  0.00    -0.550 OA
ENDBRANCH   7   8
ENDBRANCH   6   7
ENDBRANCH   5   6
ENDBRANCH   4   5
ENDBRANCH   3   4
ENDBRANCH   2   3
ENDBRANCH   1   2
BRANCH   1  11
ATOM     11  C   UNL     1      16.938   8.712 -19.578  1.00  0.00     0.000 C 
BRANCH  11  12
ATOM     12  C   UNL     1      16.860   8.831 -21.115  1.00  0.00    -0.000 C 
BRANCH  12  13
ATOM     13  C   UNL     1      15.558   8.268 -21.716  1.00  0.00    -0.000 C 
BRANCH  13  14
ATOM     14  C   UNL     1      15.321   6.771 -21.453  1.00  0.00    -0.000 C 
BRANCH  14  15
ATOM     15  C   UNL     1      14.150   6.515 -20.492  1.00  0.00    -0.000 C 
BRANCH  15  16
ATOM     16  C   UNL     1      13.099   7.628 -20.601  1.00  0.00    -0.000 C 
BRANCH  16  17
ATOM     17  C   UNL     1      12.375   7.889 -19.272  1.00  0.00    -0.003 C 
ATOM     18  C   UNL     1      13.253   7.608 -18.054  1.00  0.00     0.004 C 
ENDBRANCH  16  17
ENDBRANCH  15  16
ENDBRANCH  14  15
ENDBRANCH  13  14
ENDBRANCH  12  13
ENDBRANCH  11  12
ENDBRANCH   1  11
TORSDOF 14
ENDMDL
MODEL 5
REMARK VINA RESULT:    -5.295      3.269      7.178
REMARK INTER + INTRA:         -10.381
REMARK INTER:                  -9.540
REMARK INTRA:                  -0.841
REMARK UNBOUND:                -0.753
REMARK SMILES CCCCCCCCCCCCCCCC(=O)[O-]
REMARK SMILES IDX 9 1 10 2 11 3 12 4 13 5 14 6 15 7 16 8 17 9 18 10 8 11 7 12
REMARK SMILES IDX 6 13 5 14 4 15 3 16 2 17 1 18
REMARK H PARENT
REMARK Flexibility Score: inf
ROOT
ATOM      1  C   UNL     1      13.421   7.271 -20.309  1.00  0.00     0.000 C 
ENDROOT
BRANCH   1   2
ATOM      2  C   UNL     1      13.311   7.235 -18.776  1.00  0.00     0.000 C 
BRANCH   2   3
ATOM      3  C   UNL     1      12.396   8.337 -18.221  1.00  0.00     0.000 C 
BRANCH   3   4
ATOM      4  C   UNL     1      11.644   9.048 -19.356  1.00  0.00     0.000 C 
BRANCH   4   5
ATOM      5  C   UNL     1      10.791  10.231 -18.862  1.00  0.00     0.000 C 
BRANCH   5   6
ATOM      6  C   UNL     1      10.615  11.379 -19.878  1.00  0.00     0.006 C 
BRANCH   6   7
ATOM      7  C   UNL     1       9.623  12.468 -19.443  1.00  0.00     0.053 C 
BRANCH   7   8
ATOM      8  C   UNL     1       8.745  12.912 -20.573  1.00  0.00     0.041 C 
ATOM      9  O   UNL     1       7.936  12.104 -21.101  1.00  0.00    -0.550 OA
ATOM     10  O   UNL     1       8.796  14.225 -21.020  1.00  0.00    -0.550 OA
ENDBRANCH   7   8
ENDBRANCH   6   7
ENDBRANCH   5   6
ENDBRANCH   4   5
ENDBRANCH   3   4
ENDBRANCH   2   3
ENDBRANCH   1   2
BRANCH   1  11
ATOM     11  C   UNL     1      14.555   6.379 -20.843  1.00  0.00     0.000 C 
BRANCH  11  12
ATOM     12  C   UNL     1      15.704   7.204 -21.463  1.00  0.00    -0.000 C 
BRANCH  12  13
ATOM     13  C   UNL     1      15.252   8.556 -22.048  1.00  0.00    -0.000 C 
BRANCH  13  14
ATOM     14  C   UNL     1      16.334   9.649 -22.055  1.00  0.00    -0.000 C 
BRANCH  14  15
ATOM     15  C   UNL     1      17.378   9.459 -20.944  1.00  0.00    -0.000 C 
BRANCH  15  16
ATOM     16  C   UNL     1      18.277  10.698 -20.821  1.00  0.00    -0.000 C 
BRANCH  16  17
ATOM     17  C   UNL     1      17.480  11.981 -20.540  1.00  0.00    -0.003 C 
ATOM     18  C   UNL     1      18.377  13.182 -20.246  1.00  0.00     0.004 C 
ENDBRANCH  16  17
ENDBRANCH  15  16
ENDBRANCH  14  15
ENDBRANCH  13  14
ENDBRANCH  12  13
ENDBRANCH  11  12
ENDBRANCH   1  11
TORSDOF 14
ENDMDL
MODEL 6
REMARK VINA RESULT:    -5.271      3.061      6.792
REMARK INTER + INTRA:         -10.338
REMARK INTER:                  -9.054
REMARK INTRA:                  -1.284
REMARK UNBOUND:                -0.753
REMARK SMILES CCCCCCCCCCCCCCCC(=O)[O-]
REMARK SMILES IDX 9 1 10 2 11 3 12 4 13 5 14 6 15 7 16 8 17 9 18 10 8 11 7 12
REMARK SMILES IDX 6 13 5 14 4 15 3 16 2 17 1 18
REMARK H PARENT
REMARK Flexibility Score: inf
ROOT
ATOM      1  C   UNL     1      16.662   8.526 -21.181  1.00  0.00     0.000 C 
ENDROOT
BRANCH   1   2
ATOM      2  C   UNL     1      15.635   7.522 -21.728  1.00  0.00     0.000 C 
BRANCH   2   3
ATOM      3  C   UNL     1      14.906   6.753 -20.616  1.00  0.00     0.000 C 
BRANCH   3   4
ATOM      4  C   UNL     1      13.487   7.303 -20.409  1.00  0.00     0.000 C 
BRANCH   4   5
ATOM      5  C   UNL     1      13.072   7.350 -18.927  1.00  0.00     0.000 C 
BRANCH   5   6
ATOM      6  C   UNL     1      11.961   8.366 -18.592  1.00  0.00     0.006 C 
BRANCH   6   7
ATOM      7  C   UNL     1      11.579   9.300 -19.750  1.00  0.00     0.053 C 
BRANCH   7   8
ATOM      8  C   UNL     1      10.762  10.467 -19.285  1.00  0.00     0.041 C 
ATOM      9  O   UNL     1      10.827  10.847 -18.086  1.00  0.00    -0.550 OA
ATOM     10  O   UNL     1       9.957  11.155 -20.182  1.00  0.00    -0.550 OA
ENDBRANCH   7   8
ENDBRANCH   6   7
ENDBRANCH   5   6
ENDBRANCH   4   5
ENDBRANCH   3   4
ENDBRANCH   2   3
ENDBRANCH   1   2
BRANCH   1  11
ATOM     11  C   UNL     1      16.734   8.525 -19.644  1.00  0.00     0.000 C 
BRANCH  11  12
ATOM     12  C   UNL     1      18.109   8.994 -19.123  1.00  0.00    -0.000 C 
BRANCH  12  13
ATOM     13  C   UNL     1      19.181   9.116 -20.223  1.00  0.00    -0.000 C 
BRANCH  13  14
ATOM     14  C   UNL     1      19.667  10.550 -20.492  1.00  0.00    -0.000 C 
BRANCH  14  15
ATOM     15  C   UNL     1      19.207  11.088 -21.855  1.00  0.00    -0.000 C 
BRANCH  15  16
ATOM     16  C   UNL     1      18.390  12.378 -21.687  1.00  0.00    -0.000 C 
BRANCH  16  17
ATOM     17  C   UNL     1      17.604  12.411 -20.368  1.00  0.00    -0.003 C 
ATOM     18  C   UNL     1      17.617  13.788 -19.707  1.00  0.00     0.004 C 
ENDBRANCH  16  17
ENDBRANCH  15  16
ENDBRANCH  14  15
ENDBRANCH  13  14
ENDBRANCH  12  13
ENDBRANCH  11  12
ENDBRANCH   1  11
TORSDOF 14
ENDMDL
MODEL 7
REMARK VINA RESULT:    -5.261      1.027      2.325
REMARK INTER + INTRA:         -10.320
REMARK INTER:                  -9.369
REMARK INTRA:                  -0.950
REMARK UNBOUND:                -0.753
REMARK SMILES CCCCCCCCCCCCCCCC(=O)[O-]
REMARK SMILES IDX 9 1 10 2 11 3 12 4 13 5 14 6 15 7 16 8 17 9 18 10 8 11 7 12
REMARK SMILES IDX 6 13 5 14 4 15 3 16 2 17 1 18
REMARK H PARENT
REMARK Flexibility Score: inf
ROOT
ATOM      1  C   UNL     1      15.486   7.536 -21.610  1.00  0.00     0.000 C 
ENDROOT
BRANCH   1   2
ATOM      2  C   UNL     1      16.752   8.252 -21.113  1.00  0.00     0.000 C 
BRANCH   2   3
ATOM      3  C   UNL     1      16.692   8.595 -19.617  1.00  0.00     0.000 C 
BRANCH   3   4
ATOM      4  C   UNL     1      17.826   9.557 -19.230  1.00  0.00     0.000 C 
BRANCH   4   5
ATOM      5  C   UNL     1      18.961   9.594 -20.268  1.00  0.00     0.000 C 
BRANCH   5   6
ATOM      6  C   UNL     1      19.206  10.970 -20.920  1.00  0.00     0.006 C 
BRANCH   6   7
ATOM      7  C   UNL     1      17.948  11.839 -21.066  1.00  0.00     0.053 C 
BRANCH   7   8
ATOM      8  C   UNL     1      17.935  12.977 -20.092  1.00  0.00     0.041 C 
ATOM      9  O   UNL     1      19.017  13.440 -19.646  1.00  0.00    -0.550 OA
ATOM     10  O   UNL     1      16.731  13.549 -19.704  1.00  0.00    -0.550 OA
ENDBRANCH   7   8
ENDBRANCH   6   7
ENDBRANCH   5   6
ENDBRANCH   4   5
ENDBRANCH   3   4
ENDBRANCH   2   3
ENDBRANCH   1   2
BRANCH   1  11
ATOM     11  C   UNL     1      14.781   6.738 -20.500  1.00  0.00     0.000 C 
BRANCH  11  12
ATOM     12  C   UNL     1      13.254   6.970 -20.494  1.00  0.00    -0.000 C 
BRANCH  12  13
ATOM     13  C   UNL     1      12.762   7.834 -19.317  1.00  0.00    -0.000 C 
BRANCH  13  14
ATOM     14  C   UNL     1      11.860   9.014 -19.717  1.00  0.00    -0.000 C 
BRANCH  14  15
ATOM     15  C   UNL     1      11.071   9.588 -18.531  1.00  0.00    -0.000 C 
BRANCH  15  16
ATOM     16  C   UNL     1      10.776  11.081 -18.741  1.00  0.00    -0.000 C 
BRANCH  16  17
ATOM     17  C   UNL     1      10.117  11.367 -20.098  1.00  0.00    -0.003 C 
ATOM     18  C   UNL     1       9.355  12.691 -20.118  1.00  0.00     0.004 C 
ENDBRANCH  16  17
ENDBRANCH  15  16
ENDBRANCH  14  15
ENDBRANCH  13  14
ENDBRANCH  12  13
ENDBRANCH  11  12
ENDBRANCH   1  11
TORSDOF 14
ENDMDL
MODEL 8
REMARK VINA RESULT:    -5.191      3.004      7.322
REMARK INTER + INTRA:         -10.192
REMARK INTER:                  -9.193
REMARK INTRA:                  -0.999
REMARK UNBOUND:                -0.753
REMARK SMILES CCCCCCCCCCCCCCCC(=O)[O-]
REMARK SMILES IDX 9 1 10 2 11 3 12 4 13 5 14 6 15 7 16 8 17 9 18 10 8 11 7 12
REMARK SMILES IDX 6 13 5 14 4 15 3 16 2 17 1 18
REMARK H PARENT
REMARK Flexibility Score: inf
ROOT
ATOM      1  C   UNL     1      14.909   6.620 -20.747  1.00  0.00     0.000 C 
ENDROOT
BRANCH   1   2
ATOM      2  C   UNL     1      13.476   7.032 -20.378  1.00  0.00     0.000 C 
BRANCH   2   3
ATOM      3  C   UNL     1      13.355   7.527 -18.929  1.00  0.00     0.000 C 
BRANCH   3   4
ATOM      4  C   UNL     1      11.952   8.091 -18.658  1.00  0.00     0.000 C 
BRANCH   4   5
ATOM      5  C   UNL     1      11.610   9.300 -19.548  1.00  0.00     0.000 C 
BRANCH   5   6
ATOM      6  C   UNL     1      10.777  10.402 -18.861  1.00  0.00     0.006 C 
BRANCH   6   7
ATOM      7  C   UNL     1      10.327  11.537 -19.794  1.00  0.00     0.053 C 
BRANCH   7   8
ATOM      8  C   UNL     1       9.823  12.724 -19.032  1.00  0.00     0.041 C 
ATOM      9  O   UNL     1       9.155  13.616 -19.618  1.00  0.00    -0.550 OA
ATOM     10  O   UNL     1      10.062  12.829 -17.668  1.00  0.00    -0.550 OA
ENDBRANCH   7   8
ENDBRANCH   6   7
ENDBRANCH   5   6
ENDBRANCH   4   5
ENDBRANCH   3   4
ENDBRANCH   2   3
ENDBRANCH   1   2
BRANCH   1  11
ATOM     11  C   UNL     1      15.494   7.465 -21.892  1.00  0.00     0.000 C 
BRANCH  11  12
ATOM     12  C   UNL     1      16.352   8.638 -21.372  1.00  0.00    -0.000 C 
BRANCH  12  13
ATOM     13  C   UNL     1      16.899   8.424 -19.948  1.00  0.00    -0.000 C 
BRANCH  13  14
ATOM     14  C   UNL     1      17.908   9.486 -19.479  1.00  0.00    -0.000 C 
BRANCH  14  15
ATOM     15  C   UNL     1      19.343   9.187 -19.939  1.00  0.00    -0.000 C 
BRANCH  15  16
ATOM     16  C   UNL     1      19.820  10.234 -20.957  1.00  0.00    -0.000 C 
BRANCH  16  17
ATOM     17  C   UNL     1      18.872  11.439 -21.054  1.00  0.00    -0.003 C 
ATOM     18  C   UNL     1      18.624  11.881 -22.495  1.00  0.00     0.004 C 
ENDBRANCH  16  17
ENDBRANCH  15  16
ENDBRANCH  14  15
ENDBRANCH  13  14
ENDBRANCH  12  13
ENDBRANCH  11  12
ENDBRANCH   1  11
TORSDOF 14
ENDMDL
MODEL 9
REMARK VINA RESULT:    -5.127      1.840      3.939
REMARK INTER + INTRA:         -10.077
REMARK INTER:                  -9.129
REMARK INTRA:                  -0.947
REMARK UNBOUND:                -0.753
REMARK SMILES CCCCCCCCCCCCCCCC(=O)[O-]
REMARK SMILES IDX 9 1 10 2 11 3 12 4 13 5 14 6 15 7 16 8 17 9 18 10 8 11 7 12
REMARK SMILES IDX 6 13 5 14 4 15 3 16 2 17 1 18
REMARK H PARENT
REMARK Flexibility Score: inf
ROOT
ATOM      1  C   UNL     1      10.749  10.452 -18.856  1.00  0.00     0.000 C 
ENDROOT
BRANCH   1   2
ATOM      2  C   UNL     1      11.505   9.213 -19.361  1.00  0.00     0.000 C 
BRANCH   2   3
ATOM      3  C   UNL     1      12.305   8.513 -18.252  1.00  0.00     0.000 C 
BRANCH   3   4
ATOM      4  C   UNL     1      13.052   7.290 -18.805  1.00  0.00     0.000 C 
BRANCH   4   5
ATOM      5  C   UNL     1      13.277   7.361 -20.326  1.00  0.00     0.000 C 
BRANCH   5   6
ATOM      6  C   UNL     1      14.753   7.308 -20.771  1.00  0.00     0.006 C 
BRANCH   6   7
ATOM      7  C   UNL     1      15.088   8.197 -21.978  1.00  0.00     0.053 C 
BRANCH   7   8
ATOM      8  C   UNL     1      16.288   9.058 -21.726  1.00  0.00     0.041 C 
ATOM      9  O   UNL     1      16.589   9.976 -22.533  1.00  0.00    -0.550 OA
ATOM     10  O   UNL     1      17.053   8.870 -20.583  1.00  0.00    -0.550 OA
ENDBRANCH   7   8
ENDBRANCH   6   7
ENDBRANCH   5   6
ENDBRANCH   4   5
ENDBRANCH   3   4
ENDBRANCH   2   3
ENDBRANCH   1   2
BRANCH   1  11
ATOM     11  C   UNL     1      11.075  10.791 -17.391  1.00  0.00     0.000 C 
BRANCH  11  12
ATOM     12  C   UNL     1      10.438  12.125 -16.944  1.00  0.00    -0.000 C 
BRANCH  12  13
ATOM     13  C   UNL     1      10.041  13.045 -18.114  1.00  0.00    -0.000 C 
BRANCH  13  14
ATOM     14  C   UNL     1       9.628  14.468 -17.702  1.00  0.00    -0.000 C 
BRANCH  14  15
ATOM     15  C   UNL     1       9.011  15.267 -18.860  1.00  0.00    -0.000 C 
BRANCH  15  16
ATOM     16  C   UNL     1       9.283  14.579 -20.206  1.00  0.00    -0.000 C 
BRANCH  16  17
ATOM     17  C   UNL     1       7.993  14.151 -20.922  1.00  0.00    -0.003 C 
ATOM     18  C   UNL     1       7.810  12.635 -20.953  1.00  0.00     0.004 C 
ENDBRANCH  16  17
ENDBRANCH  15  16
ENDBRANCH  14  15
ENDBRANCH  13  14
ENDBRANCH  12  13
ENDBRANCH  11  12
ENDBRANCH   1  11
TORSDOF 14
ENDMDL
