MODEL 1
REMARK VINA RESULT:    -5.305      0.000      0.000
REMARK INTER + INTRA:         -11.354
REMARK INTER:                  -9.646
REMARK INTRA:                  -1.708
REMARK UNBOUND:                -1.708
REMARK SMILES CCCCCCCCCCCCCC[C@H](C)C(=O)[O-]
REMARK SMILES IDX 9 1 10 2 11 3 12 4 13 5 14 6 15 7 16 8 17 9 18 10 19 11 8 12
REMARK SMILES IDX 7 13 6 14 5 15 4 16 3 17 2 18 1 19
REMARK H PARENT
REMARK Flexibility Score: inf
ROOT
ATOM      1  C   UNL     1     140.917 139.341 113.021  1.00  0.00     0.000 C 
ENDROOT
BRANCH   1   2
ATOM      2  C   UNL     1     141.765 140.142 112.016  1.00  0.00     0.000 C 
BRANCH   2   3
ATOM      3  C   UNL     1     142.058 141.598 112.423  1.00  0.00     0.000 C 
BRANCH   3   4
ATOM      4  C   UNL     1     143.423 141.764 113.113  1.00  0.00     0.000 C 
BRANCH   4   5
ATOM      5  C   UNL     1     143.295 141.805 114.647  1.00  0.00     0.001 C 
BRANCH   5   6
ATOM      6  C   UNL     1     141.919 142.318 115.130  1.00  0.00     0.009 C 
BRANCH   6   7
ATOM      7  C   UNL     1     141.489 141.735 116.497  1.00  0.00     0.032 C 
ATOM      8  C   UNL     1     141.733 140.224 116.591  1.00  0.00     0.014 C 
BRANCH   7   9
ATOM      9  C   UNL     1     140.036 142.031 116.750  1.00  0.00     0.044 C 
ATOM     10  O   UNL     1     139.451 142.955 116.123  1.00  0.00    -0.550 OA
ATOM     11  O   UNL     1     139.327 141.279 117.679  1.00  0.00    -0.550 OA
ENDBRANCH   7   9
ENDBRANCH   6   7
ENDBRANCH   5   6
ENDBRANCH   4   5
ENDBRANCH   3   4
ENDBRANCH   2   3
ENDBRANCH   1   2
BRANCH   1  12
ATOM     12  C   UNL     1     139.506 139.922 113.209  1.00  0.00     0.000 C 
BRANCH  12  13
ATOM     13  C   UNL     1     138.820 139.418 114.489  1.00  0.00    -0.000 C 
BRANCH  13  14
ATOM     14  C   UNL     1     138.347 137.957 114.379  1.00  0.00    -0.000 C 
BRANCH  14  15
ATOM     15  C   UNL     1     136.864 137.853 113.985  1.00  0.00    -0.000 C 
BRANCH  15  16
ATOM     16  C   UNL     1     136.113 136.790 114.803  1.00  0.00    -0.000 C 
BRANCH  16  17
ATOM     17  C   UNL     1     137.094 135.845 115.507  1.00  0.00    -0.000 C 
BRANCH  17  18
ATOM     18  C   UNL     1     136.618 134.391 115.417  1.00  0.00    -0.003 C 
ATOM     19  C   UNL     1     135.972 134.103 114.066  1.00  0.00     0.004 C 
ENDBRANCH  17  18
ENDBRANCH  16  17
ENDBRANCH  15  16
ENDBRANCH  14  15
ENDBRANCH  13  14
ENDBRANCH  12  13
ENDBRANCH   1  12
TORSDOF 14
ENDMDL
MODEL 2
REMARK VINA RESULT:    -5.267      3.193      8.083
REMARK INTER + INTRA:         -11.286
REMARK INTER:                  -9.611
REMARK INTRA:                  -1.675
REMARK UNBOUND:                -1.708
REMARK SMILES CCCCCCCCCCCCCC[C@H](C)C(=O)[O-]
REMARK SMILES IDX 9 1 10 2 11 3 12 4 13 5 14 6 15 7 16 8 17 9 18 10 19 11 8 12
REMARK SMILES IDX 7 13 6 14 5 15 4 16 3 17 2 18 1 19
REMARK H PARENT
REMARK Flexibility Score: inf
ROOT
ATOM      1  C   UNL     1     135.949 136.380 112.635  1.00  0.00     0.000 C 
ENDROOT
BRANCH   1   2
ATOM      2  C   UNL     1     134.690 137.225 112.900  1.00  0.00     0.000 C 
BRANCH   2   3
ATOM      3  C   UNL     1     133.354 136.480 112.728  1.00  0.00     0.000 C 
BRANCH   3   4
ATOM      4  C   UNL     1     133.469 134.972 113.014  1.00  0.00     0.000 C 
BRANCH   4   5
ATOM      5  C   UNL     1     133.152 134.635 114.483  1.00  0.00     0.001 C 
BRANCH   5   6
ATOM      6  C   UNL     1     134.364 134.058 115.250  1.00  0.00     0.009 C 
BRANCH   6   7
ATOM      7  C   UNL     1     134.628 134.761 116.603  1.00  0.00     0.032 C 
ATOM      8  C   UNL     1     134.541 136.288 116.494  1.00  0.00     0.014 C 
BRANCH   7   9
ATOM      9  C   UNL     1     135.980 134.367 117.133  1.00  0.00     0.044 C 
ATOM     10  O   UNL     1     136.284 134.580 118.337  1.00  0.00    -0.550 OA
ATOM     11  O   UNL     1     136.904 133.759 116.291  1.00  0.00    -0.550 OA
ENDBRANCH   7   9
ENDBRANCH   6   7
ENDBRANCH   5   6
ENDBRANCH   4   5
ENDBRANCH   3   4
ENDBRANCH   2   3
ENDBRANCH   1   2
BRANCH   1  12
ATOM     12  C   UNL     1     136.971 136.455 113.782  1.00  0.00     0.000 C 
BRANCH  12  13
ATOM     13  C   UNL     1     137.457 137.887 114.055  1.00  0.00    -0.000 C 
BRANCH  13  14
ATOM     14  C   UNL     1     138.265 138.479 112.886  1.00  0.00    -0.000 C 
BRANCH  14  15
ATOM     15  C   UNL     1     139.215 139.598 113.343  1.00  0.00    -0.000 C 
BRANCH  15  16
ATOM     16  C   UNL     1     139.046 139.940 114.832  1.00  0.00    -0.000 C 
BRANCH  16  17
ATOM     17  C   UNL     1     139.841 141.198 115.200  1.00  0.00    -0.000 C 
BRANCH  17  18
ATOM     18  C   UNL     1     141.308 141.065 114.774  1.00  0.00    -0.003 C 
ATOM     19  C   UNL     1     142.090 140.192 115.751  1.00  0.00     0.004 C 
ENDBRANCH  17  18
ENDBRANCH  16  17
ENDBRANCH  15  16
ENDBRANCH  14  15
ENDBRANCH  13  14
ENDBRANCH  12  13
ENDBRANCH   1  12
TORSDOF 14
ENDMDL
MODEL 3
REMARK VINA RESULT:    -5.248      2.977      6.891
REMARK INTER + INTRA:         -11.252
REMARK INTER:                  -9.523
REMARK INTRA:                  -1.728
REMARK UNBOUND:                -1.708
REMARK SMILES CCCCCCCCCCCCCC[C@H](C)C(=O)[O-]
REMARK SMILES IDX 9 1 10 2 11 3 12 4 13 5 14 6 15 7 16 8 17 9 18 10 19 11 8 12
REMARK SMILES IDX 7 13 6 14 5 15 4 16 3 17 2 18 1 19
REMARK H PARENT
REMARK Flexibility Score: inf
ROOT
ATOM      1  C   UNL     1     140.974 140.159 111.863  1.00  0.00     0.000 C 
ENDROOT
BRANCH   1   2
ATOM      2  C   UNL     1     140.284 139.229 112.878  1.00  0.00     0.000 C 
BRANCH   2   3
ATOM      3  C   UNL     1     139.154 139.878 113.697  1.00  0.00     0.000 C 
BRANCH   3   4
ATOM      4  C   UNL     1     138.457 138.888 114.647  1.00  0.00     0.000 C 
BRANCH   4   5
ATOM      5  C   UNL     1     138.010 137.606 113.921  1.00  0.00     0.001 C 
BRANCH   5   6
ATOM      6  C   UNL     1     137.469 136.520 114.880  1.00  0.00     0.009 C 
BRANCH   6   7
ATOM      7  C   UNL     1     136.120 135.915 114.427  1.00  0.00     0.032 C 
ATOM      8  C   UNL     1     134.927 136.518 115.178  1.00  0.00     0.014 C 
BRANCH   7   9
ATOM      9  C   UNL     1     136.135 134.422 114.617  1.00  0.00     0.044 C 
ATOM     10  O   UNL     1     135.474 133.672 113.850  1.00  0.00    -0.550 OA
ATOM     11  O   UNL     1     136.887 133.862 115.642  1.00  0.00    -0.550 OA
ENDBRANCH   7   9
ENDBRANCH   6   7
ENDBRANCH   5   6
ENDBRANCH   4   5
ENDBRANCH   3   4
ENDBRANCH   2   3
ENDBRANCH   1   2
BRANCH   1  12
ATOM     12  C   UNL     1     140.634 141.642 112.085  1.00  0.00     0.000 C 
BRANCH  12  13
ATOM     13  C   UNL     1     141.670 142.367 112.957  1.00  0.00    -0.000 C 
BRANCH  13  14
ATOM     14  C   UNL     1     143.080 141.761 112.841  1.00  0.00    -0.000 C 
BRANCH  14  15
ATOM     15  C   UNL     1     143.639 141.319 114.204  1.00  0.00    -0.000 C 
BRANCH  15  16
ATOM     16  C   UNL     1     142.618 141.493 115.340  1.00  0.00    -0.000 C 
BRANCH  16  17
ATOM     17  C   UNL     1     142.213 140.135 115.926  1.00  0.00    -0.000 C 
BRANCH  17  18
ATOM     18  C   UNL     1     141.470 140.310 117.256  1.00  0.00    -0.003 C 
ATOM     19  C   UNL     1     140.195 141.127 117.074  1.00  0.00     0.004 C 
ENDBRANCH  17  18
ENDBRANCH  16  17
ENDBRANCH  15  16
ENDBRANCH  14  15
ENDBRANCH  13  14
ENDBRANCH  12  13
ENDBRANCH   1  12
TORSDOF 14
ENDMDL
MODEL 4
REMARK VINA RESULT:    -5.211      1.977      4.424
REMARK INTER + INTRA:         -11.184
REMARK INTER:                  -9.587
REMARK INTRA:                  -1.598
REMARK UNBOUND:                -1.708
REMARK SMILES CCCCCCCCCCCCCC[C@H](C)C(=O)[O-]
REMARK SMILES IDX 9 1 10 2 11 3 12 4 13 5 14 6 15 7 16 8 17 9 18 10 19 11 8 12
REMARK SMILES IDX 7 13 6 14 5 15 4 16 3 17 2 18 1 19
REMARK H PARENT
REMARK Flexibility Score: inf
ROOT
ATOM      1  C   UNL     1     135.868 137.529 114.251  1.00  0.00     0.000 C 
ENDROOT
BRANCH   1   2
ATOM      2  C   UNL     1     137.245 137.057 113.749  1.00  0.00     0.000 C 
BRANCH   2   3
ATOM      3  C   UNL     1     138.448 137.834 114.314  1.00  0.00     0.000 C 
BRANCH   3   4
ATOM      4  C   UNL     1     138.865 139.020 113.427  1.00  0.00     0.000 C 
BRANCH   4   5
ATOM      5  C   UNL     1     139.727 140.041 114.192  1.00  0.00     0.001 C 
BRANCH   5   6
ATOM      6  C   UNL     1     141.231 139.952 113.842  1.00  0.00     0.009 C 
BRANCH   6   7
ATOM      7  C   UNL     1     142.161 140.176 115.057  1.00  0.00     0.032 C 
ATOM      8  C   UNL     1     141.385 140.281 116.376  1.00  0.00     0.014 C 
BRANCH   7   9
ATOM      9  C   UNL     1     142.986 141.418 114.853  1.00  0.00     0.044 C 
ATOM     10  O   UNL     1     143.890 141.450 113.976  1.00  0.00    -0.550 OA
ATOM     11  O   UNL     1     142.749 142.542 115.635  1.00  0.00    -0.550 OA
ENDBRANCH   7   9
ENDBRANCH   6   7
ENDBRANCH   5   6
ENDBRANCH   4   5
ENDBRANCH   3   4
ENDBRANCH   2   3
ENDBRANCH   1   2
BRANCH   1  12
ATOM     12  C   UNL     1     134.700 136.782 113.585  1.00  0.00     0.000 C 
BRANCH  12  13
ATOM     13  C   UNL     1     133.739 136.149 114.604  1.00  0.00    -0.000 C 
BRANCH  13  14
ATOM     14  C   UNL     1     133.284 134.735 114.201  1.00  0.00    -0.000 C 
BRANCH  14  15
ATOM     15  C   UNL     1     134.046 133.639 114.963  1.00  0.00    -0.000 C 
BRANCH  15  16
ATOM     16  C   UNL     1     135.403 133.312 114.319  1.00  0.00    -0.000 C 
BRANCH  16  17
ATOM     17  C   UNL     1     136.556 133.619 115.283  1.00  0.00    -0.000 C 
BRANCH  17  18
ATOM     18  C   UNL     1     136.029 134.179 116.609  1.00  0.00    -0.003 C 
ATOM     19  C   UNL     1     136.873 135.356 117.087  1.00  0.00     0.004 C 
ENDBRANCH  17  18
ENDBRANCH  16  17
ENDBRANCH  15  16
ENDBRANCH  14  15
ENDBRANCH  13  14
ENDBRANCH  12  13
ENDBRANCH   1  12
TORSDOF 14
ENDMDL
MODEL 5
REMARK VINA RESULT:    -5.204      1.712      4.171
REMARK INTER + INTRA:         -11.171
REMARK INTER:                  -9.363
REMARK INTRA:                  -1.808
REMARK UNBOUND:                -1.708
REMARK SMILES CCCCCCCCCCCCCC[C@H](C)C(=O)[O-]
REMARK SMILES IDX 9 1 10 2 11 3 12 4 13 5 14 6 15 7 16 8 17 9 18 10 19 11 8 12
REMARK SMILES IDX 7 13 6 14 5 15 4 16 3 17 2 18 1 19
REMARK H PARENT
REMARK Flexibility Score: inf
ROOT
ATOM      1  C   UNL     1     136.268 137.619 113.740  1.00  0.00     0.000 C 
ENDROOT
BRANCH   1   2
ATOM      2  C   UNL     1     137.568 137.269 112.994  1.00  0.00     0.000 C 
BRANCH   2   3
ATOM      3  C   UNL     1     138.487 138.464 112.685  1.00  0.00     0.000 C 
BRANCH   3   4
ATOM      4  C   UNL     1     138.728 139.367 113.908  1.00  0.00     0.000 C 
BRANCH   4   5
ATOM      5  C   UNL     1     140.150 139.207 114.476  1.00  0.00     0.001 C 
BRANCH   5   6
ATOM      6  C   UNL     1     141.137 140.277 113.954  1.00  0.00     0.009 C 
BRANCH   6   7
ATOM      7  C   UNL     1     140.448 141.589 113.512  1.00  0.00     0.032 C 
ATOM      8  C   UNL     1     141.000 142.120 112.184  1.00  0.00     0.014 C 
BRANCH   7   9
ATOM      9  C   UNL     1     140.601 142.637 114.580  1.00  0.00     0.044 C 
ATOM     10  O   UNL     1     139.904 142.591 115.629  1.00  0.00    -0.550 OA
ATOM     11  O   UNL     1     141.521 143.666 114.415  1.00  0.00    -0.550 OA
ENDBRANCH   7   9
ENDBRANCH   6   7
ENDBRANCH   5   6
ENDBRANCH   4   5
ENDBRANCH   3   4
ENDBRANCH   2   3
ENDBRANCH   1   2
BRANCH   1  12
ATOM     12  C   UNL     1     136.032 136.737 114.978  1.00  0.00     0.000 C 
BRANCH  12  13
ATOM     13  C   UNL     1     136.869 135.449 114.960  1.00  0.00    -0.000 C 
BRANCH  13  14
ATOM     14  C   UNL     1     136.286 134.344 115.859  1.00  0.00    -0.000 C 
BRANCH  14  15
ATOM     15  C   UNL     1     134.904 133.871 115.378  1.00  0.00    -0.000 C 
BRANCH  15  16
ATOM     16  C   UNL     1     134.887 133.539 113.877  1.00  0.00    -0.000 C 
BRANCH  16  17
ATOM     17  C   UNL     1     133.721 134.241 113.173  1.00  0.00    -0.000 C 
BRANCH  17  18
ATOM     18  C   UNL     1     134.200 134.980 111.918  1.00  0.00    -0.003 C 
ATOM     19  C   UNL     1     135.573 134.483 111.475  1.00  0.00     0.004 C 
ENDBRANCH  17  18
ENDBRANCH  16  17
ENDBRANCH  15  16
ENDBRANCH  14  15
ENDBRANCH  13  14
ENDBRANCH  12  13
ENDBRANCH   1  12
TORSDOF 14
ENDMDL
MODEL 6
REMARK VINA RESULT:    -5.194      3.057      7.781
REMARK INTER + INTRA:         -11.153
REMARK INTER:                  -9.663
REMARK INTRA:                  -1.490
REMARK UNBOUND:                -1.708
REMARK SMILES CCCCCCCCCCCCCC[C@H](C)C(=O)[O-]
REMARK SMILES IDX 9 1 10 2 11 3 12 4 13 5 14 6 15 7 16 8 17 9 18 10 19 11 8 12
REMARK SMILES IDX 7 13 6 14 5 15 4 16 3 17 2 18 1 19
REMARK H PARENT
REMARK Flexibility Score: inf
ROOT
ATOM      1  C   UNL     1     139.007 139.409 113.824  1.00  0.00     0.000 C 
ENDROOT
BRANCH   1   2
ATOM      2  C   UNL     1     138.793 138.662 112.495  1.00  0.00     0.000 C 
BRANCH   2   3
ATOM      3  C   UNL     1     137.638 137.644 112.496  1.00  0.00     0.000 C 
BRANCH   3   4
ATOM      4  C   UNL     1     137.364 137.051 113.889  1.00  0.00     0.000 C 
BRANCH   4   5
ATOM      5  C   UNL     1     135.872 137.109 114.261  1.00  0.00     0.001 C 
BRANCH   5   6
ATOM      6  C   UNL     1     135.407 135.901 115.106  1.00  0.00     0.009 C 
BRANCH   6   7
ATOM      7  C   UNL     1     135.692 134.535 114.438  1.00  0.00     0.032 C 
ATOM      8  C   UNL     1     134.408 133.813 114.011  1.00  0.00     0.014 C 
BRANCH   7   9
ATOM      9  C   UNL     1     136.480 133.659 115.373  1.00  0.00     0.044 C 
ATOM     10  O   UNL     1     136.846 134.089 116.500  1.00  0.00    -0.550 OA
ATOM     11  O   UNL     1     136.806 132.361 114.997  1.00  0.00    -0.550 OA
ENDBRANCH   7   9
ENDBRANCH   6   7
ENDBRANCH   5   6
ENDBRANCH   4   5
ENDBRANCH   3   4
ENDBRANCH   2   3
ENDBRANCH   1   2
BRANCH   1  12
ATOM     12  C   UNL     1     140.436 139.254 114.373  1.00  0.00     0.000 C 
BRANCH  12  13
ATOM     13  C   UNL     1     140.608 139.872 115.770  1.00  0.00    -0.000 C 
BRANCH  13  14
ATOM     14  C   UNL     1     142.069 140.236 116.087  1.00  0.00    -0.000 C 
BRANCH  14  15
ATOM     15  C   UNL     1     142.917 140.404 114.815  1.00  0.00    -0.000 C 
BRANCH  15  16
ATOM     16  C   UNL     1     143.118 141.880 114.435  1.00  0.00    -0.000 C 
BRANCH  16  17
ATOM     17  C   UNL     1     142.520 142.178 113.056  1.00  0.00    -0.000 C 
BRANCH  17  18
ATOM     18  C   UNL     1     141.045 142.581 113.172  1.00  0.00    -0.003 C 
ATOM     19  C   UNL     1     140.784 143.357 114.458  1.00  0.00     0.004 C 
ENDBRANCH  17  18
ENDBRANCH  16  17
ENDBRANCH  15  16
ENDBRANCH  14  15
ENDBRANCH  13  14
ENDBRANCH  12  13
ENDBRANCH   1  12
TORSDOF 14
ENDMDL
MODEL 7
REMARK VINA RESULT:    -5.192      2.027      4.522
REMARK INTER + INTRA:         -11.149
REMARK INTER:                  -9.501
REMARK INTRA:                  -1.648
REMARK UNBOUND:                -1.708
REMARK SMILES CCCCCCCCCCCCCC[C@H](C)C(=O)[O-]
REMARK SMILES IDX 9 1 10 2 11 3 12 4 13 5 14 6 15 7 16 8 17 9 18 10 19 11 8 12
REMARK SMILES IDX 7 13 6 14 5 15 4 16 3 17 2 18 1 19
REMARK H PARENT
REMARK Flexibility Score: inf
ROOT
ATOM      1  C   UNL     1     135.779 137.101 112.887  1.00  0.00     0.000 C 
ENDROOT
BRANCH   1   2
ATOM      2  C   UNL     1     136.393 137.186 114.295  1.00  0.00     0.000 C 
BRANCH   2   3
ATOM      3  C   UNL     1     137.900 137.499 114.334  1.00  0.00     0.000 C 
BRANCH   3   4
ATOM      4  C   UNL     1     138.371 138.324 113.123  1.00  0.00     0.000 C 
BRANCH   4   5
ATOM      5  C   UNL     1     139.312 139.471 113.533  1.00  0.00     0.001 C 
BRANCH   5   6
ATOM      6  C   UNL     1     139.118 139.923 114.999  1.00  0.00     0.009 C 
BRANCH   6   7
ATOM      7  C   UNL     1     139.858 141.237 115.343  1.00  0.00     0.032 C 
ATOM      8  C   UNL     1     140.410 141.939 114.097  1.00  0.00     0.014 C 
BRANCH   7   9
ATOM      9  C   UNL     1     140.979 140.961 116.308  1.00  0.00     0.044 C 
ATOM     10  O   UNL     1     141.307 141.817 117.172  1.00  0.00    -0.550 OA
ATOM     11  O   UNL     1     141.658 139.750 116.251  1.00  0.00    -0.550 OA
ENDBRANCH   7   9
ENDBRANCH   6   7
ENDBRANCH   5   6
ENDBRANCH   4   5
ENDBRANCH   3   4
ENDBRANCH   2   3
ENDBRANCH   1   2
BRANCH   1  12
ATOM     12  C   UNL     1     134.252 137.287 112.888  1.00  0.00     0.000 C 
BRANCH  12  13
ATOM     13  C   UNL     1     133.525 136.249 112.018  1.00  0.00    -0.000 C 
BRANCH  13  14
ATOM     14  C   UNL     1     133.509 134.845 112.649  1.00  0.00    -0.000 C 
BRANCH  14  15
ATOM     15  C   UNL     1     132.930 134.854 114.074  1.00  0.00    -0.000 C 
BRANCH  15  16
ATOM     16  C   UNL     1     133.905 134.266 115.107  1.00  0.00    -0.000 C 
BRANCH  16  17
ATOM     17  C   UNL     1     134.865 133.268 114.449  1.00  0.00    -0.000 C 
BRANCH  17  18
ATOM     18  C   UNL     1     136.300 133.475 114.946  1.00  0.00    -0.003 C 
ATOM     19  C   UNL     1     136.318 134.057 116.356  1.00  0.00     0.004 C 
ENDBRANCH  17  18
ENDBRANCH  16  17
ENDBRANCH  15  16
ENDBRANCH  14  15
ENDBRANCH  13  14
ENDBRANCH  12  13
ENDBRANCH   1  12
TORSDOF 14
ENDMDL
MODEL 8
REMARK VINA RESULT:    -5.176      1.415      2.832
REMARK INTER + INTRA:         -11.121
REMARK INTER:                  -9.708
REMARK INTRA:                  -1.413
REMARK UNBOUND:                -1.708
REMARK SMILES CCCCCCCCCCCCCC[C@H](C)C(=O)[O-]
REMARK SMILES IDX 9 1 10 2 11 3 12 4 13 5 14 6 15 7 16 8 17 9 18 10 19 11 8 12
REMARK SMILES IDX 7 13 6 14 5 15 4 16 3 17 2 18 1 19
REMARK H PARENT
REMARK Flexibility Score: inf
ROOT
ATOM      1  C   UNL     1     138.589 138.183 114.208  1.00  0.00     0.000 C 
ENDROOT
BRANCH   1   2
ATOM      2  C   UNL     1     139.133 139.602 113.963  1.00  0.00     0.000 C 
BRANCH   2   3
ATOM      3  C   UNL     1     140.350 139.682 113.025  1.00  0.00     0.000 C 
BRANCH   3   4
ATOM      4  C   UNL     1     140.484 141.051 112.333  1.00  0.00     0.000 C 
BRANCH   4   5
ATOM      5  C   UNL     1     141.920 141.599 112.407  1.00  0.00     0.001 C 
BRANCH   5   6
ATOM      6  C   UNL     1     142.120 142.633 113.539  1.00  0.00     0.009 C 
BRANCH   6   7
ATOM      7  C   UNL     1     142.774 142.038 114.809  1.00  0.00     0.032 C 
ATOM      8  C   UNL     1     143.625 140.800 114.502  1.00  0.00     0.014 C 
BRANCH   7   9
ATOM      9  C   UNL     1     141.715 141.688 115.818  1.00  0.00     0.044 C 
ATOM     10  O   UNL     1     141.878 140.721 116.610  1.00  0.00    -0.550 OA
ATOM     11  O   UNL     1     140.546 142.437 115.884  1.00  0.00    -0.550 OA
ENDBRANCH   7   9
ENDBRANCH   6   7
ENDBRANCH   5   6
ENDBRANCH   4   5
ENDBRANCH   3   4
ENDBRANCH   2   3
ENDBRANCH   1   2
BRANCH   1  12
ATOM     12  C   UNL     1     137.614 137.719 113.113  1.00  0.00     0.000 C 
BRANCH  12  13
ATOM     13  C   UNL     1     136.296 137.170 113.682  1.00  0.00    -0.000 C 
BRANCH  13  14
ATOM     14  C   UNL     1     136.459 136.555 115.084  1.00  0.00    -0.000 C 
BRANCH  14  15
ATOM     15  C   UNL     1     136.647 135.030 115.031  1.00  0.00    -0.000 C 
BRANCH  15  16
ATOM     16  C   UNL     1     135.940 134.392 113.824  1.00  0.00    -0.000 C 
BRANCH  16  17
ATOM     17  C   UNL     1     134.916 133.345 114.278  1.00  0.00    -0.000 C 
BRANCH  17  18
ATOM     18  C   UNL     1     133.804 133.991 115.113  1.00  0.00    -0.003 C 
ATOM     19  C   UNL     1     132.931 134.904 114.259  1.00  0.00     0.004 C 
ENDBRANCH  17  18
ENDBRANCH  16  17
ENDBRANCH  15  16
ENDBRANCH  14  15
ENDBRANCH  13  14
ENDBRANCH  12  13
ENDBRANCH   1  12
TORSDOF 14
ENDMDL
MODEL 9
REMARK VINA RESULT:    -5.147      2.530      7.114
REMARK INTER + INTRA:         -11.068
REMARK INTER:                  -9.367
REMARK INTRA:                  -1.701
REMARK UNBOUND:                -1.708
REMARK SMILES CCCCCCCCCCCCCC[C@H](C)C(=O)[O-]
REMARK SMILES IDX 9 1 10 2 11 3 12 4 13 5 14 6 15 7 16 8 17 9 18 10 19 11 8 12
REMARK SMILES IDX 7 13 6 14 5 15 4 16 3 17 2 18 1 19
REMARK H PARENT
REMARK Flexibility Score: inf
ROOT
ATOM      1  C   UNL     1     140.451 139.154 114.164  1.00  0.00     0.000 C 
ENDROOT
BRANCH   1   2
ATOM      2  C   UNL     1     138.943 139.421 114.006  1.00  0.00     0.000 C 
BRANCH   2   3
ATOM      3  C   UNL     1     138.025 138.270 114.455  1.00  0.00     0.000 C 
BRANCH   3   4
ATOM      4  C   UNL     1     137.738 137.259 113.331  1.00  0.00     0.000 C 
BRANCH   4   5
ATOM      5  C   UNL     1     136.642 136.251 113.723  1.00  0.00     0.001 C 
BRANCH   5   6
ATOM      6  C   UNL     1     136.952 135.495 115.036  1.00  0.00     0.009 C 
BRANCH   6   7
ATOM      7  C   UNL     1     135.717 135.316 115.950  1.00  0.00     0.032 C 
ATOM      8  C   UNL     1     134.732 136.486 115.838  1.00  0.00     0.014 C 
BRANCH   7   9
ATOM      9  C   UNL     1     136.153 135.156 117.381  1.00  0.00     0.044 C 
ATOM     10  O   UNL     1     136.902 136.013 117.923  1.00  0.00    -0.550 OA
ATOM     11  O   UNL     1     135.727 134.057 118.116  1.00  0.00    -0.550 OA
ENDBRANCH   7   9
ENDBRANCH   6   7
ENDBRANCH   5   6
ENDBRANCH   4   5
ENDBRANCH   3   4
ENDBRANCH   2   3
ENDBRANCH   1   2
BRANCH   1  12
ATOM     12  C   UNL     1     141.283 139.715 112.998  1.00  0.00     0.000 C 
BRANCH  12  13
ATOM     13  C   UNL     1     140.556 140.830 112.230  1.00  0.00    -0.000 C 
BRANCH  13  14
ATOM     14  C   UNL     1     141.161 142.223 112.483  1.00  0.00    -0.000 C 
BRANCH  14  15
ATOM     15  C   UNL     1     142.453 142.154 113.315  1.00  0.00    -0.000 C 
BRANCH  15  16
ATOM     16  C   UNL     1     142.374 143.008 114.591  1.00  0.00    -0.000 C 
BRANCH  16  17
ATOM     17  C   UNL     1     141.930 142.163 115.791  1.00  0.00    -0.000 C 
BRANCH  17  18
ATOM     18  C   UNL     1     140.445 142.386 116.101  1.00  0.00    -0.003 C 
ATOM     19  C   UNL     1     139.942 141.391 117.141  1.00  0.00     0.004 C 
ENDBRANCH  17  18
ENDBRANCH  16  17
ENDBRANCH  15  16
ENDBRANCH  14  15
ENDBRANCH  13  14
ENDBRANCH  12  13
ENDBRANCH   1  12
TORSDOF 14
ENDMDL
