MODEL 1
REMARK VINA RESULT:    -3.209      0.000      0.000
REMARK INTER + INTRA:          -4.115
REMARK INTER:                  -4.522
REMARK INTRA:                   0.407
REMARK UNBOUND:                 0.407
REMARK SMILES CC1=CCC(=C(C)C)C(=O)CC(C)=CCC1
REMARK SMILES IDX 12 1 14 2 13 3 15 4 16 5 2 6 1 7 3 8 11 10 9 11 10 12 5 13
REMARK SMILES IDX 6 14 7 15 8 16 4 17
REMARK H PARENT
REMARK Flexibility Score: 60.00
ROOT
ATOM      1  C   UNL     1     178.301 192.658 194.701  1.00  0.00    -0.070 C 
ATOM      2  C   UNL     1     177.075 192.860 194.169  1.00  0.00    -0.027 C 
ATOM      3  C   UNL     1     178.815 193.671 195.692  1.00  0.00     0.039 C 
ENDROOT
BRANCH   2   4
ATOM      4  C   UNL     1     176.428 192.015 193.094  1.00  0.00     0.032 C 
BRANCH   4   5
ATOM      5  C   UNL     1     176.166 192.750 191.763  1.00  0.00     0.034 C 
BRANCH   5   6
ATOM      6  C   UNL     1     177.373 193.522 191.259  1.00  0.00    -0.077 C 
ATOM      7  C   UNL     1     177.242 195.018 191.127  1.00  0.00     0.039 C 
ATOM      8  C   UNL     1     178.533 192.949 190.856  1.00  0.00    -0.023 CG0
ATOM      9  G   UNL     1     178.895 191.478 190.916  1.00  0.00     0.000 G0
ENDBRANCH   5   6
ENDBRANCH   4   5
ENDBRANCH   2   4
BRANCH   1  10
ATOM     10  C   UNL     1     179.213 191.524 194.281  1.00  0.00     0.111 C 
BRANCH  10  11
ATOM     11  C   UNL     1     180.100 191.921 193.130  1.00  0.00     0.163 C 
ATOM     12  O   UNL     1     180.844 192.929 193.274  1.00  0.00    -0.294 OA
BRANCH  11  13
ATOM     13  C   UNL     1     180.083 191.203 191.820  1.00  0.00    -0.002 C 
ATOM     14  C   UNL     1     181.124 190.398 191.450  1.00  0.00    -0.069 C 
ATOM     15  C   UNL     1     181.211 189.786 190.069  1.00  0.00     0.039 C 
ATOM     16  C   UNL     1     182.248 190.079 192.411  1.00  0.00     0.039 C 
BRANCH  13  17
ATOM     17  C   UNL     1     178.913 191.484 190.890  1.00  0.00     0.066 CG0
ATOM     18  G   UNL     1     178.528 192.950 190.874  1.00  0.00     0.000 G0
ENDBRANCH  13  17
ENDBRANCH  11  13
ENDBRANCH  10  11
ENDBRANCH   1  10
TORSDOF 0
ENDMDL
MODEL 2
REMARK VINA RESULT:    -3.187     16.488     17.347
REMARK INTER + INTRA:          -4.085
REMARK INTER:                  -4.249
REMARK INTRA:                   0.165
REMARK UNBOUND:                 0.407
REMARK SMILES CC1=CCC(=C(C)C)C(=O)CC(C)=CCC1
REMARK SMILES IDX 12 1 14 2 13 3 15 4 16 5 2 6 1 7 3 8 11 10 9 11 10 12 5 13
REMARK SMILES IDX 6 14 7 15 8 16 4 17
REMARK H PARENT
REMARK Flexibility Score: 60.00
ROOT
ATOM      1  C   UNL     1     184.250 178.003 199.326  1.00  0.00    -0.070 C 
ATOM      2  C   UNL     1     183.639 177.376 198.296  1.00  0.00    -0.027 C 
ATOM      3  C   UNL     1     183.603 177.919 200.686  1.00  0.00     0.039 C 
ENDROOT
BRANCH   2   4
ATOM      4  C   UNL     1     184.076 177.425 196.849  1.00  0.00     0.032 C 
BRANCH   4   5
ATOM      5  C   UNL     1     185.326 176.582 196.521  1.00  0.00     0.034 C 
BRANCH   5   6
ATOM      6  C   UNL     1     186.390 177.360 195.765  1.00  0.00    -0.077 C 
ATOM      7  C   UNL     1     186.045 177.859 194.386  1.00  0.00     0.039 C 
ATOM      8  C   UNL     1     187.648 177.574 196.221  1.00  0.00    -0.023 CG0
ATOM      9  G   UNL     1     188.209 177.184 197.574  1.00  0.00     0.000 G0
ENDBRANCH   5   6
ENDBRANCH   4   5
ENDBRANCH   2   4
BRANCH   1  10
ATOM     10  C   UNL     1     185.491 178.856 199.163  1.00  0.00     0.111 C 
BRANCH  10  11
ATOM     11  C   UNL     1     186.744 178.079 199.467  1.00  0.00     0.163 C 
ATOM     12  O   UNL     1     186.742 177.320 200.475  1.00  0.00    -0.294 OA
BRANCH  11  13
ATOM     13  C   UNL     1     187.993 178.222 198.660  1.00  0.00    -0.002 C 
ATOM     14  C   UNL     1     188.825 179.291 198.843  1.00  0.00    -0.069 C 
ATOM     15  C   UNL     1     190.009 179.547 197.936  1.00  0.00     0.039 C 
ATOM     16  C   UNL     1     188.600 180.277 199.968  1.00  0.00     0.039 C 
BRANCH  13  17
ATOM     17  C   UNL     1     188.240 177.187 197.574  1.00  0.00     0.066 CG0
ATOM     18  G   UNL     1     187.636 177.591 196.244  1.00  0.00     0.000 G0
ENDBRANCH  13  17
ENDBRANCH  11  13
ENDBRANCH  10  11
ENDBRANCH   1  10
TORSDOF 0
ENDMDL
MODEL 3
REMARK VINA RESULT:    -3.116      8.354     10.182
REMARK INTER + INTRA:          -3.985
REMARK INTER:                  -4.423
REMARK INTRA:                   0.438
REMARK UNBOUND:                 0.407
REMARK SMILES CC1=CCC(=C(C)C)C(=O)CC(C)=CCC1
REMARK SMILES IDX 12 1 14 2 13 3 15 4 16 5 2 6 1 7 3 8 11 10 9 11 10 12 5 13
REMARK SMILES IDX 6 14 7 15 8 16 4 17
REMARK H PARENT
REMARK Flexibility Score: 60.00
ROOT
ATOM      1  C   UNL     1     184.466 193.278 199.502  1.00  0.00    -0.070 C 
ATOM      2  C   UNL     1     184.948 194.174 200.392  1.00  0.00    -0.027 C 
ATOM      3  C   UNL     1     184.177 191.882 199.994  1.00  0.00     0.039 C 
ENDROOT
BRANCH   2   4
ATOM      4  C   UNL     1     185.387 195.586 200.073  1.00  0.00     0.032 C 
BRANCH   4   5
ATOM      5  C   UNL     1     186.876 195.879 200.350  1.00  0.00     0.034 C 
BRANCH   5   6
ATOM      6  C   UNL     1     187.812 194.855 199.733  1.00  0.00    -0.077 C 
ATOM      7  C   UNL     1     188.735 194.103 200.656  1.00  0.00     0.039 C 
ATOM      8  C   UNL     1     187.919 194.623 198.402  1.00  0.00    -0.023 CG0
ATOM      9  G   UNL     1     187.087 195.242 197.296  1.00  0.00     0.000 G0
ENDBRANCH   5   6
ENDBRANCH   4   5
ENDBRANCH   2   4
BRANCH   1  10
ATOM     10  C   UNL     1     184.292 193.580 198.028  1.00  0.00     0.111 C 
BRANCH  10  11
ATOM     11  C   UNL     1     185.514 193.199 197.234  1.00  0.00     0.163 C 
ATOM     12  O   UNL     1     185.888 191.995 197.263  1.00  0.00    -0.294 OA
BRANCH  11  13
ATOM     13  C   UNL     1     186.320 194.200 196.474  1.00  0.00    -0.002 C 
ATOM     14  C   UNL     1     186.436 194.116 195.114  1.00  0.00    -0.069 C 
ATOM     15  C   UNL     1     187.370 195.015 194.334  1.00  0.00     0.039 C 
ATOM     16  C   UNL     1     185.630 193.113 194.318  1.00  0.00     0.039 C 
BRANCH  13  17
ATOM     17  C   UNL     1     187.074 195.244 197.282  1.00  0.00     0.066 CG0
ATOM     18  G   UNL     1     187.913 194.625 198.383  1.00  0.00     0.000 G0
ENDBRANCH  13  17
ENDBRANCH  11  13
ENDBRANCH  10  11
ENDBRANCH   1  10
TORSDOF 0
ENDMDL
MODEL 4
REMARK VINA RESULT:    -3.104      6.799     10.096
REMARK INTER + INTRA:          -3.968
REMARK INTER:                  -4.167
REMARK INTRA:                   0.198
REMARK UNBOUND:                 0.407
REMARK SMILES CC1=CCC(=C(C)C)C(=O)CC(C)=CCC1
REMARK SMILES IDX 12 1 14 2 13 3 15 4 16 5 2 6 1 7 3 8 11 10 9 11 10 12 5 13
REMARK SMILES IDX 6 14 7 15 8 16 4 17
REMARK H PARENT
REMARK Flexibility Score: 60.00
ROOT
ATOM      1  C   UNL     1     186.144 186.009 196.655  1.00  0.00    -0.070 C 
ATOM      2  C   UNL     1     187.113 185.071 196.562  1.00  0.00    -0.027 C 
ATOM      3  C   UNL     1     186.001 186.748 197.961  1.00  0.00     0.039 C 
ENDROOT
BRANCH   2   4
ATOM      4  C   UNL     1     187.351 184.161 195.377  1.00  0.00     0.032 C 
BRANCH   4   5
ATOM      5  C   UNL     1     187.970 184.852 194.144  1.00  0.00     0.034 C 
BRANCH   5   6
ATOM      6  C   UNL     1     187.166 184.640 192.873  1.00  0.00    -0.077 C 
ATOM      7  C   UNL     1     187.023 183.230 192.362  1.00  0.00     0.039 C 
ATOM      8  C   UNL     1     186.628 185.641 192.134  1.00  0.00    -0.023 CG0
ATOM      9  G   UNL     1     186.630 187.122 192.460  1.00  0.00     0.000 G0
ENDBRANCH   5   6
ENDBRANCH   4   5
ENDBRANCH   2   4
BRANCH   1  10
ATOM     10  C   UNL     1     185.144 186.284 195.551  1.00  0.00     0.111 C 
BRANCH  10  11
ATOM     11  C   UNL     1     185.516 187.507 194.755  1.00  0.00     0.163 C 
ATOM     12  O   UNL     1     185.892 188.533 195.385  1.00  0.00    -0.294 OA
BRANCH  11  13
ATOM     13  C   UNL     1     185.399 187.562 193.267  1.00  0.00    -0.002 C 
ATOM     14  C   UNL     1     184.214 187.895 192.671  1.00  0.00    -0.069 C 
ATOM     15  C   UNL     1     184.020 187.805 191.173  1.00  0.00     0.039 C 
ATOM     16  C   UNL     1     183.032 188.371 193.486  1.00  0.00     0.039 C 
BRANCH  13  17
ATOM     17  C   UNL     1     186.616 187.142 192.458  1.00  0.00     0.066 CG0
ATOM     18  G   UNL     1     186.618 185.659 192.146  1.00  0.00     0.000 G0
ENDBRANCH  13  17
ENDBRANCH  11  13
ENDBRANCH  10  11
ENDBRANCH   1  10
TORSDOF 0
ENDMDL
MODEL 5
REMARK VINA RESULT:    -3.073      1.811      3.983
REMARK INTER + INTRA:          -3.925
REMARK INTER:                  -4.411
REMARK INTRA:                   0.487
REMARK UNBOUND:                 0.407
REMARK SMILES CC1=CCC(=C(C)C)C(=O)CC(C)=CCC1
REMARK SMILES IDX 12 1 14 2 13 3 15 4 16 5 2 6 1 7 3 8 11 10 9 11 10 12 5 13
REMARK SMILES IDX 6 14 7 15 8 16 4 17
REMARK H PARENT
REMARK Flexibility Score: 60.00
ROOT
ATOM      1  C   UNL     1     178.095 192.265 193.962  1.00  0.00    -0.070 C 
ATOM      2  C   UNL     1     179.157 191.638 194.517  1.00  0.00    -0.027 C 
ATOM      3  C   UNL     1     177.747 193.642 194.467  1.00  0.00     0.039 C 
ENDROOT
BRANCH   2   4
ATOM      4  C   UNL     1     179.604 190.224 194.216  1.00  0.00     0.032 C 
BRANCH   4   5
ATOM      5  C   UNL     1     180.652 190.102 193.091  1.00  0.00     0.034 C 
BRANCH   5   6
ATOM      6  C   UNL     1     181.295 191.428 192.725  1.00  0.00    -0.077 C 
ATOM      7  C   UNL     1     182.485 191.876 193.534  1.00  0.00     0.039 C 
ATOM      8  C   UNL     1     180.827 192.265 191.768  1.00  0.00    -0.023 CG0
ATOM      9  G   UNL     1     179.666 192.019 190.825  1.00  0.00     0.000 G0
ENDBRANCH   5   6
ENDBRANCH   4   5
ENDBRANCH   2   4
BRANCH   1  10
ATOM     10  C   UNL     1     177.192 191.617 192.933  1.00  0.00     0.111 C 
BRANCH  10  11
ATOM     11  C   UNL     1     177.230 192.352 191.619  1.00  0.00     0.163 C 
ATOM     12  O   UNL     1     176.169 192.406 190.939  1.00  0.00    -0.294 OA
BRANCH  11  13
ATOM     13  C   UNL     1     178.481 192.957 191.075  1.00  0.00    -0.002 C 
ATOM     14  C   UNL     1     178.529 194.282 190.740  1.00  0.00    -0.069 C 
ATOM     15  C   UNL     1     179.726 194.888 190.040  1.00  0.00     0.039 C 
ATOM     16  C   UNL     1     177.378 195.212 191.054  1.00  0.00     0.039 C 
BRANCH  13  17
ATOM     17  C   UNL     1     179.654 192.022 190.823  1.00  0.00     0.066 CG0
ATOM     18  G   UNL     1     180.800 192.261 191.786  1.00  0.00     0.000 G0
ENDBRANCH  13  17
ENDBRANCH  11  13
ENDBRANCH  10  11
ENDBRANCH   1  10
TORSDOF 0
ENDMDL
MODEL 6
REMARK VINA RESULT:    -3.062      7.598      9.596
REMARK INTER + INTRA:          -3.909
REMARK INTER:                  -4.161
REMARK INTRA:                   0.252
REMARK UNBOUND:                 0.407
REMARK SMILES CC1=CCC(=C(C)C)C(=O)CC(C)=CCC1
REMARK SMILES IDX 12 1 14 2 13 3 15 4 16 5 2 6 1 7 3 8 11 10 9 11 10 12 5 13
REMARK SMILES IDX 6 14 7 15 8 16 4 17
REMARK H PARENT
REMARK Flexibility Score: 60.00
ROOT
ATOM      1  C   UNL     1     186.579 186.806 196.630  1.00  0.00    -0.070 C 
ATOM      2  C   UNL     1     185.637 187.773 196.548  1.00  0.00    -0.027 C 
ATOM      3  C   UNL     1     186.747 186.096 197.950  1.00  0.00     0.039 C 
ENDROOT
BRANCH   2   4
ATOM      4  C   UNL     1     185.384 188.659 195.348  1.00  0.00     0.032 C 
BRANCH   4   5
ATOM      5  C   UNL     1     184.412 188.073 194.304  1.00  0.00     0.034 C 
BRANCH   5   6
ATOM      6  C   UNL     1     184.964 188.104 192.889  1.00  0.00    -0.077 C 
ATOM      7  C   UNL     1     184.960 189.426 192.166  1.00  0.00     0.039 C 
ATOM      8  C   UNL     1     185.394 187.012 192.213  1.00  0.00    -0.023 CG0
ATOM      9  G   UNL     1     185.505 185.595 192.740  1.00  0.00     0.000 G0
ENDBRANCH   5   6
ENDBRANCH   4   5
ENDBRANCH   2   4
BRANCH   1  10
ATOM     10  C   UNL     1     187.527 186.470 195.498  1.00  0.00     0.111 C 
BRANCH  10  11
ATOM     11  C   UNL     1     187.077 185.250 194.738  1.00  0.00     0.163 C 
ATOM     12  O   UNL     1     186.904 184.180 195.383  1.00  0.00    -0.294 OA
BRANCH  11  13
ATOM     13  C   UNL     1     186.888 185.252 193.257  1.00  0.00    -0.002 C 
ATOM     14  C   UNL     1     187.947 185.047 192.417  1.00  0.00    -0.069 C 
ATOM     15  C   UNL     1     187.819 185.201 190.917  1.00  0.00     0.039 C 
ATOM     16  C   UNL     1     189.307 184.655 192.950  1.00  0.00     0.039 C 
BRANCH  13  17
ATOM     17  C   UNL     1     185.499 185.586 192.734  1.00  0.00     0.066 CG0
ATOM     18  G   UNL     1     185.403 187.007 192.217  1.00  0.00     0.000 G0
ENDBRANCH  13  17
ENDBRANCH  11  13
ENDBRANCH  10  11
ENDBRANCH   1  10
TORSDOF 0
ENDMDL
MODEL 7
REMARK VINA RESULT:    -2.947      2.175      4.388
REMARK INTER + INTRA:          -3.746
REMARK INTER:                  -3.964
REMARK INTRA:                   0.218
REMARK UNBOUND:                 0.407
REMARK SMILES CC1=CCC(=C(C)C)C(=O)CC(C)=CCC1
REMARK SMILES IDX 12 1 14 2 13 3 15 4 16 5 2 6 1 7 3 8 11 10 9 11 10 12 5 13
REMARK SMILES IDX 6 14 7 15 8 16 4 17
REMARK H PARENT
REMARK Flexibility Score: 60.00
ROOT
ATOM      1  C   UNL     1     179.633 191.420 192.662  1.00  0.00    -0.070 C 
ATOM      2  C   UNL     1     180.702 191.676 191.874  1.00  0.00    -0.027 C 
ATOM      3  C   UNL     1     179.888 190.811 194.018  1.00  0.00     0.039 C 
ENDROOT
BRANCH   2   4
ATOM      4  C   UNL     1     180.646 192.191 190.452  1.00  0.00     0.032 C 
BRANCH   4   5
ATOM      5  C   UNL     1     179.849 193.499 190.268  1.00  0.00     0.034 C 
BRANCH   5   6
ATOM      6  C   UNL     1     180.325 194.623 191.172  1.00  0.00    -0.077 C 
ATOM      7  C   UNL     1     181.748 195.095 191.012  1.00  0.00     0.039 C 
ATOM      8  C   UNL     1     179.579 195.179 192.156  1.00  0.00    -0.023 CG0
ATOM      9  G   UNL     1     178.130 194.879 192.486  1.00  0.00     0.000 G0
ENDBRANCH   5   6
ENDBRANCH   4   5
ENDBRANCH   2   4
BRANCH   1  10
ATOM     10  C   UNL     1     178.201 191.625 192.215  1.00  0.00     0.111 C 
BRANCH  10  11
ATOM     11  C   UNL     1     177.444 192.517 193.164  1.00  0.00     0.163 C 
ATOM     12  O   UNL     1     176.320 192.124 193.578  1.00  0.00    -0.294 OA
BRANCH  11  13
ATOM     13  C   UNL     1     177.950 193.860 193.578  1.00  0.00    -0.002 C 
ATOM     14  C   UNL     1     178.170 194.149 194.896  1.00  0.00    -0.069 C 
ATOM     15  C   UNL     1     178.527 195.544 195.360  1.00  0.00     0.039 C 
ATOM     16  C   UNL     1     178.064 193.080 195.961  1.00  0.00     0.039 C 
BRANCH  13  17
ATOM     17  C   UNL     1     178.113 194.907 192.487  1.00  0.00     0.066 CG0
ATOM     18  G   UNL     1     179.568 195.180 192.162  1.00  0.00     0.000 G0
ENDBRANCH  13  17
ENDBRANCH  11  13
ENDBRANCH  10  11
ENDBRANCH   1  10
TORSDOF 0
ENDMDL
MODEL 8
REMARK VINA RESULT:    -2.909      8.068     10.653
REMARK INTER + INTRA:          -3.693
REMARK INTER:                  -4.156
REMARK INTRA:                   0.463
REMARK UNBOUND:                 0.407
REMARK SMILES CC1=CCC(=C(C)C)C(=O)CC(C)=CCC1
REMARK SMILES IDX 12 1 14 2 13 3 15 4 16 5 2 6 1 7 3 8 11 10 9 11 10 12 5 13
REMARK SMILES IDX 6 14 7 15 8 16 4 17
REMARK H PARENT
REMARK Flexibility Score: 60.00
ROOT
ATOM      1  C   UNL     1     185.939 186.253 195.868  1.00  0.00    -0.070 C 
ATOM      2  C   UNL     1     186.918 185.342 196.068  1.00  0.00    -0.027 C 
ATOM      3  C   UNL     1     185.964 187.509 196.703  1.00  0.00     0.039 C 
ENDROOT
BRANCH   2   4
ATOM      4  C   UNL     1     187.011 183.986 195.403  1.00  0.00     0.032 C 
BRANCH   4   5
ATOM      5  C   UNL     1     188.289 183.761 194.569  1.00  0.00     0.034 C 
BRANCH   5   6
ATOM      6  C   UNL     1     188.500 184.820 193.501  1.00  0.00    -0.077 C 
ATOM      7  C   UNL     1     189.759 185.646 193.574  1.00  0.00     0.039 C 
ATOM      8  C   UNL     1     187.602 185.116 192.531  1.00  0.00    -0.023 CG0
ATOM      9  G   UNL     1     186.288 184.412 192.255  1.00  0.00     0.000 G0
ENDBRANCH   5   6
ENDBRANCH   4   5
ENDBRANCH   2   4
BRANCH   1  10
ATOM     10  C   UNL     1     184.778 186.033 194.921  1.00  0.00     0.111 C 
BRANCH  10  11
ATOM     11  C   UNL     1     185.148 186.367 193.500  1.00  0.00     0.163 C 
ATOM     12  O   UNL     1     185.469 187.557 193.235  1.00  0.00    -0.294 OA
BRANCH  11  13
ATOM     13  C   UNL     1     185.089 185.360 192.399  1.00  0.00    -0.002 C 
ATOM     14  C   UNL     1     183.975 185.246 191.614  1.00  0.00    -0.069 C 
ATOM     15  C   UNL     1     183.823 184.135 190.598  1.00  0.00     0.039 C 
ATOM     16  C   UNL     1     182.832 186.231 191.727  1.00  0.00     0.039 C 
BRANCH  13  17
ATOM     17  C   UNL     1     186.273 184.417 192.256  1.00  0.00     0.066 CG0
ATOM     18  G   UNL     1     187.596 185.107 192.522  1.00  0.00     0.000 G0
ENDBRANCH  13  17
ENDBRANCH  11  13
ENDBRANCH  10  11
ENDBRANCH   1  10
TORSDOF 0
ENDMDL
MODEL 9
REMARK VINA RESULT:    -2.878      6.747      9.169
REMARK INTER + INTRA:          -3.650
REMARK INTER:                  -4.125
REMARK INTRA:                   0.475
REMARK UNBOUND:                 0.407
REMARK SMILES CC1=CCC(=C(C)C)C(=O)CC(C)=CCC1
REMARK SMILES IDX 12 1 14 2 13 3 15 4 16 5 2 6 1 7 3 8 11 10 9 11 10 12 5 13
REMARK SMILES IDX 6 14 7 15 8 16 4 17
REMARK H PARENT
REMARK Flexibility Score: 60.00
ROOT
ATOM      1  C   UNL     1     185.402 188.654 195.165  1.00  0.00    -0.070 C 
ATOM      2  C   UNL     1     186.045 187.728 195.912  1.00  0.00    -0.027 C 
ATOM      3  C   UNL     1     185.919 190.070 195.200  1.00  0.00     0.039 C 
ENDROOT
BRANCH   2   4
ATOM      4  C   UNL     1     185.623 186.286 196.085  1.00  0.00     0.032 C 
BRANCH   4   5
ATOM      5  C   UNL     1     186.613 185.249 195.514  1.00  0.00     0.034 C 
BRANCH   5   6
ATOM      6  C   UNL     1     187.163 185.635 194.152  1.00  0.00    -0.077 C 
ATOM      7  C   UNL     1     188.631 185.966 194.057  1.00  0.00     0.039 C 
ATOM      8  C   UNL     1     186.409 185.769 193.034  1.00  0.00    -0.023 CG0
ATOM      9  G   UNL     1     184.930 185.474 192.888  1.00  0.00     0.000 G0
ENDBRANCH   5   6
ENDBRANCH   4   5
ENDBRANCH   2   4
BRANCH   1  10
ATOM     10  C   UNL     1     184.143 188.359 194.376  1.00  0.00     0.111 C 
BRANCH  10  11
ATOM     11  C   UNL     1     184.455 187.994 192.949  1.00  0.00     0.163 C 
ATOM     12  O   UNL     1     184.969 188.876 192.209  1.00  0.00    -0.294 OA
BRANCH  11  13
ATOM     13  C   UNL     1     184.124 186.656 192.372  1.00  0.00    -0.002 C 
ATOM     14  C   UNL     1     183.091 186.511 191.489  1.00  0.00    -0.069 C 
ATOM     15  C   UNL     1     182.631 185.150 191.012  1.00  0.00     0.039 C 
ATOM     16  C   UNL     1     182.351 187.712 190.944  1.00  0.00     0.039 C 
BRANCH  13  17
ATOM     17  C   UNL     1     184.919 185.464 192.882  1.00  0.00     0.066 CG0
ATOM     18  G   UNL     1     186.397 185.774 193.024  1.00  0.00     0.000 G0
ENDBRANCH  13  17
ENDBRANCH  11  13
ENDBRANCH  10  11
ENDBRANCH   1  10
TORSDOF 0
ENDMDL
