MODEL 1
REMARK VINA RESULT:    -5.695      0.000      0.000
REMARK INTER + INTRA:          -7.055
REMARK INTER:                  -7.858
REMARK INTRA:                   0.804
REMARK UNBOUND:                 0.804
REMARK SMILES C=C(CC[C@H](C(=O)[O-])[C@H]1CC[C@]2(C)C3=CC[C@H]4C(C)(C)[C@H](O)CC[C@@]4(C)C3=CC[C@]12C)C(C)C
REMARK SMILES IDX 4 1 5 2 6 3 7 4 8 5 9 6 10 7 30 8 11 9 12 10 29 11 31 12
REMARK SMILES IDX 13 13 14 14 28 15 27 16 15 17 25 18 16 19 17 20 24 21 26 22
REMARK SMILES IDX 18 23 23 24 21 25 19 26 20 27 22 28 3 30 2 31 1 32 32 33
REMARK SMILES IDX 33 34 34 35
REMARK H PARENT 22 29
REMARK Flexibility Score: inf
ROOT
ATOM      1  C   UNL     1       8.278 -56.924 568.018  1.00  0.00     0.014 C 
ENDROOT
BRANCH   1   2
ATOM      2  C   UNL     1       7.940 -55.436 568.272  1.00  0.00     0.039 C 
BRANCH   2   3
ATOM      3  C   UNL     1       8.208 -54.639 567.014  1.00  0.00     0.045 C 
ATOM      4  O   UNL     1       9.124 -53.774 566.965  1.00  0.00    -0.550 OA
ATOM      5  O   UNL     1       7.452 -54.891 565.874  1.00  0.00    -0.550 OA
ENDBRANCH   2   3
BRANCH   2   6
ATOM      6  C   UNL     1       8.653 -54.921 569.576  1.00  0.00     0.005 C 
ATOM      7  C   UNL     1       8.936 -53.413 569.602  1.00  0.00     0.006 C 
ATOM      8  C   UNL     1       8.073 -55.304 570.995  1.00  0.00    -0.016 C 
ATOM      9  C   UNL     1       8.972 -53.020 571.068  1.00  0.00     0.012 C 
ATOM     10  C   UNL     1       7.960 -53.926 571.779  1.00  0.00    -0.002 C 
ATOM     11  C   UNL     1       9.112 -56.219 571.717  1.00  0.00     0.035 C 
ATOM     12  C   UNL     1       6.734 -56.105 570.941  1.00  0.00     0.013 C 
ATOM     13  C   UNL     1       6.551 -53.284 571.669  1.00  0.00     0.017 C 
ATOM     14  C   UNL     1       8.320 -54.052 573.272  1.00  0.00    -0.042 C 
ATOM     15  C   UNL     1       8.741 -56.427 573.153  1.00  0.00    -0.022 C 
ATOM     16  C   UNL     1       8.407 -55.375 573.922  1.00  0.00    -0.042 C 
ATOM     17  C   UNL     1       8.529 -52.982 574.044  1.00  0.00    -0.022 C 
ATOM     18  C   UNL     1       7.896 -55.492 575.377  1.00  0.00    -0.004 C 
ATOM     19  C   UNL     1       9.110 -53.151 575.414  1.00  0.00     0.032 C 
ATOM     20  C   UNL     1       8.437 -54.285 576.274  1.00  0.00     0.011 C 
ATOM     21  C   UNL     1       6.332 -55.515 575.299  1.00  0.00     0.014 C 
ATOM     22  C   UNL     1       8.382 -56.832 576.000  1.00  0.00     0.017 C 
ATOM     23  C   UNL     1       7.386 -53.758 577.339  1.00  0.00    -0.005 C 
ATOM     24  C   UNL     1       5.660 -54.137 575.414  1.00  0.00     0.033 C 
ATOM     25  C   UNL     1       6.115 -53.254 576.605  1.00  0.00     0.120 C 
ATOM     26  C   UNL     1       7.035 -54.868 578.373  1.00  0.00     0.014 C 
ATOM     27  C   UNL     1       7.958 -52.602 578.216  1.00  0.00     0.014 C 
BRANCH  25  28
ATOM     28  O   UNL     1       5.053 -53.098 577.520  1.00  0.00    -0.393 OA
ATOM     29  H   UNL     1       5.452 -52.766 578.365  1.00  0.00     0.210 HD
ENDBRANCH  25  28
ENDBRANCH   2   6
ENDBRANCH   1   2
BRANCH   1  30
ATOM     30  C   UNL     1       9.125 -57.140 566.749  1.00  0.00     0.031 C 
BRANCH  30  31
ATOM     31  C   UNL     1       8.296 -57.828 565.686  1.00  0.00    -0.075 C 
ATOM     32  C   UNL     1       7.002 -58.114 565.934  1.00  0.00     0.008 C 
BRANCH  31  33
ATOM     33  C   UNL     1       8.916 -58.081 564.319  1.00  0.00     0.008 C 
ATOM     34  C   UNL     1       9.067 -56.778 563.540  1.00  0.00     0.012 C 
ATOM     35  C   UNL     1       8.144 -59.135 563.514  1.00  0.00     0.012 C 
ENDBRANCH  31  33
ENDBRANCH  30  31
ENDBRANCH   1  30
TORSDOF 7
ENDMDL
MODEL 2
REMARK VINA RESULT:    -4.389      1.240      1.649
REMARK INTER + INTRA:          -5.253
REMARK INTER:                  -6.565
REMARK INTRA:                   1.312
REMARK UNBOUND:                 0.804
REMARK SMILES C=C(CC[C@H](C(=O)[O-])[C@H]1CC[C@]2(C)C3=CC[C@H]4C(C)(C)[C@H](O)CC[C@@]4(C)C3=CC[C@]12C)C(C)C
REMARK SMILES IDX 4 1 5 2 6 3 7 4 8 5 9 6 10 7 30 8 11 9 12 10 29 11 31 12
REMARK SMILES IDX 13 13 14 14 28 15 27 16 15 17 25 18 16 19 17 20 24 21 26 22
REMARK SMILES IDX 18 23 23 24 21 25 19 26 20 27 22 28 3 30 2 31 1 32 32 33
REMARK SMILES IDX 33 34 34 35
REMARK H PARENT 22 29
REMARK Flexibility Score: inf
ROOT
ATOM      1  C   UNL     1       9.102 -56.224 567.964  1.00  0.00     0.014 C 
ENDROOT
BRANCH   1   2
ATOM      2  C   UNL     1       8.175 -56.325 569.199  1.00  0.00     0.039 C 
BRANCH   2   3
ATOM      3  C   UNL     1       6.781 -55.877 568.816  1.00  0.00     0.045 C 
ATOM      4  O   UNL     1       6.099 -56.507 567.963  1.00  0.00    -0.550 OA
ATOM      5  O   UNL     1       6.225 -54.767 569.444  1.00  0.00    -0.550 OA
ENDBRANCH   2   3
BRANCH   2   6
ATOM      6  C   UNL     1       8.815 -55.592 570.434  1.00  0.00     0.005 C 
ATOM      7  C   UNL     1       9.118 -54.104 570.215  1.00  0.00     0.006 C 
ATOM      8  C   UNL     1       8.146 -55.719 571.859  1.00  0.00    -0.016 C 
ATOM      9  C   UNL     1       9.072 -53.461 571.590  1.00  0.00     0.012 C 
ATOM     10  C   UNL     1       8.005 -54.226 572.383  1.00  0.00    -0.002 C 
ATOM     11  C   UNL     1       9.125 -56.498 572.793  1.00  0.00     0.035 C 
ATOM     12  C   UNL     1       6.800 -56.512 571.863  1.00  0.00     0.013 C 
ATOM     13  C   UNL     1       6.615 -53.607 572.076  1.00  0.00     0.017 C 
ATOM     14  C   UNL     1       8.272 -54.090 573.894  1.00  0.00    -0.042 C 
ATOM     15  C   UNL     1       8.665 -56.451 574.218  1.00  0.00    -0.022 C 
ATOM     16  C   UNL     1       8.300 -55.280 574.769  1.00  0.00    -0.042 C 
ATOM     17  C   UNL     1       8.450 -52.903 574.480  1.00  0.00    -0.022 C 
ATOM     18  C   UNL     1       7.700 -55.139 576.187  1.00  0.00    -0.004 C 
ATOM     19  C   UNL     1       8.944 -52.832 575.892  1.00  0.00     0.032 C 
ATOM     20  C   UNL     1       8.204 -53.795 576.892  1.00  0.00     0.011 C 
ATOM     21  C   UNL     1       6.144 -55.169 576.018  1.00  0.00     0.014 C 
ATOM     22  C   UNL     1       8.128 -56.351 577.064  1.00  0.00     0.017 C 
ATOM     23  C   UNL     1       7.098 -53.087 577.782  1.00  0.00    -0.005 C 
ATOM     24  C   UNL     1       5.487 -53.789 575.850  1.00  0.00     0.033 C 
ATOM     25  C   UNL     1       5.881 -52.713 576.894  1.00  0.00     0.120 C 
ATOM     26  C   UNL     1       6.669 -53.998 578.970  1.00  0.00     0.014 C 
ATOM     27  C   UNL     1       7.633 -51.798 578.479  1.00  0.00     0.014 C 
BRANCH  25  28
ATOM     28  O   UNL     1       4.769 -52.396 577.700  1.00  0.00    -0.393 OA
ATOM     29  H   UNL     1       4.496 -51.474 577.458  1.00  0.00     0.210 HD
ENDBRANCH  25  28
ENDBRANCH   2   6
ENDBRANCH   1   2
BRANCH   1  30
ATOM     30  C   UNL     1       8.614 -55.194 566.928  1.00  0.00     0.031 C 
BRANCH  30  31
ATOM     31  C   UNL     1       8.630 -55.806 565.544  1.00  0.00    -0.075 C 
ATOM     32  C   UNL     1       8.757 -55.006 564.465  1.00  0.00     0.008 C 
BRANCH  31  33
ATOM     33  C   UNL     1       8.612 -57.322 565.409  1.00  0.00     0.008 C 
ATOM     34  C   UNL     1       9.014 -57.747 563.999  1.00  0.00     0.012 C 
ATOM     35  C   UNL     1       7.266 -57.930 565.820  1.00  0.00     0.012 C 
ENDBRANCH  31  33
ENDBRANCH  30  31
ENDBRANCH   1  30
TORSDOF 7
ENDMDL
