MODEL 1
REMARK VINA RESULT:    -4.439      0.000      0.000
REMARK INTER + INTRA:          -6.872
REMARK INTER:                  -6.256
REMARK INTRA:                  -0.617
REMARK UNBOUND:                -0.617
REMARK SMILES CCCCCCCCC(=O)[O-]
REMARK SMILES IDX 6 1 7 2 8 3 9 4 10 5 11 6 5 7 4 8 3 9 2 10 1 11
REMARK H PARENT
REMARK Flexibility Score: inf
ROOT
ATOM      1  C   UNL     1       7.689   7.338   7.269  1.00  0.00     0.000 C 
ENDROOT
BRANCH   1   2
ATOM      2  C   UNL     1       7.966   7.937   5.874  1.00  0.00     0.006 C 
BRANCH   2   3
ATOM      3  C   UNL     1       6.707   8.364   5.102  1.00  0.00     0.053 C 
BRANCH   3   4
ATOM      4  C   UNL     1       5.765   7.219   4.889  1.00  0.00     0.041 C 
ATOM      5  O   UNL     1       6.129   6.213   4.227  1.00  0.00    -0.550 OA
ATOM      6  O   UNL     1       4.495   7.249   5.451  1.00  0.00    -0.550 OA
ENDBRANCH   3   4
ENDBRANCH   2   3
ENDBRANCH   1   2
BRANCH   1   7
ATOM      7  C   UNL     1       8.598   6.159   7.660  1.00  0.00     0.000 C 
BRANCH   7   8
ATOM      8  C   UNL     1       7.818   4.983   8.273  1.00  0.00    -0.000 C 
BRANCH   8   9
ATOM      9  C   UNL     1       6.782   4.392   7.302  1.00  0.00    -0.000 C 
BRANCH   9  10
ATOM     10  C   UNL     1       5.491   3.960   8.010  1.00  0.00    -0.003 C 
ATOM     11  C   UNL     1       4.572   5.153   8.252  1.00  0.00     0.004 C 
ENDBRANCH   9  10
ENDBRANCH   8   9
ENDBRANCH   7   8
ENDBRANCH   1   7
TORSDOF 7
ENDMDL
MODEL 2
REMARK VINA RESULT:    -4.438      5.677      7.324
REMARK INTER + INTRA:          -6.870
REMARK INTER:                  -6.202
REMARK INTRA:                  -0.668
REMARK UNBOUND:                -0.617
REMARK SMILES CCCCCCCCC(=O)[O-]
REMARK SMILES IDX 6 1 7 2 8 3 9 4 10 5 11 6 5 7 4 8 3 9 2 10 1 11
REMARK H PARENT
REMARK Flexibility Score: inf
ROOT
ATOM      1  C   UNL     1       1.394   8.414  12.523  1.00  0.00     0.000 C 
ENDROOT
BRANCH   1   2
ATOM      2  C   UNL     1       1.047   9.058  11.165  1.00  0.00     0.006 C 
BRANCH   2   3
ATOM      3  C   UNL     1       2.262   9.372  10.278  1.00  0.00     0.053 C 
BRANCH   3   4
ATOM      4  C   UNL     1       2.528   8.283   9.284  1.00  0.00     0.041 C 
ATOM      5  O   UNL     1       3.236   7.294   9.604  1.00  0.00    -0.550 OA
ATOM      6  O   UNL     1       1.965   8.346   8.016  1.00  0.00    -0.550 OA
ENDBRANCH   3   4
ENDBRANCH   2   3
ENDBRANCH   1   2
BRANCH   1   7
ATOM      7  C   UNL     1       0.612   7.130  12.852  1.00  0.00     0.000 C 
BRANCH   7   8
ATOM      8  C   UNL     1       0.647   6.101  11.709  1.00  0.00    -0.000 C 
BRANCH   8   9
ATOM      9  C   UNL     1      -0.752   5.573  11.348  1.00  0.00    -0.000 C 
BRANCH   9  10
ATOM     10  C   UNL     1      -0.948   5.415   9.833  1.00  0.00    -0.003 C 
ATOM     11  C   UNL     1      -1.125   6.771   9.159  1.00  0.00     0.004 C 
ENDBRANCH   9  10
ENDBRANCH   8   9
ENDBRANCH   7   8
ENDBRANCH   1   7
TORSDOF 7
ENDMDL
MODEL 3
REMARK VINA RESULT:    -4.402      6.142      8.207
REMARK INTER + INTRA:          -6.820
REMARK INTER:                  -6.163
REMARK INTRA:                  -0.656
REMARK UNBOUND:                -0.617
REMARK SMILES CCCCCCCCC(=O)[O-]
REMARK SMILES IDX 6 1 7 2 8 3 9 4 10 5 11 6 5 7 4 8 3 9 2 10 1 11
REMARK H PARENT
REMARK Flexibility Score: inf
ROOT
ATOM      1  C   UNL     1       0.392   5.885  11.923  1.00  0.00     0.000 C 
ENDROOT
BRANCH   1   2
ATOM      2  C   UNL     1      -0.983   5.469  11.361  1.00  0.00     0.006 C 
BRANCH   2   3
ATOM      3  C   UNL     1      -0.979   5.108   9.867  1.00  0.00     0.053 C 
BRANCH   3   4
ATOM      4  C   UNL     1      -0.625   6.283   9.007  1.00  0.00     0.041 C 
ATOM      5  O   UNL     1      -1.268   7.360   9.111  1.00  0.00    -0.550 OA
ATOM      6  O   UNL     1       0.436   6.198   8.115  1.00  0.00    -0.550 OA
ENDBRANCH   3   4
ENDBRANCH   2   3
ENDBRANCH   1   2
BRANCH   1   7
ATOM      7  C   UNL     1       0.349   7.000  12.984  1.00  0.00     0.000 C 
BRANCH   7   8
ATOM      8  C   UNL     1       1.225   8.209  12.614  1.00  0.00    -0.000 C 
BRANCH   8   9
ATOM      9  C   UNL     1       1.892   8.055  11.238  1.00  0.00    -0.000 C 
BRANCH   9  10
ATOM     10  C   UNL     1       1.674   9.279  10.337  1.00  0.00    -0.003 C 
ATOM     11  C   UNL     1       2.356   9.095   8.986  1.00  0.00     0.004 C 
ENDBRANCH   9  10
ENDBRANCH   8   9
ENDBRANCH   7   8
ENDBRANCH   1   7
TORSDOF 7
ENDMDL
MODEL 4
REMARK VINA RESULT:    -4.371      1.539      3.929
REMARK INTER + INTRA:          -6.776
REMARK INTER:                  -6.282
REMARK INTRA:                  -0.494
REMARK UNBOUND:                -0.617
REMARK SMILES CCCCCCCCC(=O)[O-]
REMARK SMILES IDX 6 1 7 2 8 3 9 4 10 5 11 6 5 7 4 8 3 9 2 10 1 11
REMARK H PARENT
REMARK Flexibility Score: inf
ROOT
ATOM      1  C   UNL     1       7.790   4.643   8.142  1.00  0.00     0.000 C 
ENDROOT
BRANCH   1   2
ATOM      2  C   UNL     1       6.529   4.389   7.290  1.00  0.00     0.006 C 
BRANCH   2   3
ATOM      3  C   UNL     1       5.276   4.017   8.099  1.00  0.00     0.053 C 
BRANCH   3   4
ATOM      4  C   UNL     1       4.016   4.412   7.392  1.00  0.00     0.041 C 
ATOM      5  O   UNL     1       3.123   3.554   7.163  1.00  0.00    -0.550 OA
ATOM      6  O   UNL     1       3.812   5.733   7.016  1.00  0.00    -0.550 OA
ENDBRANCH   3   4
ENDBRANCH   2   3
ENDBRANCH   1   2
BRANCH   1   7
ATOM      7  C   UNL     1       8.431   6.030   7.957  1.00  0.00     0.000 C 
BRANCH   7   8
ATOM      8  C   UNL     1       7.462   7.058   7.348  1.00  0.00    -0.000 C 
BRANCH   8   9
ATOM      9  C   UNL     1       8.043   7.754   6.107  1.00  0.00    -0.000 C 
BRANCH   9  10
ATOM     10  C   UNL     1       6.959   8.397   5.231  1.00  0.00    -0.003 C 
ATOM     11  C   UNL     1       5.931   7.363   4.782  1.00  0.00     0.004 C 
ENDBRANCH   9  10
ENDBRANCH   8   9
ENDBRANCH   7   8
ENDBRANCH   1   7
TORSDOF 7
ENDMDL
MODEL 5
REMARK VINA RESULT:    -4.302      1.249      3.828
REMARK INTER + INTRA:          -6.679
REMARK INTER:                  -6.115
REMARK INTRA:                  -0.564
REMARK UNBOUND:                -0.617
REMARK SMILES CCCCCCCCC(=O)[O-]
REMARK SMILES IDX 6 1 7 2 8 3 9 4 10 5 11 6 5 7 4 8 3 9 2 10 1 11
REMARK H PARENT
REMARK Flexibility Score: inf
ROOT
ATOM      1  C   UNL     1       6.652   4.464   7.251  1.00  0.00     0.000 C 
ENDROOT
BRANCH   1   2
ATOM      2  C   UNL     1       5.424   3.870   7.971  1.00  0.00     0.006 C 
BRANCH   2   3
ATOM      3  C   UNL     1       4.078   4.476   7.543  1.00  0.00     0.053 C 
BRANCH   3   4
ATOM      4  C   UNL     1       4.086   5.971   7.618  1.00  0.00     0.041 C 
ATOM      5  O   UNL     1       3.889   6.659   6.583  1.00  0.00    -0.550 OA
ATOM      6  O   UNL     1       4.279   6.606   8.839  1.00  0.00    -0.550 OA
ENDBRANCH   3   4
ENDBRANCH   2   3
ENDBRANCH   1   2
BRANCH   1   7
ATOM      7  C   UNL     1       7.871   4.725   8.154  1.00  0.00     0.000 C 
BRANCH   7   8
ATOM      8  C   UNL     1       8.549   6.076   7.867  1.00  0.00    -0.000 C 
BRANCH   8   9
ATOM      9  C   UNL     1       7.559   7.134   7.351  1.00  0.00    -0.000 C 
BRANCH   9  10
ATOM     10  C   UNL     1       7.996   7.743   6.011  1.00  0.00    -0.003 C 
ATOM     11  C   UNL     1       6.830   8.445   5.322  1.00  0.00     0.004 C 
ENDBRANCH   9  10
ENDBRANCH   8   9
ENDBRANCH   7   8
ENDBRANCH   1   7
TORSDOF 7
ENDMDL
MODEL 6
REMARK VINA RESULT:    -4.256      5.172      7.289
REMARK INTER + INTRA:          -6.614
REMARK INTER:                  -6.055
REMARK INTRA:                  -0.559
REMARK UNBOUND:                -0.617
REMARK SMILES CCCCCCCCC(=O)[O-]
REMARK SMILES IDX 6 1 7 2 8 3 9 4 10 5 11 6 5 7 4 8 3 9 2 10 1 11
REMARK H PARENT
REMARK Flexibility Score: inf
ROOT
ATOM      1  C   UNL     1      -0.746   5.569   9.851  1.00  0.00     0.000 C 
ENDROOT
BRANCH   1   2
ATOM      2  C   UNL     1       0.630   5.428   9.168  1.00  0.00     0.006 C 
BRANCH   2   3
ATOM      3  C   UNL     1       0.988   6.576   8.210  1.00  0.00     0.053 C 
BRANCH   3   4
ATOM      4  C   UNL     1       1.878   6.119   7.095  1.00  0.00     0.041 C 
ATOM      5  O   UNL     1       2.304   4.935   7.070  1.00  0.00    -0.550 OA
ATOM      6  O   UNL     1       2.210   6.991   6.067  1.00  0.00    -0.550 OA
ENDBRANCH   3   4
ENDBRANCH   2   3
ENDBRANCH   1   2
BRANCH   1   7
ATOM      7  C   UNL     1      -0.698   5.735  11.381  1.00  0.00     0.000 C 
BRANCH   7   8
ATOM      8  C   UNL     1       0.681   6.191  11.888  1.00  0.00    -0.000 C 
BRANCH   8   9
ATOM      9  C   UNL     1       0.587   7.364  12.878  1.00  0.00    -0.000 C 
BRANCH   9  10
ATOM     10  C   UNL     1       1.474   8.549  12.471  1.00  0.00    -0.003 C 
ATOM     11  C   UNL     1       1.156   9.011  11.052  1.00  0.00     0.004 C 
ENDBRANCH   9  10
ENDBRANCH   8   9
ENDBRANCH   7   8
ENDBRANCH   1   7
TORSDOF 7
ENDMDL
MODEL 7
REMARK VINA RESULT:    -4.208      1.252      2.764
REMARK INTER + INTRA:          -6.547
REMARK INTER:                  -5.842
REMARK INTRA:                  -0.704
REMARK UNBOUND:                -0.617
REMARK SMILES CCCCCCCCC(=O)[O-]
REMARK SMILES IDX 6 1 7 2 8 3 9 4 10 5 11 6 5 7 4 8 3 9 2 10 1 11
REMARK H PARENT
REMARK Flexibility Score: inf
ROOT
ATOM      1  C   UNL     1       4.807   6.516   8.471  1.00  0.00     0.000 C 
ENDROOT
BRANCH   1   2
ATOM      2  C   UNL     1       4.802   7.634   7.409  1.00  0.00     0.006 C 
BRANCH   2   3
ATOM      3  C   UNL     1       4.458   7.162   5.986  1.00  0.00     0.053 C 
BRANCH   3   4
ATOM      4  C   UNL     1       5.585   7.399   5.029  1.00  0.00     0.041 C 
ATOM      5  O   UNL     1       6.042   6.449   4.341  1.00  0.00    -0.550 OA
ATOM      6  O   UNL     1       6.110   8.675   4.874  1.00  0.00    -0.550 OA
ENDBRANCH   3   4
ENDBRANCH   2   3
ENDBRANCH   1   2
BRANCH   1   7
ATOM      7  C   UNL     1       4.478   5.111   7.936  1.00  0.00     0.000 C 
BRANCH   7   8
ATOM      8  C   UNL     1       5.623   4.106   8.154  1.00  0.00    -0.000 C 
BRANCH   8   9
ATOM      9  C   UNL     1       6.892   4.479   7.370  1.00  0.00    -0.000 C 
BRANCH   9  10
ATOM     10  C   UNL     1       8.040   4.925   8.286  1.00  0.00    -0.003 C 
ATOM     11  C   UNL     1       8.575   6.291   7.869  1.00  0.00     0.004 C 
ENDBRANCH   9  10
ENDBRANCH   8   9
ENDBRANCH   7   8
ENDBRANCH   1   7
TORSDOF 7
ENDMDL
MODEL 8
REMARK VINA RESULT:    -4.173      4.768      6.451
REMARK INTER + INTRA:          -6.497
REMARK INTER:                  -6.029
REMARK INTRA:                  -0.468
REMARK UNBOUND:                -0.617
REMARK SMILES CCCCCCCCC(=O)[O-]
REMARK SMILES IDX 6 1 7 2 8 3 9 4 10 5 11 6 5 7 4 8 3 9 2 10 1 11
REMARK H PARENT
REMARK Flexibility Score: inf
ROOT
ATOM      1  C   UNL     1       2.120   9.218   9.986  1.00  0.00     0.000 C 
ENDROOT
BRANCH   1   2
ATOM      2  C   UNL     1       2.511   8.602   8.628  1.00  0.00     0.006 C 
BRANCH   2   3
ATOM      3  C   UNL     1       2.335   7.077   8.544  1.00  0.00     0.053 C 
BRANCH   3   4
ATOM      4  C   UNL     1       2.424   6.579   7.134  1.00  0.00     0.041 C 
ATOM      5  O   UNL     1       2.308   7.381   6.171  1.00  0.00    -0.550 OA
ATOM      6  O   UNL     1       2.667   5.235   6.885  1.00  0.00    -0.550 OA
ENDBRANCH   3   4
ENDBRANCH   2   3
ENDBRANCH   1   2
BRANCH   1   7
ATOM      7  C   UNL     1       0.898   8.572  10.665  1.00  0.00     0.000 C 
BRANCH   7   8
ATOM      8  C   UNL     1       1.223   7.995  12.053  1.00  0.00    -0.000 C 
BRANCH   8   9
ATOM      9  C   UNL     1       0.522   6.651  12.312  1.00  0.00    -0.000 C 
BRANCH   9  10
ATOM     10  C   UNL     1      -0.108   6.062  11.041  1.00  0.00    -0.003 C 
ATOM     11  C   UNL     1      -1.308   5.183  11.381  1.00  0.00     0.004 C 
ENDBRANCH   9  10
ENDBRANCH   8   9
ENDBRANCH   7   8
ENDBRANCH   1   7
TORSDOF 7
ENDMDL
MODEL 9
REMARK VINA RESULT:    -4.106      5.593      7.364
REMARK INTER + INTRA:          -6.403
REMARK INTER:                  -5.648
REMARK INTRA:                  -0.755
REMARK UNBOUND:                -0.617
REMARK SMILES CCCCCCCCC(=O)[O-]
REMARK SMILES IDX 6 1 7 2 8 3 9 4 10 5 11 6 5 7 4 8 3 9 2 10 1 11
REMARK H PARENT
REMARK Flexibility Score: inf
ROOT
ATOM      1  C   UNL     1       2.864   6.796   9.500  1.00  0.00     0.000 C 
ENDROOT
BRANCH   1   2
ATOM      2  C   UNL     1       2.109   5.606   8.871  1.00  0.00     0.006 C 
BRANCH   2   3
ATOM      3  C   UNL     1       1.236   4.812   9.856  1.00  0.00     0.053 C 
BRANCH   3   4
ATOM      4  C   UNL     1      -0.203   5.224   9.787  1.00  0.00     0.041 C 
ATOM      5  O   UNL     1      -1.003   4.883  10.696  1.00  0.00    -0.550 OA
ATOM      6  O   UNL     1      -0.651   6.013   8.736  1.00  0.00    -0.550 OA
ENDBRANCH   3   4
ENDBRANCH   2   3
ENDBRANCH   1   2
BRANCH   1   7
ATOM      7  C   UNL     1       2.549   8.167   8.876  1.00  0.00     0.000 C 
BRANCH   7   8
ATOM      8  C   UNL     1       2.201   9.235   9.926  1.00  0.00    -0.000 C 
BRANCH   8   9
ATOM      9  C   UNL     1       0.970   8.857  10.766  1.00  0.00    -0.000 C 
BRANCH   9  10
ATOM     10  C   UNL     1       1.300   8.701  12.258  1.00  0.00    -0.003 C 
ATOM     11  C   UNL     1       0.863   7.335  12.777  1.00  0.00     0.004 C 
ENDBRANCH   9  10
ENDBRANCH   8   9
ENDBRANCH   7   8
ENDBRANCH   1   7
TORSDOF 7
ENDMDL
