MODEL 1
REMARK VINA RESULT:    -5.328      0.000      0.000
REMARK INTER + INTRA:          -5.484
REMARK INTER:                  -5.484
REMARK INTRA:                   0.000
REMARK UNBOUND:                 0.000
REMARK SMILES Oc1ccc2[nH]ccc2c1
REMARK SMILES IDX 3 1 4 2 5 3 9 4 8 5 7 6 6 7 10 8 2 9 1 11
REMARK H PARENT 6 10 1 12
REMARK Flexibility Score: inf
ROOT
ATOM      1  C   UNL     1      13.238   4.848  79.577  1.00  0.00     0.048 A 
ATOM      2  C   UNL     1      13.681   5.620  80.666  1.00  0.00     0.030 A 
ATOM      3  C   UNL     1      12.728   6.345  81.380  1.00  0.00     0.046 A 
ATOM      4  C   UNL     1      11.400   6.313  81.045  1.00  0.00     0.003 A 
ATOM      5  C   UNL     1      10.732   7.124  81.936  1.00  0.00     0.028 A 
ATOM      6  C   UNL     1      11.716   7.618  82.788  1.00  0.00     0.083 A 
ATOM      7  N   UNL     1      12.933   7.138  82.444  1.00  0.00    -0.361 N 
ATOM      8  C   UNL     1      10.929   5.558  79.973  1.00  0.00     0.056 A 
ATOM      9  C   UNL     1      11.868   4.814  79.228  1.00  0.00     0.116 A 
ATOM     10  H   UNL     1      13.843   7.346  82.912  1.00  0.00     0.166 HD
ENDROOT
BRANCH   9  11
ATOM     11  O   UNL     1      11.455   4.041  78.146  1.00  0.00    -0.508 OA
ATOM     12  H   UNL     1      12.017   3.962  77.307  1.00  0.00     0.293 HD
ENDBRANCH   9  11
TORSDOF 1
ENDMDL
MODEL 2
REMARK VINA RESULT:    -5.282      0.768      2.200
REMARK INTER + INTRA:          -5.437
REMARK INTER:                  -5.437
REMARK INTRA:                   0.000
REMARK UNBOUND:                 0.000
REMARK SMILES Oc1ccc2[nH]ccc2c1
REMARK SMILES IDX 3 1 4 2 5 3 9 4 8 5 7 6 6 7 10 8 2 9 1 11
REMARK H PARENT 6 10 1 12
REMARK Flexibility Score: inf
ROOT
ATOM      1  C   UNL     1      10.813   5.602  79.871  1.00  0.00     0.048 A 
ATOM      2  C   UNL     1      11.138   6.371  81.004  1.00  0.00     0.030 A 
ATOM      3  C   UNL     1      12.458   6.343  81.452  1.00  0.00     0.046 A 
ATOM      4  C   UNL     1      13.417   5.598  80.819  1.00  0.00     0.003 A 
ATOM      5  C   UNL     1      14.599   5.786  81.501  1.00  0.00     0.028 A 
ATOM      6  C   UNL     1      14.287   6.660  82.538  1.00  0.00     0.083 A 
ATOM      7  N   UNL     1      12.978   6.997  82.503  1.00  0.00    -0.361 N 
ATOM      8  C   UNL     1      13.128   4.826  79.696  1.00  0.00     0.056 A 
ATOM      9  C   UNL     1      11.801   4.830  79.217  1.00  0.00     0.116 A 
ATOM     10  H   UNL     1      12.478   7.635  83.161  1.00  0.00     0.166 HD
ENDROOT
BRANCH   9  11
ATOM     11  O   UNL     1      11.453   4.079  78.097  1.00  0.00    -0.508 OA
ATOM     12  H   UNL     1      11.207   3.100  78.174  1.00  0.00     0.293 HD
ENDBRANCH   9  11
TORSDOF 1
ENDMDL
MODEL 3
REMARK VINA RESULT:    -5.209     10.391     12.212
REMARK INTER + INTRA:          -5.361
REMARK INTER:                  -5.361
REMARK INTRA:                   0.000
REMARK UNBOUND:                 0.000
REMARK SMILES Oc1ccc2[nH]ccc2c1
REMARK SMILES IDX 3 1 4 2 5 3 9 4 8 5 7 6 6 7 10 8 2 9 1 11
REMARK H PARENT 6 10 1 12
REMARK Flexibility Score: inf
ROOT
ATOM      1  C   UNL     1      18.787  -0.051  76.883  1.00  0.00     0.048 A 
ATOM      2  C   UNL     1      19.447   0.568  75.806  1.00  0.00     0.030 A 
ATOM      3  C   UNL     1      20.296  -0.217  75.026  1.00  0.00     0.046 A 
ATOM      4  C   UNL     1      20.489  -1.547  75.289  1.00  0.00     0.003 A 
ATOM      5  C   UNL     1      21.372  -2.028  74.347  1.00  0.00     0.028 A 
ATOM      6  C   UNL     1      21.676  -0.935  73.541  1.00  0.00     0.083 A 
ATOM      7  N   UNL     1      21.016   0.169  73.960  1.00  0.00    -0.361 N 
ATOM      8  C   UNL     1      19.850  -2.190  76.347  1.00  0.00     0.056 A 
ATOM      9  C   UNL     1      18.985  -1.424  77.157  1.00  0.00     0.116 A 
ATOM     10  H   UNL     1      21.060   1.123  73.539  1.00  0.00     0.166 HD
ENDROOT
BRANCH   9  11
ATOM     11  O   UNL     1      18.319  -2.012  78.230  1.00  0.00    -0.508 OA
ATOM     12  H   UNL     1      17.769  -1.461  78.877  1.00  0.00     0.293 HD
ENDBRANCH   9  11
TORSDOF 1
ENDMDL
MODEL 4
REMARK VINA RESULT:    -5.154      1.217      2.025
REMARK INTER + INTRA:          -5.304
REMARK INTER:                  -5.304
REMARK INTRA:                   0.000
REMARK UNBOUND:                 0.000
REMARK SMILES Oc1ccc2[nH]ccc2c1
REMARK SMILES IDX 3 1 4 2 5 3 9 4 8 5 7 6 6 7 10 8 2 9 1 11
REMARK H PARENT 6 10 1 12
REMARK Flexibility Score: inf
ROOT
ATOM      1  C   UNL     1      11.553   4.880  79.186  1.00  0.00     0.048 A 
ATOM      2  C   UNL     1      10.638   5.686  79.888  1.00  0.00     0.030 A 
ATOM      3  C   UNL     1      11.113   6.403  80.986  1.00  0.00     0.046 A 
ATOM      4  C   UNL     1      12.423   6.335  81.378  1.00  0.00     0.003 A 
ATOM      5  C   UNL     1      12.565   7.151  82.479  1.00  0.00     0.028 A 
ATOM      6  C   UNL     1      11.299   7.685  82.703  1.00  0.00     0.083 A 
ATOM      7  N   UNL     1      10.416   7.225  81.788  1.00  0.00    -0.361 N 
ATOM      8  C   UNL     1      13.353   5.547  80.705  1.00  0.00     0.056 A 
ATOM      9  C   UNL     1      12.906   4.807  79.590  1.00  0.00     0.116 A 
ATOM     10  H   UNL     1       9.402   7.463  81.722  1.00  0.00     0.166 HD
ENDROOT
BRANCH   9  11
ATOM     11  O   UNL     1      13.791   4.002  78.877  1.00  0.00    -0.508 OA
ATOM     12  H   UNL     1      14.677   3.711  79.272  1.00  0.00     0.293 HD
ENDBRANCH   9  11
TORSDOF 1
ENDMDL
MODEL 5
REMARK VINA RESULT:    -5.111     10.609     11.700
REMARK INTER + INTRA:          -5.260
REMARK INTER:                  -5.260
REMARK INTRA:                   0.000
REMARK UNBOUND:                 0.000
REMARK SMILES Oc1ccc2[nH]ccc2c1
REMARK SMILES IDX 3 1 4 2 5 3 9 4 8 5 7 6 6 7 10 8 2 9 1 11
REMARK H PARENT 6 10 1 12
REMARK Flexibility Score: inf
ROOT
ATOM      1  C   UNL     1      19.933  -2.387  76.398  1.00  0.00     0.048 A 
ATOM      2  C   UNL     1      20.665  -1.944  75.281  1.00  0.00     0.030 A 
ATOM      3  C   UNL     1      20.465  -0.634  74.850  1.00  0.00     0.046 A 
ATOM      4  C   UNL     1      19.588   0.206  75.484  1.00  0.00     0.003 A 
ATOM      5  C   UNL     1      19.624   1.413  74.821  1.00  0.00     0.028 A 
ATOM      6  C   UNL     1      20.545   1.238  73.793  1.00  0.00     0.083 A 
ATOM      7  N   UNL     1      21.056  -0.014  73.815  1.00  0.00    -0.361 N 
ATOM      8  C   UNL     1      18.848  -0.201  76.591  1.00  0.00     0.056 A 
ATOM      9  C   UNL     1      19.026  -1.522  77.053  1.00  0.00     0.116 A 
ATOM     10  H   UNL     1      21.764  -0.414  73.160  1.00  0.00     0.166 HD
ENDROOT
BRANCH   9  11
ATOM     11  O   UNL     1      18.314  -1.985  78.157  1.00  0.00    -0.508 OA
ATOM     12  H   UNL     1      17.747  -1.363  78.719  1.00  0.00     0.293 HD
ENDBRANCH   9  11
TORSDOF 1
ENDMDL
MODEL 6
REMARK VINA RESULT:    -5.079      1.888      2.731
REMARK INTER + INTRA:          -5.228
REMARK INTER:                  -5.228
REMARK INTRA:                   0.000
REMARK UNBOUND:                 0.000
REMARK SMILES Oc1ccc2[nH]ccc2c1
REMARK SMILES IDX 3 1 4 2 5 3 9 4 8 5 7 6 6 7 10 8 2 9 1 11
REMARK H PARENT 6 10 1 12
REMARK Flexibility Score: inf
ROOT
ATOM      1  C   UNL     1      11.031   5.443  79.741  1.00  0.00     0.048 A 
ATOM      2  C   UNL     1      12.407   5.184  79.601  1.00  0.00     0.030 A 
ATOM      3  C   UNL     1      13.262   5.655  80.597  1.00  0.00     0.046 A 
ATOM      4  C   UNL     1      12.792   6.347  81.681  1.00  0.00     0.003 A 
ATOM      5  C   UNL     1      13.877   6.665  82.467  1.00  0.00     0.028 A 
ATOM      6  C   UNL     1      14.978   6.135  81.802  1.00  0.00     0.083 A 
ATOM      7  N   UNL     1      14.596   5.518  80.660  1.00  0.00    -0.361 N 
ATOM      8  C   UNL     1      11.436   6.621  81.848  1.00  0.00     0.056 A 
ATOM      9  C   UNL     1      10.543   6.159  80.858  1.00  0.00     0.116 A 
ATOM     10  H   UNL     1      15.216   5.036  79.971  1.00  0.00     0.166 HD
ENDROOT
BRANCH   9  11
ATOM     11  O   UNL     1       9.177   6.402  80.972  1.00  0.00    -0.508 OA
ATOM     12  H   UNL     1       8.521   6.075  80.273  1.00  0.00     0.293 HD
ENDBRANCH   9  11
TORSDOF 1
ENDMDL
MODEL 7
REMARK VINA RESULT:    -5.008      1.755      3.129
REMARK INTER + INTRA:          -5.155
REMARK INTER:                  -5.155
REMARK INTRA:                   0.000
REMARK UNBOUND:                 0.000
REMARK SMILES Oc1ccc2[nH]ccc2c1
REMARK SMILES IDX 3 1 4 2 5 3 9 4 8 5 7 6 6 7 10 8 2 9 1 11
REMARK H PARENT 6 10 1 12
REMARK Flexibility Score: inf
ROOT
ATOM      1  C   UNL     1      11.259   7.005  82.191  1.00  0.00     0.048 A 
ATOM      2  C   UNL     1      12.664   7.005  82.273  1.00  0.00     0.030 A 
ATOM      3  C   UNL     1      13.373   6.324  81.284  1.00  0.00     0.046 A 
ATOM      4  C   UNL     1      12.736   5.674  80.261  1.00  0.00     0.003 A 
ATOM      5  C   UNL     1      13.709   5.110  79.464  1.00  0.00     0.028 A 
ATOM      6  C   UNL     1      14.916   5.459  80.062  1.00  0.00     0.083 A 
ATOM      7  N   UNL     1      14.705   6.201  81.173  1.00  0.00    -0.361 N 
ATOM      8  C   UNL     1      11.347   5.654  80.152  1.00  0.00     0.056 A 
ATOM      9  C   UNL     1      10.599   6.332  81.137  1.00  0.00     0.116 A 
ATOM     10  H   UNL     1      15.432   6.594  81.811  1.00  0.00     0.166 HD
ENDROOT
BRANCH   9  11
ATOM     11  O   UNL     1       9.208   6.348  81.079  1.00  0.00    -0.508 OA
ATOM     12  H   UNL     1       8.667   5.494  81.136  1.00  0.00     0.293 HD
ENDBRANCH   9  11
TORSDOF 1
ENDMDL
MODEL 8
REMARK VINA RESULT:    -4.965      6.548      8.239
REMARK INTER + INTRA:          -5.110
REMARK INTER:                  -5.110
REMARK INTRA:                   0.000
REMARK UNBOUND:                 0.000
REMARK SMILES Oc1ccc2[nH]ccc2c1
REMARK SMILES IDX 3 1 4 2 5 3 9 4 8 5 7 6 6 7 10 8 2 9 1 11
REMARK H PARENT 6 10 1 12
REMARK Flexibility Score: inf
ROOT
ATOM      1  C   UNL     1      12.370   3.545  75.407  1.00  0.00     0.048 A 
ATOM      2  C   UNL     1      13.721   3.360  75.062  1.00  0.00     0.030 A 
ATOM      3  C   UNL     1      14.050   2.244  74.294  1.00  0.00     0.046 A 
ATOM      4  C   UNL     1      13.099   1.349  73.882  1.00  0.00     0.003 A 
ATOM      5  C   UNL     1      13.742   0.374  73.150  1.00  0.00     0.028 A 
ATOM      6  C   UNL     1      15.085   0.739  73.158  1.00  0.00     0.083 A 
ATOM      7  N   UNL     1      15.267   1.882  73.858  1.00  0.00    -0.361 N 
ATOM      8  C   UNL     1      11.753   1.503  74.206  1.00  0.00     0.056 A 
ATOM      9  C   UNL     1      11.386   2.622  74.984  1.00  0.00     0.116 A 
ATOM     10  H   UNL     1      16.171   2.378  74.022  1.00  0.00     0.166 HD
ENDROOT
BRANCH   9  11
ATOM     11  O   UNL     1      10.055   2.828  75.338  1.00  0.00    -0.508 OA
ATOM     12  H   UNL     1       9.430   3.370  74.755  1.00  0.00     0.293 HD
ENDBRANCH   9  11
TORSDOF 1
ENDMDL
MODEL 9
REMARK VINA RESULT:    -4.949      7.417      8.366
REMARK INTER + INTRA:          -5.094
REMARK INTER:                  -5.094
REMARK INTRA:                   0.000
REMARK UNBOUND:                 0.000
REMARK SMILES Oc1ccc2[nH]ccc2c1
REMARK SMILES IDX 3 1 4 2 5 3 9 4 8 5 7 6 6 7 10 8 2 9 1 11
REMARK H PARENT 6 10 1 12
REMARK Flexibility Score: inf
ROOT
ATOM      1  C   UNL     1      16.370   1.859  73.784  1.00  0.00     0.048 A 
ATOM      2  C   UNL     1      15.234   1.116  73.412  1.00  0.00     0.030 A 
ATOM      3  C   UNL     1      13.988   1.582  73.829  1.00  0.00     0.046 A 
ATOM      4  C   UNL     1      13.859   2.723  74.576  1.00  0.00     0.003 A 
ATOM      5  C   UNL     1      12.515   2.905  74.818  1.00  0.00     0.028 A 
ATOM      6  C   UNL     1      11.883   1.837  74.189  1.00  0.00     0.083 A 
ATOM      7  N   UNL     1      12.787   1.032  73.586  1.00  0.00    -0.361 N 
ATOM      8  C   UNL     1      14.963   3.480  74.961  1.00  0.00     0.056 A 
ATOM      9  C   UNL     1      16.240   3.036  74.556  1.00  0.00     0.116 A 
ATOM     10  H   UNL     1      12.588   0.162  73.044  1.00  0.00     0.166 HD
ENDROOT
BRANCH   9  11
ATOM     11  O   UNL     1      17.380   3.753  74.911  1.00  0.00    -0.508 OA
ATOM     12  H   UNL     1      18.304   3.344  74.843  1.00  0.00     0.293 HD
ENDBRANCH   9  11
TORSDOF 1
ENDMDL
