MODEL 1
REMARK VINA RESULT:    -3.890      0.000      0.000
REMARK INTER + INTRA:          -5.402
REMARK INTER:                  -5.140
REMARK INTRA:                  -0.262
REMARK UNBOUND:                -0.262
REMARK SMILES C=C[C@@H](O)CCCCC
REMARK SMILES IDX 6 1 7 2 8 3 9 4 5 5 3 6 2 7 1 8 4 9
REMARK H PARENT 4 10
REMARK Flexibility Score: inf
ROOT
ATOM      1  C   UNL     1     120.434 118.498 114.955  1.00  0.00     0.003 C 
ENDROOT
BRANCH   1   2
ATOM      2  C   UNL     1     121.652 119.239 114.384  1.00  0.00    -0.000 C 
BRANCH   2   3
ATOM      3  C   UNL     1     122.829 119.289 115.371  1.00  0.00    -0.003 C 
ATOM      4  C   UNL     1     123.558 120.633 115.354  1.00  0.00     0.004 C 
ENDBRANCH   2   3
ENDBRANCH   1   2
BRANCH   1   5
ATOM      5  C   UNL     1     120.867 117.237 115.718  1.00  0.00     0.036 C 
BRANCH   5   6
ATOM      6  C   UNL     1     119.819 116.801 116.762  1.00  0.00     0.136 C 
BRANCH   6   7
ATOM      7  C   UNL     1     119.595 117.880 117.798  1.00  0.00    -0.004 C 
ATOM      8  C   UNL     1     118.484 117.928 118.541  1.00  0.00     0.007 C 
ENDBRANCH   6   7
BRANCH   6   9
ATOM      9  O   UNL     1     118.603 116.489 116.131  1.00  0.00    -0.389 OA
ATOM     10  H   UNL     1     118.402 115.533 116.314  1.00  0.00     0.211 HD
ENDBRANCH   6   9
ENDBRANCH   5   6
ENDBRANCH   1   5
TORSDOF 6
ENDMDL
MODEL 2
REMARK VINA RESULT:    -3.797     14.426     15.847
REMARK INTER + INTRA:          -5.280
REMARK INTER:                  -4.797
REMARK INTRA:                  -0.482
REMARK UNBOUND:                -0.262
REMARK SMILES C=C[C@@H](O)CCCCC
REMARK SMILES IDX 6 1 7 2 8 3 9 4 5 5 3 6 2 7 1 8 4 9
REMARK H PARENT 4 10
REMARK Flexibility Score: inf
ROOT
ATOM      1  C   UNL     1     117.298 131.367 125.395  1.00  0.00     0.003 C 
ENDROOT
BRANCH   1   2
ATOM      2  C   UNL     1     115.911 132.006 125.565  1.00  0.00    -0.000 C 
BRANCH   2   3
ATOM      3  C   UNL     1     114.788 131.147 124.964  1.00  0.00    -0.003 C 
ATOM      4  C   UNL     1     114.516 131.472 123.495  1.00  0.00     0.004 C 
ENDBRANCH   2   3
ENDBRANCH   1   2
BRANCH   1   5
ATOM      5  C   UNL     1     117.486 130.197 126.373  1.00  0.00     0.036 C 
BRANCH   5   6
ATOM      6  C   UNL     1     117.800 128.876 125.644  1.00  0.00     0.136 C 
BRANCH   6   7
ATOM      7  C   UNL     1     116.588 127.972 125.597  1.00  0.00    -0.004 C 
ATOM      8  C   UNL     1     115.767 127.834 126.644  1.00  0.00     0.007 C 
ENDBRANCH   6   7
BRANCH   6   9
ATOM      9  O   UNL     1     118.249 129.134 124.337  1.00  0.00    -0.389 OA
ATOM     10  H   UNL     1     119.107 128.650 124.209  1.00  0.00     0.211 HD
ENDBRANCH   6   9
ENDBRANCH   5   6
ENDBRANCH   1   5
TORSDOF 6
ENDMDL
MODEL 3
REMARK VINA RESULT:    -3.774     13.380     14.779
REMARK INTER + INTRA:          -5.249
REMARK INTER:                  -4.929
REMARK INTRA:                  -0.320
REMARK UNBOUND:                -0.262
REMARK SMILES C=C[C@@H](O)CCCCC
REMARK SMILES IDX 6 1 7 2 8 3 9 4 5 5 3 6 2 7 1 8 4 9
REMARK H PARENT 4 10
REMARK Flexibility Score: inf
ROOT
ATOM      1  C   UNL     1     116.843 128.775 126.598  1.00  0.00     0.003 C 
ENDROOT
BRANCH   1   2
ATOM      2  C   UNL     1     117.796 128.495 125.427  1.00  0.00    -0.000 C 
BRANCH   2   3
ATOM      3  C   UNL     1     118.891 129.563 125.288  1.00  0.00    -0.003 C 
ATOM      4  C   UNL     1     118.482 130.911 125.881  1.00  0.00     0.004 C 
ENDBRANCH   2   3
ENDBRANCH   1   2
BRANCH   1   5
ATOM      5  C   UNL     1     115.490 128.080 126.383  1.00  0.00     0.036 C 
BRANCH   5   6
ATOM      6  C   UNL     1     115.259 126.935 127.389  1.00  0.00     0.136 C 
BRANCH   6   7
ATOM      7  C   UNL     1     115.100 125.607 126.683  1.00  0.00    -0.004 C 
ATOM      8  C   UNL     1     115.765 125.319 125.560  1.00  0.00     0.007 C 
ENDBRANCH   6   7
BRANCH   6   9
ATOM      9  O   UNL     1     116.327 126.863 128.300  1.00  0.00    -0.389 OA
ATOM     10  H   UNL     1     115.958 126.591 129.181  1.00  0.00     0.211 HD
ENDBRANCH   6   9
ENDBRANCH   5   6
ENDBRANCH   1   5
TORSDOF 6
ENDMDL
MODEL 4
REMARK VINA RESULT:    -3.755     14.667     16.258
REMARK INTER + INTRA:          -5.224
REMARK INTER:                  -4.910
REMARK INTRA:                  -0.314
REMARK UNBOUND:                -0.262
REMARK SMILES C=C[C@@H](O)CCCCC
REMARK SMILES IDX 6 1 7 2 8 3 9 4 5 5 3 6 2 7 1 8 4 9
REMARK H PARENT 4 10
REMARK Flexibility Score: inf
ROOT
ATOM      1  C   UNL     1     109.673 116.818 127.553  1.00  0.00     0.003 C 
ENDROOT
BRANCH   1   2
ATOM      2  C   UNL     1     110.741 116.136 126.685  1.00  0.00    -0.000 C 
BRANCH   2   3
ATOM      3  C   UNL     1     110.155 115.515 125.407  1.00  0.00    -0.003 C 
ATOM      4  C   UNL     1     109.467 116.545 124.511  1.00  0.00     0.004 C 
ENDBRANCH   2   3
ENDBRANCH   1   2
BRANCH   1   5
ATOM      5  C   UNL     1     109.406 116.010 128.832  1.00  0.00     0.036 C 
BRANCH   5   6
ATOM      6  C   UNL     1     110.062 116.650 130.072  1.00  0.00     0.136 C 
BRANCH   6   7
ATOM      7  C   UNL     1     111.115 115.742 130.667  1.00  0.00    -0.004 C 
ATOM      8  C   UNL     1     112.306 115.564 130.087  1.00  0.00     0.007 C 
ENDBRANCH   6   7
BRANCH   6   9
ATOM      9  O   UNL     1     110.638 117.887 129.734  1.00  0.00    -0.389 OA
ATOM     10  H   UNL     1     111.256 117.736 128.971  1.00  0.00     0.211 HD
ENDBRANCH   6   9
ENDBRANCH   5   6
ENDBRANCH   1   5
TORSDOF 6
ENDMDL
MODEL 5
REMARK VINA RESULT:    -3.746     15.636     16.667
REMARK INTER + INTRA:          -5.213
REMARK INTER:                  -4.580
REMARK INTRA:                  -0.632
REMARK UNBOUND:                -0.262
REMARK SMILES C=C[C@@H](O)CCCCC
REMARK SMILES IDX 6 1 7 2 8 3 9 4 5 5 3 6 2 7 1 8 4 9
REMARK H PARENT 4 10
REMARK Flexibility Score: inf
ROOT
ATOM      1  C   UNL     1     109.490 116.069 128.751  1.00  0.00     0.003 C 
ENDROOT
BRANCH   1   2
ATOM      2  C   UNL     1     109.808 116.530 127.320  1.00  0.00    -0.000 C 
BRANCH   2   3
ATOM      3  C   UNL     1     109.147 117.872 126.971  1.00  0.00    -0.003 C 
ATOM      4  C   UNL     1     109.847 119.064 127.624  1.00  0.00     0.004 C 
ENDBRANCH   2   3
ENDBRANCH   1   2
BRANCH   1   5
ATOM      5  C   UNL     1     110.778 115.733 129.518  1.00  0.00     0.036 C 
BRANCH   5   6
ATOM      6  C   UNL     1     111.100 116.782 130.600  1.00  0.00     0.136 C 
BRANCH   6   7
ATOM      7  C   UNL     1     112.254 117.667 130.181  1.00  0.00    -0.004 C 
ATOM      8  C   UNL     1     113.023 117.374 129.128  1.00  0.00     0.007 C 
ENDBRANCH   6   7
BRANCH   6   9
ATOM      9  O   UNL     1     109.969 117.573 130.865  1.00  0.00    -0.389 OA
ATOM     10  H   UNL     1     109.966 118.325 130.216  1.00  0.00     0.211 HD
ENDBRANCH   6   9
ENDBRANCH   5   6
ENDBRANCH   1   5
TORSDOF 6
ENDMDL
MODEL 6
REMARK VINA RESULT:    -3.611     13.959     15.606
REMARK INTER + INTRA:          -5.035
REMARK INTER:                  -4.747
REMARK INTRA:                  -0.287
REMARK UNBOUND:                -0.262
REMARK SMILES C=C[C@@H](O)CCCCC
REMARK SMILES IDX 6 1 7 2 8 3 9 4 5 5 3 6 2 7 1 8 4 9
REMARK H PARENT 4 10
REMARK Flexibility Score: inf
ROOT
ATOM      1  C   UNL     1     117.869 127.742 125.519  1.00  0.00     0.003 C 
ENDROOT
BRANCH   1   2
ATOM      2  C   UNL     1     116.677 126.837 125.867  1.00  0.00    -0.000 C 
BRANCH   2   3
ATOM      3  C   UNL     1     115.627 127.551 126.732  1.00  0.00    -0.003 C 
ATOM      4  C   UNL     1     114.566 126.597 127.282  1.00  0.00     0.004 C 
ENDBRANCH   2   3
ENDBRANCH   1   2
BRANCH   1   5
ATOM      5  C   UNL     1     117.413 129.194 125.312  1.00  0.00     0.036 C 
BRANCH   5   6
ATOM      6  C   UNL     1     118.601 130.176 125.267  1.00  0.00     0.136 C 
BRANCH   6   7
ATOM      7  C   UNL     1     118.428 131.295 126.270  1.00  0.00    -0.004 C 
ATOM      8  C   UNL     1     117.383 131.344 127.102  1.00  0.00     0.007 C 
ENDBRANCH   6   7
BRANCH   6   9
ATOM      9  O   UNL     1     119.805 129.495 125.519  1.00  0.00    -0.389 OA
ATOM     10  H   UNL     1     119.642 128.526 125.373  1.00  0.00     0.211 HD
ENDBRANCH   6   9
ENDBRANCH   5   6
ENDBRANCH   1   5
TORSDOF 6
ENDMDL
MODEL 7
REMARK VINA RESULT:    -3.602     14.289     16.350
REMARK INTER + INTRA:          -5.022
REMARK INTER:                  -4.725
REMARK INTRA:                  -0.297
REMARK UNBOUND:                -0.262
REMARK SMILES C=C[C@@H](O)CCCCC
REMARK SMILES IDX 6 1 7 2 8 3 9 4 5 5 3 6 2 7 1 8 4 9
REMARK H PARENT 4 10
REMARK Flexibility Score: inf
ROOT
ATOM      1  C   UNL     1     109.920 116.498 127.201  1.00  0.00     0.003 C 
ENDROOT
BRANCH   1   2
ATOM      2  C   UNL     1     109.390 115.978 128.546  1.00  0.00    -0.000 C 
BRANCH   2   3
ATOM      3  C   UNL     1     110.458 116.003 129.651  1.00  0.00    -0.003 C 
ATOM      4  C   UNL     1     110.155 117.028 130.744  1.00  0.00     0.004 C 
ENDBRANCH   2   3
ENDBRANCH   1   2
BRANCH   1   5
ATOM      5  C   UNL     1     109.274 117.845 126.841  1.00  0.00     0.036 C 
BRANCH   5   6
ATOM      6  C   UNL     1     110.037 119.037 127.454  1.00  0.00     0.136 C 
BRANCH   6   7
ATOM      7  C   UNL     1     110.884 119.738 126.416  1.00  0.00    -0.004 C 
ATOM      8  C   UNL     1     110.451 119.941 125.167  1.00  0.00     0.007 C 
ENDBRANCH   6   7
BRANCH   6   9
ATOM      9  O   UNL     1     109.134 119.950 128.025  1.00  0.00    -0.389 OA
ATOM     10  H   UNL     1     109.560 120.328 128.840  1.00  0.00     0.211 HD
ENDBRANCH   6   9
ENDBRANCH   5   6
ENDBRANCH   1   5
TORSDOF 6
ENDMDL
MODEL 8
REMARK VINA RESULT:    -3.544      2.080      3.115
REMARK INTER + INTRA:          -4.946
REMARK INTER:                  -4.450
REMARK INTRA:                  -0.495
REMARK UNBOUND:                -0.262
REMARK SMILES C=C[C@@H](O)CCCCC
REMARK SMILES IDX 6 1 7 2 8 3 9 4 5 5 3 6 2 7 1 8 4 9
REMARK H PARENT 4 10
REMARK Flexibility Score: inf
ROOT
ATOM      1  C   UNL     1     124.502 117.271 115.971  1.00  0.00     0.003 C 
ENDROOT
BRANCH   1   2
ATOM      2  C   UNL     1     125.260 118.583 115.720  1.00  0.00    -0.000 C 
BRANCH   2   3
ATOM      3  C   UNL     1     124.477 119.555 114.824  1.00  0.00    -0.003 C 
ATOM      4  C   UNL     1     123.817 120.686 115.613  1.00  0.00     0.004 C 
ENDBRANCH   2   3
ENDBRANCH   1   2
BRANCH   1   5
ATOM      5  C   UNL     1     123.278 117.159 115.050  1.00  0.00     0.036 C 
BRANCH   5   6
ATOM      6  C   UNL     1     121.988 116.847 115.833  1.00  0.00     0.136 C 
BRANCH   6   7
ATOM      7  C   UNL     1     120.965 117.949 115.670  1.00  0.00    -0.004 C 
ATOM      8  C   UNL     1     120.889 118.684 114.555  1.00  0.00     0.007 C 
ENDBRANCH   6   7
BRANCH   6   9
ATOM      9  O   UNL     1     121.440 115.625 115.404  1.00  0.00    -0.389 OA
ATOM     10  H   UNL     1     120.850 115.286 116.127  1.00  0.00     0.211 HD
ENDBRANCH   6   9
ENDBRANCH   5   6
ENDBRANCH   1   5
TORSDOF 6
ENDMDL
MODEL 9
REMARK VINA RESULT:    -3.388     15.081     16.094
REMARK INTER + INTRA:          -4.739
REMARK INTER:                  -4.363
REMARK INTRA:                  -0.375
REMARK UNBOUND:                -0.262
REMARK SMILES C=C[C@@H](O)CCCCC
REMARK SMILES IDX 6 1 7 2 8 3 9 4 5 5 3 6 2 7 1 8 4 9
REMARK H PARENT 4 10
REMARK Flexibility Score: inf
ROOT
ATOM      1  C   UNL     1     110.000 116.002 126.504  1.00  0.00     0.003 C 
ENDROOT
BRANCH   1   2
ATOM      2  C   UNL     1     109.683 117.233 125.642  1.00  0.00    -0.000 C 
BRANCH   2   3
ATOM      3  C   UNL     1     110.058 118.552 126.336  1.00  0.00    -0.003 C 
ATOM      4  C   UNL     1     108.875 119.197 127.057  1.00  0.00     0.004 C 
ENDBRANCH   2   3
ENDBRANCH   1   2
BRANCH   1   5
ATOM      5  C   UNL     1     110.855 116.389 127.720  1.00  0.00     0.036 C 
BRANCH   5   6
ATOM      6  C   UNL     1     110.248 115.880 129.043  1.00  0.00     0.136 C 
BRANCH   6   7
ATOM      7  C   UNL     1     110.450 116.879 130.160  1.00  0.00    -0.004 C 
ATOM      8  C   UNL     1     111.607 117.526 130.330  1.00  0.00     0.007 C 
ENDBRANCH   6   7
BRANCH   6   9
ATOM      9  O   UNL     1     108.876 115.620 128.881  1.00  0.00    -0.389 OA
ATOM     10  H   UNL     1     108.725 115.368 127.932  1.00  0.00     0.211 HD
ENDBRANCH   6   9
ENDBRANCH   5   6
ENDBRANCH   1   5
TORSDOF 6
ENDMDL
