MODEL 1
REMARK VINA RESULT:    -2.468      0.000      0.000
REMARK INTER + INTRA:          -4.332
REMARK INTER:                  -3.622
REMARK INTRA:                  -0.710
REMARK UNBOUND:                -0.710
REMARK SMILES O=C([O-])CCCCCCCC(=O)[O-]
REMARK SMILES IDX 7 1 6 2 5 3 4 4 2 5 1 6 3 7 8 8 9 9 10 10 11 11 12 12 13 13
REMARK H PARENT
REMARK Flexibility Score: inf
ROOT
ATOM      1  C   UNL     1      -3.144 -10.574   4.309  1.00  0.00     0.000 C 
ENDROOT
BRANCH   1   2
ATOM      2  C   UNL     1      -3.279 -10.251   2.811  1.00  0.00     0.000 C 
BRANCH   2   3
ATOM      3  C   UNL     1      -4.634  -9.620   2.459  1.00  0.00     0.006 C 
BRANCH   3   4
ATOM      4  C   UNL     1      -4.485  -8.120   2.189  1.00  0.00     0.053 C 
BRANCH   4   5
ATOM      5  C   UNL     1      -5.027  -7.324   3.334  1.00  0.00     0.041 C 
ATOM      6  O   UNL     1      -4.796  -6.089   3.414  1.00  0.00    -0.550 OA
ATOM      7  O   UNL     1      -5.745  -7.957   4.342  1.00  0.00    -0.550 OA
ENDBRANCH   4   5
ENDBRANCH   3   4
ENDBRANCH   2   3
ENDBRANCH   1   2
BRANCH   1   8
ATOM      8  C   UNL     1      -1.843 -10.023   4.917  1.00  0.00     0.000 C 
BRANCH   8   9
ATOM      9  C   UNL     1      -1.311  -8.796   4.159  1.00  0.00     0.006 C 
BRANCH   9  10
ATOM     10  C   UNL     1      -1.605  -7.478   4.888  1.00  0.00     0.053 C 
BRANCH  10  11
ATOM     11  C   UNL     1      -0.416  -6.571   4.825  1.00  0.00     0.041 C 
ATOM     12  O   UNL     1       0.743  -7.054   4.725  1.00  0.00    -0.550 OA
ATOM     13  O   UNL     1      -0.591  -5.194   4.827  1.00  0.00    -0.550 OA
ENDBRANCH  10  11
ENDBRANCH   9  10
ENDBRANCH   8   9
ENDBRANCH   1   8
TORSDOF 8
ENDMDL
MODEL 2
REMARK VINA RESULT:    -2.467      0.757      4.564
REMARK INTER + INTRA:          -4.331
REMARK INTER:                  -3.720
REMARK INTRA:                  -0.611
REMARK UNBOUND:                -0.710
REMARK SMILES O=C([O-])CCCCCCCC(=O)[O-]
REMARK SMILES IDX 7 1 6 2 5 3 4 4 2 5 1 6 3 7 8 8 9 9 10 10 11 11 12 12 13 13
REMARK H PARENT
REMARK Flexibility Score: inf
ROOT
ATOM      1  C   UNL     1      -2.305  -9.359   2.883  1.00  0.00     0.000 C 
ENDROOT
BRANCH   1   2
ATOM      2  C   UNL     1      -1.138  -9.774   3.795  1.00  0.00     0.000 C 
BRANCH   2   3
ATOM      3  C   UNL     1      -1.120  -9.007   5.125  1.00  0.00     0.006 C 
BRANCH   3   4
ATOM      4  C   UNL     1      -1.610  -7.569   4.933  1.00  0.00     0.053 C 
BRANCH   4   5
ATOM      5  C   UNL     1      -0.456  -6.616   4.933  1.00  0.00     0.041 C 
ATOM      6  O   UNL     1      -0.655  -5.379   4.820  1.00  0.00    -0.550 OA
ATOM      7  O   UNL     1       0.844  -7.101   5.007  1.00  0.00    -0.550 OA
ENDBRANCH   4   5
ENDBRANCH   3   4
ENDBRANCH   2   3
ENDBRANCH   1   2
BRANCH   1   8
ATOM      8  C   UNL     1      -3.564 -10.214   3.111  1.00  0.00     0.000 C 
BRANCH   8   9
ATOM      9  C   UNL     1      -4.855  -9.379   3.093  1.00  0.00     0.006 C 
BRANCH   9  10
ATOM     10  C   UNL     1      -4.662  -8.005   2.437  1.00  0.00     0.053 C 
BRANCH  10  11
ATOM     11  C   UNL     1      -5.321  -6.940   3.255  1.00  0.00     0.041 C 
ATOM     12  O   UNL     1      -4.719  -5.858   3.489  1.00  0.00    -0.550 OA
ATOM     13  O   UNL     1      -6.617  -7.121   3.719  1.00  0.00    -0.550 OA
ENDBRANCH  10  11
ENDBRANCH   9  10
ENDBRANCH   8   9
ENDBRANCH   1   8
TORSDOF 8
ENDMDL
MODEL 3
REMARK VINA RESULT:    -2.433      2.289      5.649
REMARK INTER + INTRA:          -4.280
REMARK INTER:                  -3.940
REMARK INTRA:                  -0.341
REMARK UNBOUND:                -0.710
REMARK SMILES O=C([O-])CCCCCCCC(=O)[O-]
REMARK SMILES IDX 7 1 6 2 5 3 4 4 2 5 1 6 3 7 8 8 9 9 10 10 11 11 12 12 13 13
REMARK H PARENT
REMARK Flexibility Score: inf
ROOT
ATOM      1  C   UNL     1      -2.997  -9.161   2.920  1.00  0.00     0.000 C 
ENDROOT
BRANCH   1   2
ATOM      2  C   UNL     1      -1.490  -9.221   3.222  1.00  0.00     0.000 C 
BRANCH   2   3
ATOM      3  C   UNL     1      -1.169  -8.946   4.699  1.00  0.00     0.006 C 
BRANCH   3   4
ATOM      4  C   UNL     1      -1.564  -7.519   5.089  1.00  0.00     0.053 C 
BRANCH   4   5
ATOM      5  C   UNL     1      -0.427  -6.576   4.849  1.00  0.00     0.041 C 
ATOM      6  O   UNL     1       0.752  -7.010   4.775  1.00  0.00    -0.550 OA
ATOM      7  O   UNL     1      -0.666  -5.210   4.758  1.00  0.00    -0.550 OA
ENDBRANCH   4   5
ENDBRANCH   3   4
ENDBRANCH   2   3
ENDBRANCH   1   2
BRANCH   1   8
ATOM      8  C   UNL     1      -3.632 -10.557   2.804  1.00  0.00     0.000 C 
BRANCH   8   9
ATOM      9  C   UNL     1      -5.016 -10.523   2.136  1.00  0.00     0.006 C 
BRANCH   9  10
ATOM     10  C   UNL     1      -5.308  -9.182   1.447  1.00  0.00     0.053 C 
BRANCH  10  11
ATOM     11  C   UNL     1      -5.778  -9.408   0.045  1.00  0.00     0.041 C 
ATOM     12  O   UNL     1      -6.264  -8.456  -0.621  1.00  0.00    -0.550 OA
ATOM     13  O   UNL     1      -5.634 -10.658  -0.544  1.00  0.00    -0.550 OA
ENDBRANCH  10  11
ENDBRANCH   9  10
ENDBRANCH   8   9
ENDBRANCH   1   8
TORSDOF 8
ENDMDL
MODEL 4
REMARK VINA RESULT:    -2.408      2.170      3.091
REMARK INTER + INTRA:          -4.245
REMARK INTER:                  -3.717
REMARK INTRA:                  -0.527
REMARK UNBOUND:                -0.710
REMARK SMILES O=C([O-])CCCCCCCC(=O)[O-]
REMARK SMILES IDX 7 1 6 2 5 3 4 4 2 5 1 6 3 7 8 8 9 9 10 10 11 11 12 12 13 13
REMARK H PARENT
REMARK Flexibility Score: inf
ROOT
ATOM      1  C   UNL     1      -4.434  -8.682   2.029  1.00  0.00     0.000 C 
ENDROOT
BRANCH   1   2
ATOM      2  C   UNL     1      -5.943  -8.444   2.210  1.00  0.00     0.000 C 
BRANCH   2   3
ATOM      3  C   UNL     1      -6.257  -7.421   3.311  1.00  0.00     0.006 C 
BRANCH   3   4
ATOM      4  C   UNL     1      -5.088  -6.451   3.505  1.00  0.00     0.053 C 
BRANCH   4   5
ATOM      5  C   UNL     1      -5.592  -5.056   3.707  1.00  0.00     0.041 C 
ATOM      6  O   UNL     1      -4.954  -4.078   3.237  1.00  0.00    -0.550 OA
ATOM      7  O   UNL     1      -6.739  -4.834   4.458  1.00  0.00    -0.550 OA
ENDBRANCH   4   5
ENDBRANCH   3   4
ENDBRANCH   2   3
ENDBRANCH   1   2
BRANCH   1   8
ATOM      8  C   UNL     1      -4.006 -10.099   2.445  1.00  0.00     0.000 C 
BRANCH   8   9
ATOM      9  C   UNL     1      -2.986 -10.094   3.595  1.00  0.00     0.006 C 
BRANCH   9  10
ATOM     10  C   UNL     1      -1.947  -8.973   3.459  1.00  0.00     0.053 C 
BRANCH  10  11
ATOM     11  C   UNL     1      -0.568  -9.548   3.380  1.00  0.00     0.041 C 
ATOM     12  O   UNL     1       0.228  -9.422   4.349  1.00  0.00    -0.550 OA
ATOM     13  O   UNL     1      -0.176 -10.265   2.257  1.00  0.00    -0.550 OA
ENDBRANCH  10  11
ENDBRANCH   9  10
ENDBRANCH   8   9
ENDBRANCH   1   8
TORSDOF 8
ENDMDL
MODEL 5
REMARK VINA RESULT:    -2.312      1.973      4.533
REMARK INTER + INTRA:          -4.103
REMARK INTER:                  -3.556
REMARK INTRA:                  -0.547
REMARK UNBOUND:                -0.710
REMARK SMILES O=C([O-])CCCCCCCC(=O)[O-]
REMARK SMILES IDX 7 1 6 2 5 3 4 4 2 5 1 6 3 7 8 8 9 9 10 10 11 11 12 12 13 13
REMARK H PARENT
REMARK Flexibility Score: inf
ROOT
ATOM      1  C   UNL     1      -4.986  -8.818   1.826  1.00  0.00     0.000 C 
ENDROOT
BRANCH   1   2
ATOM      2  C   UNL     1      -4.593 -10.228   2.299  1.00  0.00     0.000 C 
BRANCH   2   3
ATOM      3  C   UNL     1      -3.645 -10.207   3.508  1.00  0.00     0.006 C 
BRANCH   3   4
ATOM      4  C   UNL     1      -2.184 -10.131   3.057  1.00  0.00     0.053 C 
BRANCH   4   5
ATOM      5  C   UNL     1      -1.537  -8.888   3.579  1.00  0.00     0.041 C 
ATOM      6  O   UNL     1      -0.369  -8.582   3.221  1.00  0.00    -0.550 OA
ATOM      7  O   UNL     1      -2.205  -8.092   4.503  1.00  0.00    -0.550 OA
ENDBRANCH   4   5
ENDBRANCH   3   4
ENDBRANCH   2   3
ENDBRANCH   1   2
BRANCH   1   8
ATOM      8  C   UNL     1      -6.387  -8.404   2.305  1.00  0.00     0.000 C 
BRANCH   8   9
ATOM      9  C   UNL     1      -6.342  -7.481   3.534  1.00  0.00     0.006 C 
BRANCH   9  10
ATOM     10  C   UNL     1      -5.176  -6.484   3.482  1.00  0.00     0.053 C 
BRANCH  10  11
ATOM     11  C   UNL     1      -5.664  -5.096   3.756  1.00  0.00     0.041 C 
ATOM     12  O   UNL     1      -6.693  -4.915   4.460  1.00  0.00    -0.550 OA
ATOM     13  O   UNL     1      -4.956  -4.002   3.278  1.00  0.00    -0.550 OA
ENDBRANCH  10  11
ENDBRANCH   9  10
ENDBRANCH   8   9
ENDBRANCH   1   8
TORSDOF 8
ENDMDL
MODEL 6
REMARK VINA RESULT:    -2.272      2.976      6.109
REMARK INTER + INTRA:          -4.045
REMARK INTER:                  -3.407
REMARK INTRA:                  -0.638
REMARK UNBOUND:                -0.710
REMARK SMILES O=C([O-])CCCCCCCC(=O)[O-]
REMARK SMILES IDX 7 1 6 2 5 3 4 4 2 5 1 6 3 7 8 8 9 9 10 10 11 11 12 12 13 13
REMARK H PARENT
REMARK Flexibility Score: inf
ROOT
ATOM      1  C   UNL     1      -4.592  -7.940   2.533  1.00  0.00     0.000 C 
ENDROOT
BRANCH   1   2
ATOM      2  C   UNL     1      -3.767  -7.861   3.829  1.00  0.00     0.000 C 
BRANCH   2   3
ATOM      3  C   UNL     1      -3.118  -9.202   4.202  1.00  0.00     0.006 C 
BRANCH   3   4
ATOM      4  C   UNL     1      -2.432  -9.835   2.988  1.00  0.00     0.053 C 
BRANCH   4   5
ATOM      5  C   UNL     1      -0.947  -9.678   3.084  1.00  0.00     0.041 C 
ATOM      6  O   UNL     1      -0.190 -10.663   2.881  1.00  0.00    -0.550 OA
ATOM      7  O   UNL     1      -0.400  -8.453   3.448  1.00  0.00    -0.550 OA
ENDBRANCH   4   5
ENDBRANCH   3   4
ENDBRANCH   2   3
ENDBRANCH   1   2
BRANCH   1   8
ATOM      8  C   UNL     1      -6.073  -8.263   2.795  1.00  0.00     0.000 C 
BRANCH   8   9
ATOM      9  C   UNL     1      -6.528  -9.554   2.095  1.00  0.00     0.006 C 
BRANCH   9  10
ATOM     10  C   UNL     1      -5.659  -9.906   0.880  1.00  0.00     0.053 C 
BRANCH  10  11
ATOM     11  C   UNL     1      -6.393  -9.606  -0.389  1.00  0.00     0.041 C 
ATOM     12  O   UNL     1      -6.553  -8.414  -0.762  1.00  0.00    -0.550 OA
ATOM     13  O   UNL     1      -6.857 -10.645  -1.186  1.00  0.00    -0.550 OA
ENDBRANCH  10  11
ENDBRANCH   9  10
ENDBRANCH   8   9
ENDBRANCH   1   8
TORSDOF 8
ENDMDL
MODEL 7
REMARK VINA RESULT:    -2.252     14.494     15.708
REMARK INTER + INTRA:          -4.015
REMARK INTER:                  -3.644
REMARK INTRA:                  -0.371
REMARK UNBOUND:                -0.710
REMARK SMILES O=C([O-])CCCCCCCC(=O)[O-]
REMARK SMILES IDX 7 1 6 2 5 3 4 4 2 5 1 6 3 7 8 8 9 9 10 10 11 11 12 12 13 13
REMARK H PARENT
REMARK Flexibility Score: inf
ROOT
ATOM      1  C   UNL     1      12.878  -6.825   1.618  1.00  0.00     0.000 C 
ENDROOT
BRANCH   1   2
ATOM      2  C   UNL     1      12.741  -7.994   0.628  1.00  0.00     0.000 C 
BRANCH   2   3
ATOM      3  C   UNL     1      13.121  -9.347   1.248  1.00  0.00     0.006 C 
BRANCH   3   4
ATOM      4  C   UNL     1      11.887 -10.239   1.413  1.00  0.00     0.053 C 
BRANCH   4   5
ATOM      5  C   UNL     1      11.505 -10.344   2.856  1.00  0.00     0.041 C 
ATOM      6  O   UNL     1      12.220  -9.807   3.742  1.00  0.00    -0.550 OA
ATOM      7  O   UNL     1      10.385 -11.079   3.226  1.00  0.00    -0.550 OA
ENDBRANCH   4   5
ENDBRANCH   3   4
ENDBRANCH   2   3
ENDBRANCH   1   2
BRANCH   1   8
ATOM      8  C   UNL     1      12.376  -5.494   1.033  1.00  0.00     0.000 C 
BRANCH   8   9
ATOM      9  C   UNL     1      13.098  -4.277   1.632  1.00  0.00     0.006 C 
BRANCH   9  10
ATOM     10  C   UNL     1      12.188  -3.434   2.536  1.00  0.00     0.053 C 
BRANCH  10  11
ATOM     11  C   UNL     1      12.681  -3.467   3.948  1.00  0.00     0.041 C 
ATOM     12  O   UNL     1      13.027  -2.400   4.523  1.00  0.00    -0.550 OA
ATOM     13  O   UNL     1      12.712  -4.667   4.646  1.00  0.00    -0.550 OA
ENDBRANCH  10  11
ENDBRANCH   9  10
ENDBRANCH   8   9
ENDBRANCH   1   8
TORSDOF 8
ENDMDL
MODEL 8
REMARK VINA RESULT:    -2.124      3.185      4.055
REMARK INTER + INTRA:          -3.827
REMARK INTER:                  -3.426
REMARK INTRA:                  -0.401
REMARK UNBOUND:                -0.710
REMARK SMILES O=C([O-])CCCCCCCC(=O)[O-]
REMARK SMILES IDX 7 1 6 2 5 3 4 4 2 5 1 6 3 7 8 8 9 9 10 10 11 11 12 12 13 13
REMARK H PARENT
REMARK Flexibility Score: inf
ROOT
ATOM      1  C   UNL     1      -4.055  -8.552   2.448  1.00  0.00     0.000 C 
ENDROOT
BRANCH   1   2
ATOM      2  C   UNL     1      -5.492  -9.071   2.266  1.00  0.00     0.000 C 
BRANCH   2   3
ATOM      3  C   UNL     1      -5.568 -10.306   1.357  1.00  0.00     0.006 C 
BRANCH   3   4
ATOM      4  C   UNL     1      -6.931 -10.393   0.665  1.00  0.00     0.053 C 
BRANCH   4   5
ATOM      5  C   UNL     1      -6.875  -9.754  -0.687  1.00  0.00     0.041 C 
ATOM      6  O   UNL     1      -7.125 -10.431  -1.719  1.00  0.00    -0.550 OA
ATOM      7  O   UNL     1      -6.497  -8.423  -0.811  1.00  0.00    -0.550 OA
ENDBRANCH   4   5
ENDBRANCH   3   4
ENDBRANCH   2   3
ENDBRANCH   1   2
BRANCH   1   8
ATOM      8  C   UNL     1      -3.577  -8.638   3.907  1.00  0.00     0.000 C 
BRANCH   8   9
ATOM      9  C   UNL     1      -2.858  -9.961   4.216  1.00  0.00     0.006 C 
BRANCH   9  10
ATOM     10  C   UNL     1      -2.049 -10.488   3.022  1.00  0.00     0.053 C 
BRANCH  10  11
ATOM     11  C   UNL     1      -0.638  -9.996   3.091  1.00  0.00     0.041 C 
ATOM     12  O   UNL     1      -0.347  -8.848   2.662  1.00  0.00    -0.550 OA
ATOM     13  O   UNL     1       0.346 -10.784   3.672  1.00  0.00    -0.550 OA
ENDBRANCH  10  11
ENDBRANCH   9  10
ENDBRANCH   8   9
ENDBRANCH   1   8
TORSDOF 8
ENDMDL
MODEL 9
REMARK VINA RESULT:    -2.050      3.363      5.746
REMARK INTER + INTRA:          -3.719
REMARK INTER:                  -3.195
REMARK INTRA:                  -0.524
REMARK UNBOUND:                -0.710
REMARK SMILES O=C([O-])CCCCCCCC(=O)[O-]
REMARK SMILES IDX 7 1 6 2 5 3 4 4 2 5 1 6 3 7 8 8 9 9 10 10 11 11 12 12 13 13
REMARK H PARENT
REMARK Flexibility Score: inf
ROOT
ATOM      1  C   UNL     1      -4.625  -8.989   3.011  1.00  0.00     0.000 C 
ENDROOT
BRANCH   1   2
ATOM      2  C   UNL     1      -6.002  -9.029   3.695  1.00  0.00     0.000 C 
BRANCH   2   3
ATOM      3  C   UNL     1      -6.856  -7.790   3.386  1.00  0.00     0.006 C 
BRANCH   3   4
ATOM      4  C   UNL     1      -6.897  -6.840   4.585  1.00  0.00     0.053 C 
BRANCH   4   5
ATOM      5  C   UNL     1      -6.277  -5.524   4.234  1.00  0.00     0.041 C 
ATOM      6  O   UNL     1      -6.862  -4.449   4.529  1.00  0.00    -0.550 OA
ATOM      7  O   UNL     1      -5.077  -5.486   3.534  1.00  0.00    -0.550 OA
ENDBRANCH   4   5
ENDBRANCH   3   4
ENDBRANCH   2   3
ENDBRANCH   1   2
BRANCH   1   8
ATOM      8  C   UNL     1      -4.390 -10.195   2.086  1.00  0.00     0.000 C 
BRANCH   8   9
ATOM      9  C   UNL     1      -5.700 -10.782   1.537  1.00  0.00     0.006 C 
BRANCH   9  10
ATOM     10  C   UNL     1      -5.666 -10.986   0.017  1.00  0.00     0.053 C 
BRANCH  10  11
ATOM     11  C   UNL     1      -6.607 -10.038  -0.657  1.00  0.00     0.041 C 
ATOM     12  O   UNL     1      -7.124 -10.340  -1.766  1.00  0.00    -0.550 OA
ATOM     13  O   UNL     1      -6.951  -8.843  -0.039  1.00  0.00    -0.550 OA
ENDBRANCH  10  11
ENDBRANCH   9  10
ENDBRANCH   8   9
ENDBRANCH   1   8
TORSDOF 8
ENDMDL
