MODEL 1
REMARK VINA RESULT:    -4.118      0.000      0.000
REMARK INTER + INTRA:         -12.706
REMARK INTER:                  -9.413
REMARK INTRA:                  -3.293
REMARK UNBOUND:                -3.293
REMARK SMILES CCCCCCCCCCCCCCCCCCCCCCCC(=O)[O-]
REMARK SMILES IDX 13 1 14 2 15 3 16 4 17 5 18 6 19 7 20 8 21 9 22 10 23 11
REMARK SMILES IDX 24 12 25 13 26 14 12 15 11 16 10 17 9 18 8 19 7 20 6 21 5 22
REMARK SMILES IDX 4 23 3 24 2 25 1 26
REMARK H PARENT
REMARK Flexibility Score: inf
ROOT
ATOM      1  C   UNL     1     155.226 172.736 167.299  1.00  0.00     0.000 C 
ENDROOT
BRANCH   1   2
ATOM      2  C   UNL     1     154.822 171.334 166.801  1.00  0.00     0.000 C 
BRANCH   2   3
ATOM      3  C   UNL     1     153.787 171.324 165.663  1.00  0.00     0.000 C 
BRANCH   3   4
ATOM      4  C   UNL     1     154.327 170.690 164.372  1.00  0.00     0.000 C 
BRANCH   4   5
ATOM      5  C   UNL     1     154.537 171.751 163.282  1.00  0.00     0.000 C 
BRANCH   5   6
ATOM      6  C   UNL     1     153.304 172.647 163.076  1.00  0.00     0.000 C 
BRANCH   6   7
ATOM      7  C   UNL     1     153.598 173.861 162.178  1.00  0.00     0.000 C 
BRANCH   7   8
ATOM      8  C   UNL     1     154.348 174.978 162.922  1.00  0.00     0.000 C 
BRANCH   8   9
ATOM      9  C   UNL     1     155.631 175.415 162.199  1.00  0.00     0.000 C 
BRANCH   9  10
ATOM     10  C   UNL     1     156.185 174.276 161.329  1.00  0.00     0.006 C 
BRANCH  10  11
ATOM     11  C   UNL     1     157.352 174.733 160.446  1.00  0.00     0.053 C 
BRANCH  11  12
ATOM     12  C   UNL     1     156.978 174.746 158.995  1.00  0.00     0.041 C 
ATOM     13  O   UNL     1     156.568 175.806 158.455  1.00  0.00    -0.550 OA
ATOM     14  O   UNL     1     157.116 173.594 158.231  1.00  0.00    -0.550 OA
ENDBRANCH  11  12
ENDBRANCH  10  11
ENDBRANCH   9  10
ENDBRANCH   8   9
ENDBRANCH   7   8
ENDBRANCH   6   7
ENDBRANCH   5   6
ENDBRANCH   4   5
ENDBRANCH   3   4
ENDBRANCH   2   3
ENDBRANCH   1   2
BRANCH   1  15
ATOM     15  C   UNL     1     155.338 173.814 166.203  1.00  0.00     0.000 C 
BRANCH  15  16
ATOM     16  C   UNL     1     156.776 174.236 165.847  1.00  0.00     0.000 C 
BRANCH  16  17
ATOM     17  C   UNL     1     157.370 173.407 164.697  1.00  0.00     0.000 C 
BRANCH  17  18
ATOM     18  C   UNL     1     158.621 174.051 164.074  1.00  0.00    -0.000 C 
BRANCH  18  19
ATOM     19  C   UNL     1     158.903 175.507 164.507  1.00  0.00    -0.000 C 
BRANCH  19  20
ATOM     20  C   UNL     1     160.202 175.713 165.307  1.00  0.00    -0.000 C 
BRANCH  20  21
ATOM     21  C   UNL     1     160.306 174.886 166.603  1.00  0.00    -0.000 C 
BRANCH  21  22
ATOM     22  C   UNL     1     161.641 174.124 166.750  1.00  0.00    -0.000 C 
BRANCH  22  23
ATOM     23  C   UNL     1     162.075 173.443 165.443  1.00  0.00    -0.000 C 
BRANCH  23  24
ATOM     24  C   UNL     1     163.595 173.547 165.248  1.00  0.00    -0.000 C 
BRANCH  24  25
ATOM     25  C   UNL     1     163.976 174.428 164.049  1.00  0.00    -0.003 C 
ATOM     26  C   UNL     1     165.151 173.864 163.249  1.00  0.00     0.004 C 
ENDBRANCH  24  25
ENDBRANCH  23  24
ENDBRANCH  22  23
ENDBRANCH  21  22
ENDBRANCH  20  21
ENDBRANCH  19  20
ENDBRANCH  18  19
ENDBRANCH  17  18
ENDBRANCH  16  17
ENDBRANCH  15  16
ENDBRANCH   1  15
TORSDOF 22
ENDMDL
MODEL 2
REMARK VINA RESULT:    -4.040      3.800      8.646
REMARK INTER + INTRA:         -12.529
REMARK INTER:                 -10.028
REMARK INTRA:                  -2.501
REMARK UNBOUND:                -3.293
REMARK SMILES CCCCCCCCCCCCCCCCCCCCCCCC(=O)[O-]
REMARK SMILES IDX 13 1 14 2 15 3 16 4 17 5 18 6 19 7 20 8 21 9 22 10 23 11
REMARK SMILES IDX 24 12 25 13 26 14 12 15 11 16 10 17 9 18 8 19 7 20 6 21 5 22
REMARK SMILES IDX 4 23 3 24 2 25 1 26
REMARK H PARENT
REMARK Flexibility Score: inf
ROOT
ATOM      1  C   UNL     1     158.533 173.224 163.396  1.00  0.00     0.000 C 
ENDROOT
BRANCH   1   2
ATOM      2  C   UNL     1     159.471 174.190 164.147  1.00  0.00     0.000 C 
BRANCH   2   3
ATOM      3  C   UNL     1     159.736 173.825 165.618  1.00  0.00     0.000 C 
BRANCH   3   4
ATOM      4  C   UNL     1     161.116 174.290 166.107  1.00  0.00     0.000 C 
BRANCH   4   5
ATOM      5  C   UNL     1     162.219 173.878 165.121  1.00  0.00     0.000 C 
BRANCH   5   6
ATOM      6  C   UNL     1     163.407 173.186 165.811  1.00  0.00     0.000 C 
BRANCH   6   7
ATOM      7  C   UNL     1     164.714 173.315 165.010  1.00  0.00     0.000 C 
BRANCH   7   8
ATOM      8  C   UNL     1     164.638 174.403 163.927  1.00  0.00     0.000 C 
BRANCH   8   9
ATOM      9  C   UNL     1     165.298 173.974 162.607  1.00  0.00     0.000 C 
BRANCH   9  10
ATOM     10  C   UNL     1     166.440 174.930 162.230  1.00  0.00     0.006 C 
BRANCH  10  11
ATOM     11  C   UNL     1     167.347 174.352 161.138  1.00  0.00     0.053 C 
BRANCH  11  12
ATOM     12  C   UNL     1     168.579 173.724 161.715  1.00  0.00     0.041 C 
ATOM     13  O   UNL     1     169.680 174.333 161.675  1.00  0.00    -0.550 OA
ATOM     14  O   UNL     1     168.503 172.480 162.327  1.00  0.00    -0.550 OA
ENDBRANCH  11  12
ENDBRANCH  10  11
ENDBRANCH   9  10
ENDBRANCH   8   9
ENDBRANCH   7   8
ENDBRANCH   6   7
ENDBRANCH   5   6
ENDBRANCH   4   5
ENDBRANCH   3   4
ENDBRANCH   2   3
ENDBRANCH   1   2
BRANCH   1  15
ATOM     15  C   UNL     1     157.951 173.769 162.077  1.00  0.00     0.000 C 
BRANCH  15  16
ATOM     16  C   UNL     1     157.847 175.303 161.993  1.00  0.00     0.000 C 
BRANCH  16  17
ATOM     17  C   UNL     1     157.075 175.779 160.751  1.00  0.00     0.000 C 
BRANCH  17  18
ATOM     18  C   UNL     1     156.293 174.649 160.059  1.00  0.00    -0.000 C 
BRANCH  18  19
ATOM     19  C   UNL     1     154.767 174.656 160.298  1.00  0.00    -0.000 C 
BRANCH  19  20
ATOM     20  C   UNL     1     154.307 174.024 161.624  1.00  0.00    -0.000 C 
BRANCH  20  21
ATOM     21  C   UNL     1     153.912 175.030 162.722  1.00  0.00    -0.000 C 
BRANCH  21  22
ATOM     22  C   UNL     1     154.182 174.525 164.156  1.00  0.00    -0.000 C 
BRANCH  22  23
ATOM     23  C   UNL     1     155.427 175.171 164.783  1.00  0.00    -0.000 C 
BRANCH  23  24
ATOM     24  C   UNL     1     156.069 174.236 165.819  1.00  0.00    -0.000 C 
BRANCH  24  25
ATOM     25  C   UNL     1     155.662 172.768 165.621  1.00  0.00    -0.003 C 
ATOM     26  C   UNL     1     155.283 172.078 166.931  1.00  0.00     0.004 C 
ENDBRANCH  24  25
ENDBRANCH  23  24
ENDBRANCH  22  23
ENDBRANCH  21  22
ENDBRANCH  20  21
ENDBRANCH  19  20
ENDBRANCH  18  19
ENDBRANCH  17  18
ENDBRANCH  16  17
ENDBRANCH  15  16
ENDBRANCH   1  15
TORSDOF 22
ENDMDL
MODEL 3
REMARK VINA RESULT:    -4.028      1.737      3.761
REMARK INTER + INTRA:         -12.501
REMARK INTER:                 -10.028
REMARK INTRA:                  -2.473
REMARK UNBOUND:                -3.293
REMARK SMILES CCCCCCCCCCCCCCCCCCCCCCCC(=O)[O-]
REMARK SMILES IDX 13 1 14 2 15 3 16 4 17 5 18 6 19 7 20 8 21 9 22 10 23 11
REMARK SMILES IDX 24 12 25 13 26 14 12 15 11 16 10 17 9 18 8 19 7 20 6 21 5 22
REMARK SMILES IDX 4 23 3 24 2 25 1 26
REMARK H PARENT
REMARK Flexibility Score: inf
ROOT
ATOM      1  C   UNL     1     157.316 174.703 164.811  1.00  0.00     0.000 C 
ENDROOT
BRANCH   1   2
ATOM      2  C   UNL     1     156.290 174.251 165.869  1.00  0.00     0.000 C 
BRANCH   2   3
ATOM      3  C   UNL     1     156.768 173.119 166.795  1.00  0.00     0.000 C 
BRANCH   3   4
ATOM      4  C   UNL     1     155.615 172.249 167.317  1.00  0.00     0.000 C 
BRANCH   4   5
ATOM      5  C   UNL     1     154.467 172.185 166.298  1.00  0.00     0.000 C 
BRANCH   5   6
ATOM      6  C   UNL     1     154.566 170.968 165.363  1.00  0.00     0.000 C 
BRANCH   6   7
ATOM      7  C   UNL     1     154.652 171.366 163.880  1.00  0.00     0.000 C 
BRANCH   7   8
ATOM      8  C   UNL     1     153.883 172.660 163.570  1.00  0.00     0.000 C 
BRANCH   8   9
ATOM      9  C   UNL     1     154.571 173.518 162.497  1.00  0.00     0.000 C 
BRANCH   9  10
ATOM     10  C   UNL     1     154.299 175.012 162.732  1.00  0.00     0.006 C 
BRANCH  10  11
ATOM     11  C   UNL     1     154.412 175.834 161.443  1.00  0.00     0.053 C 
BRANCH  11  12
ATOM     12  C   UNL     1     155.799 175.795 160.879  1.00  0.00     0.041 C 
ATOM     13  O   UNL     1     156.789 176.069 161.608  1.00  0.00    -0.550 OA
ATOM     14  O   UNL     1     156.002 175.422 159.557  1.00  0.00    -0.550 OA
ENDBRANCH  11  12
ENDBRANCH  10  11
ENDBRANCH   9  10
ENDBRANCH   8   9
ENDBRANCH   7   8
ENDBRANCH   6   7
ENDBRANCH   5   6
ENDBRANCH   4   5
ENDBRANCH   3   4
ENDBRANCH   2   3
ENDBRANCH   1   2
BRANCH   1  15
ATOM     15  C   UNL     1     157.942 173.567 163.978  1.00  0.00     0.000 C 
BRANCH  15  16
ATOM     16  C   UNL     1     159.477 173.609 163.868  1.00  0.00     0.000 C 
BRANCH  16  17
ATOM     17  C   UNL     1     160.162 173.875 165.219  1.00  0.00     0.000 C 
BRANCH  17  18
ATOM     18  C   UNL     1     161.659 173.517 165.215  1.00  0.00    -0.000 C 
BRANCH  18  19
ATOM     19  C   UNL     1     162.564 174.458 164.389  1.00  0.00    -0.000 C 
BRANCH  19  20
ATOM     20  C   UNL     1     164.030 174.532 164.853  1.00  0.00    -0.000 C 
BRANCH  20  21
ATOM     21  C   UNL     1     165.072 174.513 163.717  1.00  0.00    -0.000 C 
BRANCH  21  22
ATOM     22  C   UNL     1     165.664 173.115 163.439  1.00  0.00    -0.000 C 
BRANCH  22  23
ATOM     23  C   UNL     1     166.973 173.179 162.636  1.00  0.00    -0.000 C 
BRANCH  23  24
ATOM     24  C   UNL     1     166.818 174.082 161.404  1.00  0.00    -0.000 C 
BRANCH  24  25
ATOM     25  C   UNL     1     168.120 174.813 161.040  1.00  0.00    -0.003 C 
ATOM     26  C   UNL     1     169.339 174.243 161.767  1.00  0.00     0.004 C 
ENDBRANCH  24  25
ENDBRANCH  23  24
ENDBRANCH  22  23
ENDBRANCH  21  22
ENDBRANCH  20  21
ENDBRANCH  19  20
ENDBRANCH  18  19
ENDBRANCH  17  18
ENDBRANCH  16  17
ENDBRANCH  15  16
ENDBRANCH   1  15
TORSDOF 22
ENDMDL
MODEL 4
REMARK VINA RESULT:    -4.013      2.928      7.623
REMARK INTER + INTRA:         -12.467
REMARK INTER:                  -9.510
REMARK INTRA:                  -2.957
REMARK UNBOUND:                -3.293
REMARK SMILES CCCCCCCCCCCCCCCCCCCCCCCC(=O)[O-]
REMARK SMILES IDX 13 1 14 2 15 3 16 4 17 5 18 6 19 7 20 8 21 9 22 10 23 11
REMARK SMILES IDX 24 12 25 13 26 14 12 15 11 16 10 17 9 18 8 19 7 20 6 21 5 22
REMARK SMILES IDX 4 23 3 24 2 25 1 26
REMARK H PARENT
REMARK Flexibility Score: inf
ROOT
ATOM      1  C   UNL     1     157.829 173.884 161.418  1.00  0.00     0.000 C 
ENDROOT
BRANCH   1   2
ATOM      2  C   UNL     1     157.979 173.257 162.819  1.00  0.00     0.000 C 
BRANCH   2   3
ATOM      3  C   UNL     1     159.074 173.887 163.697  1.00  0.00     0.000 C 
BRANCH   3   4
ATOM      4  C   UNL     1     158.511 174.856 164.748  1.00  0.00     0.000 C 
BRANCH   4   5
ATOM      5  C   UNL     1     159.595 175.271 165.754  1.00  0.00     0.000 C 
BRANCH   5   6
ATOM      6  C   UNL     1     159.974 174.139 166.723  1.00  0.00     0.000 C 
BRANCH   6   7
ATOM      7  C   UNL     1     161.251 174.448 167.524  1.00  0.00     0.000 C 
BRANCH   7   8
ATOM      8  C   UNL     1     161.824 175.838 167.207  1.00  0.00     0.000 C 
BRANCH   8   9
ATOM      9  C   UNL     1     163.169 175.771 166.467  1.00  0.00     0.000 C 
BRANCH   9  10
ATOM     10  C   UNL     1     163.380 174.384 165.841  1.00  0.00     0.006 C 
BRANCH  10  11
ATOM     11  C   UNL     1     163.310 174.420 164.309  1.00  0.00     0.053 C 
BRANCH  11  12
ATOM     12  C   UNL     1     164.669 174.309 163.689  1.00  0.00     0.041 C 
ATOM     13  O   UNL     1     164.792 173.937 162.492  1.00  0.00    -0.550 OA
ATOM     14  O   UNL     1     165.798 174.651 164.422  1.00  0.00    -0.550 OA
ENDBRANCH  11  12
ENDBRANCH  10  11
ENDBRANCH   9  10
ENDBRANCH   8   9
ENDBRANCH   7   8
ENDBRANCH   6   7
ENDBRANCH   5   6
ENDBRANCH   4   5
ENDBRANCH   3   4
ENDBRANCH   2   3
ENDBRANCH   1   2
BRANCH   1  15
ATOM     15  C   UNL     1     157.486 175.386 161.406  1.00  0.00     0.000 C 
BRANCH  15  16
ATOM     16  C   UNL     1     155.981 175.712 161.390  1.00  0.00     0.000 C 
BRANCH  16  17
ATOM     17  C   UNL     1     155.142 174.605 160.728  1.00  0.00     0.000 C 
BRANCH  17  18
ATOM     18  C   UNL     1     154.011 174.086 161.633  1.00  0.00    -0.000 C 
BRANCH  18  19
ATOM     19  C   UNL     1     154.020 174.623 163.081  1.00  0.00    -0.000 C 
BRANCH  19  20
ATOM     20  C   UNL     1     154.512 173.627 164.147  1.00  0.00    -0.000 C 
BRANCH  20  21
ATOM     21  C   UNL     1     154.777 172.199 163.630  1.00  0.00    -0.000 C 
BRANCH  21  22
ATOM     22  C   UNL     1     154.269 171.091 164.577  1.00  0.00    -0.000 C 
BRANCH  22  23
ATOM     23  C   UNL     1     154.049 171.596 166.011  1.00  0.00    -0.000 C 
BRANCH  23  24
ATOM     24  C   UNL     1     154.890 170.792 167.013  1.00  0.00    -0.000 C 
BRANCH  24  25
ATOM     25  C   UNL     1     155.761 171.689 167.905  1.00  0.00    -0.003 C 
ATOM     26  C   UNL     1     156.500 172.770 167.116  1.00  0.00     0.004 C 
ENDBRANCH  24  25
ENDBRANCH  23  24
ENDBRANCH  22  23
ENDBRANCH  21  22
ENDBRANCH  20  21
ENDBRANCH  19  20
ENDBRANCH  18  19
ENDBRANCH  17  18
ENDBRANCH  16  17
ENDBRANCH  15  16
ENDBRANCH   1  15
TORSDOF 22
ENDMDL
MODEL 5
REMARK VINA RESULT:    -3.935      3.339      8.279
REMARK INTER + INTRA:         -12.288
REMARK INTER:                  -9.662
REMARK INTRA:                  -2.625
REMARK UNBOUND:                -3.293
REMARK SMILES CCCCCCCCCCCCCCCCCCCCCCCC(=O)[O-]
REMARK SMILES IDX 13 1 14 2 15 3 16 4 17 5 18 6 19 7 20 8 21 9 22 10 23 11
REMARK SMILES IDX 24 12 25 13 26 14 12 15 11 16 10 17 9 18 8 19 7 20 6 21 5 22
REMARK SMILES IDX 4 23 3 24 2 25 1 26
REMARK H PARENT
REMARK Flexibility Score: inf
ROOT
ATOM      1  C   UNL     1     157.990 173.769 164.386  1.00  0.00     0.000 C 
ENDROOT
BRANCH   1   2
ATOM      2  C   UNL     1     158.687 174.702 165.397  1.00  0.00     0.000 C 
BRANCH   2   3
ATOM      3  C   UNL     1     159.549 173.986 166.452  1.00  0.00     0.000 C 
BRANCH   3   4
ATOM      4  C   UNL     1     160.710 174.855 166.960  1.00  0.00     0.000 C 
BRANCH   4   5
ATOM      5  C   UNL     1     162.047 174.105 166.856  1.00  0.00     0.000 C 
BRANCH   5   6
ATOM      6  C   UNL     1     162.221 173.381 165.510  1.00  0.00     0.000 C 
BRANCH   6   7
ATOM      7  C   UNL     1     162.691 174.322 164.388  1.00  0.00     0.000 C 
BRANCH   7   8
ATOM      8  C   UNL     1     164.210 174.558 164.413  1.00  0.00     0.000 C 
BRANCH   8   9
ATOM      9  C   UNL     1     165.001 173.295 164.787  1.00  0.00     0.000 C 
BRANCH   9  10
ATOM     10  C   UNL     1     166.366 173.275 164.081  1.00  0.00     0.006 C 
BRANCH  10  11
ATOM     11  C   UNL     1     166.231 173.223 162.554  1.00  0.00     0.053 C 
BRANCH  11  12
ATOM     12  C   UNL     1     167.383 173.894 161.871  1.00  0.00     0.041 C 
ATOM     13  O   UNL     1     167.314 175.111 161.558  1.00  0.00    -0.550 OA
ATOM     14  O   UNL     1     168.548 173.182 161.614  1.00  0.00    -0.550 OA
ENDBRANCH  11  12
ENDBRANCH  10  11
ENDBRANCH   9  10
ENDBRANCH   8   9
ENDBRANCH   7   8
ENDBRANCH   6   7
ENDBRANCH   5   6
ENDBRANCH   4   5
ENDBRANCH   3   4
ENDBRANCH   2   3
ENDBRANCH   1   2
BRANCH   1  15
ATOM     15  C   UNL     1     158.766 173.527 163.076  1.00  0.00     0.000 C 
BRANCH  15  16
ATOM     16  C   UNL     1     158.039 173.977 161.795  1.00  0.00     0.000 C 
BRANCH  16  17
ATOM     17  C   UNL     1     157.230 175.269 161.995  1.00  0.00     0.000 C 
BRANCH  17  18
ATOM     18  C   UNL     1     155.734 175.098 161.677  1.00  0.00    -0.000 C 
BRANCH  18  19
ATOM     19  C   UNL     1     154.874 174.524 162.823  1.00  0.00    -0.000 C 
BRANCH  19  20
ATOM     20  C   UNL     1     154.355 173.091 162.601  1.00  0.00    -0.000 C 
BRANCH  20  21
ATOM     21  C   UNL     1     154.908 172.040 163.582  1.00  0.00    -0.000 C 
BRANCH  21  22
ATOM     22  C   UNL     1     153.813 171.237 164.316  1.00  0.00    -0.000 C 
BRANCH  22  23
ATOM     23  C   UNL     1     153.765 171.545 165.820  1.00  0.00    -0.000 C 
BRANCH  23  24
ATOM     24  C   UNL     1     155.120 171.254 166.484  1.00  0.00    -0.000 C 
BRANCH  24  25
ATOM     25  C   UNL     1     155.741 172.502 167.128  1.00  0.00    -0.003 C 
ATOM     26  C   UNL     1     155.107 173.802 166.631  1.00  0.00     0.004 C 
ENDBRANCH  24  25
ENDBRANCH  23  24
ENDBRANCH  22  23
ENDBRANCH  21  22
ENDBRANCH  20  21
ENDBRANCH  19  20
ENDBRANCH  18  19
ENDBRANCH  17  18
ENDBRANCH  16  17
ENDBRANCH  15  16
ENDBRANCH   1  15
TORSDOF 22
ENDMDL
MODEL 6
REMARK VINA RESULT:    -3.919      4.012      9.480
REMARK INTER + INTRA:         -12.252
REMARK INTER:                  -9.920
REMARK INTRA:                  -2.332
REMARK UNBOUND:                -3.293
REMARK SMILES CCCCCCCCCCCCCCCCCCCCCCCC(=O)[O-]
REMARK SMILES IDX 13 1 14 2 15 3 16 4 17 5 18 6 19 7 20 8 21 9 22 10 23 11
REMARK SMILES IDX 24 12 25 13 26 14 12 15 11 16 10 17 9 18 8 19 7 20 6 21 5 22
REMARK SMILES IDX 4 23 3 24 2 25 1 26
REMARK H PARENT
REMARK Flexibility Score: inf
ROOT
ATOM      1  C   UNL     1     160.036 173.543 164.544  1.00  0.00     0.000 C 
ENDROOT
BRANCH   1   2
ATOM      2  C   UNL     1     161.497 174.013 164.394  1.00  0.00     0.000 C 
BRANCH   2   3
ATOM      3  C   UNL     1     162.459 173.494 165.476  1.00  0.00     0.000 C 
BRANCH   3   4
ATOM      4  C   UNL     1     163.828 174.189 165.439  1.00  0.00     0.000 C 
BRANCH   4   5
ATOM      5  C   UNL     1     164.769 173.502 164.438  1.00  0.00     0.000 C 
BRANCH   5   6
ATOM      6  C   UNL     1     165.097 174.388 163.224  1.00  0.00     0.000 C 
BRANCH   6   7
ATOM      7  C   UNL     1     165.550 173.572 162.000  1.00  0.00     0.000 C 
BRANCH   7   8
ATOM      8  C   UNL     1     166.337 174.417 160.986  1.00  0.00     0.000 C 
BRANCH   8   9
ATOM      9  C   UNL     1     167.765 174.734 161.459  1.00  0.00     0.000 C 
BRANCH   9  10
ATOM     10  C   UNL     1     168.567 173.442 161.680  1.00  0.00     0.006 C 
BRANCH  10  11
ATOM     11  C   UNL     1     169.413 173.494 162.958  1.00  0.00     0.053 C 
BRANCH  11  12
ATOM     12  C   UNL     1     168.566 173.377 164.189  1.00  0.00     0.041 C 
ATOM     13  O   UNL     1     168.293 174.400 164.870  1.00  0.00    -0.550 OA
ATOM     14  O   UNL     1     168.051 172.144 164.563  1.00  0.00    -0.550 OA
ENDBRANCH  11  12
ENDBRANCH  10  11
ENDBRANCH   9  10
ENDBRANCH   8   9
ENDBRANCH   7   8
ENDBRANCH   6   7
ENDBRANCH   5   6
ENDBRANCH   4   5
ENDBRANCH   3   4
ENDBRANCH   2   3
ENDBRANCH   1   2
BRANCH   1  15
ATOM     15  C   UNL     1     159.227 173.490 163.232  1.00  0.00     0.000 C 
BRANCH  15  16
ATOM     16  C   UNL     1     158.072 174.504 163.137  1.00  0.00     0.000 C 
BRANCH  16  17
ATOM     17  C   UNL     1     157.514 174.899 164.514  1.00  0.00     0.000 C 
BRANCH  17  18
ATOM     18  C   UNL     1     156.236 175.752 164.424  1.00  0.00    -0.000 C 
BRANCH  18  19
ATOM     19  C   UNL     1     154.908 174.964 164.460  1.00  0.00    -0.000 C 
BRANCH  19  20
ATOM     20  C   UNL     1     154.361 174.537 163.085  1.00  0.00    -0.000 C 
BRANCH  20  21
ATOM     21  C   UNL     1     154.133 173.023 162.918  1.00  0.00    -0.000 C 
BRANCH  21  22
ATOM     22  C   UNL     1     155.180 172.152 163.646  1.00  0.00    -0.000 C 
BRANCH  22  23
ATOM     23  C   UNL     1     154.536 171.043 164.492  1.00  0.00    -0.000 C 
BRANCH  23  24
ATOM     24  C   UNL     1     154.124 171.574 165.873  1.00  0.00    -0.000 C 
BRANCH  24  25
ATOM     25  C   UNL     1     155.217 171.370 166.933  1.00  0.00    -0.003 C 
ATOM     26  C   UNL     1     156.130 172.587 167.083  1.00  0.00     0.004 C 
ENDBRANCH  24  25
ENDBRANCH  23  24
ENDBRANCH  22  23
ENDBRANCH  21  22
ENDBRANCH  20  21
ENDBRANCH  19  20
ENDBRANCH  18  19
ENDBRANCH  17  18
ENDBRANCH  16  17
ENDBRANCH  15  16
ENDBRANCH   1  15
TORSDOF 22
ENDMDL
MODEL 7
REMARK VINA RESULT:    -3.748      2.037      4.082
REMARK INTER + INTRA:         -11.860
REMARK INTER:                  -9.801
REMARK INTRA:                  -2.059
REMARK UNBOUND:                -3.293
REMARK SMILES CCCCCCCCCCCCCCCCCCCCCCCC(=O)[O-]
REMARK SMILES IDX 13 1 14 2 15 3 16 4 17 5 18 6 19 7 20 8 21 9 22 10 23 11
REMARK SMILES IDX 24 12 25 13 26 14 12 15 11 16 10 17 9 18 8 19 7 20 6 21 5 22
REMARK SMILES IDX 4 23 3 24 2 25 1 26
REMARK H PARENT
REMARK Flexibility Score: inf
ROOT
ATOM      1  C   UNL     1     158.512 173.836 166.130  1.00  0.00     0.000 C 
ENDROOT
BRANCH   1   2
ATOM      2  C   UNL     1     157.086 173.519 166.624  1.00  0.00     0.000 C 
BRANCH   2   3
ATOM      3  C   UNL     1     157.004 172.449 167.726  1.00  0.00     0.000 C 
BRANCH   3   4
ATOM      4  C   UNL     1     155.558 172.101 168.112  1.00  0.00     0.000 C 
BRANCH   4   5
ATOM      5  C   UNL     1     155.138 170.748 167.519  1.00  0.00     0.000 C 
BRANCH   5   6
ATOM      6  C   UNL     1     154.507 170.880 166.122  1.00  0.00     0.000 C 
BRANCH   6   7
ATOM      7  C   UNL     1     153.605 172.120 165.994  1.00  0.00     0.000 C 
BRANCH   7   8
ATOM      8  C   UNL     1     154.005 173.021 164.815  1.00  0.00     0.000 C 
BRANCH   8   9
ATOM      9  C   UNL     1     154.996 172.341 163.857  1.00  0.00     0.000 C 
BRANCH   9  10
ATOM     10  C   UNL     1     155.317 173.254 162.664  1.00  0.00     0.006 C 
BRANCH  10  11
ATOM     11  C   UNL     1     156.426 174.263 162.985  1.00  0.00     0.053 C 
BRANCH  11  12
ATOM     12  C   UNL     1     157.718 173.900 162.319  1.00  0.00     0.041 C 
ATOM     13  O   UNL     1     158.122 174.551 161.320  1.00  0.00    -0.550 OA
ATOM     14  O   UNL     1     158.493 172.864 162.824  1.00  0.00    -0.550 OA
ENDBRANCH  11  12
ENDBRANCH  10  11
ENDBRANCH   9  10
ENDBRANCH   8   9
ENDBRANCH   7   8
ENDBRANCH   6   7
ENDBRANCH   5   6
ENDBRANCH   4   5
ENDBRANCH   3   4
ENDBRANCH   2   3
ENDBRANCH   1   2
BRANCH   1  15
ATOM     15  C   UNL     1     159.601 173.820 167.221  1.00  0.00     0.000 C 
BRANCH  15  16
ATOM     16  C   UNL     1     160.704 174.883 167.057  1.00  0.00     0.000 C 
BRANCH  16  17
ATOM     17  C   UNL     1     161.291 174.913 165.635  1.00  0.00     0.000 C 
BRANCH  17  18
ATOM     18  C   UNL     1     161.909 173.569 165.210  1.00  0.00    -0.000 C 
BRANCH  18  19
ATOM     19  C   UNL     1     163.316 173.278 165.776  1.00  0.00    -0.000 C 
BRANCH  19  20
ATOM     20  C   UNL     1     164.170 174.521 166.083  1.00  0.00    -0.000 C 
BRANCH  20  21
ATOM     21  C   UNL     1     164.794 175.202 164.850  1.00  0.00    -0.000 C 
BRANCH  21  22
ATOM     22  C   UNL     1     165.148 174.221 163.711  1.00  0.00    -0.000 C 
BRANCH  22  23
ATOM     23  C   UNL     1     166.413 174.638 162.947  1.00  0.00    -0.000 C 
BRANCH  23  24
ATOM     24  C   UNL     1     166.381 174.116 161.502  1.00  0.00    -0.000 C 
BRANCH  24  25
ATOM     25  C   UNL     1     167.214 174.982 160.544  1.00  0.00    -0.003 C 
ATOM     26  C   UNL     1     166.351 175.757 159.548  1.00  0.00     0.004 C 
ENDBRANCH  24  25
ENDBRANCH  23  24
ENDBRANCH  22  23
ENDBRANCH  21  22
ENDBRANCH  20  21
ENDBRANCH  19  20
ENDBRANCH  18  19
ENDBRANCH  17  18
ENDBRANCH  16  17
ENDBRANCH  15  16
ENDBRANCH   1  15
TORSDOF 22
ENDMDL
MODEL 8
REMARK VINA RESULT:    -3.743      3.293      9.373
REMARK INTER + INTRA:         -11.851
REMARK INTER:                  -9.645
REMARK INTRA:                  -2.206
REMARK UNBOUND:                -3.293
REMARK SMILES CCCCCCCCCCCCCCCCCCCCCCCC(=O)[O-]
REMARK SMILES IDX 13 1 14 2 15 3 16 4 17 5 18 6 19 7 20 8 21 9 22 10 23 11
REMARK SMILES IDX 24 12 25 13 26 14 12 15 11 16 10 17 9 18 8 19 7 20 6 21 5 22
REMARK SMILES IDX 4 23 3 24 2 25 1 26
REMARK H PARENT
REMARK Flexibility Score: inf
ROOT
ATOM      1  C   UNL     1     162.054 173.141 165.520  1.00  0.00     0.000 C 
ENDROOT
BRANCH   1   2
ATOM      2  C   UNL     1     163.385 173.830 165.883  1.00  0.00     0.000 C 
BRANCH   2   3
ATOM      3  C   UNL     1     164.012 174.664 164.752  1.00  0.00     0.000 C 
BRANCH   3   4
ATOM      4  C   UNL     1     165.489 174.319 164.507  1.00  0.00     0.000 C 
BRANCH   4   5
ATOM      5  C   UNL     1     166.032 173.399 165.611  1.00  0.00     0.000 C 
BRANCH   5   6
ATOM      6  C   UNL     1     166.823 172.203 165.055  1.00  0.00     0.000 C 
BRANCH   6   7
ATOM      7  C   UNL     1     167.188 172.374 163.570  1.00  0.00     0.000 C 
BRANCH   7   8
ATOM      8  C   UNL     1     168.504 173.142 163.369  1.00  0.00     0.000 C 
BRANCH   8   9
ATOM      9  C   UNL     1     168.944 173.193 161.898  1.00  0.00     0.000 C 
BRANCH   9  10
ATOM     10  C   UNL     1     168.859 174.626 161.351  1.00  0.00     0.006 C 
BRANCH  10  11
ATOM     11  C   UNL     1     167.540 175.314 161.723  1.00  0.00     0.053 C 
BRANCH  11  12
ATOM     12  C   UNL     1     166.463 175.027 160.722  1.00  0.00     0.041 C 
ATOM     13  O   UNL     1     166.452 175.622 159.613  1.00  0.00    -0.550 OA
ATOM     14  O   UNL     1     165.491 174.075 161.001  1.00  0.00    -0.550 OA
ENDBRANCH  11  12
ENDBRANCH  10  11
ENDBRANCH   9  10
ENDBRANCH   8   9
ENDBRANCH   7   8
ENDBRANCH   6   7
ENDBRANCH   5   6
ENDBRANCH   4   5
ENDBRANCH   3   4
ENDBRANCH   2   3
ENDBRANCH   1   2
BRANCH   1  15
ATOM     15  C   UNL     1     161.028 174.036 164.798  1.00  0.00     0.000 C 
BRANCH  15  16
ATOM     16  C   UNL     1     159.553 173.666 165.043  1.00  0.00     0.000 C 
BRANCH  16  17
ATOM     17  C   UNL     1     158.699 174.875 165.461  1.00  0.00     0.000 C 
BRANCH  17  18
ATOM     18  C   UNL     1     158.439 175.857 164.305  1.00  0.00    -0.000 C 
BRANCH  18  19
ATOM     19  C   UNL     1     157.072 175.706 163.602  1.00  0.00    -0.000 C 
BRANCH  19  20
ATOM     20  C   UNL     1     157.082 174.840 162.329  1.00  0.00    -0.000 C 
BRANCH  20  21
ATOM     21  C   UNL     1     156.082 173.668 162.333  1.00  0.00    -0.000 C 
BRANCH  21  22
ATOM     22  C   UNL     1     156.334 172.640 163.458  1.00  0.00    -0.000 C 
BRANCH  22  23
ATOM     23  C   UNL     1     155.069 171.850 163.827  1.00  0.00    -0.000 C 
BRANCH  23  24
ATOM     24  C   UNL     1     154.862 171.824 165.349  1.00  0.00    -0.000 C 
BRANCH  24  25
ATOM     25  C   UNL     1     155.418 173.077 166.042  1.00  0.00    -0.003 C 
ATOM     26  C   UNL     1     156.326 172.745 167.226  1.00  0.00     0.004 C 
ENDBRANCH  24  25
ENDBRANCH  23  24
ENDBRANCH  22  23
ENDBRANCH  21  22
ENDBRANCH  20  21
ENDBRANCH  19  20
ENDBRANCH  18  19
ENDBRANCH  17  18
ENDBRANCH  16  17
ENDBRANCH  15  16
ENDBRANCH   1  15
TORSDOF 22
ENDMDL
MODEL 9
REMARK VINA RESULT:    -3.681     14.031     17.594
REMARK INTER + INTRA:         -11.707
REMARK INTER:                  -7.084
REMARK INTRA:                  -4.623
REMARK UNBOUND:                -3.293
REMARK SMILES CCCCCCCCCCCCCCCCCCCCCCCC(=O)[O-]
REMARK SMILES IDX 13 1 14 2 15 3 16 4 17 5 18 6 19 7 20 8 21 9 22 10 23 11
REMARK SMILES IDX 24 12 25 13 26 14 12 15 11 16 10 17 9 18 8 19 7 20 6 21 5 22
REMARK SMILES IDX 4 23 3 24 2 25 1 26
REMARK H PARENT
REMARK Flexibility Score: inf
ROOT
ATOM      1  C   UNL     1     170.376 169.438 151.266  1.00  0.00     0.000 C 
ENDROOT
BRANCH   1   2
ATOM      2  C   UNL     1     171.707 169.495 152.042  1.00  0.00     0.000 C 
BRANCH   2   3
ATOM      3  C   UNL     1     172.383 170.878 152.070  1.00  0.00     0.000 C 
BRANCH   3   4
ATOM      4  C   UNL     1     171.430 172.013 151.667  1.00  0.00     0.000 C 
BRANCH   4   5
ATOM      5  C   UNL     1     171.449 173.144 152.707  1.00  0.00     0.000 C 
BRANCH   5   6
ATOM      6  C   UNL     1     170.719 172.769 154.008  1.00  0.00     0.000 C 
BRANCH   6   7
ATOM      7  C   UNL     1     169.328 172.163 153.753  1.00  0.00     0.000 C 
BRANCH   7   8
ATOM      8  C   UNL     1     169.070 170.902 154.593  1.00  0.00     0.000 C 
BRANCH   8   9
ATOM      9  C   UNL     1     170.320 170.427 155.350  1.00  0.00     0.000 C 
BRANCH   9  10
ATOM     10  C   UNL     1     170.362 168.893 155.428  1.00  0.00     0.006 C 
BRANCH  10  11
ATOM     11  C   UNL     1     168.963 168.269 155.370  1.00  0.00     0.053 C 
BRANCH  11  12
ATOM     12  C   UNL     1     169.009 166.783 155.557  1.00  0.00     0.041 C 
ATOM     13  O   UNL     1     169.343 166.033 154.603  1.00  0.00    -0.550 OA
ATOM     14  O   UNL     1     168.718 166.229 156.797  1.00  0.00    -0.550 OA
ENDBRANCH  11  12
ENDBRANCH  10  11
ENDBRANCH   9  10
ENDBRANCH   8   9
ENDBRANCH   7   8
ENDBRANCH   6   7
ENDBRANCH   5   6
ENDBRANCH   4   5
ENDBRANCH   3   4
ENDBRANCH   2   3
ENDBRANCH   1   2
BRANCH   1  15
ATOM     15  C   UNL     1     169.438 168.280 151.660  1.00  0.00     0.000 C 
BRANCH  15  16
ATOM     16  C   UNL     1     167.959 168.671 151.843  1.00  0.00     0.000 C 
BRANCH  16  17
ATOM     17  C   UNL     1     167.497 169.734 150.833  1.00  0.00     0.000 C 
BRANCH  17  18
ATOM     18  C   UNL     1     166.679 170.865 151.480  1.00  0.00    -0.000 C 
BRANCH  18  19
ATOM     19  C   UNL     1     165.945 170.488 152.786  1.00  0.00    -0.000 C 
BRANCH  19  20
ATOM     20  C   UNL     1     164.407 170.535 152.710  1.00  0.00    -0.000 C 
BRANCH  20  21
ATOM     21  C   UNL     1     163.698 169.224 153.101  1.00  0.00    -0.000 C 
BRANCH  21  22
ATOM     22  C   UNL     1     163.986 168.051 152.140  1.00  0.00    -0.000 C 
BRANCH  22  23
ATOM     23  C   UNL     1     163.265 168.204 150.792  1.00  0.00    -0.000 C 
BRANCH  23  24
ATOM     24  C   UNL     1     164.274 168.325 149.639  1.00  0.00    -0.000 C 
BRANCH  24  25
ATOM     25  C   UNL     1     164.163 169.665 148.897  1.00  0.00    -0.003 C 
ATOM     26  C   UNL     1     162.942 170.480 149.326  1.00  0.00     0.004 C 
ENDBRANCH  24  25
ENDBRANCH  23  24
ENDBRANCH  22  23
ENDBRANCH  21  22
ENDBRANCH  20  21
ENDBRANCH  19  20
ENDBRANCH  18  19
ENDBRANCH  17  18
ENDBRANCH  16  17
ENDBRANCH  15  16
ENDBRANCH   1  15
TORSDOF 22
ENDMDL
