MODEL 1
REMARK VINA RESULT:    26.010      0.000      0.000
REMARK INTER + INTRA:          31.018
REMARK INTER:                  31.332
REMARK INTRA:                  -0.315
REMARK UNBOUND:                -0.315
REMARK SMILES O=c1c(O)c(-c2ccc(O)c(O)c2)oc2cc(O)cc(O)c12
REMARK SMILES IDX 5 1 3 2 2 3 1 4 22 5 20 6 19 7 17 8 16 9 15 10 14 11 6 12
REMARK SMILES IDX 7 13 8 14 9 15 13 16 11 17 10 18 12 20 4 22 21 24 18 26
REMARK H PARENT 10 19 12 21 4 23 21 25 18 27
REMARK Flexibility Score: inf
ROOT
ATOM      1  C   UNL     1       8.896  -0.533  13.083  1.00  0.00     0.180 A 
ATOM      2  C   UNL     1       9.859  -1.530  13.319  1.00  0.00     0.208 A 
ATOM      3  C   UNL     1       9.773  -2.295  14.493  1.00  0.00     0.238 A 
ATOM      4  O   UNL     1      10.668  -3.149  14.725  1.00  0.00    -0.285 OA
ATOM      5  C   UNL     1       8.715  -2.067  15.407  1.00  0.00     0.111 A 
ATOM      6  C   UNL     1       8.507  -2.811  16.607  1.00  0.00     0.134 A 
ATOM      7  C   UNL     1       7.505  -2.413  17.501  1.00  0.00     0.093 A 
ATOM      8  C   UNL     1       6.664  -1.341  17.209  1.00  0.00     0.123 A 
ATOM      9  C   UNL     1       6.820  -0.643  16.009  1.00  0.00     0.094 A 
ATOM     10  C   UNL     1       7.834  -0.994  15.115  1.00  0.00     0.146 A 
ATOM     11  O   UNL     1       7.955  -0.299  13.990  1.00  0.00    -0.452 OA
ENDROOT
BRANCH   1  12
ATOM     12  C   UNL     1       8.907   0.297  11.857  1.00  0.00     0.025 A 
ATOM     13  C   UNL     1       9.682   1.467  11.823  1.00  0.00     0.016 A 
ATOM     14  C   UNL     1       9.692   2.277  10.684  1.00  0.00     0.051 A 
ATOM     15  C   UNL     1       8.916   1.940   9.570  1.00  0.00     0.157 A 
ATOM     16  C   UNL     1       8.112  -0.029  10.743  1.00  0.00     0.062 A 
ATOM     17  C   UNL     1       8.118   0.784   9.600  1.00  0.00     0.158 A 
BRANCH  15  18
ATOM     18  O   UNL     1       8.947   2.766   8.447  1.00  0.00    -0.504 OA
ATOM     19  H   UNL     1       9.815   3.029   7.997  1.00  0.00     0.293 HD
ENDBRANCH  15  18
BRANCH  17  20
ATOM     20  O   UNL     1       7.332   0.450   8.499  1.00  0.00    -0.504 OA
ATOM     21  H   UNL     1       6.807   1.151   7.989  1.00  0.00     0.293 HD
ENDBRANCH  17  20
ENDBRANCH   1  12
BRANCH   2  22
ATOM     22  O   UNL     1      10.906  -1.724  12.415  1.00  0.00    -0.502 OA
ATOM     23  H   UNL     1      11.378  -2.615  12.311  1.00  0.00     0.293 HD
ENDBRANCH   2  22
BRANCH   6  24
ATOM     24  O   UNL     1       9.231  -3.955  16.952  1.00  0.00    -0.507 OA
ATOM     25  H   UNL     1       9.545  -4.177  17.885  1.00  0.00     0.293 HD
ENDBRANCH   6  24
BRANCH   8  26
ATOM     26  O   UNL     1       5.667  -0.981  18.114  1.00  0.00    -0.508 OA
ATOM     27  H   UNL     1       4.743  -1.395  18.076  1.00  0.00     0.293 HD
ENDBRANCH   8  26
TORSDOF 6
ENDMDL
MODEL 2
REMARK VINA RESULT:    28.927      1.390      6.636
REMARK INTER + INTRA:          34.531
REMARK INTER:                  34.227
REMARK INTRA:                   0.304
REMARK UNBOUND:                -0.315
REMARK SMILES O=c1c(O)c(-c2ccc(O)c(O)c2)oc2cc(O)cc(O)c12
REMARK SMILES IDX 5 1 3 2 2 3 1 4 22 5 20 6 19 7 17 8 16 9 15 10 14 11 6 12
REMARK SMILES IDX 7 13 8 14 9 15 13 16 11 17 10 18 12 20 4 22 21 24 18 26
REMARK H PARENT 10 19 12 21 4 23 21 25 18 27
REMARK Flexibility Score: inf
ROOT
ATOM      1  C   UNL     1       7.739  -1.268  15.483  1.00  0.00     0.180 A 
ATOM      2  C   UNL     1       8.832  -2.149  15.554  1.00  0.00     0.208 A 
ATOM      3  C   UNL     1       9.756  -2.175  14.497  1.00  0.00     0.238 A 
ATOM      4  O   UNL     1      10.702  -3.005  14.540  1.00  0.00    -0.285 OA
ATOM      5  C   UNL     1       9.585  -1.308  13.390  1.00  0.00     0.111 A 
ATOM      6  C   UNL     1      10.481  -1.221  12.283  1.00  0.00     0.134 A 
ATOM      7  C   UNL     1      10.143  -0.422  11.183  1.00  0.00     0.093 A 
ATOM      8  C   UNL     1       8.978   0.341  11.177  1.00  0.00     0.123 A 
ATOM      9  C   UNL     1       8.123   0.310  12.281  1.00  0.00     0.094 A 
ATOM     10  C   UNL     1       8.414  -0.506  13.378  1.00  0.00     0.146 A 
ATOM     11  O   UNL     1       7.571  -0.514  14.403  1.00  0.00    -0.452 OA
ENDROOT
BRANCH   1  12
ATOM     12  C   UNL     1       6.738  -1.166  16.569  1.00  0.00     0.025 A 
ATOM     13  C   UNL     1       6.415  -2.308  17.319  1.00  0.00     0.016 A 
ATOM     14  C   UNL     1       5.459  -2.240  18.335  1.00  0.00     0.051 A 
ATOM     15  C   UNL     1       4.800  -1.037  18.608  1.00  0.00     0.157 A 
ATOM     16  C   UNL     1       6.060   0.038  16.830  1.00  0.00     0.062 A 
ATOM     17  C   UNL     1       5.097   0.108  17.849  1.00  0.00     0.158 A 
BRANCH  15  18
ATOM     18  O   UNL     1       3.851  -0.998  19.629  1.00  0.00    -0.504 OA
ATOM     19  H   UNL     1       2.857  -0.982  19.439  1.00  0.00     0.293 HD
ENDBRANCH  15  18
BRANCH  17  20
ATOM     20  O   UNL     1       4.435   1.307  18.105  1.00  0.00    -0.504 OA
ATOM     21  H   UNL     1       4.519   2.103  17.484  1.00  0.00     0.293 HD
ENDBRANCH  17  20
ENDBRANCH   1  12
BRANCH   2  22
ATOM     22  O   UNL     1       8.970  -3.012  16.644  1.00  0.00    -0.502 OA
ATOM     23  H   UNL     1       8.175  -3.443  17.101  1.00  0.00     0.293 HD
ENDBRANCH   2  22
BRANCH   6  24
ATOM     24  O   UNL     1      11.717  -1.871  12.226  1.00  0.00    -0.507 OA
ATOM     25  H   UNL     1      12.163  -2.185  11.377  1.00  0.00     0.293 HD
ENDBRANCH   6  24
BRANCH   8  26
ATOM     26  O   UNL     1       8.681   1.137  10.072  1.00  0.00    -0.508 OA
ATOM     27  H   UNL     1       8.115   1.973  10.158  1.00  0.00     0.293 HD
ENDBRANCH   8  26
TORSDOF 6
ENDMDL
