MODEL 1
REMARK VINA RESULT:    -3.512      0.000      0.000
REMARK INTER + INTRA:          -5.687
REMARK INTER:                  -4.949
REMARK INTRA:                  -0.738
REMARK UNBOUND:                -0.738
REMARK SMILES CCCCCCCCC(=O)[O-]
REMARK SMILES IDX 6 1 7 2 8 3 9 4 10 5 11 6 5 7 4 8 3 9 2 10 1 11
REMARK H PARENT
REMARK Flexibility Score: inf
ROOT
ATOM      1  C   UNL     1      13.433  64.025   7.340  1.00  0.00     0.000 C 
ENDROOT
BRANCH   1   2
ATOM      2  C   UNL     1      13.314  65.255   6.420  1.00  0.00     0.006 C 
BRANCH   2   3
ATOM      3  C   UNL     1      11.946  65.357   5.733  1.00  0.00     0.053 C 
BRANCH   3   4
ATOM      4  C   UNL     1      12.115  65.657   4.277  1.00  0.00     0.041 C 
ATOM      5  O   UNL     1      12.190  66.850   3.879  1.00  0.00    -0.550 OA
ATOM      6  O   UNL     1      12.139  64.620   3.352  1.00  0.00    -0.550 OA
ENDBRANCH   3   4
ENDBRANCH   2   3
ENDBRANCH   1   2
BRANCH   1   7
ATOM      7  C   UNL     1      12.841  62.723   6.771  1.00  0.00     0.000 C 
BRANCH   7   8
ATOM      8  C   UNL     1      11.774  62.100   7.687  1.00  0.00    -0.000 C 
BRANCH   8   9
ATOM      9  C   UNL     1      11.275  63.080   8.762  1.00  0.00    -0.000 C 
BRANCH   9  10
ATOM     10  C   UNL     1       9.854  63.592   8.484  1.00  0.00    -0.003 C 
ATOM     11  C   UNL     1       9.744  65.088   8.764  1.00  0.00     0.004 C 
ENDBRANCH   9  10
ENDBRANCH   8   9
ENDBRANCH   7   8
ENDBRANCH   1   7
TORSDOF 7
ENDMDL
MODEL 2
REMARK VINA RESULT:    -3.468      2.514      4.108
REMARK INTER + INTRA:          -5.625
REMARK INTER:                  -4.764
REMARK INTRA:                  -0.861
REMARK UNBOUND:                -0.738
REMARK SMILES CCCCCCCCC(=O)[O-]
REMARK SMILES IDX 6 1 7 2 8 3 9 4 10 5 11 6 5 7 4 8 3 9 2 10 1 11
REMARK H PARENT
REMARK Flexibility Score: inf
ROOT
ATOM      1  C   UNL     1      11.768  62.073   7.650  1.00  0.00     0.000 C 
ENDROOT
BRANCH   1   2
ATOM      2  C   UNL     1      11.227  62.962   8.784  1.00  0.00     0.006 C 
BRANCH   2   3
ATOM      3  C   UNL     1       9.827  63.518   8.493  1.00  0.00     0.053 C 
BRANCH   3   4
ATOM      4  C   UNL     1       9.799  64.999   8.704  1.00  0.00     0.041 C 
ATOM      5  O   UNL     1      10.815  65.597   9.146  1.00  0.00    -0.550 OA
ATOM      6  O   UNL     1       8.632  65.713   8.459  1.00  0.00    -0.550 OA
ENDBRANCH   3   4
ENDBRANCH   2   3
ENDBRANCH   1   2
BRANCH   1   7
ATOM      7  C   UNL     1      12.812  62.741   6.737  1.00  0.00     0.000 C 
BRANCH   7   8
ATOM      8  C   UNL     1      13.478  63.967   7.386  1.00  0.00    -0.000 C 
BRANCH   8   9
ATOM      9  C   UNL     1      13.273  65.252   6.566  1.00  0.00    -0.000 C 
BRANCH   9  10
ATOM     10  C   UNL     1      12.336  65.047   5.366  1.00  0.00    -0.003 C 
ATOM     11  C   UNL     1      11.160  66.017   5.417  1.00  0.00     0.004 C 
ENDBRANCH   9  10
ENDBRANCH   8   9
ENDBRANCH   7   8
ENDBRANCH   1   7
TORSDOF 7
ENDMDL
MODEL 3
REMARK VINA RESULT:    -3.405      1.058      1.574
REMARK INTER + INTRA:          -5.537
REMARK INTER:                  -4.963
REMARK INTRA:                  -0.573
REMARK UNBOUND:                -0.738
REMARK SMILES CCCCCCCCC(=O)[O-]
REMARK SMILES IDX 6 1 7 2 8 3 9 4 10 5 11 6 5 7 4 8 3 9 2 10 1 11
REMARK H PARENT
REMARK Flexibility Score: inf
ROOT
ATOM      1  C   UNL     1      13.217  65.190   6.619  1.00  0.00     0.000 C 
ENDROOT
BRANCH   1   2
ATOM      2  C   UNL     1      12.531  64.844   5.285  1.00  0.00     0.006 C 
BRANCH   2   3
ATOM      3  C   UNL     1      11.324  65.741   4.981  1.00  0.00     0.053 C 
BRANCH   3   4
ATOM      4  C   UNL     1      11.090  65.821   3.506  1.00  0.00     0.041 C 
ATOM      5  O   UNL     1       9.917  65.833   3.049  1.00  0.00    -0.550 OA
ATOM      6  O   UNL     1      12.170  65.833   2.631  1.00  0.00    -0.550 OA
ENDBRANCH   3   4
ENDBRANCH   2   3
ENDBRANCH   1   2
BRANCH   1   7
ATOM      7  C   UNL     1      13.358  64.018   7.606  1.00  0.00     0.000 C 
BRANCH   7   8
ATOM      8  C   UNL     1      12.898  62.676   7.011  1.00  0.00    -0.000 C 
BRANCH   8   9
ATOM      9  C   UNL     1      11.689  62.085   7.754  1.00  0.00    -0.000 C 
BRANCH   9  10
ATOM     10  C   UNL     1      11.168  63.007   8.867  1.00  0.00    -0.003 C 
ATOM     11  C   UNL     1       9.761  63.507   8.551  1.00  0.00     0.004 C 
ENDBRANCH   9  10
ENDBRANCH   8   9
ENDBRANCH   7   8
ENDBRANCH   1   7
TORSDOF 7
ENDMDL
MODEL 4
REMARK VINA RESULT:    -3.401      3.242      4.766
REMARK INTER + INTRA:          -5.531
REMARK INTER:                  -5.357
REMARK INTRA:                  -0.174
REMARK UNBOUND:                -0.738
REMARK SMILES CCCCCCCCC(=O)[O-]
REMARK SMILES IDX 6 1 7 2 8 3 9 4 10 5 11 6 5 7 4 8 3 9 2 10 1 11
REMARK H PARENT
REMARK Flexibility Score: inf
ROOT
ATOM      1  C   UNL     1       9.761  63.896   8.467  1.00  0.00     0.000 C 
ENDROOT
BRANCH   1   2
ATOM      2  C   UNL     1      10.886  63.022   9.051  1.00  0.00     0.006 C 
BRANCH   2   3
ATOM      3  C   UNL     1      11.579  62.153   7.994  1.00  0.00     0.053 C 
BRANCH   3   4
ATOM      4  C   UNL     1      12.734  62.887   7.389  1.00  0.00     0.041 C 
ATOM      5  O   UNL     1      12.987  62.771   6.161  1.00  0.00    -0.550 OA
ATOM      6  O   UNL     1      13.562  63.662   8.192  1.00  0.00    -0.550 OA
ENDBRANCH   3   4
ENDBRANCH   2   3
ENDBRANCH   1   2
BRANCH   1   7
ATOM      7  C   UNL     1       8.342  63.318   8.614  1.00  0.00     0.000 C 
BRANCH   7   8
ATOM      8  C   UNL     1       7.267  64.406   8.782  1.00  0.00    -0.000 C 
BRANCH   8   9
ATOM      9  C   UNL     1       5.853  63.891   8.467  1.00  0.00    -0.000 C 
BRANCH   9  10
ATOM     10  C   UNL     1       4.785  64.990   8.574  1.00  0.00    -0.003 C 
ATOM     11  C   UNL     1       4.849  65.936   7.378  1.00  0.00     0.004 C 
ENDBRANCH   9  10
ENDBRANCH   8   9
ENDBRANCH   7   8
ENDBRANCH   1   7
TORSDOF 7
ENDMDL
MODEL 5
REMARK VINA RESULT:    -3.368      3.147      4.578
REMARK INTER + INTRA:          -5.484
REMARK INTER:                  -4.727
REMARK INTRA:                  -0.757
REMARK UNBOUND:                -0.738
REMARK SMILES CCCCCCCCC(=O)[O-]
REMARK SMILES IDX 6 1 7 2 8 3 9 4 10 5 11 6 5 7 4 8 3 9 2 10 1 11
REMARK H PARENT
REMARK Flexibility Score: inf
ROOT
ATOM      1  C   UNL     1      13.043  63.041   6.513  1.00  0.00     0.000 C 
ENDROOT
BRANCH   1   2
ATOM      2  C   UNL     1      12.136  62.268   7.487  1.00  0.00     0.006 C 
BRANCH   2   3
ATOM      3  C   UNL     1      10.968  63.111   8.015  1.00  0.00     0.053 C 
BRANCH   3   4
ATOM      4  C   UNL     1      11.016  63.193   9.508  1.00  0.00     0.041 C 
ATOM      5  O   UNL     1      10.576  62.244  10.210  1.00  0.00    -0.550 OA
ATOM      6  O   UNL     1      11.501  64.338  10.126  1.00  0.00    -0.550 OA
ENDBRANCH   3   4
ENDBRANCH   2   3
ENDBRANCH   1   2
BRANCH   1   7
ATOM      7  C   UNL     1      13.722  64.291   7.103  1.00  0.00     0.000 C 
BRANCH   7   8
ATOM      8  C   UNL     1      13.291  65.592   6.406  1.00  0.00    -0.000 C 
BRANCH   8   9
ATOM      9  C   UNL     1      12.296  65.346   5.260  1.00  0.00    -0.000 C 
BRANCH   9  10
ATOM     10  C   UNL     1      10.941  66.031   5.493  1.00  0.00    -0.003 C 
ATOM     11  C   UNL     1      10.867  66.639   6.891  1.00  0.00     0.004 C 
ENDBRANCH   9  10
ENDBRANCH   8   9
ENDBRANCH   7   8
ENDBRANCH   1   7
TORSDOF 7
ENDMDL
MODEL 6
REMARK VINA RESULT:    -3.343      2.789      4.294
REMARK INTER + INTRA:          -5.448
REMARK INTER:                  -4.732
REMARK INTRA:                  -0.716
REMARK UNBOUND:                -0.738
REMARK SMILES CCCCCCCCC(=O)[O-]
REMARK SMILES IDX 6 1 7 2 8 3 9 4 10 5 11 6 5 7 4 8 3 9 2 10 1 11
REMARK H PARENT
REMARK Flexibility Score: inf
ROOT
ATOM      1  C   UNL     1      11.219  62.944   8.756  1.00  0.00     0.000 C 
ENDROOT
BRANCH   1   2
ATOM      2  C   UNL     1       9.872  63.629   8.462  1.00  0.00     0.006 C 
BRANCH   2   3
ATOM      3  C   UNL     1       9.963  65.160   8.479  1.00  0.00     0.053 C 
BRANCH   3   4
ATOM      4  C   UNL     1       8.595  65.765   8.486  1.00  0.00     0.041 C 
ATOM      5  O   UNL     1       8.388  66.873   7.925  1.00  0.00    -0.550 OA
ATOM      6  O   UNL     1       7.557  65.127   9.155  1.00  0.00    -0.550 OA
ENDBRANCH   3   4
ENDBRANCH   2   3
ENDBRANCH   1   2
BRANCH   1   7
ATOM      7  C   UNL     1      11.750  62.035   7.633  1.00  0.00     0.000 C 
BRANCH   7   8
ATOM      8  C   UNL     1      12.796  62.730   6.745  1.00  0.00    -0.000 C 
BRANCH   8   9
ATOM      9  C   UNL     1      13.490  63.902   7.458  1.00  0.00    -0.000 C 
BRANCH   9  10
ATOM     10  C   UNL     1      13.435  65.205   6.646  1.00  0.00    -0.003 C 
ATOM     11  C   UNL     1      12.436  65.095   5.498  1.00  0.00     0.004 C 
ENDBRANCH   9  10
ENDBRANCH   8   9
ENDBRANCH   7   8
ENDBRANCH   1   7
TORSDOF 7
ENDMDL
MODEL 7
REMARK VINA RESULT:    -3.317      2.579      4.410
REMARK INTER + INTRA:          -5.412
REMARK INTER:                  -4.701
REMARK INTRA:                  -0.711
REMARK UNBOUND:                -0.738
REMARK SMILES CCCCCCCCC(=O)[O-]
REMARK SMILES IDX 6 1 7 2 8 3 9 4 10 5 11 6 5 7 4 8 3 9 2 10 1 11
REMARK H PARENT
REMARK Flexibility Score: inf
ROOT
ATOM      1  C   UNL     1      12.758  62.682   7.214  1.00  0.00     0.000 C 
ENDROOT
BRANCH   1   2
ATOM      2  C   UNL     1      11.473  62.267   7.953  1.00  0.00     0.006 C 
BRANCH   2   3
ATOM      3  C   UNL     1      11.054  63.270   9.036  1.00  0.00     0.053 C 
BRANCH   3   4
ATOM      4  C   UNL     1       9.756  63.919   8.674  1.00  0.00     0.041 C 
ATOM      5  O   UNL     1       8.700  63.235   8.614  1.00  0.00    -0.550 OA
ATOM      6  O   UNL     1       9.720  65.270   8.353  1.00  0.00    -0.550 OA
ENDBRANCH   3   4
ENDBRANCH   2   3
ENDBRANCH   1   2
BRANCH   1   7
ATOM      7  C   UNL     1      13.466  63.925   7.782  1.00  0.00     0.000 C 
BRANCH   7   8
ATOM      8  C   UNL     1      13.771  64.983   6.708  1.00  0.00    -0.000 C 
BRANCH   8   9
ATOM      9  C   UNL     1      12.711  66.097   6.659  1.00  0.00    -0.000 C 
BRANCH   9  10
ATOM     10  C   UNL     1      11.651  65.858   5.574  1.00  0.00    -0.003 C 
ATOM     11  C   UNL     1      12.245  65.116   4.380  1.00  0.00     0.004 C 
ENDBRANCH   9  10
ENDBRANCH   8   9
ENDBRANCH   7   8
ENDBRANCH   1   7
TORSDOF 7
ENDMDL
MODEL 8
REMARK VINA RESULT:    -3.086      1.135      2.672
REMARK INTER + INTRA:          -5.086
REMARK INTER:                  -4.309
REMARK INTRA:                  -0.777
REMARK UNBOUND:                -0.738
REMARK SMILES CCCCCCCCC(=O)[O-]
REMARK SMILES IDX 6 1 7 2 8 3 9 4 10 5 11 6 5 7 4 8 3 9 2 10 1 11
REMARK H PARENT
REMARK Flexibility Score: inf
ROOT
ATOM      1  C   UNL     1      10.101  65.348   8.226  1.00  0.00     0.000 C 
ENDROOT
BRANCH   1   2
ATOM      2  C   UNL     1      10.517  65.722   6.792  1.00  0.00     0.006 C 
BRANCH   2   3
ATOM      3  C   UNL     1      11.705  66.692   6.747  1.00  0.00     0.053 C 
BRANCH   3   4
ATOM      4  C   UNL     1      12.452  66.543   5.460  1.00  0.00     0.041 C 
ATOM      5  O   UNL     1      13.121  67.506   4.999  1.00  0.00    -0.550 OA
ATOM      6  O   UNL     1      12.371  65.356   4.742  1.00  0.00    -0.550 OA
ENDBRANCH   3   4
ENDBRANCH   2   3
ENDBRANCH   1   2
BRANCH   1   7
ATOM      7  C   UNL     1       9.829  63.850   8.458  1.00  0.00     0.000 C 
BRANCH   7   8
ATOM      8  C   UNL     1      11.083  63.076   8.899  1.00  0.00    -0.000 C 
BRANCH   8   9
ATOM      9  C   UNL     1      11.626  62.155   7.794  1.00  0.00    -0.000 C 
BRANCH   9  10
ATOM     10  C   UNL     1      12.855  62.742   7.084  1.00  0.00    -0.003 C 
ATOM     11  C   UNL     1      13.545  63.787   7.956  1.00  0.00     0.004 C 
ENDBRANCH   9  10
ENDBRANCH   8   9
ENDBRANCH   7   8
ENDBRANCH   1   7
TORSDOF 7
ENDMDL
MODEL 9
REMARK VINA RESULT:    -2.958      2.384      4.339
REMARK INTER + INTRA:          -4.906
REMARK INTER:                  -4.187
REMARK INTRA:                  -0.719
REMARK UNBOUND:                -0.738
REMARK SMILES CCCCCCCCC(=O)[O-]
REMARK SMILES IDX 6 1 7 2 8 3 9 4 10 5 11 6 5 7 4 8 3 9 2 10 1 11
REMARK H PARENT
REMARK Flexibility Score: inf
ROOT
ATOM      1  C   UNL     1       9.797  63.844   8.380  1.00  0.00     0.000 C 
ENDROOT
BRANCH   1   2
ATOM      2  C   UNL     1      11.042  63.015   8.744  1.00  0.00     0.006 C 
BRANCH   2   3
ATOM      3  C   UNL     1      12.087  62.981   7.621  1.00  0.00     0.053 C 
BRANCH   3   4
ATOM      4  C   UNL     1      13.249  63.860   7.962  1.00  0.00     0.041 C 
ATOM      5  O   UNL     1      13.412  64.267   9.142  1.00  0.00    -0.550 OA
ATOM      6  O   UNL     1      14.125  64.272   6.965  1.00  0.00    -0.550 OA
ENDBRANCH   3   4
ENDBRANCH   2   3
ENDBRANCH   1   2
BRANCH   1   7
ATOM      7  C   UNL     1       9.856  65.327   8.789  1.00  0.00     0.000 C 
BRANCH   7   8
ATOM      8  C   UNL     1       9.674  66.284   7.598  1.00  0.00    -0.000 C 
BRANCH   8   9
ATOM      9  C   UNL     1      10.967  66.464   6.784  1.00  0.00    -0.000 C 
BRANCH   9  10
ATOM     10  C   UNL     1      10.765  66.200   5.285  1.00  0.00    -0.003 C 
ATOM     11  C   UNL     1      11.987  65.515   4.679  1.00  0.00     0.004 C 
ENDBRANCH   9  10
ENDBRANCH   8   9
ENDBRANCH   7   8
ENDBRANCH   1   7
TORSDOF 7
ENDMDL
