MODEL 1
REMARK VINA RESULT:    -6.078      0.000      0.000
REMARK INTER + INTRA:          -6.847
REMARK INTER:                  -6.611
REMARK INTRA:                  -0.236
REMARK UNBOUND:                -0.236
REMARK SMILES C=C1C[C@]2(O)O[C@@]3(C[C@@H]2C(C)C)[C@@H]1CC[C@@H]3C
REMARK SMILES IDX 17 1 16 2 15 3 14 4 13 5 7 6 8 7 9 8 4 9 6 10 3 11 2 12 1 13
REMARK SMILES IDX 10 14 11 15 12 16 5 17
REMARK H PARENT 5 18
REMARK Flexibility Score: inf
ROOT
ATOM      1  C   UNL     1      43.636  19.129 248.775  1.00  0.00     0.011 C 
ATOM      2  C   UNL     1      43.229  18.983 247.294  1.00  0.00     0.019 C 
ATOM      3  C   UNL     1      41.955  18.132 247.173  1.00  0.00     0.007 C 
ATOM      4  C   UNL     1      40.776  19.102 247.039  1.00  0.00     0.011 C 
ATOM      5  C   UNL     1      41.370  20.515 247.005  1.00  0.00     0.047 C 
ATOM      6  C   UNL     1      42.845  20.312 246.616  1.00  0.00     0.081 C 
ATOM      7  C   UNL     1      43.712  21.534 246.962  1.00  0.00     0.046 C 
ATOM      8  C   UNL     1      43.777  22.300 245.645  1.00  0.00     0.054 C 
ATOM      9  C   UNL     1      42.836  21.481 244.726  1.00  0.00     0.173 C 
ATOM     10  O   UNL     1      42.923  20.162 245.213  1.00  0.00    -0.342 OA
ATOM     11  C   UNL     1      41.334  21.896 244.761  1.00  0.00     0.096 C 
ATOM     12  C   UNL     1      40.651  21.437 246.034  1.00  0.00    -0.066 C 
ATOM     13  C   UNL     1      39.397  21.835 246.293  1.00  0.00     0.008 C 
ENDROOT
BRANCH   8  14
ATOM     14  C   UNL     1      43.514  23.833 245.774  1.00  0.00    -0.009 C 
ATOM     15  C   UNL     1      44.124  24.392 247.073  1.00  0.00     0.008 C 
ATOM     16  C   UNL     1      44.118  24.603 244.585  1.00  0.00     0.008 C 
ENDBRANCH   8  14
BRANCH   9  17
ATOM     17  O   UNL     1      43.316  21.534 243.405  1.00  0.00    -0.365 OA
ATOM     18  H   UNL     1      42.669  22.069 242.876  1.00  0.00     0.214 HD
ENDBRANCH   9  17
TORSDOF 2
ENDMDL
MODEL 2
REMARK VINA RESULT:    -5.815      1.736      4.193
REMARK INTER + INTRA:          -6.561
REMARK INTER:                  -6.218
REMARK INTRA:                  -0.342
REMARK UNBOUND:                -0.236
REMARK SMILES C=C1C[C@]2(O)O[C@@]3(C[C@@H]2C(C)C)[C@@H]1CC[C@@H]3C
REMARK SMILES IDX 17 1 16 2 15 3 14 4 13 5 7 6 8 7 9 8 4 9 6 10 3 11 2 12 1 13
REMARK SMILES IDX 10 14 11 15 12 16 5 17
REMARK H PARENT 5 18
REMARK Flexibility Score: inf
ROOT
ATOM      1  C   UNL     1      38.736  21.995 246.244  1.00  0.00     0.011 C 
ATOM      2  C   UNL     1      39.534  20.869 245.555  1.00  0.00     0.019 C 
ATOM      3  C   UNL     1      39.725  21.188 244.064  1.00  0.00     0.007 C 
ATOM      4  C   UNL     1      41.123  21.797 243.908  1.00  0.00     0.011 C 
ATOM      5  C   UNL     1      41.775  21.763 245.295  1.00  0.00     0.047 C 
ATOM      6  C   UNL     1      40.972  20.710 246.080  1.00  0.00     0.081 C 
ATOM      7  C   UNL     1      41.167  20.844 247.599  1.00  0.00     0.046 C 
ATOM      8  C   UNL     1      42.252  19.816 247.906  1.00  0.00     0.054 C 
ATOM      9  C   UNL     1      42.635  19.295 246.498  1.00  0.00     0.173 C 
ATOM     10  O   UNL     1      41.458  19.428 245.736  1.00  0.00    -0.342 OA
ATOM     11  C   UNL     1      43.758  20.095 245.769  1.00  0.00     0.096 C 
ATOM     12  C   UNL     1      43.255  21.425 245.247  1.00  0.00    -0.066 C 
ATOM     13  C   UNL     1      44.125  22.302 244.722  1.00  0.00     0.008 C 
ENDROOT
BRANCH   8  14
ATOM     14  C   UNL     1      43.398  20.340 248.825  1.00  0.00    -0.009 C 
ATOM     15  C   UNL     1      43.003  21.665 249.502  1.00  0.00     0.008 C 
ATOM     16  C   UNL     1      43.741  19.318 249.924  1.00  0.00     0.008 C 
ENDBRANCH   8  14
BRANCH   9  17
ATOM     17  O   UNL     1      42.996  17.939 246.587  1.00  0.00    -0.365 OA
ATOM     18  H   UNL     1      42.291  17.413 246.127  1.00  0.00     0.214 HD
ENDBRANCH   9  17
TORSDOF 2
ENDMDL
MODEL 3
REMARK VINA RESULT:    -5.780      1.916      3.409
REMARK INTER + INTRA:          -6.523
REMARK INTER:                  -6.132
REMARK INTRA:                  -0.391
REMARK UNBOUND:                -0.236
REMARK SMILES C=C1C[C@]2(O)O[C@@]3(C[C@@H]2C(C)C)[C@@H]1CC[C@@H]3C
REMARK SMILES IDX 17 1 16 2 15 3 14 4 13 5 7 6 8 7 9 8 4 9 6 10 3 11 2 12 1 13
REMARK SMILES IDX 10 14 11 15 12 16 5 17
REMARK H PARENT 5 18
REMARK Flexibility Score: inf
ROOT
ATOM      1  C   UNL     1      43.410  19.088 246.992  1.00  0.00     0.011 C 
ATOM      2  C   UNL     1      42.333  20.173 247.203  1.00  0.00     0.019 C 
ATOM      3  C   UNL     1      42.616  20.961 248.491  1.00  0.00     0.007 C 
ATOM      4  C   UNL     1      43.337  22.250 248.083  1.00  0.00     0.011 C 
ATOM      5  C   UNL     1      43.406  22.249 246.552  1.00  0.00     0.047 C 
ATOM      6  C   UNL     1      42.316  21.257 246.109  1.00  0.00     0.081 C 
ATOM      7  C   UNL     1      42.518  20.777 244.663  1.00  0.00     0.046 C 
ATOM      8  C   UNL     1      41.598  21.691 243.859  1.00  0.00     0.054 C 
ATOM      9  C   UNL     1      41.064  22.670 244.935  1.00  0.00     0.173 C 
ATOM     10  O   UNL     1      41.069  21.923 246.129  1.00  0.00    -0.342 OA
ATOM     11  C   UNL     1      41.932  23.943 245.174  1.00  0.00     0.096 C 
ATOM     12  C   UNL     1      43.195  23.628 245.948  1.00  0.00    -0.066 C 
ATOM     13  C   UNL     1      44.125  24.581 246.114  1.00  0.00     0.008 C 
ENDROOT
BRANCH   8  14
ATOM     14  C   UNL     1      42.249  22.301 242.579  1.00  0.00    -0.009 C 
ATOM     15  C   UNL     1      43.765  22.037 242.550  1.00  0.00     0.008 C 
ATOM     16  C   UNL     1      41.629  21.706 241.302  1.00  0.00     0.008 C 
ENDBRANCH   8  14
BRANCH   9  17
ATOM     17  O   UNL     1      39.747  23.043 244.611  1.00  0.00    -0.365 OA
ATOM     18  H   UNL     1      39.485  22.533 243.801  1.00  0.00     0.214 HD
ENDBRANCH   9  17
TORSDOF 2
ENDMDL
MODEL 4
REMARK VINA RESULT:    -5.564     11.016     13.454
REMARK INTER + INTRA:          -6.288
REMARK INTER:                  -5.905
REMARK INTRA:                  -0.384
REMARK UNBOUND:                -0.236
REMARK SMILES C=C1C[C@]2(O)O[C@@]3(C[C@@H]2C(C)C)[C@@H]1CC[C@@H]3C
REMARK SMILES IDX 17 1 16 2 15 3 14 4 13 5 7 6 8 7 9 8 4 9 6 10 3 11 2 12 1 13
REMARK SMILES IDX 10 14 11 15 12 16 5 17
REMARK H PARENT 5 18
REMARK Flexibility Score: inf
ROOT
ATOM      1  C   UNL     1      38.501  11.498 241.926  1.00  0.00     0.011 C 
ATOM      2  C   UNL     1      37.530  11.821 243.080  1.00  0.00     0.019 C 
ATOM      3  C   UNL     1      37.671  13.293 243.498  1.00  0.00     0.007 C 
ATOM      4  C   UNL     1      36.549  14.070 242.800  1.00  0.00     0.011 C 
ATOM      5  C   UNL     1      35.709  13.039 242.037  1.00  0.00     0.047 C 
ATOM      6  C   UNL     1      36.043  11.691 242.701  1.00  0.00     0.081 C 
ATOM      7  C   UNL     1      35.664  10.496 241.812  1.00  0.00     0.046 C 
ATOM      8  C   UNL     1      34.295  10.083 242.345  1.00  0.00     0.054 C 
ATOM      9  C   UNL     1      34.000  11.173 243.406  1.00  0.00     0.173 C 
ATOM     10  O   UNL     1      35.268  11.565 243.876  1.00  0.00    -0.342 OA
ATOM     11  C   UNL     1      33.281  12.451 242.874  1.00  0.00     0.096 C 
ATOM     12  C   UNL     1      34.220  13.338 242.082  1.00  0.00    -0.066 C 
ATOM     13  C   UNL     1      33.731  14.404 241.431  1.00  0.00     0.008 C 
ENDROOT
BRANCH   8  14
ATOM     14  C   UNL     1      33.220   9.831 241.243  1.00  0.00    -0.009 C 
ATOM     15  C   UNL     1      33.697  10.352 239.875  1.00  0.00     0.008 C 
ATOM     16  C   UNL     1      32.905   8.330 241.106  1.00  0.00     0.008 C 
ENDBRANCH   8  14
BRANCH   9  17
ATOM     17  O   UNL     1      33.255  10.609 244.457  1.00  0.00    -0.365 OA
ATOM     18  H   UNL     1      33.078   9.662 244.220  1.00  0.00     0.214 HD
ENDBRANCH   9  17
TORSDOF 2
ENDMDL
MODEL 5
REMARK VINA RESULT:    -5.516      2.175      3.969
REMARK INTER + INTRA:          -6.235
REMARK INTER:                  -5.912
REMARK INTRA:                  -0.324
REMARK UNBOUND:                -0.236
REMARK SMILES C=C1C[C@]2(O)O[C@@]3(C[C@@H]2C(C)C)[C@@H]1CC[C@@H]3C
REMARK SMILES IDX 17 1 16 2 15 3 14 4 13 5 7 6 8 7 9 8 4 9 6 10 3 11 2 12 1 13
REMARK SMILES IDX 10 14 11 15 12 16 5 17
REMARK H PARENT 5 18
REMARK Flexibility Score: inf
ROOT
ATOM      1  C   UNL     1      43.418  18.995 246.764  1.00  0.00     0.011 C 
ATOM      2  C   UNL     1      42.403  19.970 247.395  1.00  0.00     0.019 C 
ATOM      3  C   UNL     1      43.130  20.996 248.279  1.00  0.00     0.007 C 
ATOM      4  C   UNL     1      43.305  22.269 247.442  1.00  0.00     0.011 C 
ATOM      5  C   UNL     1      42.613  22.010 246.099  1.00  0.00     0.047 C 
ATOM      6  C   UNL     1      41.651  20.840 246.371  1.00  0.00     0.081 C 
ATOM      7  C   UNL     1      41.203  20.142 245.076  1.00  0.00     0.046 C 
ATOM      8  C   UNL     1      39.855  20.792 244.777  1.00  0.00     0.054 C 
ATOM      9  C   UNL     1      39.747  21.876 245.879  1.00  0.00     0.173 C 
ATOM     10  O   UNL     1      40.476  21.353 246.965  1.00  0.00    -0.342 OA
ATOM     11  C   UNL     1      40.367  23.262 245.522  1.00  0.00     0.096 C 
ATOM     12  C   UNL     1      41.881  23.230 245.565  1.00  0.00    -0.066 C 
ATOM     13  C   UNL     1      42.577  24.297 245.144  1.00  0.00     0.008 C 
ENDROOT
BRANCH   8  14
ATOM     14  C   UNL     1      39.669  21.242 243.294  1.00  0.00    -0.009 C 
ATOM     15  C   UNL     1      41.026  21.360 242.577  1.00  0.00     0.008 C 
ATOM     16  C   UNL     1      38.796  20.241 242.515  1.00  0.00     0.008 C 
ENDBRANCH   8  14
BRANCH   9  17
ATOM     17  O   UNL     1      38.398  22.035 246.242  1.00  0.00    -0.365 OA
ATOM     18  H   UNL     1      38.109  21.197 246.687  1.00  0.00     0.214 HD
ENDBRANCH   9  17
TORSDOF 2
ENDMDL
MODEL 6
REMARK VINA RESULT:    -5.494     10.209     12.379
REMARK INTER + INTRA:          -6.212
REMARK INTER:                  -6.007
REMARK INTRA:                  -0.205
REMARK UNBOUND:                -0.236
REMARK SMILES C=C1C[C@]2(O)O[C@@]3(C[C@@H]2C(C)C)[C@@H]1CC[C@@H]3C
REMARK SMILES IDX 17 1 16 2 15 3 14 4 13 5 7 6 8 7 9 8 4 9 6 10 3 11 2 12 1 13
REMARK SMILES IDX 10 14 11 15 12 16 5 17
REMARK H PARENT 5 18
REMARK Flexibility Score: inf
ROOT
ATOM      1  C   UNL     1      37.752  14.681 243.093  1.00  0.00     0.011 C 
ATOM      2  C   UNL     1      37.197  13.580 242.166  1.00  0.00     0.019 C 
ATOM      3  C   UNL     1      37.820  12.221 242.522  1.00  0.00     0.007 C 
ATOM      4  C   UNL     1      36.818  11.486 243.420  1.00  0.00     0.011 C 
ATOM      5  C   UNL     1      35.580  12.383 243.524  1.00  0.00     0.047 C 
ATOM      6  C   UNL     1      35.684  13.337 242.321  1.00  0.00     0.081 C 
ATOM      7  C   UNL     1      34.803  14.585 242.490  1.00  0.00     0.046 C 
ATOM      8  C   UNL     1      33.535  14.227 241.720  1.00  0.00     0.054 C 
ATOM      9  C   UNL     1      33.797  12.759 241.298  1.00  0.00     0.173 C 
ATOM     10  O   UNL     1      35.197  12.669 241.174  1.00  0.00    -0.342 OA
ATOM     11  C   UNL     1      33.345  11.674 242.323  1.00  0.00     0.096 C 
ATOM     12  C   UNL     1      34.278  11.600 243.514  1.00  0.00    -0.066 C 
ATOM     13  C   UNL     1      33.956  10.822 244.559  1.00  0.00     0.008 C 
ENDROOT
BRANCH   8  14
ATOM     14  C   UNL     1      32.208  14.540 242.478  1.00  0.00    -0.009 C 
ATOM     15  C   UNL     1      32.287  15.900 243.195  1.00  0.00     0.008 C 
ATOM     16  C   UNL     1      31.010  14.571 241.511  1.00  0.00     0.008 C 
ENDBRANCH   8  14
BRANCH   9  17
ATOM     17  O   UNL     1      33.191  12.521 240.051  1.00  0.00    -0.365 OA
ATOM     18  H   UNL     1      33.737  11.838 239.582  1.00  0.00     0.214 HD
ENDBRANCH   9  17
TORSDOF 2
ENDMDL
MODEL 7
REMARK VINA RESULT:    -5.433     11.129     13.733
REMARK INTER + INTRA:          -6.146
REMARK INTER:                  -5.816
REMARK INTRA:                  -0.330
REMARK UNBOUND:                -0.236
REMARK SMILES C=C1C[C@]2(O)O[C@@]3(C[C@@H]2C(C)C)[C@@H]1CC[C@@H]3C
REMARK SMILES IDX 17 1 16 2 15 3 14 4 13 5 7 6 8 7 9 8 4 9 6 10 3 11 2 12 1 13
REMARK SMILES IDX 10 14 11 15 12 16 5 17
REMARK H PARENT 5 18
REMARK Flexibility Score: inf
ROOT
ATOM      1  C   UNL     1      33.472  15.289 242.380  1.00  0.00     0.011 C 
ATOM      2  C   UNL     1      34.126  14.430 241.277  1.00  0.00     0.019 C 
ATOM      3  C   UNL     1      35.535  14.954 240.961  1.00  0.00     0.007 C 
ATOM      4  C   UNL     1      36.527  14.084 241.741  1.00  0.00     0.011 C 
ATOM      5  C   UNL     1      35.701  13.006 242.452  1.00  0.00     0.047 C 
ATOM      6  C   UNL     1      34.366  12.965 241.686  1.00  0.00     0.081 C 
ATOM      7  C   UNL     1      33.250  12.287 242.498  1.00  0.00     0.046 C 
ATOM      8  C   UNL     1      33.256  10.855 241.973  1.00  0.00     0.054 C 
ATOM      9  C   UNL     1      34.462  10.853 241.000  1.00  0.00     0.173 C 
ATOM     10  O   UNL     1      34.538  12.177 240.526  1.00  0.00    -0.342 OA
ATOM     11  C   UNL     1      35.840  10.503 241.640  1.00  0.00     0.096 C 
ATOM     12  C   UNL     1      36.385  11.649 242.467  1.00  0.00    -0.066 C 
ATOM     13  C   UNL     1      37.491  11.465 243.205  1.00  0.00     0.008 C 
ENDROOT
BRANCH   8  14
ATOM     14  C   UNL     1      33.215   9.759 243.083  1.00  0.00    -0.009 C 
ATOM     15  C   UNL     1      33.633  10.337 244.447  1.00  0.00     0.008 C 
ATOM     16  C   UNL     1      31.803   9.161 243.222  1.00  0.00     0.008 C 
ENDBRANCH   8  14
BRANCH   9  17
ATOM     17  O   UNL     1      34.195   9.978 239.932  1.00  0.00    -0.365 OA
ATOM     18  H   UNL     1      33.248  10.111 239.669  1.00  0.00     0.214 HD
ENDBRANCH   9  17
TORSDOF 2
ENDMDL
MODEL 8
REMARK VINA RESULT:    -5.340     11.653     14.078
REMARK INTER + INTRA:          -6.044
REMARK INTER:                  -5.678
REMARK INTRA:                  -0.366
REMARK UNBOUND:                -0.236
REMARK SMILES C=C1C[C@]2(O)O[C@@]3(C[C@@H]2C(C)C)[C@@H]1CC[C@@H]3C
REMARK SMILES IDX 17 1 16 2 15 3 14 4 13 5 7 6 8 7 9 8 4 9 6 10 3 11 2 12 1 13
REMARK SMILES IDX 10 14 11 15 12 16 5 17
REMARK H PARENT 5 18
REMARK Flexibility Score: inf
ROOT
ATOM      1  C   UNL     1      36.564  13.887 240.952  1.00  0.00     0.011 C 
ATOM      2  C   UNL     1      36.867  12.435 241.376  1.00  0.00     0.019 C 
ATOM      3  C   UNL     1      37.718  12.420 242.655  1.00  0.00     0.007 C 
ATOM      4  C   UNL     1      36.761  12.195 243.831  1.00  0.00     0.011 C 
ATOM      5  C   UNL     1      35.364  12.002 243.231  1.00  0.00     0.047 C 
ATOM      6  C   UNL     1      35.617  11.622 241.761  1.00  0.00     0.081 C 
ATOM      7  C   UNL     1      34.370  11.825 240.885  1.00  0.00     0.046 C 
ATOM      8  C   UNL     1      33.750  10.432 240.831  1.00  0.00     0.054 C 
ATOM      9  C   UNL     1      34.658   9.617 241.786  1.00  0.00     0.173 C 
ATOM     10  O   UNL     1      35.917  10.242 241.700  1.00  0.00    -0.342 OA
ATOM     11  C   UNL     1      34.233   9.623 243.286  1.00  0.00     0.096 C 
ATOM     12  C   UNL     1      34.548  10.946 243.956  1.00  0.00    -0.066 C 
ATOM     13  C   UNL     1      34.117  11.173 245.206  1.00  0.00     0.008 C 
ENDROOT
BRANCH   8  14
ATOM     14  C   UNL     1      32.211  10.398 241.086  1.00  0.00    -0.009 C 
ATOM     15  C   UNL     1      31.636  11.822 241.190  1.00  0.00     0.008 C 
ATOM     16  C   UNL     1      31.476   9.660 239.952  1.00  0.00     0.008 C 
ENDBRANCH   8  14
BRANCH   9  17
ATOM     17  O   UNL     1      34.751   8.293 241.322  1.00  0.00    -0.365 OA
ATOM     18  H   UNL     1      34.483   8.294 240.366  1.00  0.00     0.214 HD
ENDBRANCH   9  17
TORSDOF 2
ENDMDL
MODEL 9
REMARK VINA RESULT:    -5.155      8.909     11.038
REMARK INTER + INTRA:          -5.843
REMARK INTER:                  -5.453
REMARK INTRA:                  -0.390
REMARK UNBOUND:                -0.236
REMARK SMILES C=C1C[C@]2(O)O[C@@]3(C[C@@H]2C(C)C)[C@@H]1CC[C@@H]3C
REMARK SMILES IDX 17 1 16 2 15 3 14 4 13 5 7 6 8 7 9 8 4 9 6 10 3 11 2 12 1 13
REMARK SMILES IDX 10 14 11 15 12 16 5 17
REMARK H PARENT 5 18
REMARK Flexibility Score: inf
ROOT
ATOM      1  C   UNL     1      33.272  12.367 242.031  1.00  0.00     0.011 C 
ATOM      2  C   UNL     1      34.271  12.161 243.188  1.00  0.00     0.019 C 
ATOM      3  C   UNL     1      34.604  10.669 243.344  1.00  0.00     0.007 C 
ATOM      4  C   UNL     1      35.932  10.425 242.617  1.00  0.00     0.011 C 
ATOM      5  C   UNL     1      36.410  11.788 242.104  1.00  0.00     0.047 C 
ATOM      6  C   UNL     1      35.644  12.818 242.953  1.00  0.00     0.081 C 
ATOM      7  C   UNL     1      35.635  14.213 242.308  1.00  0.00     0.046 C 
ATOM      8  C   UNL     1      36.786  14.930 243.008  1.00  0.00     0.054 C 
ATOM      9  C   UNL     1      37.395  13.814 243.893  1.00  0.00     0.173 C 
ATOM     10  O   UNL     1      36.311  12.964 244.190  1.00  0.00    -0.342 OA
ATOM     11  C   UNL     1      38.499  12.946 243.215  1.00  0.00     0.096 C 
ATOM     12  C   UNL     1      37.914  11.969 242.215  1.00  0.00    -0.066 C 
ATOM     13  C   UNL     1      38.735  11.248 241.437  1.00  0.00     0.008 C 
ENDROOT
BRANCH   8  14
ATOM     14  C   UNL     1      37.745  15.704 242.051  1.00  0.00    -0.009 C 
ATOM     15  C   UNL     1      37.379  15.450 240.577  1.00  0.00     0.008 C 
ATOM     16  C   UNL     1      37.685  17.220 242.310  1.00  0.00     0.008 C 
ENDBRANCH   8  14
BRANCH   9  17
ATOM     17  O   UNL     1      37.895  14.382 245.078  1.00  0.00    -0.365 OA
ATOM     18  H   UNL     1      38.703  13.869 245.336  1.00  0.00     0.214 HD
ENDBRANCH   9  17
TORSDOF 2
ENDMDL
