MODEL 1
REMARK VINA RESULT:    -5.615      0.000      0.000
REMARK INTER + INTRA:         -11.709
REMARK INTER:                  -9.225
REMARK INTRA:                  -2.484
REMARK UNBOUND:                -2.484
REMARK SMILES C[C@@H]1O[C@H](OC[C@H]2O[C@H](Oc3c(-c4ccc(O)c(O)c4)oc4cc(O)cc(O)c4c3=O)[C@@H](O)[C@@H](O)[C@@H]2O)[C@H](O)[C@H](O)[C@H]1O
REMARK SMILES IDX 7 1 36 2 34 3 32 4 9 5 8 6 6 7 5 8 4 9 1 10 2 11 42 12 3 13
REMARK SMILES IDX 40 14 38 15 43 16 41 18 39 20 37 22 35 24 10 26 11 27 12 28
REMARK SMILES IDX 30 29 21 30 29 31 31 32 22 33 27 34 23 35 26 36 24 37 13 38
REMARK SMILES IDX 20 39 14 40 18 41 15 42 16 43 19 44 17 46 28 48 25 50 33 52
REMARK H PARENT 43 17 41 19 39 21 37 23 35 25 19 45 17 47 28 49 25 51 33 53
REMARK Flexibility Score: inf
ROOT
ATOM      1  C   UNL     1      89.413  90.240  96.065  1.00  0.00     0.180 C 
ATOM      2  C   UNL     1      88.056  90.539  95.315  1.00  0.00     0.177 C 
ATOM      3  C   UNL     1      87.693  89.469  94.249  1.00  0.00     0.180 C 
ATOM      4  C   UNL     1      87.863  88.052  94.925  1.00  0.00     0.214 C 
ATOM      5  C   UNL     1      89.140  87.664  95.662  1.00  0.00     0.339 C 
ATOM      6  O   UNL     1      90.032  88.855  96.058  1.00  0.00    -0.332 OA
ENDROOT
BRANCH   1   7
ATOM      7  C   UNL     1      89.373  91.007  97.508  1.00  0.00     0.198 C 
BRANCH   7   8
ATOM      8  O   UNL     1      90.721  91.210  98.140  1.00  0.00    -0.347 OA
BRANCH   8   9
ATOM      9  C   UNL     1      91.189  90.158  99.020  1.00  0.00     0.281 C 
ATOM     10  C   UNL     1      92.244  86.786  98.427  1.00  0.00     0.041 C 
ATOM     11  C   UNL     1      91.371  87.720  99.533  1.00  0.00     0.150 C 
ATOM     12  C   UNL     1      92.522  88.198 100.465  1.00  0.00     0.174 C 
ATOM     13  O   UNL     1      90.539  88.899  99.026  1.00  0.00    -0.344 OA
ATOM     14  C   UNL     1      93.336  89.326  99.760  1.00  0.00     0.179 C 
ATOM     15  C   UNL     1      92.550  89.787  98.528  1.00  0.00     0.202 C 
BRANCH  12  16
ATOM     16  O   UNL     1      92.064  88.570 101.768  1.00  0.00    -0.388 OA
ATOM     17  H   UNL     1      92.550  89.396 102.038  1.00  0.00     0.211 HD
ENDBRANCH  12  16
BRANCH  14  18
ATOM     18  O   UNL     1      94.608  88.909  99.490  1.00  0.00    -0.387 OA
ATOM     19  H   UNL     1      94.542  87.859  99.466  1.00  0.00     0.211 HD
ENDBRANCH  14  18
BRANCH  15  20
ATOM     20  O   UNL     1      92.380  88.925  97.391  1.00  0.00    -0.385 OA
ATOM     21  H   UNL     1      91.582  88.978  96.767  1.00  0.00     0.211 HD
ENDBRANCH  15  20
ENDBRANCH   8   9
ENDBRANCH   7   8
ENDBRANCH   1   7
BRANCH   2  22
ATOM     22  O   UNL     1      88.023  91.810  94.824  1.00  0.00    -0.387 OA
ATOM     23  H   UNL     1      88.390  92.449  95.497  1.00  0.00     0.211 HD
ENDBRANCH   2  22
BRANCH   3  24
ATOM     24  O   UNL     1      86.386  89.630  93.760  1.00  0.00    -0.387 OA
ATOM     25  H   UNL     1      85.973  90.420  94.255  1.00  0.00     0.211 HD
ENDBRANCH   3  24
BRANCH   5  26
ATOM     26  O   UNL     1      89.887  86.592  95.137  1.00  0.00    -0.454 OA
BRANCH  26  27
ATOM     27  C   UNL     1      90.810  86.724  94.055  1.00  0.00     0.214 A 
ATOM     28  C   UNL     1      90.908  85.833  92.975  1.00  0.00     0.180 A 
ATOM     29  C   UNL     1      91.970  87.457  94.218  1.00  0.00     0.239 A 
ATOM     30  O   UNL     1      92.134  85.391  92.619  1.00  0.00    -0.452 OA
ATOM     31  C   UNL     1      93.217  86.820  94.052  1.00  0.00     0.111 A 
ATOM     32  O   UNL     1      91.980  88.717  94.227  1.00  0.00    -0.285 OA
ATOM     33  C   UNL     1      93.268  85.803  93.137  1.00  0.00     0.146 A 
ATOM     34  C   UNL     1      94.414  87.428  94.483  1.00  0.00     0.134 A 
ATOM     35  C   UNL     1      94.528  85.371  92.590  1.00  0.00     0.094 A 
ATOM     36  C   UNL     1      95.597  87.122  93.902  1.00  0.00     0.093 A 
ATOM     37  C   UNL     1      95.680  86.114  92.943  1.00  0.00     0.123 A 
BRANCH  28  38
ATOM     38  C   UNL     1      89.926  86.009  91.934  1.00  0.00     0.025 A 
ATOM     39  C   UNL     1      89.177  87.217  91.784  1.00  0.00     0.062 A 
ATOM     40  C   UNL     1      89.607  84.892  91.139  1.00  0.00     0.016 A 
ATOM     41  C   UNL     1      88.064  87.165  90.941  1.00  0.00     0.158 A 
ATOM     42  C   UNL     1      88.558  84.877  90.296  1.00  0.00     0.051 A 
ATOM     43  C   UNL     1      87.717  86.009  90.262  1.00  0.00     0.157 A 
BRANCH  41  44
ATOM     44  O   UNL     1      87.212  88.250  90.950  1.00  0.00    -0.504 OA
ATOM     45  H   UNL     1      87.165  88.921  91.675  1.00  0.00     0.293 HD
ENDBRANCH  41  44
BRANCH  43  46
ATOM     46  O   UNL     1      86.472  85.927  89.566  1.00  0.00    -0.504 OA
ATOM     47  H   UNL     1      86.529  85.774  88.543  1.00  0.00     0.293 HD
ENDBRANCH  43  46
ENDBRANCH  28  38
BRANCH  34  48
ATOM     48  O   UNL     1      94.422  88.406  95.552  1.00  0.00    -0.507 OA
ATOM     49  H   UNL     1      93.635  89.059  95.721  1.00  0.00     0.293 HD
ENDBRANCH  34  48
BRANCH  37  50
ATOM     50  O   UNL     1      96.856  85.809  92.279  1.00  0.00    -0.508 OA
ATOM     51  H   UNL     1      97.662  85.826  92.862  1.00  0.00     0.293 HD
ENDBRANCH  37  50
ENDBRANCH  26  27
ENDBRANCH   5  26
BRANCH   4  52
ATOM     52  O   UNL     1      86.804  87.107  95.021  1.00  0.00    -0.384 OA
ATOM     53  H   UNL     1      87.117  86.352  95.666  1.00  0.00     0.211 HD
ENDBRANCH   4  52
TORSDOF 16
ENDMDL
MODEL 2
REMARK VINA RESULT:    -5.596      2.113      6.297
REMARK INTER + INTRA:         -11.679
REMARK INTER:                  -8.677
REMARK INTRA:                  -3.002
REMARK UNBOUND:                -2.484
REMARK SMILES C[C@@H]1O[C@H](OC[C@H]2O[C@H](Oc3c(-c4ccc(O)c(O)c4)oc4cc(O)cc(O)c4c3=O)[C@@H](O)[C@@H](O)[C@@H]2O)[C@H](O)[C@H](O)[C@H]1O
REMARK SMILES IDX 7 1 36 2 34 3 32 4 9 5 8 6 6 7 5 8 4 9 1 10 2 11 42 12 3 13
REMARK SMILES IDX 40 14 38 15 43 16 41 18 39 20 37 22 35 24 10 26 11 27 12 28
REMARK SMILES IDX 30 29 21 30 29 31 31 32 22 33 27 34 23 35 26 36 24 37 13 38
REMARK SMILES IDX 20 39 14 40 18 41 15 42 16 43 19 44 17 46 28 48 25 50 33 52
REMARK H PARENT 43 17 41 19 39 21 37 23 35 25 19 45 17 47 28 49 25 51 33 53
REMARK Flexibility Score: inf
ROOT
ATOM      1  C   UNL     1      93.444  87.770  99.926  1.00  0.00     0.180 C 
ATOM      2  C   UNL     1      92.383  86.867 100.668  1.00  0.00     0.177 C 
ATOM      3  C   UNL     1      90.914  87.220 100.307  1.00  0.00     0.180 C 
ATOM      4  C   UNL     1      90.825  87.315  98.733  1.00  0.00     0.214 C 
ATOM      5  C   UNL     1      91.795  88.169  97.927  1.00  0.00     0.339 C 
ATOM      6  O   UNL     1      93.078  88.560  98.683  1.00  0.00    -0.332 OA
ENDROOT
BRANCH   1   7
ATOM      7  C   UNL     1      94.856  86.949  99.871  1.00  0.00     0.198 C 
BRANCH   7   8
ATOM      8  O   UNL     1      94.965  85.979  98.728  1.00  0.00    -0.347 OA
BRANCH   8   9
ATOM      9  C   UNL     1      95.821  86.371  97.626  1.00  0.00     0.281 C 
ATOM     10  C   UNL     1      96.356  85.000  94.360  1.00  0.00     0.041 C 
ATOM     11  C   UNL     1      97.192  85.717  95.643  1.00  0.00     0.150 C 
ATOM     12  C   UNL     1      97.031  87.220  95.276  1.00  0.00     0.174 C 
ATOM     13  O   UNL     1      96.740  85.441  97.077  1.00  0.00    -0.344 OA
ATOM     14  C   UNL     1      95.583  87.692  95.614  1.00  0.00     0.179 C 
ATOM     15  C   UNL     1      94.911  86.609  96.464  1.00  0.00     0.202 C 
BRANCH  12  16
ATOM     16  O   UNL     1      98.040  88.047  95.863  1.00  0.00    -0.388 OA
ATOM     17  H   UNL     1      98.904  87.554  95.817  1.00  0.00     0.211 HD
ENDBRANCH  12  16
BRANCH  14  18
ATOM     18  O   UNL     1      94.901  88.015  94.477  1.00  0.00    -0.387 OA
ATOM     19  H   UNL     1      94.598  87.089  94.078  1.00  0.00     0.211 HD
ENDBRANCH  14  18
BRANCH  15  20
ATOM     20  O   UNL     1      94.577  85.328  95.906  1.00  0.00    -0.385 OA
ATOM     21  H   UNL     1      93.631  85.056  95.663  1.00  0.00     0.211 HD
ENDBRANCH  15  20
ENDBRANCH   8   9
ENDBRANCH   7   8
ENDBRANCH   1   7
BRANCH   2  22
ATOM     22  O   UNL     1      92.605  86.834 102.013  1.00  0.00    -0.387 OA
ATOM     23  H   UNL     1      93.538  86.533 102.201  1.00  0.00     0.211 HD
ENDBRANCH   2  22
BRANCH   3  24
ATOM     24  O   UNL     1      90.004  86.268 100.797  1.00  0.00    -0.387 OA
ATOM     25  H   UNL     1      89.679  86.599 101.705  1.00  0.00     0.211 HD
ENDBRANCH   3  24
BRANCH   5  26
ATOM     26  O   UNL     1      91.256  89.249  97.202  1.00  0.00    -0.454 OA
BRANCH  26  27
ATOM     27  C   UNL     1      90.608  89.110  95.937  1.00  0.00     0.214 A 
ATOM     28  C   UNL     1      89.222  89.181  95.736  1.00  0.00     0.180 A 
ATOM     29  C   UNL     1      91.239  88.442  94.904  1.00  0.00     0.239 A 
ATOM     30  O   UNL     1      88.631  88.222  94.991  1.00  0.00    -0.452 OA
ATOM     31  C   UNL     1      90.633  87.294  94.355  1.00  0.00     0.111 A 
ATOM     32  O   UNL     1      92.176  88.956  94.237  1.00  0.00    -0.285 OA
ATOM     33  C   UNL     1      89.264  87.269  94.345  1.00  0.00     0.146 A 
ATOM     34  C   UNL     1      91.350  86.417  93.516  1.00  0.00     0.134 A 
ATOM     35  C   UNL     1      88.553  86.379  93.464  1.00  0.00     0.094 A 
ATOM     36  C   UNL     1      90.711  85.654  92.599  1.00  0.00     0.093 A 
ATOM     37  C   UNL     1      89.319  85.629  92.539  1.00  0.00     0.123 A 
BRANCH  28  38
ATOM     38  C   UNL     1      88.670  90.512  95.681  1.00  0.00     0.025 A 
ATOM     39  C   UNL     1      89.190  91.591  96.462  1.00  0.00     0.062 A 
ATOM     40  C   UNL     1      87.491  90.703  94.936  1.00  0.00     0.016 A 
ATOM     41  C   UNL     1      88.402  92.741  96.548  1.00  0.00     0.158 A 
ATOM     42  C   UNL     1      86.769  91.837  94.994  1.00  0.00     0.051 A 
ATOM     43  C   UNL     1      87.188  92.845  95.887  1.00  0.00     0.157 A 
BRANCH  41  44
ATOM     44  O   UNL     1      88.782  93.703  97.462  1.00  0.00    -0.504 OA
ATOM     45  H   UNL     1      89.611  93.668  98.001  1.00  0.00     0.293 HD
ENDBRANCH  41  44
BRANCH  43  46
ATOM     46  O   UNL     1      86.318  93.946  96.148  1.00  0.00    -0.504 OA
ATOM     47  H   UNL     1      85.651  94.192  95.394  1.00  0.00     0.293 HD
ENDBRANCH  43  46
ENDBRANCH  28  38
BRANCH  34  48
ATOM     48  O   UNL     1      92.793  86.305  93.597  1.00  0.00    -0.507 OA
ATOM     49  H   UNL     1      93.381  86.997  94.095  1.00  0.00     0.293 HD
ENDBRANCH  34  48
BRANCH  37  50
ATOM     50  O   UNL     1      88.624  84.913  91.579  1.00  0.00    -0.508 OA
ATOM     51  H   UNL     1      88.732  85.270  90.656  1.00  0.00     0.293 HD
ENDBRANCH  37  50
ENDBRANCH  26  27
ENDBRANCH   5  26
BRANCH   4  52
ATOM     52  O   UNL     1      89.943  86.513  97.957  1.00  0.00    -0.384 OA
ATOM     53  H   UNL     1      89.988  86.859  96.976  1.00  0.00     0.211 HD
ENDBRANCH   4  52
TORSDOF 16
ENDMDL
MODEL 3
REMARK VINA RESULT:    -5.535      2.579      7.684
REMARK INTER + INTRA:         -11.578
REMARK INTER:                  -8.971
REMARK INTRA:                  -2.606
REMARK UNBOUND:                -2.484
REMARK SMILES C[C@@H]1O[C@H](OC[C@H]2O[C@H](Oc3c(-c4ccc(O)c(O)c4)oc4cc(O)cc(O)c4c3=O)[C@@H](O)[C@@H](O)[C@@H]2O)[C@H](O)[C@H](O)[C@H]1O
REMARK SMILES IDX 7 1 36 2 34 3 32 4 9 5 8 6 6 7 5 8 4 9 1 10 2 11 42 12 3 13
REMARK SMILES IDX 40 14 38 15 43 16 41 18 39 20 37 22 35 24 10 26 11 27 12 28
REMARK SMILES IDX 30 29 21 30 29 31 31 32 22 33 27 34 23 35 26 36 24 37 13 38
REMARK SMILES IDX 20 39 14 40 18 41 15 42 16 43 19 44 17 46 28 48 25 50 33 52
REMARK H PARENT 43 17 41 19 39 21 37 23 35 25 19 45 17 47 28 49 25 51 33 53
REMARK Flexibility Score: inf
ROOT
ATOM      1  C   UNL     1      90.144  88.103  91.428  1.00  0.00     0.180 C 
ATOM      2  C   UNL     1      89.603  86.734  90.860  1.00  0.00     0.177 C 
ATOM      3  C   UNL     1      88.060  86.590  90.967  1.00  0.00     0.180 C 
ATOM      4  C   UNL     1      87.421  87.921  90.408  1.00  0.00     0.214 C 
ATOM      5  C   UNL     1      87.867  89.292  90.902  1.00  0.00     0.339 C 
ATOM      6  O   UNL     1      89.226  89.296  91.625  1.00  0.00    -0.332 OA
ENDROOT
BRANCH   1   7
ATOM      7  C   UNL     1      91.586  88.410  90.721  1.00  0.00     0.198 C 
BRANCH   7   8
ATOM      8  O   UNL     1      92.604  87.317  90.889  1.00  0.00    -0.347 OA
BRANCH   8   9
ATOM      9  C   UNL     1      93.509  87.444  92.013  1.00  0.00     0.281 C 
ATOM     10  C   UNL     1      92.979  87.600  95.553  1.00  0.00     0.041 C 
ATOM     11  C   UNL     1      93.940  88.266  94.332  1.00  0.00     0.150 C 
ATOM     12  C   UNL     1      95.093  87.222  94.283  1.00  0.00     0.174 C 
ATOM     13  O   UNL     1      93.337  88.497  92.946  1.00  0.00    -0.344 OA
ATOM     14  C   UNL     1      94.605  85.933  93.553  1.00  0.00     0.179 C 
ATOM     15  C   UNL     1      93.267  86.245  92.872  1.00  0.00     0.202 C 
BRANCH  12  16
ATOM     16  O   UNL     1      96.301  87.753  93.731  1.00  0.00    -0.388 OA
ATOM     17  H   UNL     1      97.059  87.205  94.071  1.00  0.00     0.211 HD
ENDBRANCH  12  16
BRANCH  14  18
ATOM     18  O   UNL     1      94.562  84.875  94.415  1.00  0.00    -0.387 OA
ATOM     19  H   UNL     1      94.332  85.304  95.349  1.00  0.00     0.211 HD
ENDBRANCH  14  18
BRANCH  15  20
ATOM     20  O   UNL     1      92.082  86.497  93.644  1.00  0.00    -0.385 OA
ATOM     21  H   UNL     1      91.330  85.824  93.746  1.00  0.00     0.211 HD
ENDBRANCH  15  20
ENDBRANCH   8   9
ENDBRANCH   7   8
ENDBRANCH   1   7
BRANCH   2  22
ATOM     22  O   UNL     1      90.272  85.671  91.389  1.00  0.00    -0.387 OA
ATOM     23  H   UNL     1      90.843  85.969  92.152  1.00  0.00     0.211 HD
ENDBRANCH   2  22
BRANCH   3  24
ATOM     24  O   UNL     1      87.580  85.476  90.258  1.00  0.00    -0.387 OA
ATOM     25  H   UNL     1      87.692  85.679  89.264  1.00  0.00     0.211 HD
ENDBRANCH   3  24
BRANCH   5  26
ATOM     26  O   UNL     1      86.909  90.082  91.567  1.00  0.00    -0.454 OA
BRANCH  26  27
ATOM     27  C   UNL     1      87.179  90.818  92.760  1.00  0.00     0.214 A 
ATOM     28  C   UNL     1      86.899  90.366  94.058  1.00  0.00     0.180 A 
ATOM     29  C   UNL     1      87.301  92.194  92.715  1.00  0.00     0.239 A 
ATOM     30  O   UNL     1      86.265  91.204  94.907  1.00  0.00    -0.452 OA
ATOM     31  C   UNL     1      86.414  92.989  93.470  1.00  0.00     0.111 A 
ATOM     32  O   UNL     1      88.328  92.769  92.267  1.00  0.00    -0.285 OA
ATOM     33  C   UNL     1      85.972  92.460  94.652  1.00  0.00     0.146 A 
ATOM     34  C   UNL     1      86.299  94.376  93.243  1.00  0.00     0.134 A 
ATOM     35  C   UNL     1      85.420  93.309  95.675  1.00  0.00     0.094 A 
ATOM     36  C   UNL     1      85.893  95.210  94.228  1.00  0.00     0.093 A 
ATOM     37  C   UNL     1      85.467  94.707  95.457  1.00  0.00     0.123 A 
BRANCH  28  38
ATOM     38  C   UNL     1      87.856  89.442  94.614  1.00  0.00     0.025 A 
ATOM     39  C   UNL     1      87.986  88.098  94.144  1.00  0.00     0.062 A 
ATOM     40  C   UNL     1      88.578  89.851  95.752  1.00  0.00     0.016 A 
ATOM     41  C   UNL     1      88.726  87.223  94.943  1.00  0.00     0.158 A 
ATOM     42  C   UNL     1      89.325  89.003  96.482  1.00  0.00     0.051 A 
ATOM     43  C   UNL     1      89.328  87.640  96.119  1.00  0.00     0.157 A 
BRANCH  41  44
ATOM     44  O   UNL     1      88.685  85.882  94.620  1.00  0.00    -0.504 OA
ATOM     45  H   UNL     1      89.475  85.339  94.375  1.00  0.00     0.293 HD
ENDBRANCH  41  44
BRANCH  43  46
ATOM     46  O   UNL     1      89.910  86.687  97.009  1.00  0.00    -0.504 OA
ATOM     47  H   UNL     1      90.272  87.059  97.906  1.00  0.00     0.293 HD
ENDBRANCH  43  46
ENDBRANCH  28  38
BRANCH  34  48
ATOM     48  O   UNL     1      86.619  94.960  91.956  1.00  0.00    -0.507 OA
ATOM     49  H   UNL     1      86.650  95.984  91.798  1.00  0.00     0.293 HD
ENDBRANCH  34  48
BRANCH  37  50
ATOM     50  O   UNL     1      85.101  95.524  96.513  1.00  0.00    -0.508 OA
ATOM     51  H   UNL     1      85.874  95.919  97.000  1.00  0.00     0.293 HD
ENDBRANCH  37  50
ENDBRANCH  26  27
ENDBRANCH   5  26
BRANCH   4  52
ATOM     52  O   UNL     1      86.505  87.944  89.320  1.00  0.00    -0.384 OA
ATOM     53  H   UNL     1      86.575  87.027  88.833  1.00  0.00     0.211 HD
ENDBRANCH   4  52
TORSDOF 16
ENDMDL
MODEL 4
REMARK VINA RESULT:    -5.532      2.760      7.412
REMARK INTER + INTRA:         -11.573
REMARK INTER:                  -9.106
REMARK INTRA:                  -2.467
REMARK UNBOUND:                -2.484
REMARK SMILES C[C@@H]1O[C@H](OC[C@H]2O[C@H](Oc3c(-c4ccc(O)c(O)c4)oc4cc(O)cc(O)c4c3=O)[C@@H](O)[C@@H](O)[C@@H]2O)[C@H](O)[C@H](O)[C@H]1O
REMARK SMILES IDX 7 1 36 2 34 3 32 4 9 5 8 6 6 7 5 8 4 9 1 10 2 11 42 12 3 13
REMARK SMILES IDX 40 14 38 15 43 16 41 18 39 20 37 22 35 24 10 26 11 27 12 28
REMARK SMILES IDX 30 29 21 30 29 31 31 32 22 33 27 34 23 35 26 36 24 37 13 38
REMARK SMILES IDX 20 39 14 40 18 41 15 42 16 43 19 44 17 46 28 48 25 50 33 52
REMARK H PARENT 43 17 41 19 39 21 37 23 35 25 19 45 17 47 28 49 25 51 33 53
REMARK Flexibility Score: inf
ROOT
ATOM      1  C   UNL     1      94.872  86.580  94.489  1.00  0.00     0.180 C 
ATOM      2  C   UNL     1      93.786  86.197  93.409  1.00  0.00     0.177 C 
ATOM      3  C   UNL     1      92.343  86.602  93.816  1.00  0.00     0.180 C 
ATOM      4  C   UNL     1      92.395  88.102  94.306  1.00  0.00     0.214 C 
ATOM      5  C   UNL     1      93.398  88.568  95.354  1.00  0.00     0.339 C 
ATOM      6  O   UNL     1      94.589  87.614  95.562  1.00  0.00    -0.332 OA
ENDROOT
BRANCH   1   7
ATOM      7  C   UNL     1      96.317  86.699  93.733  1.00  0.00     0.198 C 
BRANCH   7   8
ATOM      8  O   UNL     1      97.301  85.625  94.104  1.00  0.00    -0.347 OA
BRANCH   8   9
ATOM      9  C   UNL     1      98.654  86.059  94.388  1.00  0.00     0.281 C 
ATOM     10  C   UNL     1     100.054  88.115  96.966  1.00  0.00     0.041 C 
ATOM     11  C   UNL     1     100.197  87.792  95.313  1.00  0.00     0.150 C 
ATOM     12  C   UNL     1     101.203  86.605  95.345  1.00  0.00     0.174 C 
ATOM     13  O   UNL     1      98.945  87.440  94.508  1.00  0.00    -0.344 OA
ATOM     14  C   UNL     1     100.469  85.306  95.800  1.00  0.00     0.179 C 
ATOM     15  C   UNL     1      98.959  85.571  95.768  1.00  0.00     0.202 C 
BRANCH  12  16
ATOM     16  O   UNL     1     101.912  86.444  94.114  1.00  0.00    -0.388 OA
ATOM     17  H   UNL     1     102.552  85.690  94.227  1.00  0.00     0.211 HD
ENDBRANCH  12  16
BRANCH  14  18
ATOM     18  O   UNL     1     100.937  84.883  97.011  1.00  0.00    -0.387 OA
ATOM     19  H   UNL     1     100.575  85.594  97.698  1.00  0.00     0.211 HD
ENDBRANCH  14  18
BRANCH  15  20
ATOM     20  O   UNL     1      98.345  86.481  96.695  1.00  0.00    -0.385 OA
ATOM     21  H   UNL     1      97.536  86.241  97.257  1.00  0.00     0.211 HD
ENDBRANCH  15  20
ENDBRANCH   8   9
ENDBRANCH   7   8
ENDBRANCH   1   7
BRANCH   2  22
ATOM     22  O   UNL     1      93.885  84.889  93.040  1.00  0.00    -0.387 OA
ATOM     23  H   UNL     1      93.056  84.602  92.562  1.00  0.00     0.211 HD
ENDBRANCH   2  22
BRANCH   3  24
ATOM     24  O   UNL     1      91.432  86.460  92.755  1.00  0.00    -0.387 OA
ATOM     25  H   UNL     1      91.031  87.381  92.575  1.00  0.00     0.211 HD
ENDBRANCH   3  24
BRANCH   5  26
ATOM     26  O   UNL     1      92.883  89.049  96.574  1.00  0.00    -0.454 OA
BRANCH  26  27
ATOM     27  C   UNL     1      91.960  88.321  97.385  1.00  0.00     0.214 A 
ATOM     28  C   UNL     1      90.656  88.743  97.687  1.00  0.00     0.180 A 
ATOM     29  C   UNL     1      92.421  87.396  98.301  1.00  0.00     0.239 A 
ATOM     30  O   UNL     1      90.247  88.692  98.973  1.00  0.00    -0.452 OA
ATOM     31  C   UNL     1      92.130  87.576  99.669  1.00  0.00     0.111 A 
ATOM     32  O   UNL     1      92.840  86.257  97.962  1.00  0.00    -0.285 OA
ATOM     33  C   UNL     1      90.938  88.180  99.967  1.00  0.00     0.146 A 
ATOM     34  C   UNL     1      92.805  86.842 100.665  1.00  0.00     0.134 A 
ATOM     35  C   UNL     1      90.356  88.047 101.277  1.00  0.00     0.094 A 
ATOM     36  C   UNL     1      92.227  86.605 101.865  1.00  0.00     0.093 A 
ATOM     37  C   UNL     1      90.998  87.177 102.190  1.00  0.00     0.123 A 
BRANCH  28  38
ATOM     38  C   UNL     1      89.674  88.510  96.658  1.00  0.00     0.025 A 
ATOM     39  C   UNL     1      89.454  87.217  96.088  1.00  0.00     0.062 A 
ATOM     40  C   UNL     1      89.020  89.629  96.109  1.00  0.00     0.016 A 
ATOM     41  C   UNL     1      88.700  87.169  94.913  1.00  0.00     0.158 A 
ATOM     42  C   UNL     1      88.258  89.555  95.002  1.00  0.00     0.051 A 
ATOM     43  C   UNL     1      88.168  88.313  94.340  1.00  0.00     0.157 A 
BRANCH  41  44
ATOM     44  O   UNL     1      88.657  85.967  94.236  1.00  0.00    -0.504 OA
ATOM     45  H   UNL     1      89.004  85.111  94.591  1.00  0.00     0.293 HD
ENDBRANCH  41  44
BRANCH  43  46
ATOM     46  O   UNL     1      87.572  88.260  93.044  1.00  0.00    -0.504 OA
ATOM     47  H   UNL     1      86.758  87.628  92.938  1.00  0.00     0.293 HD
ENDBRANCH  43  46
ENDBRANCH  28  38
BRANCH  34  48
ATOM     48  O   UNL     1      94.134  86.308 100.441  1.00  0.00    -0.507 OA
ATOM     49  H   UNL     1      94.817  86.755  99.803  1.00  0.00     0.293 HD
ENDBRANCH  34  48
BRANCH  37  50
ATOM     50  O   UNL     1      90.341  86.914 103.380  1.00  0.00    -0.508 OA
ATOM     51  H   UNL     1      89.782  86.091 103.356  1.00  0.00     0.293 HD
ENDBRANCH  37  50
ENDBRANCH  26  27
ENDBRANCH   5  26
BRANCH   4  52
ATOM     52  O   UNL     1      91.622  89.139  93.713  1.00  0.00    -0.384 OA
ATOM     53  H   UNL     1      91.664  89.962  94.348  1.00  0.00     0.211 HD
ENDBRANCH   4  52
TORSDOF 16
ENDMDL
MODEL 5
REMARK VINA RESULT:    -5.515      2.513      7.471
REMARK INTER + INTRA:         -11.546
REMARK INTER:                  -8.227
REMARK INTRA:                  -3.318
REMARK UNBOUND:                -2.484
REMARK SMILES C[C@@H]1O[C@H](OC[C@H]2O[C@H](Oc3c(-c4ccc(O)c(O)c4)oc4cc(O)cc(O)c4c3=O)[C@@H](O)[C@@H](O)[C@@H]2O)[C@H](O)[C@H](O)[C@H]1O
REMARK SMILES IDX 7 1 36 2 34 3 32 4 9 5 8 6 6 7 5 8 4 9 1 10 2 11 42 12 3 13
REMARK SMILES IDX 40 14 38 15 43 16 41 18 39 20 37 22 35 24 10 26 11 27 12 28
REMARK SMILES IDX 30 29 21 30 29 31 31 32 22 33 27 34 23 35 26 36 24 37 13 38
REMARK SMILES IDX 20 39 14 40 18 41 15 42 16 43 19 44 17 46 28 48 25 50 33 52
REMARK H PARENT 43 17 41 19 39 21 37 23 35 25 19 45 17 47 28 49 25 51 33 53
REMARK Flexibility Score: inf
ROOT
ATOM      1  C   UNL     1      86.704  92.554  95.322  1.00  0.00     0.180 C 
ATOM      2  C   UNL     1      87.636  93.587  96.068  1.00  0.00     0.177 C 
ATOM      3  C   UNL     1      88.615  92.920  97.072  1.00  0.00     0.180 C 
ATOM      4  C   UNL     1      89.307  91.713  96.325  1.00  0.00     0.214 C 
ATOM      5  C   UNL     1      88.494  90.657  95.587  1.00  0.00     0.339 C 
ATOM      6  O   UNL     1      87.048  91.077  95.265  1.00  0.00    -0.332 OA
ENDROOT
BRANCH   1   7
ATOM      7  C   UNL     1      86.213  93.237  93.920  1.00  0.00     0.198 C 
BRANCH   7   8
ATOM      8  O   UNL     1      85.450  92.311  93.014  1.00  0.00    -0.347 OA
BRANCH   8   9
ATOM      9  C   UNL     1      86.008  92.091  91.695  1.00  0.00     0.281 C 
ATOM     10  C   UNL     1      89.083  90.636  90.572  1.00  0.00     0.041 C 
ATOM     11  C   UNL     1      88.020  91.905  90.226  1.00  0.00     0.150 C 
ATOM     12  C   UNL     1      87.022  91.183  89.275  1.00  0.00     0.174 C 
ATOM     13  O   UNL     1      87.290  92.603  91.374  1.00  0.00    -0.344 OA
ATOM     14  C   UNL     1      86.071  90.267  90.107  1.00  0.00     0.179 C 
ATOM     15  C   UNL     1      86.242  90.619  91.589  1.00  0.00     0.202 C 
BRANCH  12  16
ATOM     16  O   UNL     1      86.319  92.086  88.417  1.00  0.00    -0.388 OA
ATOM     17  H   UNL     1      86.979  92.733  88.048  1.00  0.00     0.211 HD
ENDBRANCH  12  16
BRANCH  14  18
ATOM     18  O   UNL     1      86.287  88.951  89.815  1.00  0.00    -0.387 OA
ATOM     19  H   UNL     1      85.947  88.841  88.824  1.00  0.00     0.211 HD
ENDBRANCH  14  18
BRANCH  15  20
ATOM     20  O   UNL     1      87.463  90.323  92.287  1.00  0.00    -0.385 OA
ATOM     21  H   UNL     1      87.873  89.396  92.322  1.00  0.00     0.211 HD
ENDBRANCH  15  20
ENDBRANCH   8   9
ENDBRANCH   7   8
ENDBRANCH   1   7
BRANCH   2  22
ATOM     22  O   UNL     1      86.916  94.602  96.624  1.00  0.00    -0.387 OA
ATOM     23  H   UNL     1      86.486  95.152  95.910  1.00  0.00     0.211 HD
ENDBRANCH   2  22
BRANCH   3  24
ATOM     24  O   UNL     1      89.580  93.823  97.551  1.00  0.00    -0.387 OA
ATOM     25  H   UNL     1      89.250  94.763  97.333  1.00  0.00     0.211 HD
ENDBRANCH   3  24
BRANCH   5  26
ATOM     26  O   UNL     1      88.568  89.334  96.065  1.00  0.00    -0.454 OA
BRANCH  26  27
ATOM     27  C   UNL     1      89.378  88.320  95.469  1.00  0.00     0.214 A 
ATOM     28  C   UNL     1      90.769  88.217  95.618  1.00  0.00     0.180 A 
ATOM     29  C   UNL     1      88.935  87.652  94.343  1.00  0.00     0.239 A 
ATOM     30  O   UNL     1      91.521  88.030  94.512  1.00  0.00    -0.452 OA
ATOM     31  C   UNL     1      89.693  87.725  93.156  1.00  0.00     0.111 A 
ATOM     32  O   UNL     1      88.052  86.754  94.391  1.00  0.00    -0.285 OA
ATOM     33  C   UNL     1      91.050  87.833  93.301  1.00  0.00     0.146 A 
ATOM     34  C   UNL     1      89.157  87.316  91.918  1.00  0.00     0.134 A 
ATOM     35  C   UNL     1      91.932  87.504  92.212  1.00  0.00     0.094 A 
ATOM     36  C   UNL     1      89.963  86.891  90.918  1.00  0.00     0.093 A 
ATOM     37  C   UNL     1      91.350  86.956  91.044  1.00  0.00     0.123 A 
BRANCH  28  38
ATOM     38  C   UNL     1      91.218  87.613  96.848  1.00  0.00     0.025 A 
ATOM     39  C   UNL     1      90.400  86.719  97.606  1.00  0.00     0.062 A 
ATOM     40  C   UNL     1      92.450  88.043  97.378  1.00  0.00     0.016 A 
ATOM     41  C   UNL     1      90.820  86.435  98.908  1.00  0.00     0.158 A 
ATOM     42  C   UNL     1      92.860  87.720  98.618  1.00  0.00     0.051 A 
ATOM     43  C   UNL     1      91.985  86.971  99.432  1.00  0.00     0.157 A 
BRANCH  41  44
ATOM     44  O   UNL     1      89.941  85.750  99.722  1.00  0.00    -0.504 OA
ATOM     45  H   UNL     1      89.904  84.765  99.804  1.00  0.00     0.293 HD
ENDBRANCH  41  44
BRANCH  43  46
ATOM     46  O   UNL     1      92.286  86.823 100.820  1.00  0.00    -0.504 OA
ATOM     47  H   UNL     1      92.483  87.696 101.342  1.00  0.00     0.293 HD
ENDBRANCH  43  46
ENDBRANCH  28  38
BRANCH  34  48
ATOM     48  O   UNL     1      87.729  87.326  91.672  1.00  0.00    -0.507 OA
ATOM     49  H   UNL     1      87.090  88.014  92.110  1.00  0.00     0.293 HD
ENDBRANCH  34  48
BRANCH  37  50
ATOM     50  O   UNL     1      92.213  86.477  90.073  1.00  0.00    -0.508 OA
ATOM     51  H   UNL     1      92.299  87.075  89.283  1.00  0.00     0.293 HD
ENDBRANCH  37  50
ENDBRANCH  26  27
ENDBRANCH   5  26
BRANCH   4  52
ATOM     52  O   UNL     1      90.717  91.604  96.167  1.00  0.00    -0.384 OA
ATOM     53  H   UNL     1      91.159  92.071  96.984  1.00  0.00     0.211 HD
ENDBRANCH   4  52
TORSDOF 16
ENDMDL
MODEL 6
REMARK VINA RESULT:    -5.433      9.923     14.109
REMARK INTER + INTRA:         -11.411
REMARK INTER:                  -8.138
REMARK INTRA:                  -3.273
REMARK UNBOUND:                -2.484
REMARK SMILES C[C@@H]1O[C@H](OC[C@H]2O[C@H](Oc3c(-c4ccc(O)c(O)c4)oc4cc(O)cc(O)c4c3=O)[C@@H](O)[C@@H](O)[C@@H]2O)[C@H](O)[C@H](O)[C@H]1O
REMARK SMILES IDX 7 1 36 2 34 3 32 4 9 5 8 6 6 7 5 8 4 9 1 10 2 11 42 12 3 13
REMARK SMILES IDX 40 14 38 15 43 16 41 18 39 20 37 22 35 24 10 26 11 27 12 28
REMARK SMILES IDX 30 29 21 30 29 31 31 32 22 33 27 34 23 35 26 36 24 37 13 38
REMARK SMILES IDX 20 39 14 40 18 41 15 42 16 43 19 44 17 46 28 48 25 50 33 52
REMARK H PARENT 43 17 41 19 39 21 37 23 35 25 19 45 17 47 28 49 25 51 33 53
REMARK Flexibility Score: inf
ROOT
ATOM      1  C   UNL     1     102.748  86.805  93.735  1.00  0.00     0.180 C 
ATOM      2  C   UNL     1     101.334  86.459  94.343  1.00  0.00     0.177 C 
ATOM      3  C   UNL     1     100.963  87.330  95.574  1.00  0.00     0.180 C 
ATOM      4  C   UNL     1     101.250  88.835  95.191  1.00  0.00     0.214 C 
ATOM      5  C   UNL     1     102.589  89.271  94.609  1.00  0.00     0.339 C 
ATOM      6  O   UNL     1     103.439  88.121  94.038  1.00  0.00    -0.332 OA
ENDROOT
BRANCH   1   7
ATOM      7  C   UNL     1     102.758  86.327  92.171  1.00  0.00     0.198 C 
BRANCH   7   8
ATOM      8  O   UNL     1     101.440  85.801  91.676  1.00  0.00    -0.347 OA
BRANCH   8   9
ATOM      9  C   UNL     1     101.076  86.145  90.316  1.00  0.00     0.281 C 
ATOM     10  C   UNL     1      98.751  88.502  88.947  1.00  0.00     0.041 C 
ATOM     11  C   UNL     1      99.345  86.939  88.699  1.00  0.00     0.150 C 
ATOM     12  C   UNL     1     100.587  87.249  87.815  1.00  0.00     0.174 C 
ATOM     13  O   UNL     1      99.720  86.080  89.908  1.00  0.00    -0.344 OA
ATOM     14  C   UNL     1     101.734  87.823  88.703  1.00  0.00     0.179 C 
ATOM     15  C   UNL     1     101.358  87.606  90.173  1.00  0.00     0.202 C 
BRANCH  12  16
ATOM     16  O   UNL     1     101.000  86.131  87.025  1.00  0.00    -0.388 OA
ATOM     17  H   UNL     1     101.886  86.348  86.627  1.00  0.00     0.211 HD
ENDBRANCH  12  16
BRANCH  14  18
ATOM     18  O   UNL     1     101.994  89.124  88.378  1.00  0.00    -0.387 OA
ATOM     19  H   UNL     1     102.156  89.600  89.302  1.00  0.00     0.211 HD
ENDBRANCH  14  18
BRANCH  15  20
ATOM     20  O   UNL     1     100.266  88.320  90.774  1.00  0.00    -0.385 OA
ATOM     21  H   UNL     1     100.158  89.326  90.714  1.00  0.00     0.211 HD
ENDBRANCH  15  20
ENDBRANCH   8   9
ENDBRANCH   7   8
ENDBRANCH   1   7
BRANCH   2  22
ATOM     22  O   UNL     1     101.202  85.123  94.580  1.00  0.00    -0.387 OA
ATOM     23  H   UNL     1     101.838  84.836  95.295  1.00  0.00     0.211 HD
ENDBRANCH   2  22
BRANCH   3  24
ATOM     24  O   UNL     1      99.621  87.165  95.956  1.00  0.00    -0.387 OA
ATOM     25  H   UNL     1      99.619  86.849  96.927  1.00  0.00     0.211 HD
ENDBRANCH   3  24
BRANCH   5  26
ATOM     26  O   UNL     1     103.358  90.176  95.366  1.00  0.00    -0.454 OA
BRANCH  26  27
ATOM     27  C   UNL     1     103.352  91.589  95.159  1.00  0.00     0.214 A 
ATOM     28  C   UNL     1     104.275  92.284  94.364  1.00  0.00     0.180 A 
ATOM     29  C   UNL     1     102.741  92.422  96.077  1.00  0.00     0.239 A 
ATOM     30  O   UNL     1     104.853  93.393  94.873  1.00  0.00    -0.452 OA
ATOM     31  C   UNL     1     103.509  93.404  96.735  1.00  0.00     0.111 A 
ATOM     32  O   UNL     1     101.489  92.545  96.152  1.00  0.00    -0.285 OA
ATOM     33  C   UNL     1     104.549  93.944  96.027  1.00  0.00     0.146 A 
ATOM     34  C   UNL     1     103.019  94.077  97.873  1.00  0.00     0.134 A 
ATOM     35  C   UNL     1     105.125  95.204  96.416  1.00  0.00     0.094 A 
ATOM     36  C   UNL     1     103.463  95.315  98.192  1.00  0.00     0.093 A 
ATOM     37  C   UNL     1     104.499  95.909  97.472  1.00  0.00     0.123 A 
BRANCH  28  38
ATOM     38  C   UNL     1     104.024  92.247  92.945  1.00  0.00     0.025 A 
ATOM     39  C   UNL     1     102.741  91.926  92.402  1.00  0.00     0.062 A 
ATOM     40  C   UNL     1     105.125  92.392  92.080  1.00  0.00     0.016 A 
ATOM     41  C   UNL     1     102.692  91.634  91.037  1.00  0.00     0.158 A 
ATOM     42  C   UNL     1     105.048  92.154  90.758  1.00  0.00     0.051 A 
ATOM     43  C   UNL     1     103.824  91.679  90.240  1.00  0.00     0.157 A 
BRANCH  41  44
ATOM     44  O   UNL     1     101.512  91.118  90.541  1.00  0.00    -0.504 OA
ATOM     45  H   UNL     1     101.308  91.009  89.579  1.00  0.00     0.293 HD
ENDBRANCH  41  44
BRANCH  43  46
ATOM     46  O   UNL     1     103.783  91.190  88.899  1.00  0.00    -0.504 OA
ATOM     47  H   UNL     1     103.483  91.866  88.173  1.00  0.00     0.293 HD
ENDBRANCH  43  46
ENDBRANCH  28  38
BRANCH  34  48
ATOM     48  O   UNL     1     102.020  93.477  98.734  1.00  0.00    -0.507 OA
ATOM     49  H   UNL     1     101.675  92.510  98.602  1.00  0.00     0.293 HD
ENDBRANCH  34  48
BRANCH  37  50
ATOM     50  O   UNL     1     104.943  97.196  97.724  1.00  0.00    -0.508 OA
ATOM     51  H   UNL     1     105.694  97.240  98.375  1.00  0.00     0.293 HD
ENDBRANCH  37  50
ENDBRANCH  26  27
ENDBRANCH   5  26
BRANCH   4  52
ATOM     52  O   UNL     1     100.251  89.848  95.224  1.00  0.00    -0.384 OA
ATOM     53  H   UNL     1     100.053  90.123  94.241  1.00  0.00     0.211 HD
ENDBRANCH   4  52
TORSDOF 16
ENDMDL
MODEL 7
REMARK VINA RESULT:    -5.394      2.718      7.194
REMARK INTER + INTRA:         -11.346
REMARK INTER:                  -7.883
REMARK INTRA:                  -3.462
REMARK UNBOUND:                -2.484
REMARK SMILES C[C@@H]1O[C@H](OC[C@H]2O[C@H](Oc3c(-c4ccc(O)c(O)c4)oc4cc(O)cc(O)c4c3=O)[C@@H](O)[C@@H](O)[C@@H]2O)[C@H](O)[C@H](O)[C@H]1O
REMARK SMILES IDX 7 1 36 2 34 3 32 4 9 5 8 6 6 7 5 8 4 9 1 10 2 11 42 12 3 13
REMARK SMILES IDX 40 14 38 15 43 16 41 18 39 20 37 22 35 24 10 26 11 27 12 28
REMARK SMILES IDX 30 29 21 30 29 31 31 32 22 33 27 34 23 35 26 36 24 37 13 38
REMARK SMILES IDX 20 39 14 40 18 41 15 42 16 43 19 44 17 46 28 48 25 50 33 52
REMARK H PARENT 43 17 41 19 39 21 37 23 35 25 19 45 17 47 28 49 25 51 33 53
REMARK Flexibility Score: inf
ROOT
ATOM      1  C   UNL     1      93.297  87.256  98.219  1.00  0.00     0.180 C 
ATOM      2  C   UNL     1      93.032  87.336  99.773  1.00  0.00     0.177 C 
ATOM      3  C   UNL     1      91.540  87.580 100.132  1.00  0.00     0.180 C 
ATOM      4  C   UNL     1      90.680  86.557  99.291  1.00  0.00     0.214 C 
ATOM      5  C   UNL     1      90.852  86.415  97.784  1.00  0.00     0.339 C 
ATOM      6  O   UNL     1      92.170  86.994  97.237  1.00  0.00    -0.332 OA
ENDROOT
BRANCH   1   7
ATOM      7  C   UNL     1      94.673  86.405  97.983  1.00  0.00     0.198 C 
BRANCH   7   8
ATOM      8  O   UNL     1      95.775  86.727  98.954  1.00  0.00    -0.347 OA
BRANCH   8   9
ATOM      9  C   UNL     1      96.930  87.416  98.415  1.00  0.00     0.281 C 
ATOM     10  C   UNL     1      97.341  90.616  96.859  1.00  0.00     0.041 C 
ATOM     11  C   UNL     1      97.884  89.019  96.754  1.00  0.00     0.150 C 
ATOM     12  C   UNL     1      99.070  89.059  97.760  1.00  0.00     0.174 C 
ATOM     13  O   UNL     1      96.918  87.877  97.075  1.00  0.00    -0.344 OA
ATOM     14  C   UNL     1      98.521  89.050  99.220  1.00  0.00     0.179 C 
ATOM     15  C   UNL     1      97.029  88.702  99.170  1.00  0.00     0.202 C 
BRANCH  12  16
ATOM     16  O   UNL     1     100.038  88.034  97.520  1.00  0.00    -0.388 OA
ATOM     17  H   UNL     1      99.788  87.243  98.071  1.00  0.00     0.211 HD
ENDBRANCH  12  16
BRANCH  14  18
ATOM     18  O   UNL     1      98.800  90.229  99.850  1.00  0.00    -0.387 OA
ATOM     19  H   UNL     1      99.773  90.475  99.532  1.00  0.00     0.211 HD
ENDBRANCH  14  18
BRANCH  15  20
ATOM     20  O   UNL     1      96.072  89.612  98.604  1.00  0.00    -0.385 OA
ATOM     21  H   UNL     1      95.245  89.308  98.103  1.00  0.00     0.211 HD
ENDBRANCH  15  20
ENDBRANCH   8   9
ENDBRANCH   7   8
ENDBRANCH   1   7
BRANCH   2  22
ATOM     22  O   UNL     1      93.875  88.218 100.381  1.00  0.00    -0.387 OA
ATOM     23  H   UNL     1      94.123  87.886 101.290  1.00  0.00     0.211 HD
ENDBRANCH   2  22
BRANCH   3  24
ATOM     24  O   UNL     1      91.292  87.423 101.506  1.00  0.00    -0.387 OA
ATOM     25  H   UNL     1      91.256  86.421 101.693  1.00  0.00     0.211 HD
ENDBRANCH   3  24
BRANCH   5  26
ATOM     26  O   UNL     1      89.749  86.747  96.973  1.00  0.00    -0.454 OA
BRANCH  26  27
ATOM     27  C   UNL     1      89.741  87.841  96.055  1.00  0.00     0.214 A 
ATOM     28  C   UNL     1      89.393  89.159  96.386  1.00  0.00     0.180 A 
ATOM     29  C   UNL     1      89.621  87.607  94.699  1.00  0.00     0.239 A 
ATOM     30  O   UNL     1      88.525  89.813  95.585  1.00  0.00    -0.452 OA
ATOM     31  C   UNL     1      88.524  88.153  94.000  1.00  0.00     0.111 A 
ATOM     32  O   UNL     1      90.575  87.177  93.998  1.00  0.00    -0.285 OA
ATOM     33  C   UNL     1      88.046  89.353  94.451  1.00  0.00     0.146 A 
ATOM     34  C   UNL     1      88.193  87.717  92.701  1.00  0.00     0.134 A 
ATOM     35  C   UNL     1      87.235  90.186  93.602  1.00  0.00     0.094 A 
ATOM     36  C   UNL     1      87.531  88.528  91.843  1.00  0.00     0.093 A 
ATOM     37  C   UNL     1      87.058  89.771  92.260  1.00  0.00     0.123 A 
BRANCH  28  38
ATOM     38  C   UNL     1      90.427  89.930  97.031  1.00  0.00     0.025 A 
ATOM     39  C   UNL     1      91.692  90.182  96.416  1.00  0.00     0.062 A 
ATOM     40  C   UNL     1      90.218  90.317  98.369  1.00  0.00     0.016 A 
ATOM     41  C   UNL     1      92.704  90.678  97.241  1.00  0.00     0.158 A 
ATOM     42  C   UNL     1      91.193  90.839  99.135  1.00  0.00     0.051 A 
ATOM     43  C   UNL     1      92.487  90.940  98.584  1.00  0.00     0.157 A 
BRANCH  41  44
ATOM     44  O   UNL     1      93.981  90.725  96.720  1.00  0.00    -0.504 OA
ATOM     45  H   UNL     1      94.787  90.982  97.233  1.00  0.00     0.293 HD
ENDBRANCH  41  44
BRANCH  43  46
ATOM     46  O   UNL     1      93.583  91.258  99.443  1.00  0.00    -0.504 OA
ATOM     47  H   UNL     1      94.357  90.570  99.473  1.00  0.00     0.293 HD
ENDBRANCH  43  46
ENDBRANCH  28  38
BRANCH  34  48
ATOM     48  O   UNL     1      88.554  86.394  92.232  1.00  0.00    -0.507 OA
ATOM     49  H   UNL     1      87.897  85.592  92.257  1.00  0.00     0.293 HD
ENDBRANCH  34  48
BRANCH  37  50
ATOM     50  O   UNL     1      86.431  90.660  91.402  1.00  0.00    -0.508 OA
ATOM     51  H   UNL     1      85.838  91.311  91.864  1.00  0.00     0.293 HD
ENDBRANCH  37  50
ENDBRANCH  26  27
ENDBRANCH   5  26
BRANCH   4  52
ATOM     52  O   UNL     1      89.800  85.611  99.887  1.00  0.00    -0.384 OA
ATOM     53  H   UNL     1      90.345  84.740 100.054  1.00  0.00     0.211 HD
ENDBRANCH   4  52
TORSDOF 16
ENDMDL
MODEL 8
REMARK VINA RESULT:    -5.326      2.023      6.760
REMARK INTER + INTRA:         -11.234
REMARK INTER:                  -8.149
REMARK INTRA:                  -3.085
REMARK UNBOUND:                -2.484
REMARK SMILES C[C@@H]1O[C@H](OC[C@H]2O[C@H](Oc3c(-c4ccc(O)c(O)c4)oc4cc(O)cc(O)c4c3=O)[C@@H](O)[C@@H](O)[C@@H]2O)[C@H](O)[C@H](O)[C@H]1O
REMARK SMILES IDX 7 1 36 2 34 3 32 4 9 5 8 6 6 7 5 8 4 9 1 10 2 11 42 12 3 13
REMARK SMILES IDX 40 14 38 15 43 16 41 18 39 20 37 22 35 24 10 26 11 27 12 28
REMARK SMILES IDX 30 29 21 30 29 31 31 32 22 33 27 34 23 35 26 36 24 37 13 38
REMARK SMILES IDX 20 39 14 40 18 41 15 42 16 43 19 44 17 46 28 48 25 50 33 52
REMARK H PARENT 43 17 41 19 39 21 37 23 35 25 19 45 17 47 28 49 25 51 33 53
REMARK Flexibility Score: inf
ROOT
ATOM      1  C   UNL     1      90.177  87.238  92.942  1.00  0.00     0.180 C 
ATOM      2  C   UNL     1      89.180  86.813  94.089  1.00  0.00     0.177 C 
ATOM      3  C   UNL     1      89.791  86.932  95.512  1.00  0.00     0.180 C 
ATOM      4  C   UNL     1      90.468  88.355  95.617  1.00  0.00     0.214 C 
ATOM      5  C   UNL     1      91.453  88.852  94.567  1.00  0.00     0.339 C 
ATOM      6  O   UNL     1      91.403  88.083  93.233  1.00  0.00    -0.332 OA
ENDROOT
BRANCH   1   7
ATOM      7  C   UNL     1      89.292  87.674  91.638  1.00  0.00     0.198 C 
BRANCH   7   8
ATOM      8  O   UNL     1      87.918  88.188  91.965  1.00  0.00    -0.347 OA
BRANCH   8   9
ATOM      9  C   UNL     1      87.798  89.613  92.196  1.00  0.00     0.281 C 
ATOM     10  C   UNL     1      85.319  91.607  93.842  1.00  0.00     0.041 C 
ATOM     11  C   UNL     1      86.339  91.618  92.494  1.00  0.00     0.150 C 
ATOM     12  C   UNL     1      87.626  92.225  93.123  1.00  0.00     0.174 C 
ATOM     13  O   UNL     1      86.637  90.305  91.770  1.00  0.00    -0.344 OA
ATOM     14  C   UNL     1      88.350  91.145  93.985  1.00  0.00     0.179 C 
ATOM     15  C   UNL     1      87.717  89.783  93.679  1.00  0.00     0.202 C 
BRANCH  12  16
ATOM     16  O   UNL     1      88.485  92.833  92.154  1.00  0.00    -0.388 OA
ATOM     17  H   UNL     1      87.940  93.032  91.345  1.00  0.00     0.211 HD
ENDBRANCH  12  16
BRANCH  14  18
ATOM     18  O   UNL     1      88.330  91.487  95.307  1.00  0.00    -0.387 OA
ATOM     19  H   UNL     1      87.797  90.708  95.774  1.00  0.00     0.211 HD
ENDBRANCH  14  18
BRANCH  15  20
ATOM     20  O   UNL     1      86.369  89.484  94.076  1.00  0.00    -0.385 OA
ATOM     21  H   UNL     1      86.106  88.631  94.557  1.00  0.00     0.211 HD
ENDBRANCH  15  20
ENDBRANCH   8   9
ENDBRANCH   7   8
ENDBRANCH   1   7
BRANCH   2  22
ATOM     22  O   UNL     1      88.631  85.588  93.849  1.00  0.00    -0.387 OA
ATOM     23  H   UNL     1      89.076  85.159  93.064  1.00  0.00     0.211 HD
ENDBRANCH   2  22
BRANCH   3  24
ATOM     24  O   UNL     1      88.826  86.768  96.520  1.00  0.00    -0.387 OA
ATOM     25  H   UNL     1      87.948  87.148  96.163  1.00  0.00     0.211 HD
ENDBRANCH   3  24
BRANCH   5  26
ATOM     26  O   UNL     1      92.775  89.100  94.987  1.00  0.00    -0.454 OA
BRANCH  26  27
ATOM     27  C   UNL     1      93.556  88.168  95.736  1.00  0.00     0.214 A 
ATOM     28  C   UNL     1      94.052  88.397  97.028  1.00  0.00     0.180 A 
ATOM     29  C   UNL     1      94.268  87.179  95.084  1.00  0.00     0.239 A 
ATOM     30  O   UNL     1      95.350  88.120  97.275  1.00  0.00    -0.452 OA
ATOM     31  C   UNL     1      95.671  87.132  95.228  1.00  0.00     0.111 A 
ATOM     32  O   UNL     1      93.719  86.153  94.603  1.00  0.00    -0.285 OA
ATOM     33  C   UNL     1      96.178  87.553  96.427  1.00  0.00     0.146 A 
ATOM     34  C   UNL     1      96.469  86.344  94.373  1.00  0.00     0.134 A 
ATOM     35  C   UNL     1      97.505  87.173  96.836  1.00  0.00     0.094 A 
ATOM     36  C   UNL     1      97.671  85.877  94.781  1.00  0.00     0.093 A 
ATOM     37  C   UNL     1      98.205  86.259  96.011  1.00  0.00     0.123 A 
BRANCH  28  38
ATOM     38  C   UNL     1      93.106  88.204  98.099  1.00  0.00     0.025 A 
ATOM     39  C   UNL     1      92.298  87.029  98.204  1.00  0.00     0.062 A 
ATOM     40  C   UNL     1      92.882  89.280  98.978  1.00  0.00     0.016 A 
ATOM     41  C   UNL     1      91.226  87.083  99.098  1.00  0.00     0.158 A 
ATOM     42  C   UNL     1      91.872  89.294  99.868  1.00  0.00     0.051 A 
ATOM     43  C   UNL     1      90.972  88.208  99.866  1.00  0.00     0.157 A 
BRANCH  41  44
ATOM     44  O   UNL     1      90.315  86.047  99.059  1.00  0.00    -0.504 OA
ATOM     45  H   UNL     1      89.540  86.004  98.444  1.00  0.00     0.293 HD
ENDBRANCH  41  44
BRANCH  43  46
ATOM     46  O   UNL     1      89.764  88.307 100.621  1.00  0.00    -0.504 OA
ATOM     47  H   UNL     1      89.865  88.292 101.652  1.00  0.00     0.293 HD
ENDBRANCH  43  46
ENDBRANCH  28  38
BRANCH  34  48
ATOM     48  O   UNL     1      96.030  85.997  93.036  1.00  0.00    -0.507 OA
ATOM     49  H   UNL     1      96.686  85.706  92.289  1.00  0.00     0.293 HD
ENDBRANCH  34  48
BRANCH  37  50
ATOM     50  O   UNL     1      99.402  85.760  96.495  1.00  0.00    -0.508 OA
ATOM     51  H   UNL     1      99.333  84.835  96.856  1.00  0.00     0.293 HD
ENDBRANCH  37  50
ENDBRANCH  26  27
ENDBRANCH   5  26
BRANCH   4  52
ATOM     52  O   UNL     1      90.105  89.315  96.602  1.00  0.00    -0.384 OA
ATOM     53  H   UNL     1      90.950  89.888  96.806  1.00  0.00     0.211 HD
ENDBRANCH   4  52
TORSDOF 16
ENDMDL
MODEL 9
REMARK VINA RESULT:    -5.313      3.147      8.464
REMARK INTER + INTRA:         -11.214
REMARK INTER:                  -7.796
REMARK INTRA:                  -3.417
REMARK UNBOUND:                -2.484
REMARK SMILES C[C@@H]1O[C@H](OC[C@H]2O[C@H](Oc3c(-c4ccc(O)c(O)c4)oc4cc(O)cc(O)c4c3=O)[C@@H](O)[C@@H](O)[C@@H]2O)[C@H](O)[C@H](O)[C@H]1O
REMARK SMILES IDX 7 1 36 2 34 3 32 4 9 5 8 6 6 7 5 8 4 9 1 10 2 11 42 12 3 13
REMARK SMILES IDX 40 14 38 15 43 16 41 18 39 20 37 22 35 24 10 26 11 27 12 28
REMARK SMILES IDX 30 29 21 30 29 31 31 32 22 33 27 34 23 35 26 36 24 37 13 38
REMARK SMILES IDX 20 39 14 40 18 41 15 42 16 43 19 44 17 46 28 48 25 50 33 52
REMARK H PARENT 43 17 41 19 39 21 37 23 35 25 19 45 17 47 28 49 25 51 33 53
REMARK Flexibility Score: inf
ROOT
ATOM      1  C   UNL     1      88.654  88.976  91.978  1.00  0.00     0.180 C 
ATOM      2  C   UNL     1      88.802  87.426  92.231  1.00  0.00     0.177 C 
ATOM      3  C   UNL     1      88.775  87.041  93.736  1.00  0.00     0.180 C 
ATOM      4  C   UNL     1      87.540  87.778  94.389  1.00  0.00     0.214 C 
ATOM      5  C   UNL     1      87.317  89.275  94.213  1.00  0.00     0.339 C 
ATOM      6  O   UNL     1      88.100  89.902  93.045  1.00  0.00    -0.332 OA
ENDROOT
BRANCH   1   7
ATOM      7  C   UNL     1      88.075  89.190  90.464  1.00  0.00     0.198 C 
BRANCH   7   8
ATOM      8  O   UNL     1      88.429  90.513  89.845  1.00  0.00    -0.347 OA
BRANCH   8   9
ATOM      9  C   UNL     1      87.360  91.484  89.738  1.00  0.00     0.281 C 
ATOM     10  C   UNL     1      85.233  93.032  92.170  1.00  0.00     0.041 C 
ATOM     11  C   UNL     1      85.201  92.395  90.604  1.00  0.00     0.150 C 
ATOM     12  C   UNL     1      85.621  93.649  89.784  1.00  0.00     0.174 C 
ATOM     13  O   UNL     1      86.079  91.189  90.269  1.00  0.00    -0.344 OA
ATOM     14  C   UNL     1      87.156  93.886  89.935  1.00  0.00     0.179 C 
ATOM     15  C   UNL     1      87.772  92.643  90.586  1.00  0.00     0.202 C 
BRANCH  12  16
ATOM     16  O   UNL     1      85.197  93.588  88.419  1.00  0.00    -0.388 OA
ATOM     17  H   UNL     1      84.331  93.099  88.390  1.00  0.00     0.211 HD
ENDBRANCH  12  16
BRANCH  14  18
ATOM     18  O   UNL     1      87.402  95.050  90.605  1.00  0.00    -0.387 OA
ATOM     19  H   UNL     1      87.653  94.746  91.581  1.00  0.00     0.211 HD
ENDBRANCH  14  18
BRANCH  15  20
ATOM     20  O   UNL     1      87.488  92.303  91.953  1.00  0.00    -0.385 OA
ATOM     21  H   UNL     1      87.975  92.714  92.742  1.00  0.00     0.211 HD
ENDBRANCH  15  20
ENDBRANCH   8   9
ENDBRANCH   7   8
ENDBRANCH   1   7
BRANCH   2  22
ATOM     22  O   UNL     1      89.877  86.909  91.571  1.00  0.00    -0.387 OA
ATOM     23  H   UNL     1      90.052  87.430  90.737  1.00  0.00     0.211 HD
ENDBRANCH   2  22
BRANCH   3  24
ATOM     24  O   UNL     1      88.680  85.653  93.927  1.00  0.00    -0.387 OA
ATOM     25  H   UNL     1      89.613  85.316  94.166  1.00  0.00     0.211 HD
ENDBRANCH   3  24
BRANCH   5  26
ATOM     26  O   UNL     1      87.361  90.075  95.372  1.00  0.00    -0.454 OA
BRANCH  26  27
ATOM     27  C   UNL     1      88.489  90.865  95.747  1.00  0.00     0.214 A 
ATOM     28  C   UNL     1      89.503  90.447  96.623  1.00  0.00     0.180 A 
ATOM     29  C   UNL     1      88.433  92.243  95.653  1.00  0.00     0.239 A 
ATOM     30  O   UNL     1      89.879  91.283  97.614  1.00  0.00    -0.452 OA
ATOM     31  C   UNL     1      88.607  93.020  96.816  1.00  0.00     0.111 A 
ATOM     32  O   UNL     1      88.520  92.851  94.553  1.00  0.00    -0.285 OA
ATOM     33  C   UNL     1      89.445  92.513  97.773  1.00  0.00     0.146 A 
ATOM     34  C   UNL     1      88.277  94.391  96.838  1.00  0.00     0.134 A 
ATOM     35  C   UNL     1      90.013  93.371  98.780  1.00  0.00     0.094 A 
ATOM     36  C   UNL     1      88.885  95.239  97.699  1.00  0.00     0.093 A 
ATOM     37  C   UNL     1      89.769  94.761  98.665  1.00  0.00     0.123 A 
BRANCH  28  38
ATOM     38  C   UNL     1      90.509  89.591  96.044  1.00  0.00     0.025 A 
ATOM     39  C   UNL     1      91.039  89.809  94.734  1.00  0.00     0.062 A 
ATOM     40  C   UNL     1      90.864  88.426  96.750  1.00  0.00     0.016 A 
ATOM     41  C   UNL     1      91.777  88.764  94.174  1.00  0.00     0.158 A 
ATOM     42  C   UNL     1      91.617  87.451  96.210  1.00  0.00     0.051 A 
ATOM     43  C   UNL     1      92.009  87.584  94.862  1.00  0.00     0.157 A 
BRANCH  41  44
ATOM     44  O   UNL     1      92.113  88.870  92.840  1.00  0.00    -0.504 OA
ATOM     45  H   UNL     1      91.778  89.575  92.231  1.00  0.00     0.293 HD
ENDBRANCH  41  44
BRANCH  43  46
ATOM     46  O   UNL     1      92.594  86.464  94.196  1.00  0.00    -0.504 OA
ATOM     47  H   UNL     1      93.629  86.418  94.201  1.00  0.00     0.293 HD
ENDBRANCH  43  46
ENDBRANCH  28  38
BRANCH  34  48
ATOM     48  O   UNL     1      87.285  94.944  95.937  1.00  0.00    -0.507 OA
ATOM     49  H   UNL     1      86.415  94.441  95.686  1.00  0.00     0.293 HD
ENDBRANCH  34  48
BRANCH  37  50
ATOM     50  O   UNL     1      90.461  95.596  99.526  1.00  0.00    -0.508 OA
ATOM     51  H   UNL     1      91.396  95.780  99.240  1.00  0.00     0.293 HD
ENDBRANCH  37  50
ENDBRANCH  26  27
ENDBRANCH   5  26
BRANCH   4  52
ATOM     52  O   UNL     1      86.489  87.088  95.054  1.00  0.00    -0.384 OA
ATOM     53  H   UNL     1      86.788  86.098  95.168  1.00  0.00     0.211 HD
ENDBRANCH   4  52
TORSDOF 16
ENDMDL
