MODEL 1
REMARK VINA RESULT:    -5.868      0.000      0.000
REMARK INTER + INTRA:          -6.414
REMARK INTER:                  -6.383
REMARK INTRA:                  -0.031
REMARK UNBOUND:                -0.031
REMARK SMILES O=C([O-])c1ccc(O)cc1
REMARK SMILES IDX 7 1 6 2 9 3 5 4 10 5 4 6 8 7 2 9 1 10 3 11
REMARK H PARENT 8 8
REMARK Flexibility Score: inf
ROOT
ATOM      1  C   UNL     1      10.443 -46.363  38.728  1.00  0.00     0.115 A 
ATOM      2  C   UNL     1      11.215 -47.107  39.626  1.00  0.00     0.047 A 
ATOM      3  C   UNL     1      11.035 -45.843  37.570  1.00  0.00     0.047 A 
ATOM      4  C   UNL     1      12.571 -47.331  39.371  1.00  0.00     0.014 A 
ATOM      5  C   UNL     1      12.391 -46.064  37.312  1.00  0.00     0.014 A 
ATOM      6  C   UNL     1      13.174 -46.811  38.210  1.00  0.00    -0.003 A 
ENDROOT
BRANCH   1   7
ATOM      7  O   UNL     1       9.093 -46.149  38.995  1.00  0.00    -0.508 OA
ATOM      8  H   UNL     1       8.670 -46.452  39.865  1.00  0.00     0.293 HD
ENDBRANCH   1   7
BRANCH   6   9
ATOM      9  C   UNL     1      14.608 -47.045  37.935  1.00  0.00     0.071 C 
ATOM     10  O   UNL     1      15.462 -46.948  38.858  1.00  0.00    -0.545 OA
ATOM     11  O   UNL     1      15.036 -47.374  36.654  1.00  0.00    -0.545 OA
ENDBRANCH   6   9
TORSDOF 2
ENDMDL
MODEL 2
REMARK VINA RESULT:    -5.851      0.034      1.533
REMARK INTER + INTRA:          -6.395
REMARK INTER:                  -6.364
REMARK INTRA:                  -0.031
REMARK UNBOUND:                -0.031
REMARK SMILES O=C([O-])c1ccc(O)cc1
REMARK SMILES IDX 7 1 6 2 9 3 5 4 10 5 4 6 8 7 2 9 1 10 3 11
REMARK H PARENT 8 8
REMARK Flexibility Score: inf
ROOT
ATOM      1  C   UNL     1      10.439 -46.327  38.733  1.00  0.00     0.115 A 
ATOM      2  C   UNL     1      11.033 -45.815  37.575  1.00  0.00     0.047 A 
ATOM      3  C   UNL     1      11.208 -47.075  39.634  1.00  0.00     0.047 A 
ATOM      4  C   UNL     1      12.387 -46.047  37.316  1.00  0.00     0.014 A 
ATOM      5  C   UNL     1      12.563 -47.309  39.379  1.00  0.00     0.014 A 
ATOM      6  C   UNL     1      13.167 -46.798  38.216  1.00  0.00    -0.003 A 
ENDROOT
BRANCH   1   7
ATOM      7  O   UNL     1       9.089 -46.087  38.978  1.00  0.00    -0.508 OA
ATOM      8  H   UNL     1       8.780 -45.261  39.478  1.00  0.00     0.293 HD
ENDBRANCH   1   7
BRANCH   6   9
ATOM      9  C   UNL     1      14.599 -47.047  37.947  1.00  0.00     0.071 C 
ATOM     10  O   UNL     1      15.454 -46.928  38.867  1.00  0.00    -0.545 OA
ATOM     11  O   UNL     1      15.025 -47.415  36.676  1.00  0.00    -0.545 OA
ENDBRANCH   6   9
TORSDOF 2
ENDMDL
MODEL 3
REMARK VINA RESULT:    -5.788      1.088      4.191
REMARK INTER + INTRA:          -6.327
REMARK INTER:                  -6.296
REMARK INTRA:                  -0.031
REMARK UNBOUND:                -0.031
REMARK SMILES O=C([O-])c1ccc(O)cc1
REMARK SMILES IDX 7 1 6 2 9 3 5 4 10 5 4 6 8 7 2 9 1 10 3 11
REMARK H PARENT 8 8
REMARK Flexibility Score: inf
ROOT
ATOM      1  C   UNL     1      14.160 -46.979  38.571  1.00  0.00     0.115 A 
ATOM      2  C   UNL     1      13.131 -47.321  39.452  1.00  0.00     0.047 A 
ATOM      3  C   UNL     1      13.865 -46.260  37.405  1.00  0.00     0.047 A 
ATOM      4  C   UNL     1      11.812 -46.949  39.174  1.00  0.00     0.014 A 
ATOM      5  C   UNL     1      12.548 -45.886  37.123  1.00  0.00     0.014 A 
ATOM      6  C   UNL     1      11.506 -46.227  38.005  1.00  0.00    -0.003 A 
ENDROOT
BRANCH   1   7
ATOM      7  O   UNL     1      15.469 -47.356  38.861  1.00  0.00    -0.508 OA
ATOM      8  H   UNL     1      15.768 -48.323  38.800  1.00  0.00     0.293 HD
ENDBRANCH   1   7
BRANCH   6   9
ATOM      9  C   UNL     1      10.114 -45.831  37.705  1.00  0.00     0.071 C 
ATOM     10  O   UNL     1       9.638 -45.985  36.547  1.00  0.00    -0.545 OA
ATOM     11  O   UNL     1       9.308 -45.282  38.696  1.00  0.00    -0.545 OA
ENDBRANCH   6   9
TORSDOF 2
ENDMDL
MODEL 4
REMARK VINA RESULT:    -5.545      1.947      4.206
REMARK INTER + INTRA:          -6.063
REMARK INTER:                  -6.030
REMARK INTRA:                  -0.033
REMARK UNBOUND:                -0.031
REMARK SMILES O=C([O-])c1ccc(O)cc1
REMARK SMILES IDX 7 1 6 2 9 3 5 4 10 5 4 6 8 7 2 9 1 10 3 11
REMARK H PARENT 8 8
REMARK Flexibility Score: inf
ROOT
ATOM      1  C   UNL     1      12.229 -47.127  39.369  1.00  0.00     0.115 A 
ATOM      2  C   UNL     1      10.876 -47.419  39.562  1.00  0.00     0.047 A 
ATOM      3  C   UNL     1      12.634 -46.441  38.217  1.00  0.00     0.047 A 
ATOM      4  C   UNL     1       9.928 -47.030  38.609  1.00  0.00     0.014 A 
ATOM      5  C   UNL     1      11.691 -46.050  37.262  1.00  0.00     0.014 A 
ATOM      6  C   UNL     1      10.327 -46.341  37.448  1.00  0.00    -0.003 A 
ENDROOT
BRANCH   1   7
ATOM      7  O   UNL     1      13.161 -47.520  40.327  1.00  0.00    -0.508 OA
ATOM      8  H   UNL     1      14.157 -47.499  40.137  1.00  0.00     0.293 HD
ENDBRANCH   1   7
BRANCH   6   9
ATOM      9  C   UNL     1       9.330 -45.927  36.437  1.00  0.00     0.071 C 
ATOM     10  O   UNL     1       9.626 -45.918  35.211  1.00  0.00    -0.545 OA
ATOM     11  O   UNL     1       8.052 -45.541  36.824  1.00  0.00    -0.545 OA
ENDBRANCH   6   9
TORSDOF 2
ENDMDL
MODEL 5
REMARK VINA RESULT:    -5.537      1.921      4.143
REMARK INTER + INTRA:          -6.053
REMARK INTER:                  -6.019
REMARK INTRA:                  -0.034
REMARK UNBOUND:                -0.031
REMARK SMILES O=C([O-])c1ccc(O)cc1
REMARK SMILES IDX 7 1 6 2 9 3 5 4 10 5 4 6 8 7 2 9 1 10 3 11
REMARK H PARENT 8 8
REMARK Flexibility Score: inf
ROOT
ATOM      1  C   UNL     1      12.238 -47.128  39.363  1.00  0.00     0.115 A 
ATOM      2  C   UNL     1      10.887 -47.406  39.592  1.00  0.00     0.047 A 
ATOM      3  C   UNL     1      12.617 -46.441  38.203  1.00  0.00     0.047 A 
ATOM      4  C   UNL     1       9.918 -47.003  38.668  1.00  0.00     0.014 A 
ATOM      5  C   UNL     1      11.652 -46.035  37.277  1.00  0.00     0.014 A 
ATOM      6  C   UNL     1      10.291 -46.312  37.499  1.00  0.00    -0.003 A 
ENDROOT
BRANCH   1   7
ATOM      7  O   UNL     1      13.192 -47.536  40.292  1.00  0.00    -0.508 OA
ATOM      8  H   UNL     1      14.128 -47.147  40.295  1.00  0.00     0.293 HD
ENDBRANCH   1   7
BRANCH   6   9
ATOM      9  C   UNL     1       9.271 -45.882  36.519  1.00  0.00     0.071 C 
ATOM     10  O   UNL     1       8.072 -45.716  36.871  1.00  0.00    -0.545 OA
ATOM     11  O   UNL     1       9.620 -45.655  35.192  1.00  0.00    -0.545 OA
ENDBRANCH   6   9
TORSDOF 2
ENDMDL
MODEL 6
REMARK VINA RESULT:    -5.514      2.089      3.866
REMARK INTER + INTRA:          -6.029
REMARK INTER:                  -5.994
REMARK INTRA:                  -0.036
REMARK UNBOUND:                -0.031
REMARK SMILES O=C([O-])c1ccc(O)cc1
REMARK SMILES IDX 7 1 6 2 9 3 5 4 10 5 4 6 8 7 2 9 1 10 3 11
REMARK H PARENT 8 8
REMARK Flexibility Score: inf
ROOT
ATOM      1  C   UNL     1      12.439 -47.187  39.626  1.00  0.00     0.115 A 
ATOM      2  C   UNL     1      13.183 -46.670  38.561  1.00  0.00     0.047 A 
ATOM      3  C   UNL     1      11.048 -47.305  39.507  1.00  0.00     0.047 A 
ATOM      4  C   UNL     1      12.545 -46.273  37.382  1.00  0.00     0.014 A 
ATOM      5  C   UNL     1      10.405 -46.909  38.331  1.00  0.00     0.014 A 
ATOM      6  C   UNL     1      11.147 -46.388  37.255  1.00  0.00    -0.003 A 
ENDROOT
BRANCH   1   7
ATOM      7  O   UNL     1      13.089 -47.579  40.794  1.00  0.00    -0.508 OA
ATOM      8  H   UNL     1      12.681 -47.415  41.707  1.00  0.00     0.293 HD
ENDBRANCH   1   7
BRANCH   6   9
ATOM      9  C   UNL     1      10.466 -45.969  36.011  1.00  0.00     0.071 C 
ATOM     10  O   UNL     1      11.129 -45.726  34.967  1.00  0.00    -0.545 OA
ATOM     11  O   UNL     1       9.082 -45.837  35.976  1.00  0.00    -0.545 OA
ENDBRANCH   6   9
TORSDOF 2
ENDMDL
MODEL 7
REMARK VINA RESULT:    -5.437      1.643      4.345
REMARK INTER + INTRA:          -5.945
REMARK INTER:                  -5.911
REMARK INTRA:                  -0.033
REMARK UNBOUND:                -0.031
REMARK SMILES O=C([O-])c1ccc(O)cc1
REMARK SMILES IDX 7 1 6 2 9 3 5 4 10 5 4 6 8 7 2 9 1 10 3 11
REMARK H PARENT 8 8
REMARK Flexibility Score: inf
ROOT
ATOM      1  C   UNL     1      14.764 -46.838  36.623  1.00  0.00     0.115 A 
ATOM      2  C   UNL     1      13.595 -46.076  36.528  1.00  0.00     0.047 A 
ATOM      3  C   UNL     1      14.994 -47.615  37.765  1.00  0.00     0.047 A 
ATOM      4  C   UNL     1      12.659 -46.089  37.566  1.00  0.00     0.014 A 
ATOM      5  C   UNL     1      14.062 -47.630  38.806  1.00  0.00     0.014 A 
ATOM      6  C   UNL     1      12.884 -46.867  38.718  1.00  0.00    -0.003 A 
ENDROOT
BRANCH   1   7
ATOM      7  O   UNL     1      15.687 -46.815  35.580  1.00  0.00    -0.508 OA
ATOM      8  H   UNL     1      16.485 -47.440  35.566  1.00  0.00     0.293 HD
ENDBRANCH   1   7
BRANCH   6   9
ATOM      9  C   UNL     1      11.898 -46.885  39.821  1.00  0.00     0.071 C 
ATOM     10  O   UNL     1      10.668 -46.742  39.583  1.00  0.00    -0.545 OA
ATOM     11  O   UNL     1      12.314 -47.059  41.136  1.00  0.00    -0.545 OA
ENDBRANCH   6   9
TORSDOF 2
ENDMDL
MODEL 8
REMARK VINA RESULT:    -5.411      1.760      2.435
REMARK INTER + INTRA:          -5.917
REMARK INTER:                  -5.884
REMARK INTRA:                  -0.033
REMARK UNBOUND:                -0.031
REMARK SMILES O=C([O-])c1ccc(O)cc1
REMARK SMILES IDX 7 1 6 2 9 3 5 4 10 5 4 6 8 7 2 9 1 10 3 11
REMARK H PARENT 8 8
REMARK Flexibility Score: inf
ROOT
ATOM      1  C   UNL     1       9.189 -46.413  37.342  1.00  0.00     0.115 A 
ATOM      2  C   UNL     1       9.127 -47.176  38.511  1.00  0.00     0.047 A 
ATOM      3  C   UNL     1      10.418 -45.893  36.917  1.00  0.00     0.047 A 
ATOM      4  C   UNL     1      10.285 -47.420  39.256  1.00  0.00     0.014 A 
ATOM      5  C   UNL     1      11.578 -46.134  37.658  1.00  0.00     0.014 A 
ATOM      6  C   UNL     1      11.524 -46.900  38.837  1.00  0.00    -0.003 A 
ENDROOT
BRANCH   1   7
ATOM      7  O   UNL     1       8.026 -46.179  36.610  1.00  0.00    -0.508 OA
ATOM      8  H   UNL     1       7.158 -45.920  37.065  1.00  0.00     0.293 HD
ENDBRANCH   1   7
BRANCH   6   9
ATOM      9  C   UNL     1      12.753 -47.154  39.619  1.00  0.00     0.071 C 
ATOM     10  O   UNL     1      13.866 -47.288  39.041  1.00  0.00    -0.545 OA
ATOM     11  O   UNL     1      12.699 -47.249  41.005  1.00  0.00    -0.545 OA
ENDBRANCH   6   9
TORSDOF 2
ENDMDL
MODEL 9
REMARK VINA RESULT:    -5.395      2.658      4.573
REMARK INTER + INTRA:          -5.899
REMARK INTER:                  -5.872
REMARK INTRA:                  -0.027
REMARK UNBOUND:                -0.031
REMARK SMILES O=C([O-])c1ccc(O)cc1
REMARK SMILES IDX 7 1 6 2 9 3 5 4 10 5 4 6 8 7 2 9 1 10 3 11
REMARK H PARENT 8 8
REMARK Flexibility Score: inf
ROOT
ATOM      1  C   UNL     1      11.268 -46.620  38.944  1.00  0.00     0.115 A 
ATOM      2  C   UNL     1      11.692 -46.004  37.763  1.00  0.00     0.047 A 
ATOM      3  C   UNL     1      10.062 -47.333  38.961  1.00  0.00     0.047 A 
ATOM      4  C   UNL     1      10.917 -46.096  36.603  1.00  0.00     0.014 A 
ATOM      5  C   UNL     1       9.284 -47.428  37.803  1.00  0.00     0.014 A 
ATOM      6  C   UNL     1       9.704 -46.810  36.611  1.00  0.00    -0.003 A 
ENDROOT
BRANCH   1   7
ATOM      7  O   UNL     1      12.051 -46.519  40.092  1.00  0.00    -0.508 OA
ATOM      8  H   UNL     1      11.635 -46.372  41.005  1.00  0.00     0.293 HD
ENDBRANCH   1   7
BRANCH   6   9
ATOM      9  C   UNL     1       8.879 -46.912  35.387  1.00  0.00     0.071 C 
ATOM     10  O   UNL     1       7.837 -46.216  35.256  1.00  0.00    -0.545 OA
ATOM     11  O   UNL     1       9.243 -47.779  34.363  1.00  0.00    -0.545 OA
ENDBRANCH   6   9
TORSDOF 2
ENDMDL
