MODEL 1
REMARK VINA RESULT:    -4.159      0.000      0.000
REMARK INTER + INTRA:          -6.753
REMARK INTER:                  -5.982
REMARK INTRA:                  -0.771
REMARK UNBOUND:                -0.771
REMARK SMILES O=C(CO)[C@@H](O)[C@H](O)[C@@H](O)CO
REMARK SMILES IDX 7 1 9 2 11 3 12 4 10 6 5 8 2 9 1 10 3 11 4 12 6 14 8 16
REMARK H PARENT 12 5 10 7 4 13 6 15 8 17
REMARK Flexibility Score: inf
ROOT
ATOM      1  C   UNL     1       2.187  34.171  30.203  1.00  0.00     0.181 C 
ENDROOT
BRANCH   1   2
ATOM      2  C   UNL     1       2.533  35.341  29.246  1.00  0.00     0.171 C 
BRANCH   2   3
ATOM      3  C   UNL     1       1.350  36.315  29.117  1.00  0.00     0.190 C 
BRANCH   3   4
ATOM      4  O   UNL     1       0.325  35.747  28.347  1.00  0.00    -0.394 OA
ATOM      5  H   UNL     1      -0.405  35.509  28.976  1.00  0.00     0.210 HD
ENDBRANCH   3   4
ENDBRANCH   2   3
BRANCH   2   6
ATOM      6  O   UNL     1       2.877  34.838  27.979  1.00  0.00    -0.388 OA
ATOM      7  H   UNL     1       3.555  35.455  27.596  1.00  0.00     0.211 HD
ENDBRANCH   2   6
ENDBRANCH   1   2
BRANCH   1   8
ATOM      8  C   UNL     1       3.444  33.552  30.873  1.00  0.00     0.214 C 
BRANCH   8   9
ATOM      9  C   UNL     1       3.399  32.042  30.851  1.00  0.00     0.189 C 
ATOM     10  O   UNL     1       2.455  31.461  31.367  1.00  0.00    -0.294 OA
BRANCH   9  11
ATOM     11  C   UNL     1       4.486  31.232  30.195  1.00  0.00     0.234 C 
BRANCH  11  12
ATOM     12  O   UNL     1       5.009  30.301  31.101  1.00  0.00    -0.388 OA
ATOM     13  H   UNL     1       5.846  29.951  30.696  1.00  0.00     0.211 HD
ENDBRANCH  11  12
ENDBRANCH   9  11
ENDBRANCH   8   9
BRANCH   8  14
ATOM     14  O   UNL     1       4.603  33.976  30.202  1.00  0.00    -0.382 OA
ATOM     15  H   UNL     1       4.586  33.565  29.298  1.00  0.00     0.211 HD
ENDBRANCH   8  14
ENDBRANCH   1   8
BRANCH   1  16
ATOM     16  O   UNL     1       1.450  33.179  29.529  1.00  0.00    -0.387 OA
ATOM     17  H   UNL     1       0.823  33.636  28.910  1.00  0.00     0.211 HD
ENDBRANCH   1  16
TORSDOF 10
ENDMDL
MODEL 2
REMARK VINA RESULT:    -4.098      2.434      5.590
REMARK INTER + INTRA:          -6.666
REMARK INTER:                  -5.436
REMARK INTRA:                  -1.230
REMARK UNBOUND:                -0.771
REMARK SMILES O=C(CO)[C@@H](O)[C@H](O)[C@@H](O)CO
REMARK SMILES IDX 7 1 9 2 11 3 12 4 10 6 5 8 2 9 1 10 3 11 4 12 6 14 8 16
REMARK H PARENT 12 5 10 7 4 13 6 15 8 17
REMARK Flexibility Score: inf
ROOT
ATOM      1  C   UNL     1       1.693  36.114  30.237  1.00  0.00     0.181 C 
ENDROOT
BRANCH   1   2
ATOM      2  C   UNL     1       2.350  34.709  30.267  1.00  0.00     0.171 C 
BRANCH   2   3
ATOM      3  C   UNL     1       3.458  34.597  29.205  1.00  0.00     0.190 C 
BRANCH   3   4
ATOM      4  O   UNL     1       2.904  34.554  27.918  1.00  0.00    -0.394 OA
ATOM      5  H   UNL     1       3.664  34.588  27.279  1.00  0.00     0.210 HD
ENDBRANCH   3   4
ENDBRANCH   2   3
BRANCH   2   6
ATOM      6  O   UNL     1       1.376  33.720  30.046  1.00  0.00    -0.388 OA
ATOM      7  H   UNL     1       1.123  33.770  29.087  1.00  0.00     0.211 HD
ENDBRANCH   2   6
ENDBRANCH   1   2
BRANCH   1   8
ATOM      8  C   UNL     1       0.234  36.082  29.711  1.00  0.00     0.214 C 
BRANCH   8   9
ATOM      9  C   UNL     1      -0.512  37.347  30.062  1.00  0.00     0.189 C 
ATOM     10  O   UNL     1       0.115  38.375  30.274  1.00  0.00    -0.294 OA
BRANCH   9  11
ATOM     11  C   UNL     1      -2.016  37.378  30.144  1.00  0.00     0.234 C 
BRANCH  11  12
ATOM     12  O   UNL     1      -2.575  37.000  28.917  1.00  0.00    -0.388 OA
ATOM     13  H   UNL     1      -3.480  36.644  29.116  1.00  0.00     0.211 HD
ENDBRANCH  11  12
ENDBRANCH   9  11
ENDBRANCH   8   9
BRANCH   8  14
ATOM     14  O   UNL     1       0.231  35.932  28.313  1.00  0.00    -0.382 OA
ATOM     15  H   UNL     1      -0.549  35.362  28.082  1.00  0.00     0.211 HD
ENDBRANCH   8  14
ENDBRANCH   1   8
BRANCH   1  16
ATOM     16  O   UNL     1       2.470  37.010  29.480  1.00  0.00    -0.387 OA
ATOM     17  H   UNL     1       2.073  37.063  28.572  1.00  0.00     0.211 HD
ENDBRANCH   1  16
TORSDOF 10
ENDMDL
MODEL 3
REMARK VINA RESULT:    -4.068      1.143      4.790
REMARK INTER + INTRA:          -6.622
REMARK INTER:                  -5.770
REMARK INTRA:                  -0.852
REMARK UNBOUND:                -0.771
REMARK SMILES O=C(CO)[C@@H](O)[C@H](O)[C@@H](O)CO
REMARK SMILES IDX 7 1 9 2 11 3 12 4 10 6 5 8 2 9 1 10 3 11 4 12 6 14 8 16
REMARK H PARENT 12 5 10 7 4 13 6 15 8 17
REMARK Flexibility Score: inf
ROOT
ATOM      1  C   UNL     1       2.341  33.379  29.895  1.00  0.00     0.181 C 
ENDROOT
BRANCH   1   2
ATOM      2  C   UNL     1       3.761  32.756  29.901  1.00  0.00     0.171 C 
BRANCH   2   3
ATOM      3  C   UNL     1       3.853  31.604  30.917  1.00  0.00     0.190 C 
BRANCH   3   4
ATOM      4  O   UNL     1       5.056  30.901  30.758  1.00  0.00    -0.394 OA
ATOM      5  H   UNL     1       4.992  30.094  31.333  1.00  0.00     0.210 HD
ENDBRANCH   3   4
ENDBRANCH   2   3
BRANCH   2   6
ATOM      6  O   UNL     1       4.715  33.741  30.211  1.00  0.00    -0.388 OA
ATOM      7  H   UNL     1       4.425  34.578  29.762  1.00  0.00     0.211 HD
ENDBRANCH   2   6
ENDBRANCH   1   2
BRANCH   1   8
ATOM      8  C   UNL     1       2.159  34.444  28.781  1.00  0.00     0.214 C 
BRANCH   8   9
ATOM      9  C   UNL     1       2.185  35.847  29.343  1.00  0.00     0.189 C 
ATOM     10  O   UNL     1       3.206  36.263  29.871  1.00  0.00    -0.294 OA
BRANCH   9  11
ATOM     11  C   UNL     1       0.984  36.751  29.258  1.00  0.00     0.234 C 
BRANCH  11  12
ATOM     12  O   UNL     1       0.044  36.224  28.362  1.00  0.00    -0.388 OA
ATOM     13  H   UNL     1      -0.642  36.928  28.224  1.00  0.00     0.211 HD
ENDBRANCH  11  12
ENDBRANCH   9  11
ENDBRANCH   8   9
BRANCH   8  14
ATOM     14  O   UNL     1       3.186  34.324  27.829  1.00  0.00    -0.382 OA
ATOM     15  H   UNL     1       3.910  34.946  28.100  1.00  0.00     0.211 HD
ENDBRANCH   8  14
ENDBRANCH   1   8
BRANCH   1  16
ATOM     16  O   UNL     1       2.033  33.926  31.155  1.00  0.00    -0.387 OA
ATOM     17  H   UNL     1       2.880  34.005  31.666  1.00  0.00     0.211 HD
ENDBRANCH   1  16
TORSDOF 10
ENDMDL
MODEL 4
REMARK VINA RESULT:    -4.031      4.648      6.321
REMARK INTER + INTRA:          -6.569
REMARK INTER:                  -5.245
REMARK INTRA:                  -1.325
REMARK UNBOUND:                -0.771
REMARK SMILES O=C(CO)[C@@H](O)[C@H](O)[C@@H](O)CO
REMARK SMILES IDX 7 1 9 2 11 3 12 4 10 6 5 8 2 9 1 10 3 11 4 12 6 14 8 16
REMARK H PARENT 12 5 10 7 4 13 6 15 8 17
REMARK Flexibility Score: inf
ROOT
ATOM      1  C   UNL     1      -2.292  35.571  30.891  1.00  0.00     0.181 C 
ENDROOT
BRANCH   1   2
ATOM      2  C   UNL     1      -3.832  35.629  31.061  1.00  0.00     0.171 C 
BRANCH   2   3
ATOM      3  C   UNL     1      -4.538  34.797  29.977  1.00  0.00     0.190 C 
BRANCH   3   4
ATOM      4  O   UNL     1      -4.443  35.430  28.730  1.00  0.00    -0.394 OA
ATOM      5  H   UNL     1      -3.565  35.172  28.345  1.00  0.00     0.210 HD
ENDBRANCH   3   4
ENDBRANCH   2   3
BRANCH   2   6
ATOM      6  O   UNL     1      -4.272  36.963  30.999  1.00  0.00    -0.388 OA
ATOM      7  H   UNL     1      -4.337  37.203  30.038  1.00  0.00     0.211 HD
ENDBRANCH   2   6
ENDBRANCH   1   2
BRANCH   1   8
ATOM      8  C   UNL     1      -1.688  36.928  30.441  1.00  0.00     0.214 C 
BRANCH   8   9
ATOM      9  C   UNL     1      -0.177  36.900  30.463  1.00  0.00     0.189 C 
ATOM     10  O   UNL     1       0.406  36.842  31.535  1.00  0.00    -0.294 OA
BRANCH   9  11
ATOM     11  C   UNL     1       0.629  36.927  29.191  1.00  0.00     0.234 C 
BRANCH  11  12
ATOM     12  O   UNL     1       0.242  35.876  28.351  1.00  0.00    -0.388 OA
ATOM     13  H   UNL     1       0.472  36.153  27.425  1.00  0.00     0.211 HD
ENDBRANCH  11  12
ENDBRANCH   9  11
ENDBRANCH   8   9
BRANCH   8  14
ATOM     14  O   UNL     1      -2.111  37.233  29.136  1.00  0.00    -0.382 OA
ATOM     15  H   UNL     1      -2.958  36.739  28.980  1.00  0.00     0.211 HD
ENDBRANCH   8  14
ENDBRANCH   1   8
BRANCH   1  16
ATOM     16  O   UNL     1      -1.929  34.549  29.994  1.00  0.00    -0.387 OA
ATOM     17  H   UNL     1      -0.938  34.501  29.975  1.00  0.00     0.211 HD
ENDBRANCH   1  16
TORSDOF 10
ENDMDL
MODEL 5
REMARK VINA RESULT:    -4.013      1.706      4.628
REMARK INTER + INTRA:          -6.543
REMARK INTER:                  -5.311
REMARK INTRA:                  -1.232
REMARK UNBOUND:                -0.771
REMARK SMILES O=C(CO)[C@@H](O)[C@H](O)[C@@H](O)CO
REMARK SMILES IDX 7 1 9 2 11 3 12 4 10 6 5 8 2 9 1 10 3 11 4 12 6 14 8 16
REMARK H PARENT 12 5 10 7 4 13 6 15 8 17
REMARK Flexibility Score: inf
ROOT
ATOM      1  C   UNL     1       4.288  33.597  30.059  1.00  0.00     0.181 C 
ENDROOT
BRANCH   1   2
ATOM      2  C   UNL     1       4.224  32.395  31.036  1.00  0.00     0.171 C 
BRANCH   2   3
ATOM      3  C   UNL     1       4.437  31.066  30.289  1.00  0.00     0.190 C 
BRANCH   3   4
ATOM      4  O   UNL     1       5.039  30.120  31.130  1.00  0.00    -0.394 OA
ATOM      5  H   UNL     1       4.695  29.231  30.850  1.00  0.00     0.210 HD
ENDBRANCH   3   4
ENDBRANCH   2   3
BRANCH   2   6
ATOM      6  O   UNL     1       2.982  32.377  31.694  1.00  0.00    -0.388 OA
ATOM      7  H   UNL     1       2.284  32.268  30.995  1.00  0.00     0.211 HD
ENDBRANCH   2   6
ENDBRANCH   1   2
BRANCH   1   8
ATOM      8  C   UNL     1       4.412  34.960  30.793  1.00  0.00     0.214 C 
BRANCH   8   9
ATOM      9  C   UNL     1       3.222  35.849  30.520  1.00  0.00     0.189 C 
ATOM     10  O   UNL     1       3.165  36.470  29.468  1.00  0.00    -0.294 OA
BRANCH   9  11
ATOM     11  C   UNL     1       2.095  35.981  31.510  1.00  0.00     0.234 C 
BRANCH  11  12
ATOM     12  O   UNL     1       1.421  34.759  31.640  1.00  0.00    -0.388 OA
ATOM     13  H   UNL     1       2.024  34.063  31.270  1.00  0.00     0.211 HD
ENDBRANCH  11  12
ENDBRANCH   9  11
ENDBRANCH   8   9
BRANCH   8  14
ATOM     14  O   UNL     1       4.508  34.751  32.180  1.00  0.00    -0.382 OA
ATOM     15  H   UNL     1       4.326  33.790  32.344  1.00  0.00     0.211 HD
ENDBRANCH   8  14
ENDBRANCH   1   8
BRANCH   1  16
ATOM     16  O   UNL     1       3.173  33.601  29.201  1.00  0.00    -0.387 OA
ATOM     17  H   UNL     1       3.290  34.346  28.556  1.00  0.00     0.211 HD
ENDBRANCH   1  16
TORSDOF 10
ENDMDL
MODEL 6
REMARK VINA RESULT:    -4.011      2.552      4.026
REMARK INTER + INTRA:          -6.541
REMARK INTER:                  -5.348
REMARK INTRA:                  -1.193
REMARK UNBOUND:                -0.771
REMARK SMILES O=C(CO)[C@@H](O)[C@H](O)[C@@H](O)CO
REMARK SMILES IDX 7 1 9 2 11 3 12 4 10 6 5 8 2 9 1 10 3 11 4 12 6 14 8 16
REMARK H PARENT 12 5 10 7 4 13 6 15 8 17
REMARK Flexibility Score: inf
ROOT
ATOM      1  C   UNL     1      -0.580  35.141  30.503  1.00  0.00     0.181 C 
ENDROOT
BRANCH   1   2
ATOM      2  C   UNL     1      -1.137  36.491  31.025  1.00  0.00     0.171 C 
BRANCH   2   3
ATOM      3  C   UNL     1      -2.522  36.786  30.422  1.00  0.00     0.190 C 
BRANCH   3   4
ATOM      4  O   UNL     1      -2.408  37.127  29.067  1.00  0.00    -0.394 OA
ATOM      5  H   UNL     1      -1.532  37.583  28.962  1.00  0.00     0.210 HD
ENDBRANCH   3   4
ENDBRANCH   2   3
BRANCH   2   6
ATOM      6  O   UNL     1      -0.248  37.532  30.706  1.00  0.00    -0.388 OA
ATOM      7  H   UNL     1       0.534  37.119  30.254  1.00  0.00     0.211 HD
ENDBRANCH   2   6
ENDBRANCH   1   2
BRANCH   1   8
ATOM      8  C   UNL     1       0.637  35.321  29.557  1.00  0.00     0.214 C 
BRANCH   8   9
ATOM      9  C   UNL     1       1.305  34.001  29.253  1.00  0.00     0.189 C 
ATOM     10  O   UNL     1       0.638  32.977  29.251  1.00  0.00    -0.294 OA
BRANCH   9  11
ATOM     11  C   UNL     1       2.775  33.916  28.938  1.00  0.00     0.234 C 
BRANCH  11  12
ATOM     12  O   UNL     1       3.090  34.764  27.868  1.00  0.00    -0.388 OA
ATOM     13  H   UNL     1       3.946  34.435  27.488  1.00  0.00     0.211 HD
ENDBRANCH  11  12
ENDBRANCH   9  11
ENDBRANCH   8   9
BRANCH   8  14
ATOM     14  O   UNL     1       0.224  35.904  28.347  1.00  0.00    -0.382 OA
ATOM     15  H   UNL     1      -0.700  36.240  28.485  1.00  0.00     0.211 HD
ENDBRANCH   8  14
ENDBRANCH   1   8
BRANCH   1  16
ATOM     16  O   UNL     1      -1.592  34.399  29.866  1.00  0.00    -0.387 OA
ATOM     17  H   UNL     1      -1.954  34.952  29.126  1.00  0.00     0.211 HD
ENDBRANCH   1  16
TORSDOF 10
ENDMDL
MODEL 7
REMARK VINA RESULT:    -3.984      2.063      3.067
REMARK INTER + INTRA:          -6.502
REMARK INTER:                  -5.300
REMARK INTRA:                  -1.202
REMARK UNBOUND:                -0.771
REMARK SMILES O=C(CO)[C@@H](O)[C@H](O)[C@@H](O)CO
REMARK SMILES IDX 7 1 9 2 11 3 12 4 10 6 5 8 2 9 1 10 3 11 4 12 6 14 8 16
REMARK H PARENT 12 5 10 7 4 13 6 15 8 17
REMARK Flexibility Score: inf
ROOT
ATOM      1  C   UNL     1       0.843  35.834  30.614  1.00  0.00     0.181 C 
ENDROOT
BRANCH   1   2
ATOM      2  C   UNL     1       0.296  36.822  29.551  1.00  0.00     0.171 C 
BRANCH   2   3
ATOM      3  C   UNL     1      -1.055  37.410  29.990  1.00  0.00     0.190 C 
BRANCH   3   4
ATOM      4  O   UNL     1      -2.073  37.021  29.108  1.00  0.00    -0.394 OA
ATOM      5  H   UNL     1      -2.907  37.455  29.426  1.00  0.00     0.210 HD
ENDBRANCH   3   4
ENDBRANCH   2   3
BRANCH   2   6
ATOM      6  O   UNL     1       0.151  36.165  28.317  1.00  0.00    -0.388 OA
ATOM      7  H   UNL     1      -0.454  35.392  28.468  1.00  0.00     0.211 HD
ENDBRANCH   2   6
ENDBRANCH   1   2
BRANCH   1   8
ATOM      8  C   UNL     1       2.394  35.834  30.691  1.00  0.00     0.214 C 
BRANCH   8   9
ATOM      9  C   UNL     1       2.966  34.473  30.368  1.00  0.00     0.189 C 
ATOM     10  O   UNL     1       3.003  33.616  31.239  1.00  0.00    -0.294 OA
BRANCH   9  11
ATOM     11  C   UNL     1       3.483  34.143  28.993  1.00  0.00     0.234 C 
BRANCH  11  12
ATOM     12  O   UNL     1       2.510  34.433  28.028  1.00  0.00    -0.388 OA
ATOM     13  H   UNL     1       2.834  34.045  27.173  1.00  0.00     0.211 HD
ENDBRANCH  11  12
ENDBRANCH   9  11
ENDBRANCH   8   9
BRANCH   8  14
ATOM     14  O   UNL     1       2.920  36.768  29.783  1.00  0.00    -0.382 OA
ATOM     15  H   UNL     1       2.213  37.446  29.619  1.00  0.00     0.211 HD
ENDBRANCH   8  14
ENDBRANCH   1   8
BRANCH   1  16
ATOM     16  O   UNL     1       0.362  34.533  30.378  1.00  0.00    -0.387 OA
ATOM     17  H   UNL     1      -0.548  34.612  29.991  1.00  0.00     0.211 HD
ENDBRANCH   1  16
TORSDOF 10
ENDMDL
MODEL 8
REMARK VINA RESULT:    -3.962      4.487      6.595
REMARK INTER + INTRA:          -6.469
REMARK INTER:                  -5.171
REMARK INTRA:                  -1.298
REMARK UNBOUND:                -0.771
REMARK SMILES O=C(CO)[C@@H](O)[C@H](O)[C@@H](O)CO
REMARK SMILES IDX 7 1 9 2 11 3 12 4 10 6 5 8 2 9 1 10 3 11 4 12 6 14 8 16
REMARK H PARENT 12 5 10 7 4 13 6 15 8 17
REMARK Flexibility Score: inf
ROOT
ATOM      1  C   UNL     1      -1.629  36.951  30.445  1.00  0.00     0.181 C 
ENDROOT
BRANCH   1   2
ATOM      2  C   UNL     1      -0.084  36.892  30.557  1.00  0.00     0.171 C 
BRANCH   2   3
ATOM      3  C   UNL     1       0.573  36.986  29.169  1.00  0.00     0.190 C 
BRANCH   3   4
ATOM      4  O   UNL     1       0.225  35.878  28.383  1.00  0.00    -0.394 OA
ATOM      5  H   UNL     1      -0.221  36.234  27.570  1.00  0.00     0.210 HD
ENDBRANCH   3   4
ENDBRANCH   2   3
BRANCH   2   6
ATOM      6  O   UNL     1       0.306  35.698  31.189  1.00  0.00    -0.388 OA
ATOM      7  H   UNL     1       0.516  35.044  30.471  1.00  0.00     0.211 HD
ENDBRANCH   2   6
ENDBRANCH   1   2
BRANCH   1   8
ATOM      8  C   UNL     1      -2.314  35.635  30.903  1.00  0.00     0.214 C 
BRANCH   8   9
ATOM      9  C   UNL     1      -3.814  35.788  30.987  1.00  0.00     0.189 C 
ATOM     10  O   UNL     1      -4.298  36.484  31.868  1.00  0.00    -0.294 OA
BRANCH   9  11
ATOM     11  C   UNL     1      -4.731  35.112  30.002  1.00  0.00     0.234 C 
BRANCH  11  12
ATOM     12  O   UNL     1      -4.417  35.513  28.697  1.00  0.00    -0.388 OA
ATOM     13  H   UNL     1      -3.429  35.463  28.615  1.00  0.00     0.211 HD
ENDBRANCH  11  12
ENDBRANCH   9  11
ENDBRANCH   8   9
BRANCH   8  14
ATOM     14  O   UNL     1      -2.018  34.600  29.999  1.00  0.00    -0.382 OA
ATOM     15  H   UNL     1      -1.124  34.794  29.615  1.00  0.00     0.211 HD
ENDBRANCH   8  14
ENDBRANCH   1   8
BRANCH   1  16
ATOM     16  O   UNL     1      -2.021  37.278  29.134  1.00  0.00    -0.387 OA
ATOM     17  H   UNL     1      -2.758  37.940  29.194  1.00  0.00     0.211 HD
ENDBRANCH   1  16
TORSDOF 10
ENDMDL
MODEL 9
REMARK VINA RESULT:    -3.927      1.024      4.740
REMARK INTER + INTRA:          -6.420
REMARK INTER:                  -5.884
REMARK INTRA:                  -0.536
REMARK UNBOUND:                -0.771
REMARK SMILES O=C(CO)[C@@H](O)[C@H](O)[C@@H](O)CO
REMARK SMILES IDX 7 1 9 2 11 3 12 4 10 6 5 8 2 9 1 10 3 11 4 12 6 14 8 16
REMARK H PARENT 12 5 10 7 4 13 6 15 8 17
REMARK Flexibility Score: inf
ROOT
ATOM      1  C   UNL     1       2.963  32.925  30.959  1.00  0.00     0.181 C 
ENDROOT
BRANCH   1   2
ATOM      2  C   UNL     1       2.885  31.376  30.959  1.00  0.00     0.171 C 
BRANCH   2   3
ATOM      3  C   UNL     1       4.077  30.765  30.202  1.00  0.00     0.190 C 
BRANCH   3   4
ATOM      4  O   UNL     1       5.090  30.391  31.096  1.00  0.00    -0.394 OA
ATOM      5  H   UNL     1       5.905  30.890  30.827  1.00  0.00     0.210 HD
ENDBRANCH   3   4
ENDBRANCH   2   3
BRANCH   2   6
ATOM      6  O   UNL     1       1.680  30.957  30.369  1.00  0.00    -0.388 OA
ATOM      7  H   UNL     1       1.636  31.376  29.469  1.00  0.00     0.211 HD
ENDBRANCH   2   6
ENDBRANCH   1   2
BRANCH   1   8
ATOM      8  C   UNL     1       3.038  33.522  29.528  1.00  0.00     0.214 C 
BRANCH   8   9
ATOM      9  C   UNL     1       1.710  34.100  29.097  1.00  0.00     0.189 C 
ATOM     10  O   UNL     1       0.757  33.353  28.926  1.00  0.00    -0.294 OA
BRANCH   9  11
ATOM     11  C   UNL     1       1.528  35.580  28.884  1.00  0.00     0.234 C 
BRANCH  11  12
ATOM     12  O   UNL     1       0.257  35.839  28.354  1.00  0.00    -0.388 OA
ATOM     13  H   UNL     1       0.337  36.674  27.823  1.00  0.00     0.211 HD
ENDBRANCH  11  12
ENDBRANCH   9  11
ENDBRANCH   8   9
BRANCH   8  14
ATOM     14  O   UNL     1       4.006  34.539  29.482  1.00  0.00    -0.382 OA
ATOM     15  H   UNL     1       4.894  34.097  29.461  1.00  0.00     0.211 HD
ENDBRANCH   8  14
ENDBRANCH   1   8
BRANCH   1  16
ATOM     16  O   UNL     1       4.052  33.368  31.734  1.00  0.00    -0.387 OA
ATOM     17  H   UNL     1       3.935  33.009  32.652  1.00  0.00     0.211 HD
ENDBRANCH   1  16
TORSDOF 10
ENDMDL
