MODEL 1
REMARK VINA RESULT:    -5.472      0.000      0.000
REMARK INTER + INTRA:         -11.297
REMARK INTER:                  -9.950
REMARK INTRA:                  -1.347
REMARK UNBOUND:                -1.347
REMARK SMILES CCCCCCCCCCCCCC[C@@H](C)C(=O)[O-]
REMARK SMILES IDX 9 1 10 2 11 3 12 4 13 5 14 6 15 7 16 8 17 9 18 10 19 11 8 12
REMARK SMILES IDX 7 13 6 14 5 15 4 16 3 17 2 18 1 19
REMARK H PARENT
REMARK Flexibility Score: inf
ROOT
ATOM      1  C   UNL     1     -11.001  -0.704  -9.275  1.00  0.00     0.000 C 
ENDROOT
BRANCH   1   2
ATOM      2  C   UNL     1     -10.492  -1.862 -10.153  1.00  0.00     0.000 C 
BRANCH   2   3
ATOM      3  C   UNL     1     -10.449  -3.240  -9.462  1.00  0.00     0.000 C 
BRANCH   3   4
ATOM      4  C   UNL     1      -9.070  -3.663  -8.923  1.00  0.00     0.000 C 
BRANCH   4   5
ATOM      5  C   UNL     1      -9.092  -3.997  -7.422  1.00  0.00     0.001 C 
BRANCH   5   6
ATOM      6  C   UNL     1     -10.502  -4.349  -6.910  1.00  0.00     0.009 C 
BRANCH   6   7
ATOM      7  C   UNL     1     -10.729  -5.856  -6.654  1.00  0.00     0.032 C 
ATOM      8  C   UNL     1     -11.721  -6.061  -5.504  1.00  0.00     0.014 C 
BRANCH   7   9
ATOM      9  C   UNL     1     -11.223  -6.562  -7.887  1.00  0.00     0.044 C 
ATOM     10  O   UNL     1     -10.473  -7.355  -8.516  1.00  0.00    -0.550 OA
ATOM     11  O   UNL     1     -12.519  -6.345  -8.337  1.00  0.00    -0.550 OA
ENDBRANCH   7   9
ENDBRANCH   6   7
ENDBRANCH   5   6
ENDBRANCH   4   5
ENDBRANCH   3   4
ENDBRANCH   2   3
ENDBRANCH   1   2
BRANCH   1  12
ATOM     12  C   UNL     1     -12.007   0.199 -10.002  1.00  0.00     0.000 C 
BRANCH  12  13
ATOM     13  C   UNL     1     -13.254  -0.591 -10.417  1.00  0.00    -0.000 C 
BRANCH  13  14
ATOM     14  C   UNL     1     -14.533   0.101  -9.919  1.00  0.00    -0.000 C 
BRANCH  14  15
ATOM     15  C   UNL     1     -14.455   1.633 -10.015  1.00  0.00    -0.000 C 
BRANCH  15  16
ATOM     16  C   UNL     1     -14.845   2.327  -8.699  1.00  0.00    -0.000 C 
BRANCH  16  17
ATOM     17  C   UNL     1     -14.100   3.657  -8.481  1.00  0.00    -0.000 C 
BRANCH  17  18
ATOM     18  C   UNL     1     -12.772   3.792  -9.247  1.00  0.00    -0.003 C 
ATOM     19  C   UNL     1     -11.546   3.520  -8.375  1.00  0.00     0.004 C 
ENDBRANCH  17  18
ENDBRANCH  16  17
ENDBRANCH  15  16
ENDBRANCH  14  15
ENDBRANCH  13  14
ENDBRANCH  12  13
ENDBRANCH   1  12
TORSDOF 14
ENDMDL
MODEL 2
REMARK VINA RESULT:    -5.367      3.627      8.290
REMARK INTER + INTRA:         -11.106
REMARK INTER:                 -10.147
REMARK INTRA:                  -0.959
REMARK UNBOUND:                -1.347
REMARK SMILES CCCCCCCCCCCCCC[C@@H](C)C(=O)[O-]
REMARK SMILES IDX 9 1 10 2 11 3 12 4 13 5 14 6 15 7 16 8 17 9 18 10 19 11 8 12
REMARK SMILES IDX 7 13 6 14 5 15 4 16 3 17 2 18 1 19
REMARK H PARENT
REMARK Flexibility Score: inf
ROOT
ATOM      1  C   UNL     1      -9.069  -4.022  -8.698  1.00  0.00     0.000 C 
ENDROOT
BRANCH   1   2
ATOM      2  C   UNL     1      -9.663  -3.344  -9.946  1.00  0.00     0.000 C 
BRANCH   2   3
ATOM      3  C   UNL     1     -10.902  -2.463  -9.686  1.00  0.00     0.000 C 
BRANCH   3   4
ATOM      4  C   UNL     1     -10.765  -0.991 -10.117  1.00  0.00     0.000 C 
BRANCH   4   5
ATOM      5  C   UNL     1     -12.100  -0.228 -10.072  1.00  0.00     0.001 C 
BRANCH   5   6
ATOM      6  C   UNL     1     -11.987   1.129  -9.353  1.00  0.00     0.009 C 
BRANCH   6   7
ATOM      7  C   UNL     1     -13.142   2.109  -9.657  1.00  0.00     0.032 C 
ATOM      8  C   UNL     1     -14.496   1.418  -9.465  1.00  0.00     0.014 C 
BRANCH   7   9
ATOM      9  C   UNL     1     -13.069   3.340  -8.794  1.00  0.00     0.044 C 
ATOM     10  O   UNL     1     -11.959   3.875  -8.533  1.00  0.00    -0.550 OA
ATOM     11  O   UNL     1     -14.235   3.898  -8.283  1.00  0.00    -0.550 OA
ENDBRANCH   7   9
ENDBRANCH   6   7
ENDBRANCH   5   6
ENDBRANCH   4   5
ENDBRANCH   3   4
ENDBRANCH   2   3
ENDBRANCH   1   2
BRANCH   1  12
ATOM     12  C   UNL     1      -9.706  -3.530  -7.391  1.00  0.00     0.000 C 
BRANCH  12  13
ATOM     13  C   UNL     1     -10.442  -4.669  -6.676  1.00  0.00    -0.000 C 
BRANCH  13  14
ATOM     14  C   UNL     1     -10.141  -6.021  -7.341  1.00  0.00    -0.000 C 
BRANCH  14  15
ATOM     15  C   UNL     1     -10.376  -7.212  -6.399  1.00  0.00    -0.000 C 
BRANCH  15  16
ATOM     16  C   UNL     1     -11.518  -6.957  -5.399  1.00  0.00    -0.000 C 
BRANCH  16  17
ATOM     17  C   UNL     1     -12.851  -7.590  -5.839  1.00  0.00    -0.000 C 
BRANCH  17  18
ATOM     18  C   UNL     1     -14.061  -6.639  -5.819  1.00  0.00    -0.003 C 
ATOM     19  C   UNL     1     -14.660  -6.402  -7.204  1.00  0.00     0.004 C 
ENDBRANCH  17  18
ENDBRANCH  16  17
ENDBRANCH  15  16
ENDBRANCH  14  15
ENDBRANCH  13  14
ENDBRANCH  12  13
ENDBRANCH   1  12
TORSDOF 14
ENDMDL
MODEL 3
REMARK VINA RESULT:    -5.001      1.638      2.196
REMARK INTER + INTRA:         -10.442
REMARK INTER:                  -9.252
REMARK INTRA:                  -1.190
REMARK UNBOUND:                -1.347
REMARK SMILES CCCCCCCCCCCCCC[C@@H](C)C(=O)[O-]
REMARK SMILES IDX 9 1 10 2 11 3 12 4 13 5 14 6 15 7 16 8 17 9 18 10 19 11 8 12
REMARK SMILES IDX 7 13 6 14 5 15 4 16 3 17 2 18 1 19
REMARK H PARENT
REMARK Flexibility Score: inf
ROOT
ATOM      1  C   UNL     1     -10.574  -1.434 -10.150  1.00  0.00     0.000 C 
ENDROOT
BRANCH   1   2
ATOM      2  C   UNL     1     -10.285  -2.502  -9.080  1.00  0.00     0.000 C 
BRANCH   2   3
ATOM      3  C   UNL     1     -10.366  -3.962  -9.572  1.00  0.00     0.000 C 
BRANCH   3   4
ATOM      4  C   UNL     1     -11.725  -4.654  -9.357  1.00  0.00     0.000 C 
BRANCH   4   5
ATOM      5  C   UNL     1     -11.604  -6.182  -9.230  1.00  0.00     0.001 C 
BRANCH   5   6
ATOM      6  C   UNL     1     -12.544  -6.767  -8.159  1.00  0.00     0.009 C 
BRANCH   6   7
ATOM      7  C   UNL     1     -11.830  -7.234  -6.871  1.00  0.00     0.032 C 
ATOM      8  C   UNL     1     -10.315  -7.032  -6.995  1.00  0.00     0.014 C 
BRANCH   7   9
ATOM      9  C   UNL     1     -12.344  -6.509  -5.656  1.00  0.00     0.044 C 
ATOM     10  O   UNL     1     -11.552  -6.138  -4.749  1.00  0.00    -0.550 OA
ATOM     11  O   UNL     1     -13.701  -6.239  -5.532  1.00  0.00    -0.550 OA
ENDBRANCH   7   9
ENDBRANCH   6   7
ENDBRANCH   5   6
ENDBRANCH   4   5
ENDBRANCH   3   4
ENDBRANCH   2   3
ENDBRANCH   1   2
BRANCH   1  12
ATOM     12  C   UNL     1     -11.596  -0.386  -9.687  1.00  0.00     0.000 C 
BRANCH  12  13
ATOM     13  C   UNL     1     -12.753  -0.268 -10.687  1.00  0.00    -0.000 C 
BRANCH  13  14
ATOM     14  C   UNL     1     -14.006  -0.985 -10.164  1.00  0.00    -0.000 C 
BRANCH  14  15
ATOM     15  C   UNL     1     -15.061  -0.011  -9.613  1.00  0.00    -0.000 C 
BRANCH  15  16
ATOM     16  C   UNL     1     -14.745   1.455  -9.954  1.00  0.00    -0.000 C 
BRANCH  16  17
ATOM     17  C   UNL     1     -14.781   2.377  -8.721  1.00  0.00    -0.000 C 
BRANCH  17  18
ATOM     18  C   UNL     1     -13.837   3.591  -8.789  1.00  0.00    -0.003 C 
ATOM     19  C   UNL     1     -12.415   3.222  -9.211  1.00  0.00     0.004 C 
ENDBRANCH  17  18
ENDBRANCH  16  17
ENDBRANCH  15  16
ENDBRANCH  14  15
ENDBRANCH  13  14
ENDBRANCH  12  13
ENDBRANCH   1  12
TORSDOF 14
ENDMDL
MODEL 4
REMARK VINA RESULT:    -4.950     15.123     17.912
REMARK INTER + INTRA:         -10.349
REMARK INTER:                  -8.879
REMARK INTRA:                  -1.470
REMARK UNBOUND:                -1.347
REMARK SMILES CCCCCCCCCCCCCC[C@@H](C)C(=O)[O-]
REMARK SMILES IDX 9 1 10 2 11 3 12 4 13 5 14 6 15 7 16 8 17 9 18 10 19 11 8 12
REMARK SMILES IDX 7 13 6 14 5 15 4 16 3 17 2 18 1 19
REMARK H PARENT
REMARK Flexibility Score: inf
ROOT
ATOM      1  C   UNL     1     -13.170   4.640   5.358  1.00  0.00     0.000 C 
ENDROOT
BRANCH   1   2
ATOM      2  C   UNL     1     -13.420   4.957   3.873  1.00  0.00     0.000 C 
BRANCH   2   3
ATOM      3  C   UNL     1     -14.543   5.979   3.600  1.00  0.00     0.000 C 
BRANCH   3   4
ATOM      4  C   UNL     1     -14.358   6.838   2.335  1.00  0.00     0.000 C 
BRANCH   4   5
ATOM      5  C   UNL     1     -14.046   8.310   2.653  1.00  0.00     0.001 C 
BRANCH   5   6
ATOM      6  C   UNL     1     -13.863   9.167   1.386  1.00  0.00     0.009 C 
BRANCH   6   7
ATOM      7  C   UNL     1     -13.796  10.688   1.651  1.00  0.00     0.032 C 
ATOM      8  C   UNL     1     -14.358  11.015   3.039  1.00  0.00     0.014 C 
BRANCH   7   9
ATOM      9  C   UNL     1     -12.391  11.212   1.532  1.00  0.00     0.044 C 
ATOM     10  O   UNL     1     -11.700  10.967   0.508  1.00  0.00    -0.550 OA
ATOM     11  O   UNL     1     -11.848  11.978   2.556  1.00  0.00    -0.550 OA
ENDBRANCH   7   9
ENDBRANCH   6   7
ENDBRANCH   5   6
ENDBRANCH   4   5
ENDBRANCH   3   4
ENDBRANCH   2   3
ENDBRANCH   1   2
BRANCH   1  12
ATOM     12  C   UNL     1     -13.435   5.842   6.277  1.00  0.00     0.000 C 
BRANCH  12  13
ATOM     13  C   UNL     1     -14.023   5.388   7.619  1.00  0.00    -0.000 C 
BRANCH  13  14
ATOM     14  C   UNL     1     -12.935   5.319   8.700  1.00  0.00    -0.000 C 
BRANCH  14  15
ATOM     15  C   UNL     1     -12.369   3.901   8.884  1.00  0.00    -0.000 C 
BRANCH  15  16
ATOM     16  C   UNL     1     -10.880   3.806   8.509  1.00  0.00    -0.000 C 
BRANCH  16  17
ATOM     17  C   UNL     1     -10.237   5.184   8.262  1.00  0.00    -0.000 C 
BRANCH  17  18
ATOM     18  C   UNL     1      -9.623   5.373   6.864  1.00  0.00    -0.003 C 
ATOM     19  C   UNL     1      -9.850   6.773   6.293  1.00  0.00     0.004 C 
ENDBRANCH  17  18
ENDBRANCH  16  17
ENDBRANCH  15  16
ENDBRANCH  14  15
ENDBRANCH  13  14
ENDBRANCH  12  13
ENDBRANCH   1  12
TORSDOF 14
ENDMDL
MODEL 5
REMARK VINA RESULT:    -4.836      1.787      3.532
REMARK INTER + INTRA:         -10.141
REMARK INTER:                  -9.257
REMARK INTRA:                  -0.884
REMARK UNBOUND:                -1.347
REMARK SMILES CCCCCCCCCCCCCC[C@@H](C)C(=O)[O-]
REMARK SMILES IDX 9 1 10 2 11 3 12 4 13 5 14 6 15 7 16 8 17 9 18 10 19 11 8 12
REMARK SMILES IDX 7 13 6 14 5 15 4 16 3 17 2 18 1 19
REMARK H PARENT
REMARK Flexibility Score: inf
ROOT
ATOM      1  C   UNL     1      -9.493  -3.335  -7.524  1.00  0.00     0.000 C 
ENDROOT
BRANCH   1   2
ATOM      2  C   UNL     1     -10.212  -4.638  -7.131  1.00  0.00     0.000 C 
BRANCH   2   3
ATOM      3  C   UNL     1      -9.874  -5.863  -8.006  1.00  0.00     0.000 C 
BRANCH   3   4
ATOM      4  C   UNL     1     -11.057  -6.457  -8.792  1.00  0.00     0.000 C 
BRANCH   4   5
ATOM      5  C   UNL     1     -11.331  -7.929  -8.439  1.00  0.00     0.001 C 
BRANCH   5   6
ATOM      6  C   UNL     1     -12.656  -8.123  -7.678  1.00  0.00     0.009 C 
BRANCH   6   7
ATOM      7  C   UNL     1     -13.075  -6.915  -6.810  1.00  0.00     0.032 C 
ATOM      8  C   UNL     1     -14.601  -6.780  -6.780  1.00  0.00     0.014 C 
BRANCH   7   9
ATOM      9  C   UNL     1     -12.543  -7.027  -5.407  1.00  0.00     0.044 C 
ATOM     10  O   UNL     1     -12.592  -8.124  -4.789  1.00  0.00    -0.550 OA
ATOM     11  O   UNL     1     -11.988  -5.916  -4.785  1.00  0.00    -0.550 OA
ENDBRANCH   7   9
ENDBRANCH   6   7
ENDBRANCH   5   6
ENDBRANCH   4   5
ENDBRANCH   3   4
ENDBRANCH   2   3
ENDBRANCH   1   2
BRANCH   1  12
ATOM     12  C   UNL     1      -9.375  -3.154  -9.044  1.00  0.00     0.000 C 
BRANCH  12  13
ATOM     13  C   UNL     1     -10.710  -2.700  -9.649  1.00  0.00    -0.000 C 
BRANCH  13  14
ATOM     14  C   UNL     1     -10.760  -1.171  -9.783  1.00  0.00    -0.000 C 
BRANCH  14  15
ATOM     15  C   UNL     1     -12.074  -0.673 -10.408  1.00  0.00    -0.000 C 
BRANCH  15  16
ATOM     16  C   UNL     1     -12.599   0.607  -9.734  1.00  0.00    -0.000 C 
BRANCH  16  17
ATOM     17  C   UNL     1     -14.135   0.707  -9.757  1.00  0.00    -0.000 C 
BRANCH  17  18
ATOM     18  C   UNL     1     -14.702   2.094  -9.403  1.00  0.00    -0.003 C 
ATOM     19  C   UNL     1     -13.616   3.117  -9.068  1.00  0.00     0.004 C 
ENDBRANCH  17  18
ENDBRANCH  16  17
ENDBRANCH  15  16
ENDBRANCH  14  15
ENDBRANCH  13  14
ENDBRANCH  12  13
ENDBRANCH   1  12
TORSDOF 14
ENDMDL
MODEL 6
REMARK VINA RESULT:    -4.743     16.053     18.159
REMARK INTER + INTRA:          -9.971
REMARK INTER:                  -8.396
REMARK INTRA:                  -1.575
REMARK UNBOUND:                -1.347
REMARK SMILES CCCCCCCCCCCCCC[C@@H](C)C(=O)[O-]
REMARK SMILES IDX 9 1 10 2 11 3 12 4 13 5 14 6 15 7 16 8 17 9 18 10 19 11 8 12
REMARK SMILES IDX 7 13 6 14 5 15 4 16 3 17 2 18 1 19
REMARK H PARENT
REMARK Flexibility Score: inf
ROOT
ATOM      1  C   UNL     1      -9.931   5.288   7.678  1.00  0.00     0.000 C 
ENDROOT
BRANCH   1   2
ATOM      2  C   UNL     1     -10.617   3.913   7.586  1.00  0.00     0.000 C 
BRANCH   2   3
ATOM      3  C   UNL     1     -11.731   3.665   8.624  1.00  0.00     0.000 C 
BRANCH   3   4
ATOM      4  C   UNL     1     -12.900   4.668   8.586  1.00  0.00     0.000 C 
BRANCH   4   5
ATOM      5  C   UNL     1     -13.663   4.646   7.251  1.00  0.00     0.001 C 
BRANCH   5   6
ATOM      6  C   UNL     1     -13.698   6.023   6.561  1.00  0.00     0.009 C 
BRANCH   6   7
ATOM      7  C   UNL     1     -13.150   6.025   5.117  1.00  0.00     0.032 C 
ATOM      8  C   UNL     1     -12.777   4.603   4.683  1.00  0.00     0.014 C 
BRANCH   7   9
ATOM      9  C   UNL     1     -14.140   6.612   4.147  1.00  0.00     0.044 C 
ATOM     10  O   UNL     1     -14.184   6.210   2.954  1.00  0.00    -0.550 OA
ATOM     11  O   UNL     1     -15.019   7.602   4.568  1.00  0.00    -0.550 OA
ENDBRANCH   7   9
ENDBRANCH   6   7
ENDBRANCH   5   6
ENDBRANCH   4   5
ENDBRANCH   3   4
ENDBRANCH   2   3
ENDBRANCH   1   2
BRANCH   1  12
ATOM     12  C   UNL     1      -9.544   5.854   6.304  1.00  0.00     0.000 C 
BRANCH  12  13
ATOM     13  C   UNL     1      -9.694   7.380   6.277  1.00  0.00    -0.000 C 
BRANCH  13  14
ATOM     14  C   UNL     1      -8.398   8.051   5.798  1.00  0.00    -0.000 C 
BRANCH  14  15
ATOM     15  C   UNL     1      -8.606   9.518   5.386  1.00  0.00    -0.000 C 
BRANCH  15  16
ATOM     16  C   UNL     1      -7.289  10.310   5.338  1.00  0.00    -0.000 C 
BRANCH  16  17
ATOM     17  C   UNL     1      -6.169   9.659   6.172  1.00  0.00    -0.000 C 
BRANCH  17  18
ATOM     18  C   UNL     1      -5.147  10.643   6.769  1.00  0.00    -0.003 C 
ATOM     19  C   UNL     1      -5.800  11.804   7.518  1.00  0.00     0.004 C 
ENDBRANCH  17  18
ENDBRANCH  16  17
ENDBRANCH  15  16
ENDBRANCH  14  15
ENDBRANCH  13  14
ENDBRANCH  12  13
ENDBRANCH   1  12
TORSDOF 14
ENDMDL
MODEL 7
REMARK VINA RESULT:    -4.734     15.019     17.497
REMARK INTER + INTRA:          -9.955
REMARK INTER:                  -8.035
REMARK INTRA:                  -1.920
REMARK UNBOUND:                -1.347
REMARK SMILES CCCCCCCCCCCCCC[C@@H](C)C(=O)[O-]
REMARK SMILES IDX 9 1 10 2 11 3 12 4 13 5 14 6 15 7 16 8 17 9 18 10 19 11 8 12
REMARK SMILES IDX 7 13 6 14 5 15 4 16 3 17 2 18 1 19
REMARK H PARENT
REMARK Flexibility Score: inf
ROOT
ATOM      1  C   UNL     1     -13.031   4.237   5.637  1.00  0.00     0.000 C 
ENDROOT
BRANCH   1   2
ATOM      2  C   UNL     1     -13.037   5.114   4.372  1.00  0.00     0.000 C 
BRANCH   2   3
ATOM      3  C   UNL     1     -14.436   5.510   3.856  1.00  0.00     0.000 C 
BRANCH   3   4
ATOM      4  C   UNL     1     -14.446   6.391   2.593  1.00  0.00     0.000 C 
BRANCH   4   5
ATOM      5  C   UNL     1     -14.137   7.868   2.893  1.00  0.00     0.001 C 
BRANCH   5   6
ATOM      6  C   UNL     1     -13.950   8.709   1.615  1.00  0.00     0.009 C 
BRANCH   6   7
ATOM      7  C   UNL     1     -13.900  10.234   1.858  1.00  0.00     0.032 C 
ATOM      8  C   UNL     1     -14.242  10.555   3.318  1.00  0.00     0.014 C 
BRANCH   7   9
ATOM      9  C   UNL     1     -12.554  10.809   1.510  1.00  0.00     0.044 C 
ATOM     10  O   UNL     1     -12.010  10.543   0.406  1.00  0.00    -0.550 OA
ATOM     11  O   UNL     1     -11.904  11.644   2.410  1.00  0.00    -0.550 OA
ENDBRANCH   7   9
ENDBRANCH   6   7
ENDBRANCH   5   6
ENDBRANCH   4   5
ENDBRANCH   3   4
ENDBRANCH   2   3
ENDBRANCH   1   2
BRANCH   1  12
ATOM     12  C   UNL     1     -11.722   3.454   5.814  1.00  0.00     0.000 C 
BRANCH  12  13
ATOM     13  C   UNL     1     -11.322   3.379   7.292  1.00  0.00    -0.000 C 
BRANCH  13  14
ATOM     14  C   UNL     1     -10.788   4.732   7.787  1.00  0.00    -0.000 C 
BRANCH  14  15
ATOM     15  C   UNL     1      -9.866   5.416   6.764  1.00  0.00    -0.000 C 
BRANCH  15  16
ATOM     16  C   UNL     1     -10.288   6.865   6.466  1.00  0.00    -0.000 C 
BRANCH  16  17
ATOM     17  C   UNL     1     -11.633   7.241   7.114  1.00  0.00    -0.000 C 
BRANCH  17  18
ATOM     18  C   UNL     1     -12.527   8.165   6.266  1.00  0.00    -0.003 C 
ATOM     19  C   UNL     1     -14.010   8.051   6.617  1.00  0.00     0.004 C 
ENDBRANCH  17  18
ENDBRANCH  16  17
ENDBRANCH  15  16
ENDBRANCH  14  15
ENDBRANCH  13  14
ENDBRANCH  12  13
ENDBRANCH   1  12
TORSDOF 14
ENDMDL
MODEL 8
REMARK VINA RESULT:    -4.731     16.650     18.775
REMARK INTER + INTRA:          -9.950
REMARK INTER:                  -7.988
REMARK INTRA:                  -1.962
REMARK UNBOUND:                -1.347
REMARK SMILES CCCCCCCCCCCCCC[C@@H](C)C(=O)[O-]
REMARK SMILES IDX 9 1 10 2 11 3 12 4 13 5 14 6 15 7 16 8 17 9 18 10 19 11 8 12
REMARK SMILES IDX 7 13 6 14 5 15 4 16 3 17 2 18 1 19
REMARK H PARENT
REMARK Flexibility Score: inf
ROOT
ATOM      1  C   UNL     1     -11.466   3.254   6.169  1.00  0.00     0.000 C 
ENDROOT
BRANCH   1   2
ATOM      2  C   UNL     1     -11.212   4.596   5.458  1.00  0.00     0.000 C 
BRANCH   2   3
ATOM      3  C   UNL     1      -9.909   5.316   5.864  1.00  0.00     0.000 C 
BRANCH   3   4
ATOM      4  C   UNL     1     -10.059   6.814   6.189  1.00  0.00     0.000 C 
BRANCH   4   5
ATOM      5  C   UNL     1      -8.713   7.499   6.481  1.00  0.00     0.001 C 
BRANCH   5   6
ATOM      6  C   UNL     1      -8.315   8.516   5.394  1.00  0.00     0.009 C 
BRANCH   6   7
ATOM      7  C   UNL     1      -8.109   9.956   5.915  1.00  0.00     0.032 C 
ATOM      8  C   UNL     1      -9.397  10.482   6.559  1.00  0.00     0.014 C 
BRANCH   7   9
ATOM      9  C   UNL     1      -6.975  10.034   6.902  1.00  0.00     0.044 C 
ATOM     10  O   UNL     1      -7.186  10.387   8.093  1.00  0.00    -0.550 OA
ATOM     11  O   UNL     1      -5.685   9.710   6.501  1.00  0.00    -0.550 OA
ENDBRANCH   7   9
ENDBRANCH   6   7
ENDBRANCH   5   6
ENDBRANCH   4   5
ENDBRANCH   3   4
ENDBRANCH   2   3
ENDBRANCH   1   2
BRANCH   1  12
ATOM     12  C   UNL     1     -11.079   3.284   7.655  1.00  0.00     0.000 C 
BRANCH  12  13
ATOM     13  C   UNL     1     -12.240   3.799   8.514  1.00  0.00    -0.000 C 
BRANCH  13  14
ATOM     14  C   UNL     1     -11.935   5.201   9.065  1.00  0.00    -0.000 C 
BRANCH  14  15
ATOM     15  C   UNL     1     -12.937   6.260   8.579  1.00  0.00    -0.000 C 
BRANCH  15  16
ATOM     16  C   UNL     1     -13.983   5.683   7.610  1.00  0.00    -0.000 C 
BRANCH  16  17
ATOM     17  C   UNL     1     -14.647   6.761   6.734  1.00  0.00    -0.000 C 
BRANCH  17  18
ATOM     18  C   UNL     1     -13.908   7.077   5.421  1.00  0.00    -0.003 C 
ATOM     19  C   UNL     1     -14.189   6.060   4.315  1.00  0.00     0.004 C 
ENDBRANCH  17  18
ENDBRANCH  16  17
ENDBRANCH  15  16
ENDBRANCH  14  15
ENDBRANCH  13  14
ENDBRANCH  12  13
ENDBRANCH   1  12
TORSDOF 14
ENDMDL
MODEL 9
REMARK VINA RESULT:    -4.654     14.846     16.667
REMARK INTER + INTRA:          -9.809
REMARK INTER:                  -8.196
REMARK INTRA:                  -1.614
REMARK UNBOUND:                -1.347
REMARK SMILES CCCCCCCCCCCCCC[C@@H](C)C(=O)[O-]
REMARK SMILES IDX 9 1 10 2 11 3 12 4 13 5 14 6 15 7 16 8 17 9 18 10 19 11 8 12
REMARK SMILES IDX 7 13 6 14 5 15 4 16 3 17 2 18 1 19
REMARK H PARENT
REMARK Flexibility Score: inf
ROOT
ATOM      1  C   UNL     1     -13.706   5.323   4.154  1.00  0.00     0.000 C 
ENDROOT
BRANCH   1   2
ATOM      2  C   UNL     1     -13.656   5.418   5.690  1.00  0.00     0.000 C 
BRANCH   2   3
ATOM      3  C   UNL     1     -13.307   6.813   6.250  1.00  0.00     0.000 C 
BRANCH   3   4
ATOM      4  C   UNL     1     -12.986   6.856   7.755  1.00  0.00     0.000 C 
BRANCH   4   5
ATOM      5  C   UNL     1     -12.689   5.466   8.343  1.00  0.00     0.001 C 
BRANCH   5   6
ATOM      6  C   UNL     1     -11.213   5.294   8.749  1.00  0.00     0.009 C 
BRANCH   6   7
ATOM      7  C   UNL     1     -10.368   4.476   7.746  1.00  0.00     0.032 C 
ATOM      8  C   UNL     1     -11.178   3.293   7.204  1.00  0.00     0.014 C 
BRANCH   7   9
ATOM      9  C   UNL     1      -9.881   5.328   6.605  1.00  0.00     0.044 C 
ATOM     10  O   UNL     1     -10.237   5.078   5.422  1.00  0.00    -0.550 OA
ATOM     11  O   UNL     1      -9.037   6.403   6.853  1.00  0.00    -0.550 OA
ENDBRANCH   7   9
ENDBRANCH   6   7
ENDBRANCH   5   6
ENDBRANCH   4   5
ENDBRANCH   3   4
ENDBRANCH   2   3
ENDBRANCH   1   2
BRANCH   1  12
ATOM     12  C   UNL     1     -14.835   6.165   3.542  1.00  0.00     0.000 C 
BRANCH  12  13
ATOM     13  C   UNL     1     -14.465   6.634   2.129  1.00  0.00    -0.000 C 
BRANCH  13  14
ATOM     14  C   UNL     1     -14.036   8.109   2.135  1.00  0.00    -0.000 C 
BRANCH  14  15
ATOM     15  C   UNL     1     -14.462   8.846   3.416  1.00  0.00    -0.000 C 
BRANCH  15  16
ATOM     16  C   UNL     1     -13.592  10.081   3.702  1.00  0.00    -0.000 C 
BRANCH  16  17
ATOM     17  C   UNL     1     -14.105  11.351   2.997  1.00  0.00    -0.000 C 
BRANCH  17  18
ATOM     18  C   UNL     1     -13.620  11.531   1.547  1.00  0.00    -0.003 C 
ATOM     19  C   UNL     1     -12.129  11.245   1.374  1.00  0.00     0.004 C 
ENDBRANCH  17  18
ENDBRANCH  16  17
ENDBRANCH  15  16
ENDBRANCH  14  15
ENDBRANCH  13  14
ENDBRANCH  12  13
ENDBRANCH   1  12
TORSDOF 14
ENDMDL
