MODEL 1
REMARK VINA RESULT:    -5.933      0.000      0.000
REMARK INTER + INTRA:          -9.396
REMARK INTER:                  -8.534
REMARK INTRA:                  -0.861
REMARK UNBOUND:                -0.861
REMARK SMILES O=c1c(O[C@@H]2O[C@H](CO)[C@@H](O)[C@H](O)[C@@H]2O)c(-c2ccc(O)cc2)oc2cc(O)cc(O)c12
REMARK SMILES IDX 4 1 3 2 16 3 24 4 2 5 25 6 1 7 32 8 26 9 30 10 27 11 29 12
REMARK SMILES IDX 17 13 18 14 19 15 20 16 23 17 22 18 21 19 31 21 28 23 5 25
REMARK SMILES IDX 14 26 6 27 12 28 7 29 10 30 15 31 13 33 8 35 9 36 11 38
REMARK H PARENT 21 20 31 22 28 24 15 32 13 34 9 37 11 39
REMARK Flexibility Score: inf
ROOT
ATOM      1  O   UNL     1      -8.830  33.225   6.704  1.00  0.00    -0.454 OA
ENDROOT
BRANCH   1   2
ATOM      2  C   UNL     1      -9.482  34.446   6.953  1.00  0.00     0.214 A 
ATOM      3  C   UNL     1     -10.589  34.463   7.823  1.00  0.00     0.180 A 
ATOM      4  O   UNL     1     -11.193  35.611   8.114  1.00  0.00    -0.452 OA
ATOM      5  C   UNL     1      -9.061  35.663   6.379  1.00  0.00     0.239 A 
ATOM      6  C   UNL     1     -10.822  36.779   7.606  1.00  0.00     0.146 A 
ATOM      7  O   UNL     1      -8.097  35.677   5.569  1.00  0.00    -0.285 OA
ATOM      8  C   UNL     1      -9.733  36.859   6.706  1.00  0.00     0.111 A 
ATOM      9  C   UNL     1     -11.523  37.932   7.970  1.00  0.00     0.094 A 
ATOM     10  C   UNL     1      -9.369  38.122   6.179  1.00  0.00     0.134 A 
ATOM     11  C   UNL     1     -11.157  39.176   7.447  1.00  0.00     0.123 A 
ATOM     12  C   UNL     1     -10.086  39.268   6.556  1.00  0.00     0.093 A 
BRANCH   3  13
ATOM     13  C   UNL     1     -11.085  33.233   8.477  1.00  0.00     0.021 A 
ATOM     14  C   UNL     1     -12.111  32.465   7.902  1.00  0.00     0.016 A 
ATOM     15  C   UNL     1     -12.563  31.303   8.533  1.00  0.00     0.047 A 
ATOM     16  C   UNL     1     -12.005  30.905   9.756  1.00  0.00     0.115 A 
ATOM     17  C   UNL     1     -10.547  32.842   9.713  1.00  0.00     0.016 A 
ATOM     18  C   UNL     1     -11.000  31.680  10.344  1.00  0.00     0.047 A 
BRANCH  16  19
ATOM     19  O   UNL     1     -12.445  29.749  10.394  1.00  0.00    -0.508 OA
ATOM     20  H   UNL     1     -12.095  29.481  11.307  1.00  0.00     0.293 HD
ENDBRANCH  16  19
ENDBRANCH   3  13
BRANCH  10  21
ATOM     21  O   UNL     1      -8.303  38.249   5.287  1.00  0.00    -0.507 OA
ATOM     22  H   UNL     1      -8.004  37.478   4.701  1.00  0.00     0.293 HD
ENDBRANCH  10  21
BRANCH  11  23
ATOM     23  O   UNL     1     -11.852  40.329   7.806  1.00  0.00    -0.508 OA
ATOM     24  H   UNL     1     -12.377  40.384   8.671  1.00  0.00     0.293 HD
ENDBRANCH  11  23
ENDBRANCH   1   2
BRANCH   1  25
ATOM     25  C   UNL     1      -8.336  32.802   5.431  1.00  0.00     0.339 C 
ATOM     26  C   UNL     1      -6.803  32.658   5.448  1.00  0.00     0.214 C 
ATOM     27  O   UNL     1      -8.971  31.615   4.981  1.00  0.00    -0.332 OA
ATOM     28  C   UNL     1      -6.358  31.494   6.347  1.00  0.00     0.180 C 
ATOM     29  C   UNL     1      -8.660  30.448   5.736  1.00  0.00     0.179 C 
ATOM     30  C   UNL     1      -7.138  30.211   5.990  1.00  0.00     0.177 C 
BRANCH  26  31
ATOM     31  O   UNL     1      -6.169  33.863   5.807  1.00  0.00    -0.384 OA
ATOM     32  H   UNL     1      -5.221  33.815   5.519  1.00  0.00     0.211 HD
ENDBRANCH  26  31
BRANCH  28  33
ATOM     33  O   UNL     1      -6.547  31.803   7.705  1.00  0.00    -0.387 OA
ATOM     34  H   UNL     1      -6.788  32.764   7.758  1.00  0.00     0.211 HD
ENDBRANCH  28  33
BRANCH  29  35
ATOM     35  C   UNL     1      -9.569  30.279   6.973  1.00  0.00     0.191 C 
BRANCH  35  36
ATOM     36  O   UNL     1      -9.747  28.935   7.313  1.00  0.00    -0.394 OA
ATOM     37  H   UNL     1     -10.293  28.929   8.141  1.00  0.00     0.210 HD
ENDBRANCH  35  36
ENDBRANCH  29  35
BRANCH  30  38
ATOM     38  O   UNL     1      -6.546  29.583   4.877  1.00  0.00    -0.387 OA
ATOM     39  H   UNL     1      -7.228  28.995   4.459  1.00  0.00     0.211 HD
ENDBRANCH  30  38
ENDBRANCH   1  25
TORSDOF 11
ENDMDL
MODEL 2
REMARK VINA RESULT:    -5.844      0.730      2.260
REMARK INTER + INTRA:          -9.267
REMARK INTER:                  -8.779
REMARK INTRA:                  -0.488
REMARK UNBOUND:                -0.861
REMARK SMILES O=c1c(O[C@@H]2O[C@H](CO)[C@@H](O)[C@H](O)[C@@H]2O)c(-c2ccc(O)cc2)oc2cc(O)cc(O)c12
REMARK SMILES IDX 4 1 3 2 16 3 24 4 2 5 25 6 1 7 32 8 26 9 30 10 27 11 29 12
REMARK SMILES IDX 17 13 18 14 19 15 20 16 23 17 22 18 21 19 31 21 28 23 5 25
REMARK SMILES IDX 14 26 6 27 12 28 7 29 10 30 15 31 13 33 8 35 9 36 11 38
REMARK H PARENT 21 20 31 22 28 24 15 32 13 34 9 37 11 39
REMARK Flexibility Score: inf
ROOT
ATOM      1  O   UNL     1      -9.414  32.714   6.547  1.00  0.00    -0.454 OA
ENDROOT
BRANCH   1   2
ATOM      2  C   UNL     1      -9.848  34.007   6.887  1.00  0.00     0.214 A 
ATOM      3  C   UNL     1     -10.848  34.155   7.868  1.00  0.00     0.180 A 
ATOM      4  O   UNL     1     -11.242  35.367   8.243  1.00  0.00    -0.452 OA
ATOM      5  C   UNL     1      -9.310  35.169   6.298  1.00  0.00     0.239 A 
ATOM      6  C   UNL     1     -10.753  36.486   7.723  1.00  0.00     0.146 A 
ATOM      7  O   UNL     1      -8.440  35.071   5.392  1.00  0.00    -0.285 OA
ATOM      8  C   UNL     1      -9.761  36.438   6.717  1.00  0.00     0.111 A 
ATOM      9  C   UNL     1     -11.235  37.716   8.182  1.00  0.00     0.094 A 
ATOM     10  C   UNL     1      -9.266  37.653   6.181  1.00  0.00     0.134 A 
ATOM     11  C   UNL     1     -10.742  38.910   7.650  1.00  0.00     0.123 A 
ATOM     12  C   UNL     1      -9.763  38.876   6.654  1.00  0.00     0.093 A 
BRANCH   3  13
ATOM     13  C   UNL     1     -11.454  32.988   8.544  1.00  0.00     0.021 A 
ATOM     14  C   UNL     1     -12.569  32.328   8.002  1.00  0.00     0.016 A 
ATOM     15  C   UNL     1     -13.125  31.225   8.654  1.00  0.00     0.047 A 
ATOM     16  C   UNL     1     -12.581  30.778   9.866  1.00  0.00     0.115 A 
ATOM     17  C   UNL     1     -10.929  32.550   9.770  1.00  0.00     0.016 A 
ATOM     18  C   UNL     1     -11.486  31.446  10.423  1.00  0.00     0.047 A 
BRANCH  16  19
ATOM     19  O   UNL     1     -13.125  29.678  10.525  1.00  0.00    -0.508 OA
ATOM     20  H   UNL     1     -12.566  28.862  10.742  1.00  0.00     0.293 HD
ENDBRANCH  16  19
ENDBRANCH   3  13
BRANCH  10  21
ATOM     21  O   UNL     1      -8.289  37.653   5.185  1.00  0.00    -0.507 OA
ATOM     22  H   UNL     1      -8.523  37.772   4.207  1.00  0.00     0.293 HD
ENDBRANCH  10  21
BRANCH  11  23
ATOM     23  O   UNL     1     -11.218  40.140   8.102  1.00  0.00    -0.508 OA
ATOM     24  H   UNL     1     -10.636  40.765   8.646  1.00  0.00     0.293 HD
ENDBRANCH  11  23
ENDBRANCH   1   2
BRANCH   1  25
ATOM     25  C   UNL     1      -8.738  31.816   7.431  1.00  0.00     0.339 C 
ATOM     26  C   UNL     1      -8.978  30.350   7.026  1.00  0.00     0.214 C 
ATOM     27  O   UNL     1      -7.354  32.113   7.536  1.00  0.00    -0.332 OA
ATOM     28  C   UNL     1      -8.302  30.019   5.686  1.00  0.00     0.180 C 
ATOM     29  C   UNL     1      -6.599  31.868   6.354  1.00  0.00     0.179 C 
ATOM     30  C   UNL     1      -6.826  30.467   5.704  1.00  0.00     0.177 C 
BRANCH  26  31
ATOM     31  O   UNL     1     -10.348  30.029   7.010  1.00  0.00    -0.384 OA
ATOM     32  H   UNL     1     -10.713  30.263   6.119  1.00  0.00     0.211 HD
ENDBRANCH  26  31
BRANCH  28  33
ATOM     33  O   UNL     1      -8.974  30.636   4.616  1.00  0.00    -0.387 OA
ATOM     34  H   UNL     1      -8.459  30.437   3.791  1.00  0.00     0.211 HD
ENDBRANCH  28  33
BRANCH  29  35
ATOM     35  C   UNL     1      -6.621  33.061   5.374  1.00  0.00     0.191 C 
BRANCH  35  36
ATOM     36  O   UNL     1      -5.733  34.071   5.758  1.00  0.00    -0.394 OA
ATOM     37  H   UNL     1      -6.211  34.929   5.614  1.00  0.00     0.210 HD
ENDBRANCH  35  36
ENDBRANCH  29  35
BRANCH  30  38
ATOM     38  O   UNL     1      -6.036  29.493   6.346  1.00  0.00    -0.387 OA
ATOM     39  H   UNL     1      -5.284  29.262   5.741  1.00  0.00     0.211 HD
ENDBRANCH  30  38
ENDBRANCH   1  25
TORSDOF 11
ENDMDL
MODEL 3
REMARK VINA RESULT:    -5.735      1.599      4.774
REMARK INTER + INTRA:          -9.111
REMARK INTER:                  -8.029
REMARK INTRA:                  -1.082
REMARK UNBOUND:                -0.861
REMARK SMILES O=c1c(O[C@@H]2O[C@H](CO)[C@@H](O)[C@H](O)[C@@H]2O)c(-c2ccc(O)cc2)oc2cc(O)cc(O)c12
REMARK SMILES IDX 4 1 3 2 16 3 24 4 2 5 25 6 1 7 32 8 26 9 30 10 27 11 29 12
REMARK SMILES IDX 17 13 18 14 19 15 20 16 23 17 22 18 21 19 31 21 28 23 5 25
REMARK SMILES IDX 14 26 6 27 12 28 7 29 10 30 15 31 13 33 8 35 9 36 11 38
REMARK H PARENT 21 20 31 22 28 24 15 32 13 34 9 37 11 39
REMARK Flexibility Score: inf
ROOT
ATOM      1  O   UNL     1     -10.957  32.630   8.005  1.00  0.00    -0.454 OA
ENDROOT
BRANCH   1   2
ATOM      2  C   UNL     1     -10.340  33.829   7.604  1.00  0.00     0.214 A 
ATOM      3  C   UNL     1      -9.170  33.764   6.822  1.00  0.00     0.180 A 
ATOM      4  O   UNL     1      -8.594  34.880   6.387  1.00  0.00    -0.452 OA
ATOM      5  C   UNL     1     -10.855  35.097   7.936  1.00  0.00     0.239 A 
ATOM      6  C   UNL     1      -9.053  36.093   6.667  1.00  0.00     0.146 A 
ATOM      7  O   UNL     1     -11.878  35.191   8.664  1.00  0.00    -0.285 OA
ATOM      8  C   UNL     1     -10.210  36.259   7.463  1.00  0.00     0.111 A 
ATOM      9  C   UNL     1      -8.374  37.208   6.166  1.00  0.00     0.094 A 
ATOM     10  C   UNL     1     -10.667  37.570   7.746  1.00  0.00     0.134 A 
ATOM     11  C   UNL     1      -8.832  38.499   6.449  1.00  0.00     0.123 A 
ATOM     12  C   UNL     1      -9.972  38.676   7.236  1.00  0.00     0.093 A 
BRANCH   3  13
ATOM     13  C   UNL     1      -8.573  32.473   6.418  1.00  0.00     0.021 A 
ATOM     14  C   UNL     1      -9.287  31.554   5.631  1.00  0.00     0.016 A 
ATOM     15  C   UNL     1      -8.704  30.340   5.256  1.00  0.00     0.047 A 
ATOM     16  C   UNL     1      -7.406  30.025   5.679  1.00  0.00     0.115 A 
ATOM     17  C   UNL     1      -7.282  32.140   6.857  1.00  0.00     0.016 A 
ATOM     18  C   UNL     1      -6.700  30.925   6.483  1.00  0.00     0.047 A 
BRANCH  16  19
ATOM     19  O   UNL     1      -6.813  28.819   5.311  1.00  0.00    -0.508 OA
ATOM     20  H   UNL     1      -6.909  28.447   4.373  1.00  0.00     0.293 HD
ENDBRANCH  16  19
ENDBRANCH   3  13
BRANCH  10  21
ATOM     21  O   UNL     1     -11.803  37.781   8.529  1.00  0.00    -0.507 OA
ATOM     22  H   UNL     1     -12.601  38.299   8.182  1.00  0.00     0.293 HD
ENDBRANCH  10  21
BRANCH  11  23
ATOM     23  O   UNL     1      -8.160  39.615   5.953  1.00  0.00    -0.508 OA
ATOM     24  H   UNL     1      -7.854  40.363   6.564  1.00  0.00     0.293 HD
ENDBRANCH  11  23
ENDBRANCH   1   2
BRANCH   1  25
ATOM     25  C   UNL     1     -10.476  31.765   9.037  1.00  0.00     0.339 C 
ATOM     26  C   UNL     1     -10.920  32.257  10.427  1.00  0.00     0.214 C 
ATOM     27  O   UNL     1     -10.846  30.414   8.814  1.00  0.00    -0.332 OA
ATOM     28  C   UNL     1     -12.441  32.129  10.610  1.00  0.00     0.180 C 
ATOM     29  C   UNL     1     -12.240  30.148   8.936  1.00  0.00     0.179 C 
ATOM     30  C   UNL     1     -12.909  30.708  10.230  1.00  0.00     0.177 C 
BRANCH  26  31
ATOM     31  O   UNL     1     -10.475  33.567  10.686  1.00  0.00    -0.384 OA
ATOM     32  H   UNL     1      -9.631  33.514  11.204  1.00  0.00     0.211 HD
ENDBRANCH  26  31
BRANCH  28  33
ATOM     33  O   UNL     1     -13.125  33.079   9.832  1.00  0.00    -0.387 OA
ATOM     34  H   UNL     1     -13.179  33.914  10.366  1.00  0.00     0.211 HD
ENDBRANCH  28  33
BRANCH  29  35
ATOM     35  C   UNL     1     -13.014  30.412   7.626  1.00  0.00     0.191 C 
BRANCH  35  36
ATOM     36  O   UNL     1     -12.725  29.459   6.645  1.00  0.00    -0.394 OA
ATOM     37  H   UNL     1     -13.266  29.707   5.851  1.00  0.00     0.210 HD
ENDBRANCH  35  36
ENDBRANCH  29  35
BRANCH  30  38
ATOM     38  O   UNL     1     -12.703  29.830  11.311  1.00  0.00    -0.387 OA
ATOM     39  H   UNL     1     -12.981  30.296  12.142  1.00  0.00     0.211 HD
ENDBRANCH  30  38
ENDBRANCH   1  25
TORSDOF 11
ENDMDL
MODEL 4
REMARK VINA RESULT:    -5.466      1.594      4.976
REMARK INTER + INTRA:          -8.724
REMARK INTER:                  -8.265
REMARK INTRA:                  -0.459
REMARK UNBOUND:                -0.861
REMARK SMILES O=c1c(O[C@@H]2O[C@H](CO)[C@@H](O)[C@H](O)[C@@H]2O)c(-c2ccc(O)cc2)oc2cc(O)cc(O)c12
REMARK SMILES IDX 4 1 3 2 16 3 24 4 2 5 25 6 1 7 32 8 26 9 30 10 27 11 29 12
REMARK SMILES IDX 17 13 18 14 19 15 20 16 23 17 22 18 21 19 31 21 28 23 5 25
REMARK SMILES IDX 14 26 6 27 12 28 7 29 10 30 15 31 13 33 8 35 9 36 11 38
REMARK H PARENT 21 20 31 22 28 24 15 32 13 34 9 37 11 39
REMARK Flexibility Score: inf
ROOT
ATOM      1  O   UNL     1     -10.767  32.167   8.374  1.00  0.00    -0.454 OA
ENDROOT
BRANCH   1   2
ATOM      2  C   UNL     1     -10.322  33.408   7.884  1.00  0.00     0.214 A 
ATOM      3  C   UNL     1      -9.266  33.434   6.952  1.00  0.00     0.180 A 
ATOM      4  O   UNL     1      -8.858  34.588   6.436  1.00  0.00    -0.452 OA
ATOM      5  C   UNL     1     -10.902  34.631   8.274  1.00  0.00     0.239 A 
ATOM      6  C   UNL     1      -9.384  35.760   6.767  1.00  0.00     0.146 A 
ATOM      7  O   UNL     1     -11.824  34.647   9.132  1.00  0.00    -0.285 OA
ATOM      8  C   UNL     1     -10.435  35.837   7.710  1.00  0.00     0.111 A 
ATOM      9  C   UNL     1      -8.884  36.922   6.171  1.00  0.00     0.094 A 
ATOM     10  C   UNL     1     -10.969  37.107   8.043  1.00  0.00     0.134 A 
ATOM     11  C   UNL     1      -9.416  38.172   6.503  1.00  0.00     0.123 A 
ATOM     12  C   UNL     1     -10.452  38.261   7.435  1.00  0.00     0.093 A 
BRANCH   3  13
ATOM     13  C   UNL     1      -8.613  32.193   6.481  1.00  0.00     0.021 A 
ATOM     14  C   UNL     1      -9.365  31.115   5.989  1.00  0.00     0.016 A 
ATOM     15  C   UNL     1      -8.729  29.952   5.545  1.00  0.00     0.047 A 
ATOM     16  C   UNL     1      -7.333  29.850   5.604  1.00  0.00     0.115 A 
ATOM     17  C   UNL     1      -7.216  32.075   6.559  1.00  0.00     0.016 A 
ATOM     18  C   UNL     1      -6.580  30.912   6.116  1.00  0.00     0.047 A 
BRANCH  16  19
ATOM     19  O   UNL     1      -6.686  28.698   5.162  1.00  0.00    -0.508 OA
ATOM     20  H   UNL     1      -5.715  28.516   5.388  1.00  0.00     0.293 HD
ENDBRANCH  16  19
ENDBRANCH   3  13
BRANCH  10  21
ATOM     21  O   UNL     1     -12.005  37.230   8.969  1.00  0.00    -0.507 OA
ATOM     22  H   UNL     1     -12.128  36.566   9.723  1.00  0.00     0.293 HD
ENDBRANCH  10  21
BRANCH  11  23
ATOM     23  O   UNL     1      -8.921  39.333   5.914  1.00  0.00    -0.508 OA
ATOM     24  H   UNL     1      -9.535  40.004   5.467  1.00  0.00     0.293 HD
ENDBRANCH  11  23
ENDBRANCH   1   2
BRANCH   1  25
ATOM     25  C   UNL     1     -12.126  31.846   8.681  1.00  0.00     0.339 C 
ATOM     26  C   UNL     1     -12.444  30.379   8.336  1.00  0.00     0.214 C 
ATOM     27  O   UNL     1     -12.454  32.152  10.027  1.00  0.00    -0.332 OA
ATOM     28  C   UNL     1     -11.688  29.409   9.257  1.00  0.00     0.180 C 
ATOM     29  C   UNL     1     -11.810  31.335  11.000  1.00  0.00     0.179 C 
ATOM     30  C   UNL     1     -11.896  29.800  10.735  1.00  0.00     0.177 C 
BRANCH  26  31
ATOM     31  O   UNL     1     -12.204  30.098   6.978  1.00  0.00    -0.384 OA
ATOM     32  H   UNL     1     -11.916  30.936   6.531  1.00  0.00     0.211 HD
ENDBRANCH  26  31
BRANCH  28  33
ATOM     33  O   UNL     1     -10.315  29.394   8.958  1.00  0.00    -0.387 OA
ATOM     34  H   UNL     1     -10.217  29.038   8.037  1.00  0.00     0.211 HD
ENDBRANCH  28  33
BRANCH  29  35
ATOM     35  C   UNL     1     -10.410  31.860  11.386  1.00  0.00     0.191 C 
BRANCH  35  36
ATOM     36  O   UNL     1     -10.359  33.257  11.398  1.00  0.00    -0.394 OA
ATOM     37  H   UNL     1     -11.275  33.570  11.182  1.00  0.00     0.210 HD
ENDBRANCH  35  36
ENDBRANCH  29  35
BRANCH  30  38
ATOM     38  O   UNL     1     -13.124  29.289  11.199  1.00  0.00    -0.387 OA
ATOM     39  H   UNL     1     -12.935  28.682  11.961  1.00  0.00     0.211 HD
ENDBRANCH  30  38
ENDBRANCH   1  25
TORSDOF 11
ENDMDL
MODEL 5
REMARK VINA RESULT:    -5.448      2.080      5.584
REMARK INTER + INTRA:          -8.698
REMARK INTER:                  -7.853
REMARK INTRA:                  -0.845
REMARK UNBOUND:                -0.861
REMARK SMILES O=c1c(O[C@@H]2O[C@H](CO)[C@@H](O)[C@H](O)[C@@H]2O)c(-c2ccc(O)cc2)oc2cc(O)cc(O)c12
REMARK SMILES IDX 4 1 3 2 16 3 24 4 2 5 25 6 1 7 32 8 26 9 30 10 27 11 29 12
REMARK SMILES IDX 17 13 18 14 19 15 20 16 23 17 22 18 21 19 31 21 28 23 5 25
REMARK SMILES IDX 14 26 6 27 12 28 7 29 10 30 15 31 13 33 8 35 9 36 11 38
REMARK H PARENT 21 20 31 22 28 24 15 32 13 34 9 37 11 39
REMARK Flexibility Score: inf
ROOT
ATOM      1  O   UNL     1      -9.668  30.100   7.163  1.00  0.00    -0.454 OA
ENDROOT
BRANCH   1   2
ATOM      2  C   UNL     1      -9.232  31.382   6.783  1.00  0.00     0.214 A 
ATOM      3  C   UNL     1      -8.190  31.496   5.842  1.00  0.00     0.180 A 
ATOM      4  O   UNL     1      -7.792  32.694   5.428  1.00  0.00    -0.452 OA
ATOM      5  C   UNL     1      -9.809  32.562   7.292  1.00  0.00     0.239 A 
ATOM      6  C   UNL     1      -8.315  33.829   5.873  1.00  0.00     0.146 A 
ATOM      7  O   UNL     1     -10.718  32.496   8.161  1.00  0.00    -0.285 OA
ATOM      8  C   UNL     1      -9.352  33.816   6.833  1.00  0.00     0.111 A 
ATOM      9  C   UNL     1      -7.826  35.042   5.378  1.00  0.00     0.094 A 
ATOM     10  C   UNL     1      -9.883  35.048   7.289  1.00  0.00     0.134 A 
ATOM     11  C   UNL     1      -8.356  36.255   5.831  1.00  0.00     0.123 A 
ATOM     12  C   UNL     1      -9.378  36.255   6.782  1.00  0.00     0.093 A 
BRANCH   3  13
ATOM     13  C   UNL     1      -7.541  30.306   5.250  1.00  0.00     0.021 A 
ATOM     14  C   UNL     1      -6.351  29.783   5.782  1.00  0.00     0.016 A 
ATOM     15  C   UNL     1      -5.756  28.656   5.210  1.00  0.00     0.047 A 
ATOM     16  C   UNL     1      -6.336  28.048   4.089  1.00  0.00     0.115 A 
ATOM     17  C   UNL     1      -8.104  29.707   4.112  1.00  0.00     0.016 A 
ATOM     18  C   UNL     1      -7.507  28.579   3.540  1.00  0.00     0.047 A 
BRANCH  16  19
ATOM     19  O   UNL     1      -5.754  26.923   3.511  1.00  0.00    -0.508 OA
ATOM     20  H   UNL     1      -6.148  25.998   3.637  1.00  0.00     0.293 HD
ENDBRANCH  16  19
ENDBRANCH   3  13
BRANCH  10  21
ATOM     21  O   UNL     1     -10.906  35.083   8.238  1.00  0.00    -0.507 OA
ATOM     22  H   UNL     1     -10.717  35.254   9.219  1.00  0.00     0.293 HD
ENDBRANCH  10  21
BRANCH  11  23
ATOM     23  O   UNL     1      -7.871  37.467   5.343  1.00  0.00    -0.508 OA
ATOM     24  H   UNL     1      -7.502  38.178   5.964  1.00  0.00     0.293 HD
ENDBRANCH  11  23
ENDBRANCH   1   2
BRANCH   1  25
ATOM     25  C   UNL     1     -10.391  29.196   6.324  1.00  0.00     0.339 C 
ATOM     26  C   UNL     1     -10.125  27.732   6.723  1.00  0.00     0.214 C 
ATOM     27  O   UNL     1     -11.778  29.490   6.295  1.00  0.00    -0.332 OA
ATOM     28  C   UNL     1     -10.724  27.408   8.101  1.00  0.00     0.180 C 
ATOM     29  C   UNL     1     -12.465  29.250   7.519  1.00  0.00     0.179 C 
ATOM     30  C   UNL     1     -12.200  27.854   8.164  1.00  0.00     0.177 C 
BRANCH  26  31
ATOM     31  O   UNL     1      -8.756  27.414   6.664  1.00  0.00    -0.384 OA
ATOM     32  H   UNL     1      -8.306  27.819   7.449  1.00  0.00     0.211 HD
ENDBRANCH  26  31
BRANCH  28  33
ATOM     33  O   UNL     1      -9.995  28.033   9.128  1.00  0.00    -0.387 OA
ATOM     34  H   UNL     1      -9.045  27.766   9.020  1.00  0.00     0.211 HD
ENDBRANCH  28  33
BRANCH  29  35
ATOM     35  C   UNL     1     -12.391  30.449   8.489  1.00  0.00     0.191 C 
BRANCH  35  36
ATOM     36  O   UNL     1     -11.625  30.161   9.622  1.00  0.00    -0.394 OA
ATOM     37  H   UNL     1     -10.816  29.688   9.296  1.00  0.00     0.210 HD
ENDBRANCH  35  36
ENDBRANCH  29  35
BRANCH  30  38
ATOM     38  O   UNL     1     -13.022  26.875   7.573  1.00  0.00    -0.387 OA
ATOM     39  H   UNL     1     -13.965  27.094   7.794  1.00  0.00     0.211 HD
ENDBRANCH  30  38
ENDBRANCH   1  25
TORSDOF 11
ENDMDL
MODEL 6
REMARK VINA RESULT:    -5.370      1.969      7.533
REMARK INTER + INTRA:          -8.585
REMARK INTER:                  -7.360
REMARK INTRA:                  -1.226
REMARK UNBOUND:                -0.861
REMARK SMILES O=c1c(O[C@@H]2O[C@H](CO)[C@@H](O)[C@H](O)[C@@H]2O)c(-c2ccc(O)cc2)oc2cc(O)cc(O)c12
REMARK SMILES IDX 4 1 3 2 16 3 24 4 2 5 25 6 1 7 32 8 26 9 30 10 27 11 29 12
REMARK SMILES IDX 17 13 18 14 19 15 20 16 23 17 22 18 21 19 31 21 28 23 5 25
REMARK SMILES IDX 14 26 6 27 12 28 7 29 10 30 15 31 13 33 8 35 9 36 11 38
REMARK H PARENT 21 20 31 22 28 24 15 32 13 34 9 37 11 39
REMARK Flexibility Score: inf
ROOT
ATOM      1  O   UNL     1     -10.129  32.895   8.016  1.00  0.00    -0.454 OA
ENDROOT
BRANCH   1   2
ATOM      2  C   UNL     1      -9.501  32.158   6.996  1.00  0.00     0.214 A 
ATOM      3  C   UNL     1      -8.986  32.843   5.879  1.00  0.00     0.180 A 
ATOM      4  O   UNL     1      -8.345  32.178   4.924  1.00  0.00    -0.452 OA
ATOM      5  C   UNL     1      -9.348  30.759   7.055  1.00  0.00     0.239 A 
ATOM      6  C   UNL     1      -8.168  30.863   4.945  1.00  0.00     0.146 A 
ATOM      7  O   UNL     1      -9.828  30.112   8.022  1.00  0.00    -0.285 OA
ATOM      8  C   UNL     1      -8.668  30.087   6.017  1.00  0.00     0.111 A 
ATOM      9  C   UNL     1      -7.482  30.253   3.891  1.00  0.00     0.094 A 
ATOM     10  C   UNL     1      -8.466  28.685   6.003  1.00  0.00     0.134 A 
ATOM     11  C   UNL     1      -7.285  28.868   3.885  1.00  0.00     0.123 A 
ATOM     12  C   UNL     1      -7.776  28.091   4.935  1.00  0.00     0.093 A 
BRANCH   3  13
ATOM     13  C   UNL     1      -9.094  34.312   5.748  1.00  0.00     0.021 A 
ATOM     14  C   UNL     1     -10.297  34.925   5.364  1.00  0.00     0.016 A 
ATOM     15  C   UNL     1     -10.380  36.315   5.250  1.00  0.00     0.047 A 
ATOM     16  C   UNL     1      -9.253  37.108   5.504  1.00  0.00     0.115 A 
ATOM     17  C   UNL     1      -7.962  35.111   5.979  1.00  0.00     0.016 A 
ATOM     18  C   UNL     1      -8.045  36.502   5.864  1.00  0.00     0.047 A 
BRANCH  16  19
ATOM     19  O   UNL     1      -9.322  38.495   5.396  1.00  0.00    -0.508 OA
ATOM     20  H   UNL     1     -10.151  39.007   5.675  1.00  0.00     0.293 HD
ENDBRANCH  16  19
ENDBRANCH   3  13
BRANCH  10  21
ATOM     21  O   UNL     1      -8.943  27.880   7.038  1.00  0.00    -0.507 OA
ATOM     22  H   UNL     1      -8.788  28.114   8.011  1.00  0.00     0.293 HD
ENDBRANCH  10  21
BRANCH  11  23
ATOM     23  O   UNL     1      -6.602  28.254   2.836  1.00  0.00    -0.508 OA
ATOM     24  H   UNL     1      -7.052  27.567   2.242  1.00  0.00     0.293 HD
ENDBRANCH  11  23
ENDBRANCH   1   2
BRANCH   1  25
ATOM     25  C   UNL     1     -11.543  32.999   8.204  1.00  0.00     0.339 C 
ATOM     26  C   UNL     1     -11.971  32.398   9.555  1.00  0.00     0.214 C 
ATOM     27  O   UNL     1     -12.005  34.332   8.051  1.00  0.00    -0.332 OA
ATOM     28  C   UNL     1     -11.450  33.235  10.733  1.00  0.00     0.180 C 
ATOM     29  C   UNL     1     -11.582  35.231   9.071  1.00  0.00     0.179 C 
ATOM     30  C   UNL     1     -11.800  34.724  10.531  1.00  0.00     0.177 C 
BRANCH  26  31
ATOM     31  O   UNL     1     -11.593  31.047   9.670  1.00  0.00    -0.384 OA
ATOM     32  H   UNL     1     -12.144  30.627  10.379  1.00  0.00     0.211 HD
ENDBRANCH  26  31
BRANCH  28  33
ATOM     33  O   UNL     1     -10.059  33.090  10.879  1.00  0.00    -0.387 OA
ATOM     34  H   UNL     1      -9.676  32.981   9.970  1.00  0.00     0.211 HD
ENDBRANCH  28  33
BRANCH  29  35
ATOM     35  C   UNL     1     -10.194  35.845   8.786  1.00  0.00     0.191 C 
BRANCH  35  36
ATOM     36  O   UNL     1      -9.756  36.659   9.834  1.00  0.00    -0.394 OA
ATOM     37  H   UNL     1     -10.264  36.374  10.638  1.00  0.00     0.210 HD
ENDBRANCH  35  36
ENDBRANCH  29  35
BRANCH  30  38
ATOM     38  O   UNL     1     -13.125  34.965  10.942  1.00  0.00    -0.387 OA
ATOM     39  H   UNL     1     -13.334  35.918  10.757  1.00  0.00     0.211 HD
ENDBRANCH  30  38
ENDBRANCH   1  25
TORSDOF 11
ENDMDL
MODEL 7
REMARK VINA RESULT:    -5.351     14.802     18.218
REMARK INTER + INTRA:          -8.559
REMARK INTER:                  -7.162
REMARK INTRA:                  -1.397
REMARK UNBOUND:                -0.861
REMARK SMILES O=c1c(O[C@@H]2O[C@H](CO)[C@@H](O)[C@H](O)[C@@H]2O)c(-c2ccc(O)cc2)oc2cc(O)cc(O)c12
REMARK SMILES IDX 4 1 3 2 16 3 24 4 2 5 25 6 1 7 32 8 26 9 30 10 27 11 29 12
REMARK SMILES IDX 17 13 18 14 19 15 20 16 23 17 22 18 21 19 31 21 28 23 5 25
REMARK SMILES IDX 14 26 6 27 12 28 7 29 10 30 15 31 13 33 8 35 9 36 11 38
REMARK H PARENT 21 20 31 22 28 24 15 32 13 34 9 37 11 39
REMARK Flexibility Score: inf
ROOT
ATOM      1  O   UNL     1       1.785  44.656   1.445  1.00  0.00    -0.454 OA
ENDROOT
BRANCH   1   2
ATOM      2  C   UNL     1       2.324  45.105   2.665  1.00  0.00     0.214 A 
ATOM      3  C   UNL     1       3.616  45.665   2.674  1.00  0.00     0.180 A 
ATOM      4  O   UNL     1       4.129  46.142   3.803  1.00  0.00    -0.452 OA
ATOM      5  C   UNL     1       1.614  45.033   3.880  1.00  0.00     0.239 A 
ATOM      6  C   UNL     1       3.491  46.105   4.966  1.00  0.00     0.146 A 
ATOM      7  O   UNL     1       0.472  44.506   3.913  1.00  0.00    -0.285 OA
ATOM      8  C   UNL     1       2.198  45.543   5.060  1.00  0.00     0.111 A 
ATOM      9  C   UNL     1       4.117  46.630   6.101  1.00  0.00     0.094 A 
ATOM     10  C   UNL     1       1.549  45.515   6.319  1.00  0.00     0.134 A 
ATOM     11  C   UNL     1       3.471  46.601   7.341  1.00  0.00     0.123 A 
ATOM     12  C   UNL     1       2.194  46.045   7.447  1.00  0.00     0.093 A 
BRANCH   3  13
ATOM     13  C   UNL     1       4.420  45.790   1.439  1.00  0.00     0.021 A 
ATOM     14  C   UNL     1       5.244  44.742   0.998  1.00  0.00     0.016 A 
ATOM     15  C   UNL     1       5.994  44.878  -0.174  1.00  0.00     0.047 A 
ATOM     16  C   UNL     1       5.939  46.069  -0.909  1.00  0.00     0.115 A 
ATOM     17  C   UNL     1       4.387  46.989   0.711  1.00  0.00     0.016 A 
ATOM     18  C   UNL     1       5.138  47.124  -0.461  1.00  0.00     0.047 A 
BRANCH  16  19
ATOM     19  O   UNL     1       6.679  46.216  -2.079  1.00  0.00    -0.508 OA
ATOM     20  H   UNL     1       6.465  46.942  -2.754  1.00  0.00     0.293 HD
ENDBRANCH  16  19
ENDBRANCH   3  13
BRANCH  10  21
ATOM     21  O   UNL     1       0.273  44.968   6.459  1.00  0.00    -0.507 OA
ATOM     22  H   UNL     1       0.066  44.272   7.165  1.00  0.00     0.293 HD
ENDBRANCH  10  21
BRANCH  11  23
ATOM     23  O   UNL     1       4.090  47.121   8.476  1.00  0.00    -0.508 OA
ATOM     24  H   UNL     1       3.921  48.072   8.783  1.00  0.00     0.293 HD
ENDBRANCH  11  23
ENDBRANCH   1   2
BRANCH   1  25
ATOM     25  C   UNL     1       0.507  45.030   0.925  1.00  0.00     0.339 C 
ATOM     26  C   UNL     1       0.618  45.507  -0.535  1.00  0.00     0.214 C 
ATOM     27  O   UNL     1      -0.451  43.994   1.068  1.00  0.00    -0.332 OA
ATOM     28  C   UNL     1       1.000  44.354  -1.475  1.00  0.00     0.180 C 
ATOM     29  C   UNL     1      -0.213  42.845   0.261  1.00  0.00     0.179 C 
ATOM     30  C   UNL     1       0.073  43.143  -1.244  1.00  0.00     0.177 C 
BRANCH  26  31
ATOM     31  O   UNL     1       1.500  46.596  -0.664  1.00  0.00    -0.384 OA
ATOM     32  H   UNL     1       1.015  47.342  -1.102  1.00  0.00     0.211 HD
ENDBRANCH  26  31
BRANCH  28  33
ATOM     33  O   UNL     1       2.339  43.970  -1.286  1.00  0.00    -0.387 OA
ATOM     34  H   UNL     1       2.805  44.729  -0.847  1.00  0.00     0.211 HD
ENDBRANCH  28  33
BRANCH  29  35
ATOM     35  C   UNL     1       0.747  41.836   0.928  1.00  0.00     0.191 C 
BRANCH  35  36
ATOM     36  O   UNL     1       0.648  41.860   2.322  1.00  0.00    -0.394 OA
ATOM     37  H   UNL     1       1.573  41.963   2.664  1.00  0.00     0.210 HD
ENDBRANCH  35  36
ENDBRANCH  29  35
BRANCH  30  38
ATOM     38  O   UNL     1      -1.134  43.320  -1.948  1.00  0.00    -0.387 OA
ATOM     39  H   UNL     1      -1.835  43.575  -1.294  1.00  0.00     0.211 HD
ENDBRANCH  30  38
ENDBRANCH   1  25
TORSDOF 11
ENDMDL
MODEL 8
REMARK VINA RESULT:    -5.217      1.911      7.354
REMARK INTER + INTRA:          -8.366
REMARK INTER:                  -7.089
REMARK INTRA:                  -1.277
REMARK UNBOUND:                -0.861
REMARK SMILES O=c1c(O[C@@H]2O[C@H](CO)[C@@H](O)[C@H](O)[C@@H]2O)c(-c2ccc(O)cc2)oc2cc(O)cc(O)c12
REMARK SMILES IDX 4 1 3 2 16 3 24 4 2 5 25 6 1 7 32 8 26 9 30 10 27 11 29 12
REMARK SMILES IDX 17 13 18 14 19 15 20 16 23 17 22 18 21 19 31 21 28 23 5 25
REMARK SMILES IDX 14 26 6 27 12 28 7 29 10 30 15 31 13 33 8 35 9 36 11 38
REMARK H PARENT 21 20 31 22 28 24 15 32 13 34 9 37 11 39
REMARK Flexibility Score: inf
ROOT
ATOM      1  O   UNL     1     -10.747  32.978   7.860  1.00  0.00    -0.454 OA
ENDROOT
BRANCH   1   2
ATOM      2  C   UNL     1      -9.904  32.255   6.998  1.00  0.00     0.214 A 
ATOM      3  C   UNL     1      -9.161  32.954   6.027  1.00  0.00     0.180 A 
ATOM      4  O   UNL     1      -8.320  32.301   5.232  1.00  0.00    -0.452 OA
ATOM      5  C   UNL     1      -9.756  30.856   7.077  1.00  0.00     0.239 A 
ATOM      6  C   UNL     1      -8.142  30.987   5.280  1.00  0.00     0.146 A 
ATOM      7  O   UNL     1     -10.432  30.197   7.910  1.00  0.00    -0.285 OA
ATOM      8  C   UNL     1      -8.859  30.198   6.209  1.00  0.00     0.111 A 
ATOM      9  C   UNL     1      -7.236  30.391   4.398  1.00  0.00     0.094 A 
ATOM     10  C   UNL     1      -8.648  28.797   6.229  1.00  0.00     0.134 A 
ATOM     11  C   UNL     1      -7.031  29.008   4.424  1.00  0.00     0.123 A 
ATOM     12  C   UNL     1      -7.735  28.218   5.335  1.00  0.00     0.093 A 
BRANCH   3  13
ATOM     13  C   UNL     1      -9.249  34.423   5.888  1.00  0.00     0.021 A 
ATOM     14  C   UNL     1     -10.446  35.050   5.505  1.00  0.00     0.016 A 
ATOM     15  C   UNL     1     -10.509  36.440   5.383  1.00  0.00     0.047 A 
ATOM     16  C   UNL     1      -9.371  37.219   5.627  1.00  0.00     0.115 A 
ATOM     17  C   UNL     1      -8.106  35.208   6.108  1.00  0.00     0.016 A 
ATOM     18  C   UNL     1      -8.169  36.599   5.985  1.00  0.00     0.047 A 
BRANCH  16  19
ATOM     19  O   UNL     1      -9.421  38.606   5.511  1.00  0.00    -0.508 OA
ATOM     20  H   UNL     1      -9.842  39.055   4.706  1.00  0.00     0.293 HD
ENDBRANCH  16  19
ENDBRANCH   3  13
BRANCH  10  21
ATOM     21  O   UNL     1      -9.335  27.979   7.127  1.00  0.00    -0.507 OA
ATOM     22  H   UNL     1      -9.823  27.145   6.822  1.00  0.00     0.293 HD
ENDBRANCH  10  21
BRANCH  11  23
ATOM     23  O   UNL     1      -6.130  28.407   3.547  1.00  0.00    -0.508 OA
ATOM     24  H   UNL     1      -5.458  28.955   3.022  1.00  0.00     0.293 HD
ENDBRANCH  11  23
ENDBRANCH   1   2
BRANCH   1  25
ATOM     25  C   UNL     1     -10.478  33.243   9.240  1.00  0.00     0.339 C 
ATOM     26  C   UNL     1     -10.920  34.666   9.629  1.00  0.00     0.214 C 
ATOM     27  O   UNL     1     -11.050  32.263  10.092  1.00  0.00    -0.332 OA
ATOM     28  C   UNL     1     -12.449  34.811   9.587  1.00  0.00     0.180 C 
ATOM     29  C   UNL     1     -12.473  32.270  10.140  1.00  0.00     0.179 C 
ATOM     30  C   UNL     1     -13.119  33.670  10.380  1.00  0.00     0.177 C 
BRANCH  26  31
ATOM     31  O   UNL     1     -10.283  35.645   8.844  1.00  0.00    -0.384 OA
ATOM     32  H   UNL     1     -10.889  35.890   8.098  1.00  0.00     0.211 HD
ENDBRANCH  26  31
BRANCH  28  33
ATOM     33  O   UNL     1     -12.920  34.810   8.262  1.00  0.00    -0.387 OA
ATOM     34  H   UNL     1     -12.591  33.978   7.833  1.00  0.00     0.211 HD
ENDBRANCH  28  33
BRANCH  29  35
ATOM     35  C   UNL     1     -13.112  31.434   9.010  1.00  0.00     0.191 C 
BRANCH  35  36
ATOM     36  O   UNL     1     -12.937  30.062   9.210  1.00  0.00    -0.394 OA
ATOM     37  H   UNL     1     -12.631  29.955  10.148  1.00  0.00     0.210 HD
ENDBRANCH  35  36
ENDBRANCH  29  35
BRANCH  30  38
ATOM     38  O   UNL     1     -13.125  33.980  11.754  1.00  0.00    -0.387 OA
ATOM     39  H   UNL     1     -12.811  33.179  12.250  1.00  0.00     0.211 HD
ENDBRANCH  30  38
ENDBRANCH   1  25
TORSDOF 11
ENDMDL
MODEL 9
REMARK VINA RESULT:    -5.178      1.527      2.194
REMARK INTER + INTRA:          -8.309
REMARK INTER:                  -7.017
REMARK INTRA:                  -1.292
REMARK UNBOUND:                -0.861
REMARK SMILES O=c1c(O[C@@H]2O[C@H](CO)[C@@H](O)[C@H](O)[C@@H]2O)c(-c2ccc(O)cc2)oc2cc(O)cc(O)c12
REMARK SMILES IDX 4 1 3 2 16 3 24 4 2 5 25 6 1 7 32 8 26 9 30 10 27 11 29 12
REMARK SMILES IDX 17 13 18 14 19 15 20 16 23 17 22 18 21 19 31 21 28 23 5 25
REMARK SMILES IDX 14 26 6 27 12 28 7 29 10 30 15 31 13 33 8 35 9 36 11 38
REMARK H PARENT 21 20 31 22 28 24 15 32 13 34 9 37 11 39
REMARK Flexibility Score: inf
ROOT
ATOM      1  O   UNL     1      -9.315  31.294   6.822  1.00  0.00    -0.454 OA
ENDROOT
BRANCH   1   2
ATOM      2  C   UNL     1      -9.591  32.657   7.034  1.00  0.00     0.214 A 
ATOM      3  C   UNL     1     -10.517  33.017   8.032  1.00  0.00     0.180 A 
ATOM      4  O   UNL     1     -10.760  34.298   8.287  1.00  0.00    -0.452 OA
ATOM      5  C   UNL     1      -8.963  33.683   6.300  1.00  0.00     0.239 A 
ATOM      6  C   UNL     1     -10.183  35.294   7.628  1.00  0.00     0.146 A 
ATOM      7  O   UNL     1      -8.156  33.394   5.377  1.00  0.00    -0.285 OA
ATOM      8  C   UNL     1      -9.254  35.031   6.595  1.00  0.00     0.111 A 
ATOM      9  C   UNL     1     -10.506  36.612   7.968  1.00  0.00     0.094 A 
ATOM     10  C   UNL     1      -8.661  36.120   5.909  1.00  0.00     0.134 A 
ATOM     11  C   UNL     1      -9.917  37.682   7.288  1.00  0.00     0.123 A 
ATOM     12  C   UNL     1      -9.000  37.435   6.264  1.00  0.00     0.093 A 
BRANCH   3  13
ATOM     13  C   UNL     1     -11.208  32.002   8.856  1.00  0.00     0.021 A 
ATOM     14  C   UNL     1     -12.311  31.287   8.359  1.00  0.00     0.016 A 
ATOM     15  C   UNL     1     -12.948  30.329   9.152  1.00  0.00     0.047 A 
ATOM     16  C   UNL     1     -12.500  30.087  10.458  1.00  0.00     0.115 A 
ATOM     17  C   UNL     1     -10.779  31.771  10.172  1.00  0.00     0.016 A 
ATOM     18  C   UNL     1     -11.418  30.814  10.965  1.00  0.00     0.047 A 
BRANCH  16  19
ATOM     19  O   UNL     1     -13.125  29.134  11.257  1.00  0.00    -0.508 OA
ATOM     20  H   UNL     1     -13.378  29.332  12.218  1.00  0.00     0.293 HD
ENDBRANCH  16  19
ENDBRANCH   3  13
BRANCH  10  21
ATOM     21  O   UNL     1      -7.741  35.908   4.882  1.00  0.00    -0.507 OA
ATOM     22  H   UNL     1      -6.903  36.469   4.791  1.00  0.00     0.293 HD
ENDBRANCH  10  21
BRANCH  11  23
ATOM     23  O   UNL     1     -10.236  38.997   7.621  1.00  0.00    -0.508 OA
ATOM     24  H   UNL     1     -10.064  39.762   6.979  1.00  0.00     0.293 HD
ENDBRANCH  11  23
ENDBRANCH   1   2
BRANCH   1  25
ATOM     25  C   UNL     1      -9.799  30.520   5.721  1.00  0.00     0.339 C 
ATOM     26  C   UNL     1      -8.643  30.059   4.814  1.00  0.00     0.214 C 
ATOM     27  O   UNL     1     -10.599  29.429   6.149  1.00  0.00    -0.332 OA
ATOM     28  C   UNL     1      -7.741  29.039   5.526  1.00  0.00     0.180 C 
ATOM     29  C   UNL     1      -9.893  28.406   6.843  1.00  0.00     0.179 C 
ATOM     30  C   UNL     1      -8.591  27.908   6.140  1.00  0.00     0.177 C 
BRANCH  26  31
ATOM     31  O   UNL     1      -7.903  31.148   4.315  1.00  0.00    -0.384 OA
ATOM     32  H   UNL     1      -8.484  31.952   4.326  1.00  0.00     0.211 HD
ENDBRANCH  26  31
BRANCH  28  33
ATOM     33  O   UNL     1      -6.975  29.657   6.530  1.00  0.00    -0.387 OA
ATOM     34  H   UNL     1      -6.111  29.922   6.120  1.00  0.00     0.211 HD
ENDBRANCH  28  33
BRANCH  29  35
ATOM     35  C   UNL     1      -9.757  28.695   8.354  1.00  0.00     0.191 C 
BRANCH  35  36
ATOM     36  O   UNL     1     -10.314  27.679   9.135  1.00  0.00    -0.394 OA
ATOM     37  H   UNL     1      -9.681  27.526   9.883  1.00  0.00     0.210 HD
ENDBRANCH  35  36
ENDBRANCH  29  35
BRANCH  30  38
ATOM     38  O   UNL     1      -8.900  26.950   5.155  1.00  0.00    -0.387 OA
ATOM     39  H   UNL     1      -8.252  26.203   5.240  1.00  0.00     0.211 HD
ENDBRANCH  30  38
ENDBRANCH   1  25
TORSDOF 11
ENDMDL
