MODEL 1
REMARK VINA RESULT:    -4.367      0.000      0.000
REMARK INTER + INTRA:          -5.627
REMARK INTER:                  -5.261
REMARK INTRA:                  -0.366
REMARK UNBOUND:                -0.366
REMARK SMILES Oc1cc(O)c2c(c1)O[C@H](c1ccc(O)c(O)c1)[C@@H](O)C2
REMARK SMILES IDX 21 1 19 2 10 3 9 4 7 5 8 6 2 7 3 8 4 9 6 10 20 11 11 13
REMARK SMILES IDX 18 14 12 15 16 16 13 17 14 18 17 19 15 21 5 23 1 25
REMARK H PARENT 20 12 17 20 15 22 5 24 1 26
REMARK Flexibility Score: inf
ROOT
ATOM      1  C   UNL     1      -2.999  -6.105   9.945  1.00  0.00     0.079 C 
ATOM      2  C   UNL     1      -4.399  -6.379   9.365  1.00  0.00     0.164 C 
ATOM      3  C   UNL     1      -4.698  -7.887   9.412  1.00  0.00     0.232 C 
ATOM      4  O   UNL     1      -3.683  -8.603   8.709  1.00  0.00    -0.482 OA
ATOM      5  C   UNL     1      -2.333  -8.242   8.772  1.00  0.00     0.131 A 
ATOM      6  C   UNL     1      -1.376  -9.095   8.216  1.00  0.00     0.093 A 
ATOM      7  C   UNL     1      -0.019  -8.766   8.278  1.00  0.00     0.122 A 
ATOM      8  C   UNL     1       0.382  -7.586   8.908  1.00  0.00     0.092 A 
ATOM      9  C   UNL     1      -0.563  -6.720   9.470  1.00  0.00     0.126 A 
ATOM     10  C   UNL     1      -1.942  -7.025   9.371  1.00  0.00     0.039 A 
ENDROOT
BRANCH   2  11
ATOM     11  O   UNL     1      -5.366  -5.681  10.107  1.00  0.00    -0.389 OA
ATOM     12  H   UNL     1      -5.930  -5.193   9.453  1.00  0.00     0.211 HD
ENDBRANCH   2  11
BRANCH   3  13
ATOM     13  C   UNL     1      -6.048  -8.195   8.808  1.00  0.00    -0.001 A 
ATOM     14  C   UNL     1      -7.077  -8.725   9.605  1.00  0.00     0.057 A 
ATOM     15  C   UNL     1      -6.307  -7.912   7.457  1.00  0.00     0.012 A 
ATOM     16  C   UNL     1      -8.341  -8.986   9.057  1.00  0.00     0.157 A 
ATOM     17  C   UNL     1      -7.565  -8.173   6.908  1.00  0.00     0.050 A 
ATOM     18  C   UNL     1      -8.584  -8.710   7.700  1.00  0.00     0.157 A 
BRANCH  16  19
ATOM     19  O   UNL     1      -9.354  -9.518   9.854  1.00  0.00    -0.504 OA
ATOM     20  H   UNL     1      -9.196  -9.749  10.828  1.00  0.00     0.293 HD
ENDBRANCH  16  19
BRANCH  18  21
ATOM     21  O   UNL     1      -9.829  -8.961   7.126  1.00  0.00    -0.504 OA
ATOM     22  H   UNL     1     -10.151  -9.901   6.926  1.00  0.00     0.293 HD
ENDBRANCH  18  21
ENDBRANCH   3  13
BRANCH   9  23
ATOM     23  O   UNL     1      -0.098  -5.577  10.125  1.00  0.00    -0.507 OA
ATOM     24  H   UNL     1      -0.636  -5.079  10.823  1.00  0.00     0.293 HD
ENDBRANCH   9  23
BRANCH   7  25
ATOM     25  O   UNL     1       0.942  -9.610   7.725  1.00  0.00    -0.508 OA
ATOM     26  H   UNL     1       1.933  -9.444   7.857  1.00  0.00     0.293 HD
ENDBRANCH   7  25
TORSDOF 6
ENDMDL
MODEL 2
REMARK VINA RESULT:    -4.257      1.523      7.208
REMARK INTER + INTRA:          -5.495
REMARK INTER:                  -5.144
REMARK INTRA:                  -0.350
REMARK UNBOUND:                -0.366
REMARK SMILES Oc1cc(O)c2c(c1)O[C@H](c1ccc(O)c(O)c1)[C@@H](O)C2
REMARK SMILES IDX 21 1 19 2 10 3 9 4 7 5 8 6 2 7 3 8 4 9 6 10 20 11 11 13
REMARK SMILES IDX 18 14 12 15 16 16 13 17 14 18 17 19 15 21 5 23 1 25
REMARK H PARENT 20 12 17 20 15 22 5 24 1 26
REMARK Flexibility Score: inf
ROOT
ATOM      1  C   UNL     1      -5.557  -8.894   5.881  1.00  0.00     0.079 C 
ATOM      2  C   UNL     1      -4.407  -8.047   6.457  1.00  0.00     0.164 C 
ATOM      3  C   UNL     1      -3.986  -8.601   7.829  1.00  0.00     0.232 C 
ATOM      4  O   UNL     1      -5.113  -8.632   8.704  1.00  0.00    -0.482 OA
ATOM      5  C   UNL     1      -6.392  -8.986   8.264  1.00  0.00     0.131 A 
ATOM      6  C   UNL     1      -7.406  -9.178   9.207  1.00  0.00     0.093 A 
ATOM      7  C   UNL     1      -8.690  -9.547   8.797  1.00  0.00     0.122 A 
ATOM      8  C   UNL     1      -8.957  -9.735   7.440  1.00  0.00     0.092 A 
ATOM      9  C   UNL     1      -7.955  -9.548   6.481  1.00  0.00     0.126 A 
ATOM     10  C   UNL     1      -6.664  -9.131   6.886  1.00  0.00     0.039 A 
ENDROOT
BRANCH   2  11
ATOM     11  O   UNL     1      -3.311  -8.074   5.579  1.00  0.00    -0.389 OA
ATOM     12  H   UNL     1      -3.683  -8.130   4.660  1.00  0.00     0.211 HD
ENDBRANCH   2  11
BRANCH   3  13
ATOM     13  C   UNL     1      -2.888  -7.765   8.443  1.00  0.00    -0.001 A 
ATOM     14  C   UNL     1      -1.583  -8.276   8.549  1.00  0.00     0.057 A 
ATOM     15  C   UNL     1      -3.145  -6.451   8.869  1.00  0.00     0.012 A 
ATOM     16  C   UNL     1      -0.554  -7.493   9.091  1.00  0.00     0.157 A 
ATOM     17  C   UNL     1      -2.121  -5.671   9.411  1.00  0.00     0.050 A 
ATOM     18  C   UNL     1      -0.827  -6.185   9.527  1.00  0.00     0.157 A 
BRANCH  16  19
ATOM     19  O   UNL     1       0.736  -8.010   9.198  1.00  0.00    -0.504 OA
ATOM     20  H   UNL     1       1.184  -8.484   8.422  1.00  0.00     0.293 HD
ENDBRANCH  16  19
BRANCH  18  21
ATOM     21  O   UNL     1       0.175  -5.383  10.072  1.00  0.00    -0.504 OA
ATOM     22  H   UNL     1       0.228  -4.387   9.888  1.00  0.00     0.293 HD
ENDBRANCH  18  21
ENDBRANCH   3  13
BRANCH   9  23
ATOM     23  O   UNL     1      -8.272  -9.795   5.143  1.00  0.00    -0.507 OA
ATOM     24  H   UNL     1      -9.161 -10.173   4.843  1.00  0.00     0.293 HD
ENDBRANCH   9  23
BRANCH   7  25
ATOM     25  O   UNL     1      -9.706  -9.738   9.731  1.00  0.00    -0.508 OA
ATOM     26  H   UNL     1      -9.912 -10.656  10.109  1.00  0.00     0.293 HD
ENDBRANCH   7  25
TORSDOF 6
ENDMDL
MODEL 3
REMARK VINA RESULT:    -4.128      4.946      7.828
REMARK INTER + INTRA:          -5.340
REMARK INTER:                  -4.989
REMARK INTRA:                  -0.350
REMARK UNBOUND:                -0.366
REMARK SMILES Oc1cc(O)c2c(c1)O[C@H](c1ccc(O)c(O)c1)[C@@H](O)C2
REMARK SMILES IDX 21 1 19 2 10 3 9 4 7 5 8 6 2 7 3 8 4 9 6 10 20 11 11 13
REMARK SMILES IDX 18 14 12 15 16 16 13 17 14 18 17 19 15 21 5 23 1 25
REMARK H PARENT 20 12 17 20 15 22 5 24 1 26
REMARK Flexibility Score: inf
ROOT
ATOM      1  C   UNL     1      -9.953  -3.522   5.652  1.00  0.00     0.079 C 
ATOM      2  C   UNL     1      -9.376  -4.892   6.055  1.00  0.00     0.164 C 
ATOM      3  C   UNL     1      -9.427  -5.052   7.584  1.00  0.00     0.232 C 
ATOM      4  O   UNL     1      -8.723  -3.977   8.205  1.00  0.00    -0.482 OA
ATOM      5  C   UNL     1      -8.782  -2.666   7.721  1.00  0.00     0.131 A 
ATOM      6  C   UNL     1      -8.225  -1.635   8.484  1.00  0.00     0.093 A 
ATOM      7  C   UNL     1      -8.283  -0.314   8.032  1.00  0.00     0.122 A 
ATOM      8  C   UNL     1      -8.910  -0.022   6.819  1.00  0.00     0.092 A 
ATOM      9  C   UNL     1      -9.473  -1.041   6.042  1.00  0.00     0.126 A 
ATOM     10  C   UNL     1      -9.378  -2.386   6.472  1.00  0.00     0.039 A 
ENDROOT
BRANCH   2  11
ATOM     11  O   UNL     1     -10.119  -5.917   5.446  1.00  0.00    -0.389 OA
ATOM     12  H   UNL     1      -9.617  -6.760   5.594  1.00  0.00     0.211 HD
ENDBRANCH   2  11
BRANCH   3  13
ATOM     13  C   UNL     1      -8.826  -6.369   8.016  1.00  0.00    -0.001 A 
ATOM     14  C   UNL     1      -9.648  -7.391   8.521  1.00  0.00     0.057 A 
ATOM     15  C   UNL     1      -7.449  -6.607   7.873  1.00  0.00     0.012 A 
ATOM     16  C   UNL     1      -9.100  -8.626   8.896  1.00  0.00     0.157 A 
ATOM     17  C   UNL     1      -6.902  -7.836   8.248  1.00  0.00     0.050 A 
ATOM     18  C   UNL     1      -7.719  -8.847   8.761  1.00  0.00     0.157 A 
BRANCH  16  19
ATOM     19  O   UNL     1      -9.923  -9.631   9.402  1.00  0.00    -0.504 OA
ATOM     20  H   UNL     1     -10.774  -9.909   8.928  1.00  0.00     0.293 HD
ENDBRANCH  16  19
BRANCH  18  21
ATOM     21  O   UNL     1      -7.145 -10.063   9.127  1.00  0.00    -0.504 OA
ATOM     22  H   UNL     1      -7.666 -10.778   9.622  1.00  0.00     0.293 HD
ENDBRANCH  18  21
ENDBRANCH   3  13
BRANCH   9  23
ATOM     23  O   UNL     1     -10.125  -0.681   4.860  1.00  0.00    -0.507 OA
ATOM     24  H   UNL     1     -10.562  -1.352   4.240  1.00  0.00     0.293 HD
ENDBRANCH   9  23
BRANCH   7  25
ATOM     25  O   UNL     1      -7.730   0.719   8.785  1.00  0.00    -0.508 OA
ATOM     26  H   UNL     1      -7.158   0.533   9.602  1.00  0.00     0.293 HD
ENDBRANCH   7  25
TORSDOF 6
ENDMDL
MODEL 4
REMARK VINA RESULT:    -4.123      5.040      7.892
REMARK INTER + INTRA:          -5.333
REMARK INTER:                  -4.987
REMARK INTRA:                  -0.346
REMARK UNBOUND:                -0.366
REMARK SMILES Oc1cc(O)c2c(c1)O[C@H](c1ccc(O)c(O)c1)[C@@H](O)C2
REMARK SMILES IDX 21 1 19 2 10 3 9 4 7 5 8 6 2 7 3 8 4 9 6 10 20 11 11 13
REMARK SMILES IDX 18 14 12 15 16 16 13 17 14 18 17 19 15 21 5 23 1 25
REMARK H PARENT 20 12 17 20 15 22 5 24 1 26
REMARK Flexibility Score: inf
ROOT
ATOM      1  C   UNL     1      -6.067  -9.936   3.023  1.00  0.00     0.079 C 
ATOM      2  C   UNL     1      -6.280  -9.358   4.434  1.00  0.00     0.164 C 
ATOM      3  C   UNL     1      -7.763  -9.467   4.826  1.00  0.00     0.232 C 
ATOM      4  O   UNL     1      -8.570  -8.803   3.854  1.00  0.00    -0.482 OA
ATOM      5  C   UNL     1      -8.290  -8.860   2.484  1.00  0.00     0.131 A 
ATOM      6  C   UNL     1      -9.223  -8.348   1.579  1.00  0.00     0.093 A 
ATOM      7  C   UNL     1      -8.976  -8.405   0.204  1.00  0.00     0.122 A 
ATOM      8  C   UNL     1      -7.796  -8.988  -0.265  1.00  0.00     0.092 A 
ATOM      9  C   UNL     1      -6.850  -9.505   0.627  1.00  0.00     0.126 A 
ATOM     10  C   UNL     1      -7.074  -9.410   2.022  1.00  0.00     0.039 A 
ENDROOT
BRANCH   2  11
ATOM     11  O   UNL     1      -5.492 -10.062   5.359  1.00  0.00    -0.389 OA
ATOM     12  H   UNL     1      -6.082 -10.742   5.777  1.00  0.00     0.211 HD
ENDBRANCH   2  11
BRANCH   3  13
ATOM     13  C   UNL     1      -8.013  -8.866   6.189  1.00  0.00    -0.001 A 
ATOM     14  C   UNL     1      -8.306  -9.695   7.286  1.00  0.00     0.057 A 
ATOM     15  C   UNL     1      -7.909  -7.479   6.389  1.00  0.00     0.012 A 
ATOM     16  C   UNL     1      -8.511  -9.146   8.559  1.00  0.00     0.157 A 
ATOM     17  C   UNL     1      -8.115  -6.931   7.657  1.00  0.00     0.050 A 
ATOM     18  C   UNL     1      -8.417  -7.756   8.744  1.00  0.00     0.157 A 
BRANCH  16  19
ATOM     19  O   UNL     1      -8.807  -9.975   9.640  1.00  0.00    -0.504 OA
ATOM     20  H   UNL     1      -8.100 -10.238  10.316  1.00  0.00     0.293 HD
ENDBRANCH  16  19
BRANCH  18  21
ATOM     21  O   UNL     1      -8.617  -7.180   9.998  1.00  0.00    -0.504 OA
ATOM     22  H   UNL     1      -8.476  -7.698  10.857  1.00  0.00     0.293 HD
ENDBRANCH  18  21
ENDBRANCH   3  13
BRANCH   9  23
ATOM     23  O   UNL     1      -5.711 -10.115   0.096  1.00  0.00    -0.507 OA
ATOM     24  H   UNL     1      -4.775  -9.933   0.434  1.00  0.00     0.293 HD
ENDBRANCH   9  23
BRANCH   7  25
ATOM     25  O   UNL     1      -9.900  -7.896  -0.705  1.00  0.00    -0.508 OA
ATOM     26  H   UNL     1      -9.666  -7.131  -1.327  1.00  0.00     0.293 HD
ENDBRANCH   7  25
TORSDOF 6
ENDMDL
MODEL 5
REMARK VINA RESULT:    -4.027      5.034      7.409
REMARK INTER + INTRA:          -5.218
REMARK INTER:                  -5.040
REMARK INTRA:                  -0.177
REMARK UNBOUND:                -0.366
REMARK SMILES Oc1cc(O)c2c(c1)O[C@H](c1ccc(O)c(O)c1)[C@@H](O)C2
REMARK SMILES IDX 21 1 19 2 10 3 9 4 7 5 8 6 2 7 3 8 4 9 6 10 20 11 11 13
REMARK SMILES IDX 18 14 12 15 16 16 13 17 14 18 17 19 15 21 5 23 1 25
REMARK H PARENT 20 12 17 20 15 22 5 24 1 26
REMARK Flexibility Score: inf
ROOT
ATOM      1  C   UNL     1      -8.645  -6.630   5.747  1.00  0.00     0.079 C 
ATOM      2  C   UNL     1      -7.926  -7.035   4.447  1.00  0.00     0.164 C 
ATOM      3  C   UNL     1      -8.055  -8.552   4.229  1.00  0.00     0.232 C 
ATOM      4  O   UNL     1      -7.537  -9.250   5.362  1.00  0.00    -0.482 OA
ATOM      5  C   UNL     1      -7.730  -8.798   6.671  1.00  0.00     0.131 A 
ATOM      6  C   UNL     1      -7.361  -9.624   7.736  1.00  0.00     0.093 A 
ATOM      7  C   UNL     1      -7.557  -9.204   9.055  1.00  0.00     0.122 A 
ATOM      8  C   UNL     1      -8.136  -7.958   9.308  1.00  0.00     0.092 A 
ATOM      9  C   UNL     1      -8.512  -7.118   8.254  1.00  0.00     0.126 A 
ATOM     10  C   UNL     1      -8.275  -7.518   6.917  1.00  0.00     0.039 A 
ENDROOT
BRANCH   2  11
ATOM     11  O   UNL     1      -8.491  -6.350   3.359  1.00  0.00    -0.389 OA
ATOM     12  H   UNL     1      -7.950  -6.587   2.561  1.00  0.00     0.211 HD
ENDBRANCH   2  11
BRANCH   3  13
ATOM     13  C   UNL     1      -7.321  -8.990   2.984  1.00  0.00    -0.001 A 
ATOM     14  C   UNL     1      -7.974  -8.988   1.739  1.00  0.00     0.057 A 
ATOM     15  C   UNL     1      -5.966  -9.357   3.045  1.00  0.00     0.012 A 
ATOM     16  C   UNL     1      -7.289  -9.366   0.575  1.00  0.00     0.157 A 
ATOM     17  C   UNL     1      -5.283  -9.735   1.887  1.00  0.00     0.050 A 
ATOM     18  C   UNL     1      -5.937  -9.743   0.652  1.00  0.00     0.157 A 
BRANCH  16  19
ATOM     19  O   UNL     1      -7.946  -9.366  -0.655  1.00  0.00    -0.504 OA
ATOM     20  H   UNL     1      -8.947  -9.510  -0.721  1.00  0.00     0.293 HD
ENDBRANCH  16  19
BRANCH  18  21
ATOM     21  O   UNL     1      -5.230 -10.125  -0.488  1.00  0.00    -0.504 OA
ATOM     22  H   UNL     1      -5.184 -11.090  -0.795  1.00  0.00     0.293 HD
ENDBRANCH  18  21
ENDBRANCH   3  13
BRANCH   9  23
ATOM     23  O   UNL     1      -9.126  -5.903   8.570  1.00  0.00    -0.507 OA
ATOM     24  H   UNL     1      -8.617  -5.036   8.683  1.00  0.00     0.293 HD
ENDBRANCH   9  23
BRANCH   7  25
ATOM     25  O   UNL     1      -7.190 -10.021  10.122  1.00  0.00    -0.508 OA
ATOM     26  H   UNL     1      -7.883 -10.434  10.736  1.00  0.00     0.293 HD
ENDBRANCH   7  25
TORSDOF 6
ENDMDL
MODEL 6
REMARK VINA RESULT:    -4.022      4.621      7.065
REMARK INTER + INTRA:          -5.211
REMARK INTER:                  -4.893
REMARK INTRA:                  -0.318
REMARK UNBOUND:                -0.366
REMARK SMILES Oc1cc(O)c2c(c1)O[C@H](c1ccc(O)c(O)c1)[C@@H](O)C2
REMARK SMILES IDX 21 1 19 2 10 3 9 4 7 5 8 6 2 7 3 8 4 9 6 10 20 11 11 13
REMARK SMILES IDX 18 14 12 15 16 16 13 17 14 18 17 19 15 21 5 23 1 25
REMARK H PARENT 20 12 17 20 15 22 5 24 1 26
REMARK Flexibility Score: inf
ROOT
ATOM      1  C   UNL     1      -6.024  -5.909   8.512  1.00  0.00     0.079 C 
ATOM      2  C   UNL     1      -6.582  -4.767   7.643  1.00  0.00     0.164 C 
ATOM      3  C   UNL     1      -7.942  -4.307   8.193  1.00  0.00     0.232 C 
ATOM      4  O   UNL     1      -8.840  -5.415   8.252  1.00  0.00    -0.482 OA
ATOM      5  C   UNL     1      -8.423  -6.695   8.632  1.00  0.00     0.131 A 
ATOM      6  C   UNL     1      -9.385  -7.685   8.850  1.00  0.00     0.093 A 
ATOM      7  C   UNL     1      -8.998  -8.969   9.246  1.00  0.00     0.122 A 
ATOM      8  C   UNL     1      -7.646  -9.258   9.435  1.00  0.00     0.092 A 
ATOM      9  C   UNL     1      -6.668  -8.280   9.221  1.00  0.00     0.126 A 
ATOM     10  C   UNL     1      -7.050  -6.991   8.777  1.00  0.00     0.039 A 
ENDROOT
BRANCH   2  11
ATOM     11  O   UNL     1      -5.682  -3.688   7.642  1.00  0.00    -0.389 OA
ATOM     12  H   UNL     1      -4.886  -3.981   7.126  1.00  0.00     0.211 HD
ENDBRANCH   2  11
BRANCH   3  13
ATOM     13  C   UNL     1      -8.538  -3.216   7.335  1.00  0.00    -0.001 A 
ATOM     14  C   UNL     1      -8.503  -1.878   7.764  1.00  0.00     0.057 A 
ATOM     15  C   UNL     1      -9.091  -3.517   6.078  1.00  0.00     0.012 A 
ATOM     16  C   UNL     1      -9.029  -0.857   6.958  1.00  0.00     0.157 A 
ATOM     17  C   UNL     1      -9.616  -2.502   5.276  1.00  0.00     0.050 A 
ATOM     18  C   UNL     1      -9.590  -1.173   5.709  1.00  0.00     0.157 A 
BRANCH  16  19
ATOM     19  O   UNL     1      -8.994   0.466   7.394  1.00  0.00    -0.504 OA
ATOM     20  H   UNL     1      -8.122   0.975   7.477  1.00  0.00     0.293 HD
ENDBRANCH  16  19
BRANCH  18  21
ATOM     21  O   UNL     1     -10.122  -0.181   4.886  1.00  0.00    -0.504 OA
ATOM     22  H   UNL     1     -10.817  -0.385   4.177  1.00  0.00     0.293 HD
ENDBRANCH  18  21
ENDBRANCH   3  13
BRANCH   9  23
ATOM     23  O   UNL     1      -5.335  -8.617   9.470  1.00  0.00    -0.507 OA
ATOM     24  H   UNL     1      -4.780  -9.187   8.844  1.00  0.00     0.293 HD
ENDBRANCH   9  23
BRANCH   7  25
ATOM     25  O   UNL     1      -9.951  -9.962   9.463  1.00  0.00    -0.508 OA
ATOM     26  H   UNL     1     -10.700 -10.132   8.802  1.00  0.00     0.293 HD
ENDBRANCH   7  25
TORSDOF 6
ENDMDL
MODEL 7
REMARK VINA RESULT:    -3.965     15.485     19.147
REMARK INTER + INTRA:          -5.143
REMARK INTER:                  -5.077
REMARK INTRA:                  -0.066
REMARK UNBOUND:                -0.366
REMARK SMILES Oc1cc(O)c2c(c1)O[C@H](c1ccc(O)c(O)c1)[C@@H](O)C2
REMARK SMILES IDX 21 1 19 2 10 3 9 4 7 5 8 6 2 7 3 8 4 9 6 10 20 11 11 13
REMARK SMILES IDX 18 14 12 15 16 16 13 17 14 18 17 19 15 21 5 23 1 25
REMARK H PARENT 20 12 17 20 15 22 5 24 1 26
REMARK Flexibility Score: inf
ROOT
ATOM      1  C   UNL     1       6.143  -9.734  -3.441  1.00  0.00     0.079 C 
ATOM      2  C   UNL     1       6.624  -9.261  -4.825  1.00  0.00     0.164 C 
ATOM      3  C   UNL     1       8.057  -9.761  -5.080  1.00  0.00     0.232 C 
ATOM      4  O   UNL     1       8.919  -9.310  -4.035  1.00  0.00    -0.482 OA
ATOM      5  C   UNL     1       8.512  -9.262  -2.698  1.00  0.00     0.131 A 
ATOM      6  C   UNL     1       9.462  -8.992  -1.709  1.00  0.00     0.093 A 
ATOM      7  C   UNL     1       9.086  -8.953  -0.363  1.00  0.00     0.122 A 
ATOM      8  C   UNL     1       7.759  -9.197  -0.006  1.00  0.00     0.092 A 
ATOM      9  C   UNL     1       6.794  -9.470  -0.982  1.00  0.00     0.126 A 
ATOM     10  C   UNL     1       7.159  -9.466  -2.350  1.00  0.00     0.039 A 
ENDROOT
BRANCH   2  11
ATOM     11  O   UNL     1       5.766  -9.756  -5.821  1.00  0.00    -0.389 OA
ATOM     12  H   UNL     1       5.031 -10.232  -5.353  1.00  0.00     0.211 HD
ENDBRANCH   2  11
BRANCH   3  13
ATOM     13  C   UNL     1       8.576  -9.277  -6.412  1.00  0.00    -0.001 A 
ATOM     14  C   UNL     1       8.201  -9.930  -7.599  1.00  0.00     0.057 A 
ATOM     15  C   UNL     1       9.400  -8.141  -6.488  1.00  0.00     0.012 A 
ATOM     16  C   UNL     1       8.657  -9.466  -8.842  1.00  0.00     0.157 A 
ATOM     17  C   UNL     1       9.856  -7.680  -7.725  1.00  0.00     0.050 A 
ATOM     18  C   UNL     1       9.491  -8.337  -8.903  1.00  0.00     0.157 A 
BRANCH  16  19
ATOM     19  O   UNL     1       8.284 -10.124 -10.013  1.00  0.00    -0.504 OA
ATOM     20  H   UNL     1       7.476  -9.833 -10.551  1.00  0.00     0.293 HD
ENDBRANCH  16  19
BRANCH  18  21
ATOM     21  O   UNL     1       9.962  -7.854 -10.123  1.00  0.00    -0.504 OA
ATOM     22  H   UNL     1      10.689  -7.149 -10.179  1.00  0.00     0.293 HD
ENDBRANCH  18  21
ENDBRANCH   3  13
BRANCH   9  23
ATOM     23  O   UNL     1       5.492  -9.750  -0.560  1.00  0.00    -0.507 OA
ATOM     24  H   UNL     1       4.971 -10.561  -0.867  1.00  0.00     0.293 HD
ENDBRANCH   9  23
BRANCH   7  25
ATOM     25  O   UNL     1      10.026  -8.683   0.629  1.00  0.00    -0.508 OA
ATOM     26  H   UNL     1      10.465  -7.772   0.710  1.00  0.00     0.293 HD
ENDBRANCH   7  25
TORSDOF 6
ENDMDL
MODEL 8
REMARK VINA RESULT:    -3.943     23.300     24.083
REMARK INTER + INTRA:          -5.116
REMARK INTER:                  -4.774
REMARK INTRA:                  -0.342
REMARK UNBOUND:                -0.366
REMARK SMILES Oc1cc(O)c2c(c1)O[C@H](c1ccc(O)c(O)c1)[C@@H](O)C2
REMARK SMILES IDX 21 1 19 2 10 3 9 4 7 5 8 6 2 7 3 8 4 9 6 10 20 11 11 13
REMARK SMILES IDX 18 14 12 15 16 16 13 17 14 18 17 19 15 21 5 23 1 25
REMARK H PARENT 20 12 17 20 15 22 5 24 1 26
REMARK Flexibility Score: inf
ROOT
ATOM      1  C   UNL     1      -2.666   5.466  -9.770  1.00  0.00     0.079 C 
ATOM      2  C   UNL     1      -3.914   6.117  -9.146  1.00  0.00     0.164 C 
ATOM      3  C   UNL     1      -4.068   7.557  -9.665  1.00  0.00     0.232 C 
ATOM      4  O   UNL     1      -2.883   8.302  -9.382  1.00  0.00    -0.482 OA
ATOM      5  C   UNL     1      -1.605   7.743  -9.488  1.00  0.00     0.131 A 
ATOM      6  C   UNL     1      -0.489   8.577  -9.381  1.00  0.00     0.093 A 
ATOM      7  C   UNL     1       0.800   8.047  -9.498  1.00  0.00     0.122 A 
ATOM      8  C   UNL     1       0.970   6.682  -9.734  1.00  0.00     0.092 A 
ATOM      9  C   UNL     1      -0.136   5.832  -9.844  1.00  0.00     0.126 A 
ATOM     10  C   UNL     1      -1.442   6.354  -9.682  1.00  0.00     0.039 A 
ENDROOT
BRANCH   2  11
ATOM     11  O   UNL     1      -5.056   5.370  -9.478  1.00  0.00    -0.389 OA
ATOM     12  H   UNL     1      -5.828   5.992  -9.431  1.00  0.00     0.211 HD
ENDBRANCH   2  11
BRANCH   3  13
ATOM     13  C   UNL     1      -5.259   8.240  -9.037  1.00  0.00    -0.001 A 
ATOM     14  C   UNL     1      -6.251   8.822  -9.845  1.00  0.00     0.057 A 
ATOM     15  C   UNL     1      -5.416   8.261  -7.641  1.00  0.00     0.012 A 
ATOM     16  C   UNL     1      -7.374   9.432  -9.268  1.00  0.00     0.157 A 
ATOM     17  C   UNL     1      -6.533   8.870  -7.064  1.00  0.00     0.050 A 
ATOM     18  C   UNL     1      -7.513   9.457  -7.870  1.00  0.00     0.157 A 
BRANCH  16  19
ATOM     19  O   UNL     1      -8.350  10.011 -10.078  1.00  0.00    -0.504 OA
ATOM     20  H   UNL     1      -9.162  10.471  -9.684  1.00  0.00     0.293 HD
ENDBRANCH  16  19
BRANCH  18  21
ATOM     21  O   UNL     1      -8.617  10.058  -7.266  1.00  0.00    -0.504 OA
ATOM     22  H   UNL     1      -9.525   9.607  -7.234  1.00  0.00     0.293 HD
ENDBRANCH  18  21
ENDBRANCH   3  13
BRANCH   9  23
ATOM     23  O   UNL     1       0.097   4.483 -10.125  1.00  0.00    -0.507 OA
ATOM     24  H   UNL     1       0.931   4.149 -10.591  1.00  0.00     0.293 HD
ENDBRANCH   9  23
BRANCH   7  25
ATOM     25  O   UNL     1       1.918   8.872  -9.392  1.00  0.00    -0.508 OA
ATOM     26  H   UNL     1       2.754   8.705  -9.940  1.00  0.00     0.293 HD
ENDBRANCH   7  25
TORSDOF 6
ENDMDL
