MODEL 1
REMARK VINA RESULT:    -3.915      0.000      0.000
REMARK INTER + INTRA:          -5.293
REMARK INTER:                  -5.059
REMARK INTRA:                  -0.233
REMARK UNBOUND:                -0.233
REMARK SMILES CCO[C@@H]1O[C@H](CO)[C@@H](O)[C@@H](O)[C@@H]1O
REMARK SMILES IDX 4 1 13 2 11 3 9 4 6 5 5 6 3 7 2 8 1 9 14 10 12 12 7 14 8 15
REMARK SMILES IDX 10 17
REMARK H PARENT 14 11 12 13 8 16 10 18
REMARK Flexibility Score: inf
ROOT
ATOM      1  C   UNL     1       7.181   6.644   2.678  1.00  0.00     0.281 C 
ATOM      2  C   UNL     1       8.690   6.473   2.309  1.00  0.00     0.202 C 
ATOM      3  C   UNL     1       9.141   5.015   2.508  1.00  0.00     0.179 C 
ATOM      4  C   UNL     1       8.240   4.062   1.686  1.00  0.00     0.177 C 
ATOM      5  C   UNL     1       6.773   4.580   1.654  1.00  0.00     0.178 C 
ATOM      6  O   UNL     1       6.514   5.390   2.787  1.00  0.00    -0.341 OA
ENDROOT
BRANCH   1   7
ATOM      7  O   UNL     1       7.069   7.323   3.916  1.00  0.00    -0.350 OA
BRANCH   7   8
ATOM      8  C   UNL     1       5.988   8.234   3.883  1.00  0.00     0.160 C 
ATOM      9  C   UNL     1       6.184   9.198   2.724  1.00  0.00     0.035 C 
ENDBRANCH   7   8
ENDBRANCH   1   7
BRANCH   2  10
ATOM     10  O   UNL     1       9.513   7.370   3.017  1.00  0.00    -0.385 OA
ATOM     11  H   UNL     1       9.344   8.282   2.664  1.00  0.00     0.211 HD
ENDBRANCH   2  10
BRANCH   3  12
ATOM     12  O   UNL     1      10.488   4.877   2.134  1.00  0.00    -0.387 OA
ATOM     13  H   UNL     1      10.825   5.792   1.944  1.00  0.00     0.211 HD
ENDBRANCH   3  12
BRANCH   5  14
ATOM     14  C   UNL     1       5.778   3.413   1.639  1.00  0.00     0.191 C 
BRANCH  14  15
ATOM     15  O   UNL     1       5.026   3.425   0.455  1.00  0.00    -0.394 OA
ATOM     16  H   UNL     1       4.290   2.770   0.579  1.00  0.00     0.210 HD
ENDBRANCH  14  15
ENDBRANCH   5  14
BRANCH   4  17
ATOM     17  O   UNL     1       8.732   3.956   0.374  1.00  0.00    -0.387 OA
ATOM     18  H   UNL     1       9.549   4.517   0.328  1.00  0.00     0.211 HD
ENDBRANCH   4  17
TORSDOF 7
ENDMDL
MODEL 2
REMARK VINA RESULT:    -3.831      2.244      3.433
REMARK INTER + INTRA:          -5.184
REMARK INTER:                  -4.720
REMARK INTRA:                  -0.464
REMARK UNBOUND:                -0.233
REMARK SMILES CCO[C@@H]1O[C@H](CO)[C@@H](O)[C@@H](O)[C@@H]1O
REMARK SMILES IDX 4 1 13 2 11 3 9 4 6 5 5 6 3 7 2 8 1 9 14 10 12 12 7 14 8 15
REMARK SMILES IDX 10 17
REMARK H PARENT 14 11 12 13 8 16 10 18
REMARK Flexibility Score: inf
ROOT
ATOM      1  C   UNL     1       8.546   5.269   3.095  1.00  0.00     0.281 C 
ATOM      2  C   UNL     1       8.685   5.193   1.540  1.00  0.00     0.202 C 
ATOM      3  C   UNL     1       8.345   3.782   1.027  1.00  0.00     0.179 C 
ATOM      4  C   UNL     1       6.928   3.372   1.494  1.00  0.00     0.177 C 
ATOM      5  C   UNL     1       6.630   3.938   2.913  1.00  0.00     0.178 C 
ATOM      6  O   UNL     1       7.838   4.149   3.621  1.00  0.00    -0.341 OA
ENDROOT
BRANCH   1   7
ATOM      7  O   UNL     1       9.832   5.307   3.686  1.00  0.00    -0.350 OA
BRANCH   7   8
ATOM      8  C   UNL     1      10.213   4.019   4.125  1.00  0.00     0.160 C 
ATOM      9  C   UNL     1      11.671   3.781   3.765  1.00  0.00     0.035 C 
ENDBRANCH   7   8
ENDBRANCH   1   7
BRANCH   2  10
ATOM     10  O   UNL     1       9.956   5.610   1.102  1.00  0.00    -0.385 OA
ATOM     11  H   UNL     1      10.060   6.569   1.338  1.00  0.00     0.211 HD
ENDBRANCH   2  10
BRANCH   3  12
ATOM     12  O   UNL     1       8.440   3.748  -0.373  1.00  0.00    -0.387 OA
ATOM     13  H   UNL     1       8.517   2.792  -0.630  1.00  0.00     0.211 HD
ENDBRANCH   3  12
BRANCH   5  14
ATOM     14  C   UNL     1       5.747   2.972   3.715  1.00  0.00     0.191 C 
BRANCH  14  15
ATOM     15  O   UNL     1       5.003   2.156   2.851  1.00  0.00    -0.394 OA
ATOM     16  H   UNL     1       5.655   1.711   2.248  1.00  0.00     0.210 HD
ENDBRANCH  14  15
ENDBRANCH   5  14
BRANCH   4  17
ATOM     17  O   UNL     1       5.970   3.852   0.585  1.00  0.00    -0.387 OA
ATOM     18  H   UNL     1       5.511   4.612   1.027  1.00  0.00     0.211 HD
ENDBRANCH   4  17
TORSDOF 7
ENDMDL
MODEL 3
REMARK VINA RESULT:    -3.751      1.927      4.142
REMARK INTER + INTRA:          -5.081
REMARK INTER:                  -4.584
REMARK INTRA:                  -0.497
REMARK UNBOUND:                -0.233
REMARK SMILES CCO[C@@H]1O[C@H](CO)[C@@H](O)[C@@H](O)[C@@H]1O
REMARK SMILES IDX 4 1 13 2 11 3 9 4 6 5 5 6 3 7 2 8 1 9 14 10 12 12 7 14 8 15
REMARK SMILES IDX 10 17
REMARK H PARENT 14 11 12 13 8 16 10 18
REMARK Flexibility Score: inf
ROOT
ATOM      1  C   UNL     1       7.553   3.327   3.877  1.00  0.00     0.281 C 
ATOM      2  C   UNL     1       8.396   3.124   2.577  1.00  0.00     0.202 C 
ATOM      3  C   UNL     1       7.844   3.983   1.425  1.00  0.00     0.179 C 
ATOM      4  C   UNL     1       7.795   5.471   1.847  1.00  0.00     0.177 C 
ATOM      5  C   UNL     1       7.437   5.605   3.355  1.00  0.00     0.178 C 
ATOM      6  O   UNL     1       6.708   4.471   3.790  1.00  0.00    -0.341 OA
ENDROOT
BRANCH   1   7
ATOM      7  O   UNL     1       6.745   2.186   4.103  1.00  0.00    -0.350 OA
BRANCH   7   8
ATOM      8  C   UNL     1       5.376   2.523   4.005  1.00  0.00     0.160 C 
ATOM      9  C   UNL     1       4.792   1.876   2.759  1.00  0.00     0.035 C 
ENDBRANCH   7   8
ENDBRANCH   1   7
BRANCH   2  10
ATOM     10  O   UNL     1       8.487   1.767   2.212  1.00  0.00    -0.385 OA
ATOM     11  H   UNL     1       8.410   1.223   3.040  1.00  0.00     0.211 HD
ENDBRANCH   2  10
BRANCH   3  12
ATOM     12  O   UNL     1       8.639   3.813   0.280  1.00  0.00    -0.387 OA
ATOM     13  H   UNL     1       8.615   2.845   0.058  1.00  0.00     0.211 HD
ENDBRANCH   3  12
BRANCH   5  14
ATOM     14  C   UNL     1       6.596   6.863   3.611  1.00  0.00     0.191 C 
BRANCH  14  15
ATOM     15  O   UNL     1       6.633   7.712   2.495  1.00  0.00    -0.394 OA
ATOM     16  H   UNL     1       6.025   7.317   1.816  1.00  0.00     0.210 HD
ENDBRANCH  14  15
ENDBRANCH   5  14
BRANCH   4  17
ATOM     17  O   UNL     1       9.039   6.076   1.602  1.00  0.00    -0.387 OA
ATOM     18  H   UNL     1       8.973   7.010   1.930  1.00  0.00     0.211 HD
ENDBRANCH   4  17
TORSDOF 7
ENDMDL
MODEL 4
REMARK VINA RESULT:    -3.522      3.861      5.994
REMARK INTER + INTRA:          -4.785
REMARK INTER:                  -4.399
REMARK INTRA:                  -0.386
REMARK UNBOUND:                -0.233
REMARK SMILES CCO[C@@H]1O[C@H](CO)[C@@H](O)[C@@H](O)[C@@H]1O
REMARK SMILES IDX 4 1 13 2 11 3 9 4 6 5 5 6 3 7 2 8 1 9 14 10 12 12 7 14 8 15
REMARK SMILES IDX 10 17
REMARK H PARENT 14 11 12 13 8 16 10 18
REMARK Flexibility Score: inf
ROOT
ATOM      1  C   UNL     1      13.281   6.796   2.079  1.00  0.00     0.281 C 
ATOM      2  C   UNL     1      12.791   5.322   2.254  1.00  0.00     0.202 C 
ATOM      3  C   UNL     1      11.454   5.276   3.016  1.00  0.00     0.179 C 
ATOM      4  C   UNL     1      10.398   6.147   2.293  1.00  0.00     0.177 C 
ATOM      5  C   UNL     1      11.061   7.405   1.662  1.00  0.00     0.178 C 
ATOM      6  O   UNL     1      12.249   7.737   2.359  1.00  0.00    -0.341 OA
ENDROOT
BRANCH   1   7
ATOM      7  O   UNL     1      14.366   7.043   2.955  1.00  0.00    -0.350 OA
BRANCH   7   8
ATOM      8  C   UNL     1      15.216   8.038   2.420  1.00  0.00     0.160 C 
ATOM      9  C   UNL     1      16.426   7.371   1.785  1.00  0.00     0.035 C 
ENDBRANCH   7   8
ENDBRANCH   1   7
BRANCH   2  10
ATOM     10  O   UNL     1      13.764   4.510   2.868  1.00  0.00    -0.385 OA
ATOM     11  H   UNL     1      14.538   5.086   3.101  1.00  0.00     0.211 HD
ENDBRANCH   2  10
BRANCH   3  12
ATOM     12  O   UNL     1      11.015   3.947   3.128  1.00  0.00    -0.387 OA
ATOM     13  H   UNL     1      10.454   3.764   2.329  1.00  0.00     0.211 HD
ENDBRANCH   3  12
BRANCH   5  14
ATOM     14  C   UNL     1      10.108   8.608   1.705  1.00  0.00     0.191 C 
BRANCH  14  15
ATOM     15  O   UNL     1       8.852   8.256   1.188  1.00  0.00    -0.394 OA
ATOM     16  H   UNL     1       8.991   7.447   0.630  1.00  0.00     0.210 HD
ENDBRANCH  14  15
ENDBRANCH   5  14
BRANCH   4  17
ATOM     17  O   UNL     1       9.767   5.393   1.290  1.00  0.00    -0.387 OA
ATOM     18  H   UNL     1       8.965   4.980   1.703  1.00  0.00     0.211 HD
ENDBRANCH   4  17
TORSDOF 7
ENDMDL
MODEL 5
REMARK VINA RESULT:    -3.444      9.706     11.701
REMARK INTER + INTRA:          -4.685
REMARK INTER:                  -4.325
REMARK INTRA:                  -0.360
REMARK UNBOUND:                -0.233
REMARK SMILES CCO[C@@H]1O[C@H](CO)[C@@H](O)[C@@H](O)[C@@H]1O
REMARK SMILES IDX 4 1 13 2 11 3 9 4 6 5 5 6 3 7 2 8 1 9 14 10 12 12 7 14 8 15
REMARK SMILES IDX 10 17
REMARK H PARENT 14 11 12 13 8 16 10 18
REMARK Flexibility Score: inf
ROOT
ATOM      1  C   UNL     1      17.605   8.091   1.472  1.00  0.00     0.281 C 
ATOM      2  C   UNL     1      18.610   9.130   2.066  1.00  0.00     0.202 C 
ATOM      3  C   UNL     1      19.787   8.420   2.758  1.00  0.00     0.179 C 
ATOM      4  C   UNL     1      20.482   7.454   1.769  1.00  0.00     0.177 C 
ATOM      5  C   UNL     1      19.443   6.803   0.812  1.00  0.00     0.178 C 
ATOM      6  O   UNL     1      18.163   6.781   1.419  1.00  0.00    -0.341 OA
ENDROOT
BRANCH   1   7
ATOM      7  O   UNL     1      16.436   8.051   2.271  1.00  0.00    -0.350 OA
BRANCH   7   8
ATOM      8  C   UNL     1      15.307   7.739   1.480  1.00  0.00     0.160 C 
ATOM      9  C   UNL     1      14.439   6.737   2.223  1.00  0.00     0.035 C 
ENDBRANCH   7   8
ENDBRANCH   1   7
BRANCH   2  10
ATOM     10  O   UNL     1      17.978  10.045   2.930  1.00  0.00    -0.385 OA
ATOM     11  H   UNL     1      18.259   9.832   3.858  1.00  0.00     0.211 HD
ENDBRANCH   2  10
BRANCH   3  12
ATOM     12  O   UNL     1      20.696   9.372   3.249  1.00  0.00    -0.387 OA
ATOM     13  H   UNL     1      20.167  10.185   3.464  1.00  0.00     0.211 HD
ENDBRANCH   3  12
BRANCH   5  14
ATOM     14  C   UNL     1      19.847   5.365   0.457  1.00  0.00     0.191 C 
BRANCH  14  15
ATOM     15  O   UNL     1      21.062   5.358  -0.244  1.00  0.00    -0.394 OA
ATOM     16  H   UNL     1      20.885   4.918  -1.116  1.00  0.00     0.210 HD
ENDBRANCH  14  15
ENDBRANCH   5  14
BRANCH   4  17
ATOM     17  O   UNL     1      21.442   8.152   1.017  1.00  0.00    -0.387 OA
ATOM     18  H   UNL     1      21.147   8.116   0.071  1.00  0.00     0.211 HD
ENDBRANCH   4  17
TORSDOF 7
ENDMDL
MODEL 6
REMARK VINA RESULT:    -3.432      2.277      4.995
REMARK INTER + INTRA:          -4.669
REMARK INTER:                  -4.476
REMARK INTRA:                  -0.193
REMARK UNBOUND:                -0.233
REMARK SMILES CCO[C@@H]1O[C@H](CO)[C@@H](O)[C@@H](O)[C@@H]1O
REMARK SMILES IDX 4 1 13 2 11 3 9 4 6 5 5 6 3 7 2 8 1 9 14 10 12 12 7 14 8 15
REMARK SMILES IDX 10 17
REMARK H PARENT 14 11 12 13 8 16 10 18
REMARK Flexibility Score: inf
ROOT
ATOM      1  C   UNL     1       7.526   2.654   2.982  1.00  0.00     0.281 C 
ATOM      2  C   UNL     1       7.048   3.809   2.044  1.00  0.00     0.202 C 
ATOM      3  C   UNL     1       7.658   5.154   2.477  1.00  0.00     0.179 C 
ATOM      4  C   UNL     1       9.202   5.051   2.514  1.00  0.00     0.177 C 
ATOM      5  C   UNL     1       9.649   3.638   2.986  1.00  0.00     0.178 C 
ATOM      6  O   UNL     1       8.638   3.043   3.782  1.00  0.00    -0.341 OA
ENDROOT
BRANCH   1   7
ATOM      7  O   UNL     1       6.467   2.268   3.839  1.00  0.00    -0.350 OA
BRANCH   7   8
ATOM      8  C   UNL     1       5.868   1.073   3.379  1.00  0.00     0.160 C 
ATOM      9  C   UNL     1       6.797  -0.094   3.671  1.00  0.00     0.035 C 
ENDBRANCH   7   8
ENDBRANCH   1   7
BRANCH   2  10
ATOM     10  O   UNL     1       5.643   3.880   1.967  1.00  0.00    -0.385 OA
ATOM     11  H   UNL     1       5.318   3.035   1.561  1.00  0.00     0.211 HD
ENDBRANCH   2  10
BRANCH   3  12
ATOM     12  O   UNL     1       7.245   6.170   1.599  1.00  0.00    -0.387 OA
ATOM     13  H   UNL     1       7.756   6.985   1.846  1.00  0.00     0.211 HD
ENDBRANCH   3  12
BRANCH   5  14
ATOM     14  C   UNL     1      10.944   3.716   3.806  1.00  0.00     0.191 C 
BRANCH  14  15
ATOM     15  O   UNL     1      11.985   4.243   3.027  1.00  0.00    -0.394 OA
ATOM     16  H   UNL     1      11.703   4.154   2.079  1.00  0.00     0.210 HD
ENDBRANCH  14  15
ENDBRANCH   5  14
BRANCH   4  17
ATOM     17  O   UNL     1       9.726   5.309   1.236  1.00  0.00    -0.387 OA
ATOM     18  H   UNL     1      10.116   6.221   1.265  1.00  0.00     0.211 HD
ENDBRANCH   4  17
TORSDOF 7
ENDMDL
MODEL 7
REMARK VINA RESULT:    -3.380      2.542      4.752
REMARK INTER + INTRA:          -4.601
REMARK INTER:                  -4.270
REMARK INTRA:                  -0.332
REMARK UNBOUND:                -0.233
REMARK SMILES CCO[C@@H]1O[C@H](CO)[C@@H](O)[C@@H](O)[C@@H]1O
REMARK SMILES IDX 4 1 13 2 11 3 9 4 6 5 5 6 3 7 2 8 1 9 14 10 12 12 7 14 8 15
REMARK SMILES IDX 10 17
REMARK H PARENT 14 11 12 13 8 16 10 18
REMARK Flexibility Score: inf
ROOT
ATOM      1  C   UNL     1       8.947   3.971   3.027  1.00  0.00     0.281 C 
ATOM      2  C   UNL     1       8.786   5.096   1.955  1.00  0.00     0.202 C 
ATOM      3  C   UNL     1       9.669   6.310   2.297  1.00  0.00     0.179 C 
ATOM      4  C   UNL     1      11.145   5.869   2.445  1.00  0.00     0.177 C 
ATOM      5  C   UNL     1      11.236   4.451   3.078  1.00  0.00     0.178 C 
ATOM      6  O   UNL     1      10.083   4.186   3.858  1.00  0.00    -0.341 OA
ENDROOT
BRANCH   1   7
ATOM      7  O   UNL     1       7.792   3.925   3.845  1.00  0.00    -0.350 OA
BRANCH   7   8
ATOM      8  C   UNL     1       7.253   2.618   3.868  1.00  0.00     0.160 C 
ATOM      9  C   UNL     1       5.878   2.635   3.220  1.00  0.00     0.035 C 
ENDBRANCH   7   8
ENDBRANCH   1   7
BRANCH   2  10
ATOM     10  O   UNL     1       7.440   5.470   1.778  1.00  0.00    -0.385 OA
ATOM     11  H   UNL     1       7.348   6.418   2.057  1.00  0.00     0.211 HD
ENDBRANCH   2  10
BRANCH   3  12
ATOM     12  O   UNL     1       9.537   7.291   1.301  1.00  0.00    -0.387 OA
ATOM     13  H   UNL     1       8.572   7.523   1.256  1.00  0.00     0.211 HD
ENDBRANCH   3  12
BRANCH   5  14
ATOM     14  C   UNL     1      12.478   4.325   3.970  1.00  0.00     0.191 C 
BRANCH  14  15
ATOM     15  O   UNL     1      13.626   4.134   3.187  1.00  0.00    -0.394 OA
ATOM     16  H   UNL     1      14.353   4.659   3.615  1.00  0.00     0.210 HD
ENDBRANCH  14  15
ENDBRANCH   5  14
BRANCH   4  17
ATOM     17  O   UNL     1      11.769   5.865   1.186  1.00  0.00    -0.387 OA
ATOM     18  H   UNL     1      12.731   5.681   1.344  1.00  0.00     0.211 HD
ENDBRANCH   4  17
TORSDOF 7
ENDMDL
MODEL 8
REMARK VINA RESULT:    -3.364      1.498      3.283
REMARK INTER + INTRA:          -4.581
REMARK INTER:                  -4.175
REMARK INTRA:                  -0.405
REMARK UNBOUND:                -0.233
REMARK SMILES CCO[C@@H]1O[C@H](CO)[C@@H](O)[C@@H](O)[C@@H]1O
REMARK SMILES IDX 4 1 13 2 11 3 9 4 6 5 5 6 3 7 2 8 1 9 14 10 12 12 7 14 8 15
REMARK SMILES IDX 10 17
REMARK H PARENT 14 11 12 13 8 16 10 18
REMARK Flexibility Score: inf
ROOT
ATOM      1  C   UNL     1       7.470   6.952   3.287  1.00  0.00     0.281 C 
ATOM      2  C   UNL     1       7.044   5.450   3.241  1.00  0.00     0.202 C 
ATOM      3  C   UNL     1       7.509   4.787   1.932  1.00  0.00     0.179 C 
ATOM      4  C   UNL     1       9.039   4.952   1.767  1.00  0.00     0.177 C 
ATOM      5  C   UNL     1       9.510   6.325   2.327  1.00  0.00     0.178 C 
ATOM      6  O   UNL     1       8.445   7.260   2.295  1.00  0.00    -0.341 OA
ENDROOT
BRANCH   1   7
ATOM      7  O   UNL     1       6.336   7.775   3.074  1.00  0.00    -0.350 OA
BRANCH   7   8
ATOM      8  C   UNL     1       6.559   8.652   1.989  1.00  0.00     0.160 C 
ATOM      9  C   UNL     1       5.791   9.942   2.225  1.00  0.00     0.035 C 
ENDBRANCH   7   8
ENDBRANCH   1   7
BRANCH   2  10
ATOM     10  O   UNL     1       5.659   5.286   3.439  1.00  0.00    -0.385 OA
ATOM     11  H   UNL     1       5.521   4.440   3.939  1.00  0.00     0.211 HD
ENDBRANCH   2  10
BRANCH   3  12
ATOM     12  O   UNL     1       7.149   3.430   1.930  1.00  0.00    -0.387 OA
ATOM     13  H   UNL     1       7.451   3.054   2.799  1.00  0.00     0.211 HD
ENDBRANCH   3  12
BRANCH   5  14
ATOM     14  C   UNL     1      10.683   6.881   1.508  1.00  0.00     0.191 C 
BRANCH  14  15
ATOM     15  O   UNL     1      10.988   6.019   0.444  1.00  0.00    -0.394 OA
ATOM     16  H   UNL     1      10.305   5.298   0.457  1.00  0.00     0.210 HD
ENDBRANCH  14  15
ENDBRANCH   5  14
BRANCH   4  17
ATOM     17  O   UNL     1       9.705   3.915   2.442  1.00  0.00    -0.387 OA
ATOM     18  H   UNL     1       9.077   3.148   2.479  1.00  0.00     0.211 HD
ENDBRANCH   4  17
TORSDOF 7
ENDMDL
MODEL 9
REMARK VINA RESULT:    -3.356      1.541      3.955
REMARK INTER + INTRA:          -4.571
REMARK INTER:                  -4.175
REMARK INTRA:                  -0.396
REMARK UNBOUND:                -0.233
REMARK SMILES CCO[C@@H]1O[C@H](CO)[C@@H](O)[C@@H](O)[C@@H]1O
REMARK SMILES IDX 4 1 13 2 11 3 9 4 6 5 5 6 3 7 2 8 1 9 14 10 12 12 7 14 8 15
REMARK SMILES IDX 10 17
REMARK H PARENT 14 11 12 13 8 16 10 18
REMARK Flexibility Score: inf
ROOT
ATOM      1  C   UNL     1       7.582   4.679   2.673  1.00  0.00     0.281 C 
ATOM      2  C   UNL     1       9.137   4.672   2.818  1.00  0.00     0.202 C 
ATOM      3  C   UNL     1       9.784   5.672   1.843  1.00  0.00     0.179 C 
ATOM      4  C   UNL     1       9.196   7.087   2.063  1.00  0.00     0.177 C 
ATOM      5  C   UNL     1       7.689   7.005   2.440  1.00  0.00     0.178 C 
ATOM      6  O   UNL     1       7.121   5.809   1.937  1.00  0.00    -0.341 OA
ENDROOT
BRANCH   1   7
ATOM      7  O   UNL     1       7.161   3.504   2.003  1.00  0.00    -0.350 OA
BRANCH   7   8
ATOM      8  C   UNL     1       5.952   3.736   1.309  1.00  0.00     0.160 C 
ATOM      9  C   UNL     1       4.827   2.983   2.001  1.00  0.00     0.035 C 
ENDBRANCH   7   8
ENDBRANCH   1   7
BRANCH   2  10
ATOM     10  O   UNL     1       9.677   3.380   2.667  1.00  0.00    -0.385 OA
ATOM     11  H   UNL     1       9.112   2.752   3.187  1.00  0.00     0.211 HD
ENDBRANCH   2  10
BRANCH   3  12
ATOM     12  O   UNL     1      11.177   5.676   2.018  1.00  0.00    -0.387 OA
ATOM     13  H   UNL     1      11.344   5.496   2.980  1.00  0.00     0.211 HD
ENDBRANCH   3  12
BRANCH   5  14
ATOM     14  C   UNL     1       6.914   8.201   1.870  1.00  0.00     0.191 C 
BRANCH  14  15
ATOM     15  O   UNL     1       7.793   9.108   1.260  1.00  0.00    -0.394 OA
ATOM     16  H   UNL     1       8.529   8.570   0.867  1.00  0.00     0.210 HD
ENDBRANCH  14  15
ENDBRANCH   5  14
BRANCH   4  17
ATOM     17  O   UNL     1       9.903   7.741   3.085  1.00  0.00    -0.387 OA
ATOM     18  H   UNL     1      10.835   7.400   3.054  1.00  0.00     0.211 HD
ENDBRANCH   4  17
TORSDOF 7
ENDMDL
