MODEL 1
REMARK VINA RESULT:    67.920      0.000      0.000
REMARK INTER + INTRA:          74.278
REMARK INTER:                  73.876
REMARK INTRA:                   0.402
REMARK UNBOUND:                 0.402
REMARK SMILES C[C@@H]1[C@H](C)CC[C@@]2(C(=O)[O-])CC[C@@]3(C)C(=CC[C@@H]4[C@@]5(C)CC[C@@H](O)C(C)(C)[C@@H]5CC[C@@]43C)[C@@H]12
REMARK SMILES IDX 7 1 6 2 11 3 33 4 5 5 12 6 15 7 2 8 3 9 13 10 16 11 1 12
REMARK SMILES IDX 4 13 14 14 31 15 17 16 18 17 30 18 32 19 19 20 29 21 28 22
REMARK SMILES IDX 21 23 20 24 25 25 22 26 23 27 26 28 27 29 8 30 9 31 10 32
REMARK SMILES IDX 24 33
REMARK H PARENT 24 34
REMARK Flexibility Score: inf
ROOT
ATOM      1  C   UNL     1      34.328  35.750   5.605  1.00  0.00     0.017 C 
ATOM      2  C   UNL     1      33.975  34.530   6.521  1.00  0.00     0.014 C 
ATOM      3  C   UNL     1      33.628  37.019   6.158  1.00  0.00     0.014 C 
ATOM      4  C   UNL     1      35.873  36.021   5.543  1.00  0.00     0.030 C 
ATOM      5  C   UNL     1      35.197  33.724   6.968  1.00  0.00     0.004 C 
ATOM      6  C   UNL     1      33.930  38.300   5.347  1.00  0.00     0.013 C 
ATOM      7  C   UNL     1      36.130  37.333   4.765  1.00  0.00    -0.063 C 
ATOM      8  C   UNL     1      36.618  35.896   6.914  1.00  0.00    -0.003 C 
ATOM      9  C   UNL     1      36.176  34.625   7.740  1.00  0.00    -0.011 C 
ATOM     10  C   UNL     1      35.457  38.659   5.187  1.00  0.00    -0.006 C 
ATOM     11  C   UNL     1      36.636  37.172   3.534  1.00  0.00    -0.027 C 
ATOM     12  C   UNL     1      38.143  36.002   6.686  1.00  0.00     0.008 C 
ATOM     13  C   UNL     1      37.318  33.766   8.314  1.00  0.00     0.008 C 
ATOM     14  C   UNL     1      36.008  39.112   6.581  1.00  0.00     0.017 C 
ATOM     15  C   UNL     1      35.683  39.883   4.125  1.00  0.00    -0.020 C 
ATOM     16  C   UNL     1      36.636  38.201   2.468  1.00  0.00     0.032 C 
ATOM     17  C   UNL     1      35.613  39.371   2.627  1.00  0.00     0.006 C 
ATOM     18  C   UNL     1      37.107  40.562   4.303  1.00  0.00     0.008 C 
ATOM     19  C   UNL     1      34.546  40.937   4.427  1.00  0.00     0.012 C 
ATOM     20  C   UNL     1      35.838  40.508   1.484  1.00  0.00    -0.025 C 
ATOM     21  C   UNL     1      37.730  41.271   3.053  1.00  0.00     0.005 C 
ATOM     22  C   UNL     1      36.645  41.726   2.061  1.00  0.00     0.003 C 
ATOM     23  C   UNL     1      34.483  41.083   0.977  1.00  0.00     0.010 C 
ATOM     24  C   UNL     1      36.535  39.865   0.235  1.00  0.00     0.012 C 
ATOM     25  C   UNL     1      36.936  42.927   1.079  1.00  0.00    -0.006 C 
ATOM     26  C   UNL     1      34.653  42.249  -0.035  1.00  0.00     0.033 C 
ATOM     27  C   UNL     1      35.557  43.400   0.473  1.00  0.00     0.120 C 
ATOM     28  C   UNL     1      37.541  44.125   1.871  1.00  0.00     0.014 C 
ATOM     29  C   UNL     1      37.957  42.591  -0.043  1.00  0.00     0.014 C 
ENDROOT
BRANCH   1  30
ATOM     30  C   UNL     1      33.791  35.439   4.207  1.00  0.00     0.048 C 
ATOM     31  O   UNL     1      33.654  34.246   3.824  1.00  0.00    -0.550 OA
ATOM     32  O   UNL     1      33.330  36.459   3.382  1.00  0.00    -0.550 OA
ENDBRANCH   1  30
BRANCH  27  33
ATOM     33  O   UNL     1      34.828  44.125   1.435  1.00  0.00    -0.393 OA
ATOM     34  H   UNL     1      33.865  44.025   1.214  1.00  0.00     0.210 HD
ENDBRANCH  27  33
TORSDOF 2
ENDMDL
