MODEL 1
REMARK VINA RESULT:    -5.352      0.000      0.000
REMARK INTER + INTRA:          -7.696
REMARK INTER:                  -6.916
REMARK INTRA:                  -0.780
REMARK UNBOUND:                -0.780
REMARK SMILES CO[C@@]1(CO)O[C@H](CO)[C@H](O)[C@H]1O
REMARK SMILES IDX 3 1 12 2 10 3 7 4 6 5 2 6 1 7 4 8 5 9 13 11 11 13 8 15 9 16
REMARK H PARENT 5 10 13 12 11 14 9 17
REMARK Flexibility Score: inf
ROOT
ATOM      1  C   UNL     1      11.698 -11.480  36.053  1.00  0.00     0.221 C 
ATOM      2  C   UNL     1      11.948 -11.950  37.505  1.00  0.00     0.207 C 
ATOM      3  C   UNL     1      10.557 -12.109  38.076  1.00  0.00     0.180 C 
ATOM      4  C   UNL     1       9.730 -12.398  36.823  1.00  0.00     0.179 C 
ATOM      5  O   UNL     1      10.364 -11.827  35.700  1.00  0.00    -0.337 OA
ENDROOT
BRANCH   1   6
ATOM      6  O   UNL     1      12.656 -12.098  35.194  1.00  0.00    -0.349 OA
ATOM      7  C   UNL     1      13.627 -11.192  34.709  1.00  0.00     0.198 C 
ENDBRANCH   1   6
BRANCH   1   8
ATOM      8  C   UNL     1      11.841  -9.943  35.962  1.00  0.00     0.224 C 
BRANCH   8   9
ATOM      9  O   UNL     1      10.584  -9.331  36.060  1.00  0.00    -0.391 OA
ATOM     10  H   UNL     1      10.737  -8.361  35.917  1.00  0.00     0.210 HD
ENDBRANCH   8   9
ENDBRANCH   1   8
BRANCH   2  11
ATOM     11  O   UNL     1      12.651 -13.173  37.555  1.00  0.00    -0.385 OA
ATOM     12  H   UNL     1      12.120 -13.817  38.094  1.00  0.00     0.211 HD
ENDBRANCH   2  11
BRANCH   3  13
ATOM     13  O   UNL     1      10.150 -10.917  38.699  1.00  0.00    -0.387 OA
ATOM     14  H   UNL     1       9.203 -11.045  38.967  1.00  0.00     0.211 HD
ENDBRANCH   3  13
BRANCH   4  15
ATOM     15  C   UNL     1       8.267 -11.934  36.908  1.00  0.00     0.191 C 
BRANCH  15  16
ATOM     16  O   UNL     1       8.128 -10.598  36.496  1.00  0.00    -0.394 OA
ATOM     17  H   UNL     1       7.750 -10.098  37.266  1.00  0.00     0.210 HD
ENDBRANCH  15  16
ENDBRANCH   4  15
TORSDOF 7
ENDMDL
MODEL 2
REMARK VINA RESULT:    -5.316      1.439      1.916
REMARK INTER + INTRA:          -7.649
REMARK INTER:                  -7.059
REMARK INTRA:                  -0.590
REMARK UNBOUND:                -0.780
REMARK SMILES CO[C@@]1(CO)O[C@H](CO)[C@H](O)[C@H]1O
REMARK SMILES IDX 3 1 12 2 10 3 7 4 6 5 2 6 1 7 4 8 5 9 13 11 11 13 8 15 9 16
REMARK H PARENT 5 10 13 12 11 14 9 17
REMARK Flexibility Score: inf
ROOT
ATOM      1  C   UNL     1      11.027 -11.677  36.100  1.00  0.00     0.221 C 
ATOM      2  C   UNL     1      10.179 -11.433  37.370  1.00  0.00     0.207 C 
ATOM      3  C   UNL     1       8.772 -11.776  36.935  1.00  0.00     0.180 C 
ATOM      4  C   UNL     1       9.024 -12.778  35.808  1.00  0.00     0.179 C 
ATOM      5  O   UNL     1      10.289 -12.531  35.234  1.00  0.00    -0.337 OA
ENDROOT
BRANCH   1   6
ATOM      6  O   UNL     1      12.276 -12.253  36.481  1.00  0.00    -0.349 OA
ATOM      7  C   UNL     1      12.767 -13.182  35.535  1.00  0.00     0.198 C 
ENDBRANCH   1   6
BRANCH   1   8
ATOM      8  C   UNL     1      11.279 -10.340  35.366  1.00  0.00     0.224 C 
BRANCH   8   9
ATOM      9  O   UNL     1      10.701  -9.279  36.076  1.00  0.00    -0.391 OA
ATOM     10  H   UNL     1      10.927  -9.429  37.031  1.00  0.00     0.210 HD
ENDBRANCH   8   9
ENDBRANCH   1   8
BRANCH   2  11
ATOM     11  O   UNL     1      10.583 -12.252  38.446  1.00  0.00    -0.385 OA
ATOM     12  H   UNL     1       9.933 -12.136  39.188  1.00  0.00     0.211 HD
ENDBRANCH   2  11
BRANCH   3  13
ATOM     13  O   UNL     1       8.116 -10.625  36.466  1.00  0.00    -0.387 OA
ATOM     14  H   UNL     1       8.146 -10.665  35.475  1.00  0.00     0.211 HD
ENDBRANCH   3  13
BRANCH   4  15
ATOM     15  C   UNL     1       7.935 -12.797  34.722  1.00  0.00     0.191 C 
BRANCH  15  16
ATOM     16  O   UNL     1       8.029 -11.675  33.882  1.00  0.00    -0.394 OA
ATOM     17  H   UNL     1       7.496 -11.879  33.070  1.00  0.00     0.210 HD
ENDBRANCH  15  16
ENDBRANCH   4  15
TORSDOF 7
ENDMDL
MODEL 3
REMARK VINA RESULT:    -5.316      1.433      3.567
REMARK INTER + INTRA:          -7.649
REMARK INTER:                  -7.031
REMARK INTRA:                  -0.618
REMARK UNBOUND:                -0.780
REMARK SMILES CO[C@@]1(CO)O[C@H](CO)[C@H](O)[C@H]1O
REMARK SMILES IDX 3 1 12 2 10 3 7 4 6 5 2 6 1 7 4 8 5 9 13 11 11 13 8 15 9 16
REMARK H PARENT 5 10 13 12 11 14 9 17
REMARK Flexibility Score: inf
ROOT
ATOM      1  C   UNL     1       9.832 -12.230  37.096  1.00  0.00     0.221 C 
ATOM      2  C   UNL     1      10.250 -11.615  35.739  1.00  0.00     0.207 C 
ATOM      3  C   UNL     1      11.278 -10.573  36.117  1.00  0.00     0.180 C 
ATOM      4  C   UNL     1      11.833 -11.135  37.426  1.00  0.00     0.179 C 
ATOM      5  O   UNL     1      10.854 -11.942  38.043  1.00  0.00    -0.337 OA
ENDROOT
BRANCH   1   6
ATOM      6  O   UNL     1       9.639 -13.634  36.928  1.00  0.00    -0.349 OA
ATOM      7  C   UNL     1       9.891 -14.370  38.108  1.00  0.00     0.198 C 
ENDBRANCH   1   6
BRANCH   1   8
ATOM      8  C   UNL     1       8.517 -11.583  37.587  1.00  0.00     0.224 C 
BRANCH   8   9
ATOM      9  O   UNL     1       8.004 -10.720  36.610  1.00  0.00    -0.391 OA
ATOM     10  H   UNL     1       8.666 -10.716  35.870  1.00  0.00     0.210 HD
ENDBRANCH   8   9
ENDBRANCH   1   8
BRANCH   2  11
ATOM     11  O   UNL     1      10.809 -12.576  34.868  1.00  0.00    -0.385 OA
ATOM     12  H   UNL     1      10.361 -13.446  35.036  1.00  0.00     0.211 HD
ENDBRANCH   2  11
BRANCH   3  13
ATOM     13  O   UNL     1      10.658  -9.328  36.311  1.00  0.00    -0.387 OA
ATOM     14  H   UNL     1      10.733  -9.121  37.279  1.00  0.00     0.211 HD
ENDBRANCH   3  13
BRANCH   4  15
ATOM     15  C   UNL     1      12.346 -10.068  38.407  1.00  0.00     0.191 C 
BRANCH  15  16
ATOM     16  O   UNL     1      11.289  -9.472  39.116  1.00  0.00    -0.394 OA
ATOM     17  H   UNL     1      11.025  -8.662  38.608  1.00  0.00     0.210 HD
ENDBRANCH  15  16
ENDBRANCH   4  15
TORSDOF 7
ENDMDL
MODEL 4
REMARK VINA RESULT:    -5.300      1.582      3.791
REMARK INTER + INTRA:          -7.629
REMARK INTER:                  -6.896
REMARK INTRA:                  -0.733
REMARK UNBOUND:                -0.780
REMARK SMILES CO[C@@]1(CO)O[C@H](CO)[C@H](O)[C@H]1O
REMARK SMILES IDX 3 1 12 2 10 3 7 4 6 5 2 6 1 7 4 8 5 9 13 11 11 13 8 15 9 16
REMARK H PARENT 5 10 13 12 11 14 9 17
REMARK Flexibility Score: inf
ROOT
ATOM      1  C   UNL     1       9.387 -12.530  37.179  1.00  0.00     0.221 C 
ATOM      2  C   UNL     1       9.772 -13.218  35.847  1.00  0.00     0.207 C 
ATOM      3  C   UNL     1      10.702 -12.227  35.186  1.00  0.00     0.180 C 
ATOM      4  C   UNL     1      11.283 -11.484  36.390  1.00  0.00     0.179 C 
ATOM      5  O   UNL     1      10.367 -11.537  37.461  1.00  0.00    -0.337 OA
ENDROOT
BRANCH   1   6
ATOM      6  O   UNL     1       9.316 -13.517  38.206  1.00  0.00    -0.349 OA
ATOM      7  C   UNL     1       7.990 -13.814  38.595  1.00  0.00     0.198 C 
ENDBRANCH   1   6
BRANCH   1   8
ATOM      8  C   UNL     1       8.015 -11.833  37.038  1.00  0.00     0.224 C 
BRANCH   8   9
ATOM      9  O   UNL     1       8.175 -10.543  36.511  1.00  0.00    -0.391 OA
ATOM     10  H   UNL     1       7.697  -9.931  37.129  1.00  0.00     0.210 HD
ENDBRANCH   8   9
ENDBRANCH   1   8
BRANCH   2  11
ATOM     11  O   UNL     1      10.422 -14.453  36.054  1.00  0.00    -0.385 OA
ATOM     12  H   UNL     1      10.415 -14.957  35.199  1.00  0.00     0.211 HD
ENDBRANCH   2  11
BRANCH   3  13
ATOM     13  O   UNL     1       9.976 -11.364  34.348  1.00  0.00    -0.387 OA
ATOM     14  H   UNL     1      10.509 -10.530  34.268  1.00  0.00     0.211 HD
ENDBRANCH   3  13
BRANCH   4  15
ATOM     15  C   UNL     1      11.689 -10.029  36.101  1.00  0.00     0.191 C 
BRANCH  15  16
ATOM     16  O   UNL     1      10.576  -9.173  36.121  1.00  0.00    -0.394 OA
ATOM     17  H   UNL     1      10.534  -8.738  35.230  1.00  0.00     0.210 HD
ENDBRANCH  15  16
ENDBRANCH   4  15
TORSDOF 7
ENDMDL
MODEL 5
REMARK VINA RESULT:    -5.167      2.318      4.188
REMARK INTER + INTRA:          -7.458
REMARK INTER:                  -7.031
REMARK INTRA:                  -0.427
REMARK UNBOUND:                -0.780
REMARK SMILES CO[C@@]1(CO)O[C@H](CO)[C@H](O)[C@H]1O
REMARK SMILES IDX 3 1 12 2 10 3 7 4 6 5 2 6 1 7 4 8 5 9 13 11 11 13 8 15 9 16
REMARK H PARENT 5 10 13 12 11 14 9 17
REMARK Flexibility Score: inf
ROOT
ATOM      1  C   UNL     1       9.519 -13.732  37.433  1.00  0.00     0.221 C 
ATOM      2  C   UNL     1      10.224 -12.361  37.297  1.00  0.00     0.207 C 
ATOM      3  C   UNL     1       9.780 -11.861  35.942  1.00  0.00     0.180 C 
ATOM      4  C   UNL     1       8.433 -12.565  35.769  1.00  0.00     0.179 C 
ATOM      5  O   UNL     1       8.428 -13.759  36.521  1.00  0.00    -0.337 OA
ENDROOT
BRANCH   1   6
ATOM      6  O   UNL     1       9.090 -13.900  38.784  1.00  0.00    -0.349 OA
ATOM      7  C   UNL     1       7.725 -14.249  38.890  1.00  0.00     0.198 C 
ENDBRANCH   1   6
BRANCH   1   8
ATOM      8  C   UNL     1      10.495 -14.869  37.057  1.00  0.00     0.224 C 
BRANCH   8   9
ATOM      9  O   UNL     1      10.397 -15.164  35.690  1.00  0.00    -0.391 OA
ATOM     10  H   UNL     1      10.692 -14.347  35.210  1.00  0.00     0.210 HD
ENDBRANCH   8   9
ENDBRANCH   1   8
BRANCH   2  11
ATOM     11  O   UNL     1       9.838 -11.461  38.314  1.00  0.00    -0.385 OA
ATOM     12  H   UNL     1       8.875 -11.249  38.194  1.00  0.00     0.211 HD
ENDBRANCH   2  11
BRANCH   3  13
ATOM     13  O   UNL     1      10.699 -12.255  34.955  1.00  0.00    -0.387 OA
ATOM     14  H   UNL     1      10.176 -12.406  34.124  1.00  0.00     0.211 HD
ENDBRANCH   3  13
BRANCH   4  15
ATOM     15  C   UNL     1       8.049 -12.849  34.307  1.00  0.00     0.191 C 
BRANCH  15  16
ATOM     16  O   UNL     1       7.894 -11.659  33.578  1.00  0.00    -0.394 OA
ATOM     17  H   UNL     1       7.998 -11.894  32.619  1.00  0.00     0.210 HD
ENDBRANCH  15  16
ENDBRANCH   4  15
TORSDOF 7
ENDMDL
MODEL 6
REMARK VINA RESULT:    -5.162      1.747      4.284
REMARK INTER + INTRA:          -7.450
REMARK INTER:                  -6.703
REMARK INTRA:                  -0.748
REMARK UNBOUND:                -0.780
REMARK SMILES CO[C@@]1(CO)O[C@H](CO)[C@H](O)[C@H]1O
REMARK SMILES IDX 3 1 12 2 10 3 7 4 6 5 2 6 1 7 4 8 5 9 13 11 11 13 8 15 9 16
REMARK H PARENT 5 10 13 12 11 14 9 17
REMARK Flexibility Score: inf
ROOT
ATOM      1  C   UNL     1       9.613 -13.097  36.859  1.00  0.00     0.221 C 
ATOM      2  C   UNL     1       9.952 -11.627  37.205  1.00  0.00     0.207 C 
ATOM      3  C   UNL     1      11.463 -11.609  37.257  1.00  0.00     0.180 C 
ATOM      4  C   UNL     1      11.827 -12.758  36.316  1.00  0.00     0.179 C 
ATOM      5  O   UNL     1      10.771 -13.693  36.286  1.00  0.00    -0.337 OA
ENDROOT
BRANCH   1   6
ATOM      6  O   UNL     1       8.503 -13.117  35.963  1.00  0.00    -0.349 OA
ATOM      7  C   UNL     1       7.294 -13.491  36.591  1.00  0.00     0.198 C 
ENDBRANCH   1   6
BRANCH   1   8
ATOM      8  C   UNL     1       9.252 -13.873  38.145  1.00  0.00     0.224 C 
BRANCH   8   9
ATOM      9  O   UNL     1      10.351 -14.622  38.588  1.00  0.00    -0.391 OA
ATOM     10  H   UNL     1      10.285 -15.503  38.137  1.00  0.00     0.210 HD
ENDBRANCH   8   9
ENDBRANCH   1   8
BRANCH   2  11
ATOM     11  O   UNL     1       9.475 -10.726  36.229  1.00  0.00    -0.385 OA
ATOM     12  H   UNL     1       9.587  -9.802  36.575  1.00  0.00     0.211 HD
ENDBRANCH   2  11
BRANCH   3  13
ATOM     13  O   UNL     1      11.906 -11.855  38.568  1.00  0.00    -0.387 OA
ATOM     14  H   UNL     1      11.472 -11.175  39.147  1.00  0.00     0.211 HD
ENDBRANCH   3  13
BRANCH   4  15
ATOM     15  C   UNL     1      13.155 -13.458  36.654  1.00  0.00     0.191 C 
BRANCH  15  16
ATOM     16  O   UNL     1      13.052 -14.209  37.836  1.00  0.00    -0.394 OA
ATOM     17  H   UNL     1      12.698 -15.100  37.580  1.00  0.00     0.210 HD
ENDBRANCH  15  16
ENDBRANCH   4  15
TORSDOF 7
ENDMDL
MODEL 7
REMARK VINA RESULT:    -5.159      1.675      3.972
REMARK INTER + INTRA:          -7.446
REMARK INTER:                  -6.760
REMARK INTRA:                  -0.686
REMARK UNBOUND:                -0.780
REMARK SMILES CO[C@@]1(CO)O[C@H](CO)[C@H](O)[C@H]1O
REMARK SMILES IDX 3 1 12 2 10 3 7 4 6 5 2 6 1 7 4 8 5 9 13 11 11 13 8 15 9 16
REMARK H PARENT 5 10 13 12 11 14 9 17
REMARK Flexibility Score: inf
ROOT
ATOM      1  C   UNL     1       9.683 -12.673  35.604  1.00  0.00     0.221 C 
ATOM      2  C   UNL     1       9.243 -11.729  36.748  1.00  0.00     0.207 C 
ATOM      3  C   UNL     1      10.498 -11.557  37.574  1.00  0.00     0.180 C 
ATOM      4  C   UNL     1      11.596 -11.789  36.536  1.00  0.00     0.179 C 
ATOM      5  O   UNL     1      11.101 -12.617  35.506  1.00  0.00    -0.337 OA
ENDROOT
BRANCH   1   6
ATOM      6  O   UNL     1       9.048 -12.260  34.394  1.00  0.00    -0.349 OA
ATOM      7  C   UNL     1       7.981 -13.107  34.015  1.00  0.00     0.198 C 
ENDBRANCH   1   6
BRANCH   1   8
ATOM      8  C   UNL     1       9.275 -14.127  35.930  1.00  0.00     0.224 C 
BRANCH   8   9
ATOM      9  O   UNL     1      10.401 -14.961  35.930  1.00  0.00    -0.391 OA
ATOM     10  H   UNL     1      11.081 -14.507  36.492  1.00  0.00     0.210 HD
ENDBRANCH   8   9
ENDBRANCH   1   8
BRANCH   2  11
ATOM     11  O   UNL     1       8.787 -10.484  36.266  1.00  0.00    -0.385 OA
ATOM     12  H   UNL     1       9.520  -9.822  36.368  1.00  0.00     0.211 HD
ENDBRANCH   2  11
BRANCH   3  13
ATOM     13  O   UNL     1      10.541 -12.520  38.596  1.00  0.00    -0.387 OA
ATOM     14  H   UNL     1      11.491 -12.594  38.877  1.00  0.00     0.211 HD
ENDBRANCH   3  13
BRANCH   4  15
ATOM     15  C   UNL     1      12.900 -12.368  37.111  1.00  0.00     0.191 C 
BRANCH  15  16
ATOM     16  O   UNL     1      12.743 -13.713  37.484  1.00  0.00    -0.394 OA
ATOM     17  H   UNL     1      12.537 -14.219  36.655  1.00  0.00     0.210 HD
ENDBRANCH  15  16
ENDBRANCH   4  15
TORSDOF 7
ENDMDL
MODEL 8
REMARK VINA RESULT:    -5.108      1.662      3.395
REMARK INTER + INTRA:          -7.381
REMARK INTER:                  -6.614
REMARK INTRA:                  -0.767
REMARK UNBOUND:                -0.780
REMARK SMILES CO[C@@]1(CO)O[C@H](CO)[C@H](O)[C@H]1O
REMARK SMILES IDX 3 1 12 2 10 3 7 4 6 5 2 6 1 7 4 8 5 9 13 11 11 13 8 15 9 16
REMARK H PARENT 5 10 13 12 11 14 9 17
REMARK Flexibility Score: inf
ROOT
ATOM      1  C   UNL     1      11.487 -11.410  37.618  1.00  0.00     0.221 C 
ATOM      2  C   UNL     1      10.778 -11.169  36.264  1.00  0.00     0.207 C 
ATOM      3  C   UNL     1       9.670 -12.197  36.249  1.00  0.00     0.180 C 
ATOM      4  C   UNL     1       9.413 -12.408  37.742  1.00  0.00     0.179 C 
ATOM      5  O   UNL     1      10.587 -12.114  38.467  1.00  0.00    -0.337 OA
ENDROOT
BRANCH   1   6
ATOM      6  O   UNL     1      11.868 -10.151  38.172  1.00  0.00    -0.349 OA
ATOM      7  C   UNL     1      12.863 -10.266  39.169  1.00  0.00     0.198 C 
ENDBRANCH   1   6
BRANCH   1   8
ATOM      8  C   UNL     1      12.744 -12.284  37.410  1.00  0.00     0.224 C 
BRANCH   8   9
ATOM      9  O   UNL     1      12.484 -13.610  37.783  1.00  0.00    -0.391 OA
ATOM     10  H   UNL     1      13.332 -14.107  37.645  1.00  0.00     0.210 HD
ENDBRANCH   8   9
ENDBRANCH   1   8
BRANCH   2  11
ATOM     11  O   UNL     1      10.251  -9.864  36.163  1.00  0.00    -0.385 OA
ATOM     12  H   UNL     1       9.920  -9.591  37.059  1.00  0.00     0.211 HD
ENDBRANCH   2  11
BRANCH   3  13
ATOM     13  O   UNL     1      10.112 -13.378  35.629  1.00  0.00    -0.387 OA
ATOM     14  H   UNL     1       9.523 -14.108  35.956  1.00  0.00     0.211 HD
ENDBRANCH   3  13
BRANCH   4  15
ATOM     15  C   UNL     1       8.895 -13.810  38.104  1.00  0.00     0.191 C 
BRANCH  15  16
ATOM     16  O   UNL     1       9.953 -14.703  38.338  1.00  0.00    -0.394 OA
ATOM     17  H   UNL     1       9.615 -15.388  38.973  1.00  0.00     0.210 HD
ENDBRANCH  15  16
ENDBRANCH   4  15
TORSDOF 7
ENDMDL
MODEL 9
REMARK VINA RESULT:    -5.051      1.661      3.833
REMARK INTER + INTRA:          -7.308
REMARK INTER:                  -6.566
REMARK INTRA:                  -0.742
REMARK UNBOUND:                -0.780
REMARK SMILES CO[C@@]1(CO)O[C@H](CO)[C@H](O)[C@H]1O
REMARK SMILES IDX 3 1 12 2 10 3 7 4 6 5 2 6 1 7 4 8 5 9 13 11 11 13 8 15 9 16
REMARK H PARENT 5 10 13 12 11 14 9 17
REMARK Flexibility Score: inf
ROOT
ATOM      1  C   UNL     1      10.582 -12.715  36.537  1.00  0.00     0.221 C 
ATOM      2  C   UNL     1       9.947 -11.863  35.412  1.00  0.00     0.207 C 
ATOM      3  C   UNL     1      11.086 -10.992  34.933  1.00  0.00     0.180 C 
ATOM      4  C   UNL     1      12.306 -11.847  35.277  1.00  0.00     0.179 C 
ATOM      5  O   UNL     1      11.993 -12.697  36.359  1.00  0.00    -0.337 OA
ENDROOT
BRANCH   1   6
ATOM      6  O   UNL     1      10.052 -14.038  36.470  1.00  0.00    -0.349 OA
ATOM      7  C   UNL     1      11.038 -15.037  36.639  1.00  0.00     0.198 C 
ENDBRANCH   1   6
BRANCH   1   8
ATOM      8  C   UNL     1      10.257 -12.098  37.916  1.00  0.00     0.224 C 
BRANCH   8   9
ATOM      9  O   UNL     1      11.439 -11.752  38.586  1.00  0.00    -0.391 OA
ATOM     10  H   UNL     1      11.235 -11.815  39.555  1.00  0.00     0.210 HD
ENDBRANCH   8   9
ENDBRANCH   1   8
BRANCH   2  11
ATOM     11  O   UNL     1       9.448 -12.659  34.358  1.00  0.00    -0.385 OA
ATOM     12  H   UNL     1      10.072 -13.419  34.219  1.00  0.00     0.211 HD
ENDBRANCH   2  11
BRANCH   3  13
ATOM     13  O   UNL     1      11.094  -9.775  35.635  1.00  0.00    -0.387 OA
ATOM     14  H   UNL     1      11.199  -9.057  34.958  1.00  0.00     0.211 HD
ENDBRANCH   3  13
BRANCH   4  15
ATOM     15  C   UNL     1      13.581 -11.041  35.578  1.00  0.00     0.191 C 
BRANCH  15  16
ATOM     16  O   UNL     1      13.642 -10.665  36.929  1.00  0.00    -0.394 OA
ATOM     17  H   UNL     1      13.030  -9.891  37.039  1.00  0.00     0.210 HD
ENDBRANCH  15  16
ENDBRANCH   4  15
TORSDOF 7
ENDMDL
