MODEL 1
REMARK VINA RESULT:    -3.062      0.000      0.000
REMARK INTER + INTRA:         -11.533
REMARK INTER:                  -7.000
REMARK INTRA:                  -4.533
REMARK UNBOUND:                -4.533
REMARK SMILES CCCCCCCCCCCCCCCCCCCCCCCC(=O)[O-]
REMARK SMILES IDX 13 1 14 2 15 3 16 4 17 5 18 6 19 7 20 8 21 9 22 10 23 11
REMARK SMILES IDX 24 12 25 13 26 14 12 15 11 16 10 17 9 18 8 19 7 20 6 21 5 22
REMARK SMILES IDX 4 23 3 24 2 25 1 26
REMARK H PARENT
REMARK Flexibility Score: inf
ROOT
ATOM      1  C   UNL     1      11.836   6.273  33.030  1.00  0.00     0.000 C 
ENDROOT
BRANCH   1   2
ATOM      2  C   UNL     1      11.194   7.621  33.376  1.00  0.00     0.000 C 
BRANCH   2   3
ATOM      3  C   UNL     1      10.634   8.302  32.119  1.00  0.00     0.000 C 
BRANCH   3   4
ATOM      4  C   UNL     1       9.170   7.920  31.834  1.00  0.00     0.000 C 
BRANCH   4   5
ATOM      5  C   UNL     1       8.723   8.091  30.368  1.00  0.00     0.000 C 
BRANCH   5   6
ATOM      6  C   UNL     1       8.542   6.778  29.585  1.00  0.00     0.000 C 
BRANCH   6   7
ATOM      7  C   UNL     1       8.560   5.537  30.493  1.00  0.00     0.000 C 
BRANCH   7   8
ATOM      8  C   UNL     1       9.861   4.729  30.364  1.00  0.00     0.000 C 
BRANCH   8   9
ATOM      9  C   UNL     1      10.695   5.144  29.144  1.00  0.00     0.000 C 
BRANCH   9  10
ATOM     10  C   UNL     1      12.080   5.653  29.572  1.00  0.00     0.006 C 
BRANCH  10  11
ATOM     11  C   UNL     1      13.048   5.773  28.388  1.00  0.00     0.053 C 
BRANCH  11  12
ATOM     12  C   UNL     1      14.248   4.892  28.558  1.00  0.00     0.041 C 
ATOM     13  O   UNL     1      15.152   5.206  29.375  1.00  0.00    -0.550 OA
ATOM     14  O   UNL     1      14.351   3.709  27.836  1.00  0.00    -0.550 OA
ENDBRANCH  11  12
ENDBRANCH  10  11
ENDBRANCH   9  10
ENDBRANCH   8   9
ENDBRANCH   7   8
ENDBRANCH   6   7
ENDBRANCH   5   6
ENDBRANCH   4   5
ENDBRANCH   3   4
ENDBRANCH   2   3
ENDBRANCH   1   2
BRANCH   1  15
ATOM     15  C   UNL     1      11.606   5.247  34.149  1.00  0.00     0.000 C 
BRANCH  15  16
ATOM     16  C   UNL     1      10.217   5.375  34.793  1.00  0.00     0.000 C 
BRANCH  16  17
ATOM     17  C   UNL     1       9.155   4.516  34.084  1.00  0.00     0.000 C 
BRANCH  17  18
ATOM     18  C   UNL     1       9.661   3.104  33.746  1.00  0.00    -0.000 C 
BRANCH  18  19
ATOM     19  C   UNL     1       8.568   2.031  33.907  1.00  0.00    -0.000 C 
BRANCH  19  20
ATOM     20  C   UNL     1       7.992   1.574  32.559  1.00  0.00    -0.000 C 
BRANCH  20  21
ATOM     21  C   UNL     1       9.042   0.891  31.666  1.00  0.00    -0.000 C 
BRANCH  21  22
ATOM     22  C   UNL     1       8.911   1.285  30.185  1.00  0.00    -0.000 C 
BRANCH  22  23
ATOM     23  C   UNL     1      10.174   1.041  29.334  1.00  0.00    -0.000 C 
BRANCH  23  24
ATOM     24  C   UNL     1      11.460   0.757  30.137  1.00  0.00    -0.000 C 
BRANCH  24  25
ATOM     25  C   UNL     1      12.448   1.934  30.212  1.00  0.00    -0.003 C 
ATOM     26  C   UNL     1      12.561   2.526  31.616  1.00  0.00     0.004 C 
ENDBRANCH  24  25
ENDBRANCH  23  24
ENDBRANCH  22  23
ENDBRANCH  21  22
ENDBRANCH  20  21
ENDBRANCH  19  20
ENDBRANCH  18  19
ENDBRANCH  17  18
ENDBRANCH  16  17
ENDBRANCH  15  16
ENDBRANCH   1  15
TORSDOF 22
ENDMDL
MODEL 2
REMARK VINA RESULT:    -3.021      2.844      5.896
REMARK INTER + INTRA:         -11.439
REMARK INTER:                  -6.875
REMARK INTRA:                  -4.565
REMARK UNBOUND:                -4.533
REMARK SMILES CCCCCCCCCCCCCCCCCCCCCCCC(=O)[O-]
REMARK SMILES IDX 13 1 14 2 15 3 16 4 17 5 18 6 19 7 20 8 21 9 22 10 23 11
REMARK SMILES IDX 24 12 25 13 26 14 12 15 11 16 10 17 9 18 8 19 7 20 6 21 5 22
REMARK SMILES IDX 4 23 3 24 2 25 1 26
REMARK H PARENT
REMARK Flexibility Score: inf
ROOT
ATOM      1  C   UNL     1      12.926   4.531  32.429  1.00  0.00     0.000 C 
ENDROOT
BRANCH   1   2
ATOM      2  C   UNL     1      12.774   5.496  33.611  1.00  0.00     0.000 C 
BRANCH   2   3
ATOM      3  C   UNL     1      11.373   5.390  34.229  1.00  0.00     0.000 C 
BRANCH   3   4
ATOM      4  C   UNL     1      10.535   6.667  34.036  1.00  0.00     0.000 C 
BRANCH   4   5
ATOM      5  C   UNL     1      11.295   7.862  33.426  1.00  0.00     0.000 C 
BRANCH   5   6
ATOM      6  C   UNL     1      10.801   8.308  32.038  1.00  0.00     0.000 C 
BRANCH   6   7
ATOM      7  C   UNL     1       9.370   7.832  31.735  1.00  0.00     0.000 C 
BRANCH   7   8
ATOM      8  C   UNL     1       9.195   7.378  30.278  1.00  0.00     0.000 C 
BRANCH   8   9
ATOM      9  C   UNL     1       8.574   5.978  30.166  1.00  0.00     0.000 C 
BRANCH   9  10
ATOM     10  C   UNL     1       8.331   5.372  31.557  1.00  0.00     0.006 C 
BRANCH  10  11
ATOM     11  C   UNL     1       8.976   3.988  31.709  1.00  0.00     0.053 C 
BRANCH  11  12
ATOM     12  C   UNL     1       8.534   3.304  32.967  1.00  0.00     0.041 C 
ATOM     13  O   UNL     1       7.875   3.937  33.833  1.00  0.00    -0.550 OA
ATOM     14  O   UNL     1       8.825   1.960  33.167  1.00  0.00    -0.550 OA
ENDBRANCH  11  12
ENDBRANCH  10  11
ENDBRANCH   9  10
ENDBRANCH   8   9
ENDBRANCH   7   8
ENDBRANCH   6   7
ENDBRANCH   5   6
ENDBRANCH   4   5
ENDBRANCH   3   4
ENDBRANCH   2   3
ENDBRANCH   1   2
BRANCH   1  15
ATOM     15  C   UNL     1      12.784   5.270  31.090  1.00  0.00     0.000 C 
BRANCH  15  16
ATOM     16  C   UNL     1      12.125   4.406  30.004  1.00  0.00     0.000 C 
BRANCH  16  17
ATOM     17  C   UNL     1      11.858   5.189  28.706  1.00  0.00     0.000 C 
BRANCH  17  18
ATOM     18  C   UNL     1      12.827   4.810  27.574  1.00  0.00    -0.000 C 
BRANCH  18  19
ATOM     19  C   UNL     1      14.002   5.797  27.446  1.00  0.00    -0.000 C 
BRANCH  19  20
ATOM     20  C   UNL     1      15.181   5.207  26.658  1.00  0.00    -0.000 C 
BRANCH  20  21
ATOM     21  C   UNL     1      16.409   4.936  27.543  1.00  0.00    -0.000 C 
BRANCH  21  22
ATOM     22  C   UNL     1      16.361   5.700  28.878  1.00  0.00    -0.000 C 
BRANCH  22  23
ATOM     23  C   UNL     1      16.285   4.807  30.134  1.00  0.00    -0.000 C 
BRANCH  23  24
ATOM     24  C   UNL     1      16.478   3.299  29.879  1.00  0.00    -0.000 C 
BRANCH  24  25
ATOM     25  C   UNL     1      15.226   2.437  30.122  1.00  0.00    -0.003 C 
ATOM     26  C   UNL     1      14.636   1.868  28.832  1.00  0.00     0.004 C 
ENDBRANCH  24  25
ENDBRANCH  23  24
ENDBRANCH  22  23
ENDBRANCH  21  22
ENDBRANCH  20  21
ENDBRANCH  19  20
ENDBRANCH  18  19
ENDBRANCH  17  18
ENDBRANCH  16  17
ENDBRANCH  15  16
ENDBRANCH   1  15
TORSDOF 22
ENDMDL
MODEL 3
REMARK VINA RESULT:    -2.974      1.596      3.754
REMARK INTER + INTRA:         -11.332
REMARK INTER:                  -7.073
REMARK INTRA:                  -4.259
REMARK UNBOUND:                -4.533
REMARK SMILES CCCCCCCCCCCCCCCCCCCCCCCC(=O)[O-]
REMARK SMILES IDX 13 1 14 2 15 3 16 4 17 5 18 6 19 7 20 8 21 9 22 10 23 11
REMARK SMILES IDX 24 12 25 13 26 14 12 15 11 16 10 17 9 18 8 19 7 20 6 21 5 22
REMARK SMILES IDX 4 23 3 24 2 25 1 26
REMARK H PARENT
REMARK Flexibility Score: inf
ROOT
ATOM      1  C   UNL     1      11.872   5.233  34.112  1.00  0.00     0.000 C 
ENDROOT
BRANCH   1   2
ATOM      2  C   UNL     1      12.747   4.300  33.265  1.00  0.00     0.000 C 
BRANCH   2   3
ATOM      3  C   UNL     1      13.392   5.062  32.098  1.00  0.00     0.000 C 
BRANCH   3   4
ATOM      4  C   UNL     1      12.982   4.508  30.722  1.00  0.00     0.000 C 
BRANCH   4   5
ATOM      5  C   UNL     1      12.185   5.485  29.834  1.00  0.00     0.000 C 
BRANCH   5   6
ATOM      6  C   UNL     1      11.474   4.841  28.631  1.00  0.00     0.000 C 
BRANCH   6   7
ATOM      7  C   UNL     1      12.413   3.960  27.788  1.00  0.00     0.000 C 
BRANCH   7   8
ATOM      8  C   UNL     1      13.339   4.783  26.879  1.00  0.00     0.000 C 
BRANCH   8   9
ATOM      9  C   UNL     1      14.669   4.073  26.592  1.00  0.00     0.000 C 
BRANCH   9  10
ATOM     10  C   UNL     1      15.860   4.995  26.896  1.00  0.00     0.006 C 
BRANCH  10  11
ATOM     11  C   UNL     1      15.664   5.788  28.194  1.00  0.00     0.053 C 
BRANCH  11  12
ATOM     12  C   UNL     1      16.625   5.357  29.261  1.00  0.00     0.041 C 
ATOM     13  O   UNL     1      17.674   6.020  29.473  1.00  0.00    -0.550 OA
ATOM     14  O   UNL     1      16.346   4.240  30.039  1.00  0.00    -0.550 OA
ENDBRANCH  11  12
ENDBRANCH  10  11
ENDBRANCH   9  10
ENDBRANCH   8   9
ENDBRANCH   7   8
ENDBRANCH   6   7
ENDBRANCH   5   6
ENDBRANCH   4   5
ENDBRANCH   3   4
ENDBRANCH   2   3
ENDBRANCH   1   2
BRANCH   1  15
ATOM     15  C   UNL     1      11.792   6.633  33.488  1.00  0.00     0.000 C 
BRANCH  15  16
ATOM     16  C   UNL     1      10.507   7.381  33.876  1.00  0.00     0.000 C 
BRANCH  16  17
ATOM     17  C   UNL     1      10.056   8.382  32.797  1.00  0.00     0.000 C 
BRANCH  17  18
ATOM     18  C   UNL     1       9.924   7.738  31.407  1.00  0.00    -0.000 C 
BRANCH  18  19
ATOM     19  C   UNL     1       8.510   7.190  31.143  1.00  0.00    -0.000 C 
BRANCH  19  20
ATOM     20  C   UNL     1       8.522   5.706  30.744  1.00  0.00    -0.000 C 
BRANCH  20  21
ATOM     21  C   UNL     1       8.724   4.770  31.948  1.00  0.00    -0.000 C 
BRANCH  21  22
ATOM     22  C   UNL     1       9.510   3.498  31.586  1.00  0.00    -0.000 C 
BRANCH  22  23
ATOM     23  C   UNL     1       9.040   2.789  30.299  1.00  0.00    -0.000 C 
BRANCH  23  24
ATOM     24  C   UNL     1       9.427   1.300  30.192  1.00  0.00    -0.000 C 
BRANCH  24  25
ATOM     25  C   UNL     1      10.620   1.007  29.265  1.00  0.00    -0.003 C 
ATOM     26  C   UNL     1      11.954   0.960  30.010  1.00  0.00     0.004 C 
ENDBRANCH  24  25
ENDBRANCH  23  24
ENDBRANCH  22  23
ENDBRANCH  21  22
ENDBRANCH  20  21
ENDBRANCH  19  20
ENDBRANCH  18  19
ENDBRANCH  17  18
ENDBRANCH  16  17
ENDBRANCH  15  16
ENDBRANCH   1  15
TORSDOF 22
ENDMDL
MODEL 4
REMARK VINA RESULT:    -2.946      2.045      5.540
REMARK INTER + INTRA:         -11.268
REMARK INTER:                  -7.691
REMARK INTRA:                  -3.577
REMARK UNBOUND:                -4.533
REMARK SMILES CCCCCCCCCCCCCCCCCCCCCCCC(=O)[O-]
REMARK SMILES IDX 13 1 14 2 15 3 16 4 17 5 18 6 19 7 20 8 21 9 22 10 23 11
REMARK SMILES IDX 24 12 25 13 26 14 12 15 11 16 10 17 9 18 8 19 7 20 6 21 5 22
REMARK SMILES IDX 4 23 3 24 2 25 1 26
REMARK H PARENT
REMARK Flexibility Score: inf
ROOT
ATOM      1  C   UNL     1       8.130   7.664  31.158  1.00  0.00     0.000 C 
ENDROOT
BRANCH   1   2
ATOM      2  C   UNL     1       9.623   7.986  31.306  1.00  0.00     0.000 C 
BRANCH   2   3
ATOM      3  C   UNL     1       9.960   8.374  32.753  1.00  0.00     0.000 C 
BRANCH   3   4
ATOM      4  C   UNL     1      11.242   7.696  33.270  1.00  0.00     0.000 C 
BRANCH   4   5
ATOM      5  C   UNL     1      11.194   6.156  33.318  1.00  0.00     0.000 C 
BRANCH   5   6
ATOM      6  C   UNL     1      10.126   5.566  34.257  1.00  0.00     0.000 C 
BRANCH   6   7
ATOM      7  C   UNL     1       9.779   4.106  33.919  1.00  0.00     0.000 C 
BRANCH   7   8
ATOM      8  C   UNL     1       8.265   3.872  33.796  1.00  0.00     0.000 C 
BRANCH   8   9
ATOM      9  C   UNL     1       7.921   2.429  33.400  1.00  0.00     0.000 C 
BRANCH   9  10
ATOM     10  C   UNL     1       9.099   1.764  32.671  1.00  0.00     0.006 C 
BRANCH  10  11
ATOM     11  C   UNL     1       8.635   0.847  31.531  1.00  0.00     0.053 C 
BRANCH  11  12
ATOM     12  C   UNL     1       9.701   0.667  30.493  1.00  0.00     0.041 C 
ATOM     13  O   UNL     1       9.390   0.586  29.275  1.00  0.00    -0.550 OA
ATOM     14  O   UNL     1      11.038   0.619  30.868  1.00  0.00    -0.550 OA
ENDBRANCH  11  12
ENDBRANCH  10  11
ENDBRANCH   9  10
ENDBRANCH   8   9
ENDBRANCH   7   8
ENDBRANCH   6   7
ENDBRANCH   5   6
ENDBRANCH   4   5
ENDBRANCH   3   4
ENDBRANCH   2   3
ENDBRANCH   1   2
BRANCH   1  15
ATOM     15  C   UNL     1       7.902   6.153  31.016  1.00  0.00     0.000 C 
BRANCH  15  16
ATOM     16  C   UNL     1       8.584   5.566  29.771  1.00  0.00     0.000 C 
BRANCH  16  17
ATOM     17  C   UNL     1       9.242   4.201  30.044  1.00  0.00     0.000 C 
BRANCH  17  18
ATOM     18  C   UNL     1      10.765   4.303  30.229  1.00  0.00    -0.000 C 
BRANCH  18  19
ATOM     19  C   UNL     1      11.376   5.485  29.453  1.00  0.00    -0.000 C 
BRANCH  19  20
ATOM     20  C   UNL     1      12.756   5.150  28.866  1.00  0.00    -0.000 C 
BRANCH  20  21
ATOM     21  C   UNL     1      13.665   4.419  29.869  1.00  0.00    -0.000 C 
BRANCH  21  22
ATOM     22  C   UNL     1      15.138   4.851  29.759  1.00  0.00    -0.000 C 
BRANCH  22  23
ATOM     23  C   UNL     1      15.494   5.623  28.472  1.00  0.00    -0.000 C 
BRANCH  23  24
ATOM     24  C   UNL     1      16.410   4.868  27.487  1.00  0.00    -0.000 C 
BRANCH  24  25
ATOM     25  C   UNL     1      15.802   4.627  26.094  1.00  0.00    -0.003 C 
ATOM     26  C   UNL     1      14.646   5.576  25.778  1.00  0.00     0.004 C 
ENDBRANCH  24  25
ENDBRANCH  23  24
ENDBRANCH  22  23
ENDBRANCH  21  22
ENDBRANCH  20  21
ENDBRANCH  19  20
ENDBRANCH  18  19
ENDBRANCH  17  18
ENDBRANCH  16  17
ENDBRANCH  15  16
ENDBRANCH   1  15
TORSDOF 22
ENDMDL
MODEL 5
REMARK VINA RESULT:    -2.939      1.901      4.583
REMARK INTER + INTRA:         -11.251
REMARK INTER:                  -6.838
REMARK INTRA:                  -4.412
REMARK UNBOUND:                -4.533
REMARK SMILES CCCCCCCCCCCCCCCCCCCCCCCC(=O)[O-]
REMARK SMILES IDX 13 1 14 2 15 3 16 4 17 5 18 6 19 7 20 8 21 9 22 10 23 11
REMARK SMILES IDX 24 12 25 13 26 14 12 15 11 16 10 17 9 18 8 19 7 20 6 21 5 22
REMARK SMILES IDX 4 23 3 24 2 25 1 26
REMARK H PARENT
REMARK Flexibility Score: inf
ROOT
ATOM      1  C   UNL     1      10.657   7.220  33.744  1.00  0.00     0.000 C 
ENDROOT
BRANCH   1   2
ATOM      2  C   UNL     1      11.719   6.121  33.618  1.00  0.00     0.000 C 
BRANCH   2   3
ATOM      3  C   UNL     1      11.203   4.792  34.188  1.00  0.00     0.000 C 
BRANCH   3   4
ATOM      4  C   UNL     1       9.806   4.915  34.823  1.00  0.00     0.000 C 
BRANCH   4   5
ATOM      5  C   UNL     1       8.844   3.749  34.519  1.00  0.00     0.000 C 
BRANCH   5   6
ATOM      6  C   UNL     1       9.460   2.588  33.717  1.00  0.00     0.000 C 
BRANCH   6   7
ATOM      7  C   UNL     1       8.446   1.473  33.411  1.00  0.00     0.000 C 
BRANCH   7   8
ATOM      8  C   UNL     1       8.226   1.273  31.903  1.00  0.00     0.000 C 
BRANCH   8   9
ATOM      9  C   UNL     1       9.507   0.851  31.170  1.00  0.00     0.000 C 
BRANCH   9  10
ATOM     10  C   UNL     1       9.318   0.925  29.647  1.00  0.00     0.006 C 
BRANCH  10  11
ATOM     11  C   UNL     1      10.652   0.877  28.892  1.00  0.00     0.053 C 
BRANCH  11  12
ATOM     12  C   UNL     1      11.393  -0.400  29.150  1.00  0.00     0.041 C 
ATOM     13  O   UNL     1      12.480  -0.384  29.785  1.00  0.00    -0.550 OA
ATOM     14  O   UNL     1      10.866  -1.611  28.716  1.00  0.00    -0.550 OA
ENDBRANCH  11  12
ENDBRANCH  10  11
ENDBRANCH   9  10
ENDBRANCH   8   9
ENDBRANCH   7   8
ENDBRANCH   6   7
ENDBRANCH   5   6
ENDBRANCH   4   5
ENDBRANCH   3   4
ENDBRANCH   2   3
ENDBRANCH   1   2
BRANCH   1  15
ATOM     15  C   UNL     1      10.905   8.347  32.730  1.00  0.00     0.000 C 
BRANCH  15  16
ATOM     16  C   UNL     1      10.198   8.103  31.389  1.00  0.00     0.000 C 
BRANCH  16  17
ATOM     17  C   UNL     1       8.664   8.111  31.518  1.00  0.00     0.000 C 
BRANCH  17  18
ATOM     18  C   UNL     1       7.998   6.949  30.764  1.00  0.00    -0.000 C 
BRANCH  18  19
ATOM     19  C   UNL     1       8.338   5.577  31.375  1.00  0.00    -0.000 C 
BRANCH  19  20
ATOM     20  C   UNL     1       8.954   4.614  30.349  1.00  0.00    -0.000 C 
BRANCH  20  21
ATOM     21  C   UNL     1      10.451   4.361  30.598  1.00  0.00    -0.000 C 
BRANCH  21  22
ATOM     22  C   UNL     1      11.357   5.208  29.686  1.00  0.00    -0.000 C 
BRANCH  22  23
ATOM     23  C   UNL     1      12.776   4.641  29.476  1.00  0.00    -0.000 C 
BRANCH  23  24
ATOM     24  C   UNL     1      13.072   3.321  30.216  1.00  0.00    -0.000 C 
BRANCH  24  25
ATOM     25  C   UNL     1      13.603   3.489  31.650  1.00  0.00    -0.003 C 
ATOM     26  C   UNL     1      14.784   4.456  31.737  1.00  0.00     0.004 C 
ENDBRANCH  24  25
ENDBRANCH  23  24
ENDBRANCH  22  23
ENDBRANCH  21  22
ENDBRANCH  20  21
ENDBRANCH  19  20
ENDBRANCH  18  19
ENDBRANCH  17  18
ENDBRANCH  16  17
ENDBRANCH  15  16
ENDBRANCH   1  15
TORSDOF 22
ENDMDL
MODEL 6
REMARK VINA RESULT:    -2.933      1.429      5.493
REMARK INTER + INTRA:         -11.238
REMARK INTER:                  -7.274
REMARK INTRA:                  -3.964
REMARK UNBOUND:                -4.533
REMARK SMILES CCCCCCCCCCCCCCCCCCCCCCCC(=O)[O-]
REMARK SMILES IDX 13 1 14 2 15 3 16 4 17 5 18 6 19 7 20 8 21 9 22 10 23 11
REMARK SMILES IDX 24 12 25 13 26 14 12 15 11 16 10 17 9 18 8 19 7 20 6 21 5 22
REMARK SMILES IDX 4 23 3 24 2 25 1 26
REMARK H PARENT
REMARK Flexibility Score: inf
ROOT
ATOM      1  C   UNL     1       8.393   1.315  31.760  1.00  0.00     0.000 C 
ENDROOT
BRANCH   1   2
ATOM      2  C   UNL     1       8.694   1.553  30.275  1.00  0.00     0.000 C 
BRANCH   2   3
ATOM      3  C   UNL     1       9.805   0.615  29.783  1.00  0.00     0.000 C 
BRANCH   3   4
ATOM      4  C   UNL     1      10.512  -0.129  30.930  1.00  0.00     0.000 C 
BRANCH   4   5
ATOM      5  C   UNL     1      11.982   0.272  31.163  1.00  0.00     0.000 C 
BRANCH   5   6
ATOM      6  C   UNL     1      12.184   1.608  31.900  1.00  0.00     0.000 C 
BRANCH   6   7
ATOM      7  C   UNL     1      12.993   2.625  31.077  1.00  0.00     0.000 C 
BRANCH   7   8
ATOM      8  C   UNL     1      12.096   3.611  30.311  1.00  0.00     0.000 C 
BRANCH   8   9
ATOM      9  C   UNL     1      12.261   3.498  28.788  1.00  0.00     0.000 C 
BRANCH   9  10
ATOM     10  C   UNL     1      12.271   4.888  28.133  1.00  0.00     0.006 C 
BRANCH  10  11
ATOM     11  C   UNL     1      13.522   5.696  28.502  1.00  0.00     0.053 C 
BRANCH  11  12
ATOM     12  C   UNL     1      14.302   6.100  27.288  1.00  0.00     0.041 C 
ATOM     13  O   UNL     1      13.884   7.030  26.549  1.00  0.00    -0.550 OA
ATOM     14  O   UNL     1      15.505   5.471  26.991  1.00  0.00    -0.550 OA
ENDBRANCH  11  12
ENDBRANCH  10  11
ENDBRANCH   9  10
ENDBRANCH   8   9
ENDBRANCH   7   8
ENDBRANCH   6   7
ENDBRANCH   5   6
ENDBRANCH   4   5
ENDBRANCH   3   4
ENDBRANCH   2   3
ENDBRANCH   1   2
BRANCH   1  15
ATOM     15  C   UNL     1       8.605   2.596  32.579  1.00  0.00     0.000 C 
BRANCH  15  16
ATOM     16  C   UNL     1       9.134   3.762  31.729  1.00  0.00     0.000 C 
BRANCH  16  17
ATOM     17  C   UNL     1       8.400   5.084  32.016  1.00  0.00     0.000 C 
BRANCH  17  18
ATOM     18  C   UNL     1       8.223   5.950  30.758  1.00  0.00    -0.000 C 
BRANCH  18  19
ATOM     19  C   UNL     1       8.470   7.445  31.032  1.00  0.00    -0.000 C 
BRANCH  19  20
ATOM     20  C   UNL     1       9.954   7.759  31.275  1.00  0.00    -0.000 C 
BRANCH  20  21
ATOM     21  C   UNL     1      10.206   8.404  32.650  1.00  0.00    -0.000 C 
BRANCH  21  22
ATOM     22  C   UNL     1      11.002   7.489  33.598  1.00  0.00    -0.000 C 
BRANCH  22  23
ATOM     23  C   UNL     1      11.835   6.396  32.898  1.00  0.00    -0.000 C 
BRANCH  23  24
ATOM     24  C   UNL     1      12.044   5.106  33.717  1.00  0.00    -0.000 C 
BRANCH  24  25
ATOM     25  C   UNL     1      10.980   4.845  34.796  1.00  0.00    -0.003 C 
ATOM     26  C   UNL     1      11.440   3.843  35.854  1.00  0.00     0.004 C 
ENDBRANCH  24  25
ENDBRANCH  23  24
ENDBRANCH  22  23
ENDBRANCH  21  22
ENDBRANCH  20  21
ENDBRANCH  19  20
ENDBRANCH  18  19
ENDBRANCH  17  18
ENDBRANCH  16  17
ENDBRANCH  15  16
ENDBRANCH   1  15
TORSDOF 22
ENDMDL
MODEL 7
REMARK VINA RESULT:    -2.918      1.315      4.973
REMARK INTER + INTRA:         -11.203
REMARK INTER:                  -7.396
REMARK INTRA:                  -3.806
REMARK UNBOUND:                -4.533
REMARK SMILES CCCCCCCCCCCCCCCCCCCCCCCC(=O)[O-]
REMARK SMILES IDX 13 1 14 2 15 3 16 4 17 5 18 6 19 7 20 8 21 9 22 10 23 11
REMARK SMILES IDX 24 12 25 13 26 14 12 15 11 16 10 17 9 18 8 19 7 20 6 21 5 22
REMARK SMILES IDX 4 23 3 24 2 25 1 26
REMARK H PARENT
REMARK Flexibility Score: inf
ROOT
ATOM      1  C   UNL     1       8.800   6.228  29.878  1.00  0.00     0.000 C 
ENDROOT
BRANCH   1   2
ATOM      2  C   UNL     1       8.669   4.750  30.267  1.00  0.00     0.000 C 
BRANCH   2   3
ATOM      3  C   UNL     1       8.599   4.588  31.792  1.00  0.00     0.000 C 
BRANCH   3   4
ATOM      4  C   UNL     1       9.413   3.386  32.304  1.00  0.00     0.000 C 
BRANCH   4   5
ATOM      5  C   UNL     1       8.841   2.003  31.934  1.00  0.00     0.000 C 
BRANCH   5   6
ATOM      6  C   UNL     1       9.661   1.215  30.896  1.00  0.00     0.000 C 
BRANCH   6   7
ATOM      7  C   UNL     1      11.137   1.646  30.854  1.00  0.00     0.000 C 
BRANCH   7   8
ATOM      8  C   UNL     1      11.541   2.237  29.494  1.00  0.00     0.000 C 
BRANCH   8   9
ATOM      9  C   UNL     1      11.829   3.743  29.566  1.00  0.00     0.000 C 
BRANCH   9  10
ATOM     10  C   UNL     1      12.400   4.257  28.236  1.00  0.00     0.006 C 
BRANCH  10  11
ATOM     11  C   UNL     1      12.930   5.693  28.346  1.00  0.00     0.053 C 
BRANCH  11  12
ATOM     12  C   UNL     1      14.412   5.723  28.570  1.00  0.00     0.041 C 
ATOM     13  O   UNL     1      14.945   4.929  29.389  1.00  0.00    -0.550 OA
ATOM     14  O   UNL     1      15.207   6.608  27.851  1.00  0.00    -0.550 OA
ENDBRANCH  11  12
ENDBRANCH  10  11
ENDBRANCH   9  10
ENDBRANCH   8   9
ENDBRANCH   7   8
ENDBRANCH   6   7
ENDBRANCH   5   6
ENDBRANCH   4   5
ENDBRANCH   3   4
ENDBRANCH   2   3
ENDBRANCH   1   2
BRANCH   1  15
ATOM     15  C   UNL     1       7.877   7.108  30.733  1.00  0.00     0.000 C 
BRANCH  15  16
ATOM     16  C   UNL     1       8.627   8.254  31.427  1.00  0.00     0.000 C 
BRANCH  16  17
ATOM     17  C   UNL     1      10.156   8.088  31.359  1.00  0.00     0.000 C 
BRANCH  17  18
ATOM     18  C   UNL     1      10.845   8.379  32.702  1.00  0.00    -0.000 C 
BRANCH  18  19
ATOM     19  C   UNL     1      11.463   7.118  33.335  1.00  0.00    -0.000 C 
BRANCH  19  20
ATOM     20  C   UNL     1      11.910   6.093  32.282  1.00  0.00    -0.000 C 
BRANCH  20  21
ATOM     21  C   UNL     1      12.960   5.107  32.823  1.00  0.00    -0.000 C 
BRANCH  21  22
ATOM     22  C   UNL     1      12.914   4.973  34.356  1.00  0.00    -0.000 C 
BRANCH  22  23
ATOM     23  C   UNL     1      11.992   3.854  34.882  1.00  0.00    -0.000 C 
BRANCH  23  24
ATOM     24  C   UNL     1      11.082   4.254  36.060  1.00  0.00    -0.000 C 
BRANCH  24  25
ATOM     25  C   UNL     1       9.801   5.008  35.661  1.00  0.00    -0.003 C 
ATOM     26  C   UNL     1       8.826   5.181  36.825  1.00  0.00     0.004 C 
ENDBRANCH  24  25
ENDBRANCH  23  24
ENDBRANCH  22  23
ENDBRANCH  21  22
ENDBRANCH  20  21
ENDBRANCH  19  20
ENDBRANCH  18  19
ENDBRANCH  17  18
ENDBRANCH  16  17
ENDBRANCH  15  16
ENDBRANCH   1  15
TORSDOF 22
ENDMDL
MODEL 8
REMARK VINA RESULT:    -2.896      1.178      4.647
REMARK INTER + INTRA:         -11.152
REMARK INTER:                  -6.379
REMARK INTRA:                  -4.774
REMARK UNBOUND:                -4.533
REMARK SMILES CCCCCCCCCCCCCCCCCCCCCCCC(=O)[O-]
REMARK SMILES IDX 13 1 14 2 15 3 16 4 17 5 18 6 19 7 20 8 21 9 22 10 23 11
REMARK SMILES IDX 24 12 25 13 26 14 12 15 11 16 10 17 9 18 8 19 7 20 6 21 5 22
REMARK SMILES IDX 4 23 3 24 2 25 1 26
REMARK H PARENT
REMARK Flexibility Score: inf
ROOT
ATOM      1  C   UNL     1      10.326   5.234  34.876  1.00  0.00     0.000 C 
ENDROOT
BRANCH   1   2
ATOM      2  C   UNL     1       9.474   4.104  34.285  1.00  0.00     0.000 C 
BRANCH   2   3
ATOM      3  C   UNL     1      10.358   2.956  33.779  1.00  0.00     0.000 C 
BRANCH   3   4
ATOM      4  C   UNL     1       9.578   1.644  33.577  1.00  0.00     0.000 C 
BRANCH   4   5
ATOM      5  C   UNL     1       9.734   0.999  32.185  1.00  0.00     0.000 C 
BRANCH   5   6
ATOM      6  C   UNL     1       8.578   1.273  31.206  1.00  0.00     0.000 C 
BRANCH   6   7
ATOM      7  C   UNL     1       9.012   1.183  29.733  1.00  0.00     0.000 C 
BRANCH   7   8
ATOM      8  C   UNL     1      10.215   0.249  29.527  1.00  0.00     0.000 C 
BRANCH   8   9
ATOM      9  C   UNL     1      11.339   0.904  28.713  1.00  0.00     0.000 C 
BRANCH   9  10
ATOM     10  C   UNL     1      12.714   0.378  29.153  1.00  0.00     0.006 C 
BRANCH  10  11
ATOM     11  C   UNL     1      13.312   1.202  30.301  1.00  0.00     0.053 C 
BRANCH  11  12
ATOM     12  C   UNL     1      14.465   2.042  29.841  1.00  0.00     0.041 C 
ATOM     13  O   UNL     1      14.462   2.542  28.685  1.00  0.00    -0.550 OA
ATOM     14  O   UNL     1      15.526   2.298  30.700  1.00  0.00    -0.550 OA
ENDBRANCH  11  12
ENDBRANCH  10  11
ENDBRANCH   9  10
ENDBRANCH   8   9
ENDBRANCH   7   8
ENDBRANCH   6   7
ENDBRANCH   5   6
ENDBRANCH   4   5
ENDBRANCH   3   4
ENDBRANCH   2   3
ENDBRANCH   1   2
BRANCH   1  15
ATOM     15  C   UNL     1      11.616   5.433  34.067  1.00  0.00     0.000 C 
BRANCH  15  16
ATOM     16  C   UNL     1      11.645   6.776  33.322  1.00  0.00     0.000 C 
BRANCH  16  17
ATOM     17  C   UNL     1      10.531   7.733  33.782  1.00  0.00     0.000 C 
BRANCH  17  18
ATOM     18  C   UNL     1       9.715   8.302  32.609  1.00  0.00    -0.000 C 
BRANCH  18  19
ATOM     19  C   UNL     1      10.349   7.988  31.241  1.00  0.00    -0.000 C 
BRANCH  19  20
ATOM     20  C   UNL     1       9.323   7.462  30.227  1.00  0.00    -0.000 C 
BRANCH  20  21
ATOM     21  C   UNL     1       8.295   6.510  30.863  1.00  0.00    -0.000 C 
BRANCH  21  22
ATOM     22  C   UNL     1       8.780   5.049  30.897  1.00  0.00    -0.000 C 
BRANCH  22  23
ATOM     23  C   UNL     1       9.897   4.713  29.889  1.00  0.00    -0.000 C 
BRANCH  23  24
ATOM     24  C   UNL     1      11.204   4.181  30.511  1.00  0.00    -0.000 C 
BRANCH  24  25
ATOM     25  C   UNL     1      12.441   5.063  30.269  1.00  0.00    -0.003 C 
ATOM     26  C   UNL     1      12.442   5.720  28.889  1.00  0.00     0.004 C 
ENDBRANCH  24  25
ENDBRANCH  23  24
ENDBRANCH  22  23
ENDBRANCH  21  22
ENDBRANCH  20  21
ENDBRANCH  19  20
ENDBRANCH  18  19
ENDBRANCH  17  18
ENDBRANCH  16  17
ENDBRANCH  15  16
ENDBRANCH   1  15
TORSDOF 22
ENDMDL
MODEL 9
REMARK VINA RESULT:    -2.884      1.494      2.849
REMARK INTER + INTRA:         -11.126
REMARK INTER:                  -6.545
REMARK INTRA:                  -4.581
REMARK UNBOUND:                -4.533
REMARK SMILES CCCCCCCCCCCCCCCCCCCCCCCC(=O)[O-]
REMARK SMILES IDX 13 1 14 2 15 3 16 4 17 5 18 6 19 7 20 8 21 9 22 10 23 11
REMARK SMILES IDX 24 12 25 13 26 14 12 15 11 16 10 17 9 18 8 19 7 20 6 21 5 22
REMARK SMILES IDX 4 23 3 24 2 25 1 26
REMARK H PARENT
REMARK Flexibility Score: inf
ROOT
ATOM      1  C   UNL     1      11.525   7.413  33.268  1.00  0.00     0.000 C 
ENDROOT
BRANCH   1   2
ATOM      2  C   UNL     1      10.846   8.274  32.196  1.00  0.00     0.000 C 
BRANCH   2   3
ATOM      3  C   UNL     1       9.319   8.244  32.354  1.00  0.00     0.000 C 
BRANCH   3   4
ATOM      4  C   UNL     1       8.591   7.859  31.053  1.00  0.00     0.000 C 
BRANCH   4   5
ATOM      5  C   UNL     1       7.942   6.460  31.057  1.00  0.00     0.000 C 
BRANCH   5   6
ATOM      6  C   UNL     1       8.313   5.567  29.859  1.00  0.00     0.000 C 
BRANCH   6   7
ATOM      7  C   UNL     1       9.793   5.695  29.458  1.00  0.00     0.000 C 
BRANCH   7   8
ATOM      8  C   UNL     1      10.737   5.007  30.456  1.00  0.00     0.000 C 
BRANCH   8   9
ATOM      9  C   UNL     1      12.216   5.309  30.174  1.00  0.00     0.000 C 
BRANCH   9  10
ATOM     10  C   UNL     1      13.126   4.565  31.163  1.00  0.00     0.006 C 
BRANCH  10  11
ATOM     11  C   UNL     1      12.753   3.082  31.294  1.00  0.00     0.053 C 
BRANCH  11  12
ATOM     12  C   UNL     1      13.202   2.288  30.105  1.00  0.00     0.041 C 
ATOM     13  O   UNL     1      14.319   2.521  29.573  1.00  0.00    -0.550 OA
ATOM     14  O   UNL     1      12.399   1.270  29.604  1.00  0.00    -0.550 OA
ENDBRANCH  11  12
ENDBRANCH  10  11
ENDBRANCH   9  10
ENDBRANCH   8   9
ENDBRANCH   7   8
ENDBRANCH   6   7
ENDBRANCH   5   6
ENDBRANCH   4   5
ENDBRANCH   3   4
ENDBRANCH   2   3
ENDBRANCH   1   2
BRANCH   1  15
ATOM     15  C   UNL     1      10.487   6.641  34.095  1.00  0.00     0.000 C 
BRANCH  15  16
ATOM     16  C   UNL     1      10.609   5.119  33.925  1.00  0.00     0.000 C 
BRANCH  16  17
ATOM     17  C   UNL     1      11.760   4.521  34.754  1.00  0.00     0.000 C 
BRANCH  17  18
ATOM     18  C   UNL     1      11.284   3.447  35.746  1.00  0.00    -0.000 C 
BRANCH  18  19
ATOM     19  C   UNL     1      10.043   3.889  36.543  1.00  0.00    -0.000 C 
BRANCH  19  20
ATOM     20  C   UNL     1       8.971   2.790  36.617  1.00  0.00    -0.000 C 
BRANCH  20  21
ATOM     21  C   UNL     1       8.859   1.984  35.311  1.00  0.00    -0.000 C 
BRANCH  21  22
ATOM     22  C   UNL     1       7.875   2.611  34.308  1.00  0.00    -0.000 C 
BRANCH  22  23
ATOM     23  C   UNL     1       8.339   2.577  32.838  1.00  0.00    -0.000 C 
BRANCH  23  24
ATOM     24  C   UNL     1       9.419   1.525  32.515  1.00  0.00    -0.000 C 
BRANCH  24  25
ATOM     25  C   UNL     1       9.276   0.853  31.138  1.00  0.00    -0.003 C 
ATOM     26  C   UNL     1       8.872   1.833  30.037  1.00  0.00     0.004 C 
ENDBRANCH  24  25
ENDBRANCH  23  24
ENDBRANCH  22  23
ENDBRANCH  21  22
ENDBRANCH  20  21
ENDBRANCH  19  20
ENDBRANCH  18  19
ENDBRANCH  17  18
ENDBRANCH  16  17
ENDBRANCH  15  16
ENDBRANCH   1  15
TORSDOF 22
ENDMDL
