MODEL 1
REMARK VINA RESULT:    -4.970      0.000      0.000
REMARK INTER + INTRA:          -5.468
REMARK INTER:                  -5.405
REMARK INTRA:                  -0.063
REMARK UNBOUND:                -0.063
REMARK SMILES COc1cc2ccc(=O)oc2cc1O
REMARK SMILES IDX 3 1 13 2 12 3 11 4 5 5 4 6 6 7 7 8 8 9 9 10 10 11 2 12 1 13
REMARK SMILES IDX 14 14
REMARK H PARENT 14 15
REMARK Flexibility Score: inf
ROOT
ATOM      1  C   UNL     1      -1.878   8.506  11.424  1.00  0.00     0.161 A 
ATOM      2  C   UNL     1      -2.072   7.500  12.391  1.00  0.00     0.161 A 
ATOM      3  C   UNL     1      -2.410   6.200  11.999  1.00  0.00     0.098 A 
ATOM      4  C   UNL     1      -2.560   5.886  10.647  1.00  0.00     0.142 A 
ATOM      5  C   UNL     1      -2.369   6.886   9.670  1.00  0.00     0.022 A 
ATOM      6  C   UNL     1      -2.030   8.189  10.059  1.00  0.00     0.062 A 
ATOM      7  C   UNL     1      -2.527   6.541   8.324  1.00  0.00     0.019 A 
ATOM      8  C   UNL     1      -2.865   5.231   7.988  1.00  0.00     0.094 A 
ATOM      9  C   UNL     1      -3.038   4.292   9.010  1.00  0.00     0.336 A 
ATOM     10  O   UNL     1      -3.344   3.104   8.727  1.00  0.00    -0.246 OA
ATOM     11  O   UNL     1      -2.882   4.647  10.283  1.00  0.00    -0.423 OA
ENDROOT
BRANCH   1  12
ATOM     12  O   UNL     1      -1.539   9.800  11.853  1.00  0.00    -0.493 OA
ATOM     13  C   UNL     1      -2.406  10.927  11.782  1.00  0.00     0.278 C 
ENDBRANCH   1  12
BRANCH   2  14
ATOM     14  O   UNL     1      -1.930   7.774  13.751  1.00  0.00    -0.504 OA
ATOM     15  H   UNL     1      -1.740   8.707  14.098  1.00  0.00     0.293 HD
ENDBRANCH   2  14
TORSDOF 2
ENDMDL
MODEL 2
REMARK VINA RESULT:    -4.968      5.169      6.845
REMARK INTER + INTRA:          -5.466
REMARK INTER:                  -5.402
REMARK INTRA:                  -0.065
REMARK UNBOUND:                -0.063
REMARK SMILES COc1cc2ccc(=O)oc2cc1O
REMARK SMILES IDX 3 1 13 2 12 3 11 4 5 5 4 6 6 7 7 8 8 9 9 10 10 11 2 12 1 13
REMARK SMILES IDX 14 14
REMARK H PARENT 14 15
REMARK Flexibility Score: inf
ROOT
ATOM      1  C   UNL     1      -5.420   3.721  16.382  1.00  0.00     0.161 A 
ATOM      2  C   UNL     1      -4.930   5.034  16.229  1.00  0.00     0.161 A 
ATOM      3  C   UNL     1      -3.770   5.272  15.485  1.00  0.00     0.098 A 
ATOM      4  C   UNL     1      -3.083   4.214  14.887  1.00  0.00     0.142 A 
ATOM      5  C   UNL     1      -3.564   2.895  15.034  1.00  0.00     0.022 A 
ATOM      6  C   UNL     1      -4.725   2.652  15.778  1.00  0.00     0.062 A 
ATOM      7  C   UNL     1      -2.854   1.856  14.423  1.00  0.00     0.019 A 
ATOM      8  C   UNL     1      -1.703   2.149  13.693  1.00  0.00     0.094 A 
ATOM      9  C   UNL     1      -1.286   3.480  13.590  1.00  0.00     0.336 A 
ATOM     10  O   UNL     1      -0.250   3.766  12.936  1.00  0.00    -0.246 OA
ATOM     11  O   UNL     1      -1.980   4.450  14.181  1.00  0.00    -0.423 OA
ENDROOT
BRANCH   1  12
ATOM     12  O   UNL     1      -6.587   3.517  17.135  1.00  0.00    -0.493 OA
ATOM     13  C   UNL     1      -6.610   3.032  18.473  1.00  0.00     0.278 C 
ENDBRANCH   1  12
BRANCH   2  14
ATOM     14  O   UNL     1      -5.589   6.117  16.811  1.00  0.00    -0.504 OA
ATOM     15  H   UNL     1      -5.938   6.091  17.761  1.00  0.00     0.293 HD
ENDBRANCH   2  14
TORSDOF 2
ENDMDL
MODEL 3
REMARK VINA RESULT:    -4.958      1.844      4.932
REMARK INTER + INTRA:          -5.455
REMARK INTER:                  -5.411
REMARK INTRA:                  -0.044
REMARK UNBOUND:                -0.063
REMARK SMILES COc1cc2ccc(=O)oc2cc1O
REMARK SMILES IDX 3 1 13 2 12 3 11 4 5 5 4 6 6 7 7 8 8 9 9 10 10 11 2 12 1 13
REMARK SMILES IDX 14 14
REMARK H PARENT 14 15
REMARK Flexibility Score: inf
ROOT
ATOM      1  C   UNL     1      -2.111   7.518   9.954  1.00  0.00     0.161 A 
ATOM      2  C   UNL     1      -1.757   8.813  10.382  1.00  0.00     0.161 A 
ATOM      3  C   UNL     1      -1.715   9.118  11.747  1.00  0.00     0.098 A 
ATOM      4  C   UNL     1      -2.023   8.144  12.699  1.00  0.00     0.142 A 
ATOM      5  C   UNL     1      -2.379   6.845  12.281  1.00  0.00     0.022 A 
ATOM      6  C   UNL     1      -2.423   6.536  10.915  1.00  0.00     0.062 A 
ATOM      7  C   UNL     1      -2.684   5.892  13.258  1.00  0.00     0.019 A 
ATOM      8  C   UNL     1      -2.626   6.249  14.605  1.00  0.00     0.094 A 
ATOM      9  C   UNL     1      -2.265   7.556  14.945  1.00  0.00     0.336 A 
ATOM     10  O   UNL     1      -2.208   7.898  16.154  1.00  0.00    -0.246 OA
ATOM     11  O   UNL     1      -1.981   8.443  13.995  1.00  0.00    -0.423 OA
ENDROOT
BRANCH   1  12
ATOM     12  O   UNL     1      -2.143   7.246   8.576  1.00  0.00    -0.493 OA
ATOM     13  C   UNL     1      -2.832   6.149   7.986  1.00  0.00     0.278 C 
ENDBRANCH   1  12
BRANCH   2  14
ATOM     14  O   UNL     1      -1.441   9.813   9.462  1.00  0.00    -0.504 OA
ATOM     15  H   UNL     1      -1.598   9.701   8.467  1.00  0.00     0.293 HD
ENDBRANCH   2  14
TORSDOF 2
ENDMDL
MODEL 4
REMARK VINA RESULT:    -4.805      2.541      4.258
REMARK INTER + INTRA:          -5.289
REMARK INTER:                  -5.243
REMARK INTRA:                  -0.046
REMARK UNBOUND:                -0.063
REMARK SMILES COc1cc2ccc(=O)oc2cc1O
REMARK SMILES IDX 3 1 13 2 12 3 11 4 5 5 4 6 6 7 7 8 8 9 9 10 10 11 2 12 1 13
REMARK SMILES IDX 14 14
REMARK H PARENT 14 15
REMARK Flexibility Score: inf
ROOT
ATOM      1  C   UNL     1      -1.634   9.166  11.498  1.00  0.00     0.161 A 
ATOM      2  C   UNL     1      -1.905   8.002  10.751  1.00  0.00     0.161 A 
ATOM      3  C   UNL     1      -2.321   6.832  11.396  1.00  0.00     0.098 A 
ATOM      4  C   UNL     1      -2.473   6.804  12.783  1.00  0.00     0.142 A 
ATOM      5  C   UNL     1      -2.204   7.964  13.540  1.00  0.00     0.022 A 
ATOM      6  C   UNL     1      -1.787   9.137  12.899  1.00  0.00     0.062 A 
ATOM      7  C   UNL     1      -2.365   7.904  14.928  1.00  0.00     0.019 A 
ATOM      8  C   UNL     1      -2.783   6.712  15.520  1.00  0.00     0.094 A 
ATOM      9  C   UNL     1      -3.030   5.602  14.705  1.00  0.00     0.336 A 
ATOM     10  O   UNL     1      -3.407   4.518  15.219  1.00  0.00    -0.246 OA
ATOM     11  O   UNL     1      -2.869   5.686  13.387  1.00  0.00    -0.423 OA
ENDROOT
BRANCH   1  12
ATOM     12  O   UNL     1      -1.219  10.323  10.820  1.00  0.00    -0.493 OA
ATOM     13  C   UNL     1      -0.306  11.282  11.344  1.00  0.00     0.278 C 
ENDBRANCH   1  12
BRANCH   2  14
ATOM     14  O   UNL     1      -1.766   7.990   9.364  1.00  0.00    -0.504 OA
ATOM     15  H   UNL     1      -1.830   7.138   8.821  1.00  0.00     0.293 HD
ENDBRANCH   2  14
TORSDOF 2
ENDMDL
MODEL 5
REMARK VINA RESULT:    -4.760      3.411      4.230
REMARK INTER + INTRA:          -5.240
REMARK INTER:                  -5.192
REMARK INTRA:                  -0.048
REMARK UNBOUND:                -0.063
REMARK SMILES COc1cc2ccc(=O)oc2cc1O
REMARK SMILES IDX 3 1 13 2 12 3 11 4 5 5 4 6 6 7 7 8 8 9 9 10 10 11 2 12 1 13
REMARK SMILES IDX 14 14
REMARK H PARENT 14 15
REMARK Flexibility Score: inf
ROOT
ATOM      1  C   UNL     1      -2.235   7.526  13.967  1.00  0.00     0.161 A 
ATOM      2  C   UNL     1      -2.630   7.359  15.310  1.00  0.00     0.161 A 
ATOM      3  C   UNL     1      -3.159   6.139  15.743  1.00  0.00     0.098 A 
ATOM      4  C   UNL     1      -3.303   5.074  14.852  1.00  0.00     0.142 A 
ATOM      5  C   UNL     1      -2.912   5.230  13.505  1.00  0.00     0.022 A 
ATOM      6  C   UNL     1      -2.382   6.451  13.067  1.00  0.00     0.062 A 
ATOM      7  C   UNL     1      -3.069   4.146  12.636  1.00  0.00     0.019 A 
ATOM      8  C   UNL     1      -3.603   2.952  13.120  1.00  0.00     0.094 A 
ATOM      9  C   UNL     1      -3.969   2.870  14.467  1.00  0.00     0.336 A 
ATOM     10  O   UNL     1      -4.452   1.801  14.923  1.00  0.00    -0.246 OA
ATOM     11  O   UNL     1      -3.809   3.917  15.272  1.00  0.00    -0.423 OA
ENDROOT
BRANCH   1  12
ATOM     12  O   UNL     1      -1.707   8.764  13.567  1.00  0.00    -0.493 OA
ATOM     13  C   UNL     1      -1.961   9.381  12.308  1.00  0.00     0.278 C 
ENDBRANCH   1  12
BRANCH   2  14
ATOM     14  O   UNL     1      -2.501   8.399  16.231  1.00  0.00    -0.504 OA
ATOM     15  H   UNL     1      -2.580   9.372  15.962  1.00  0.00     0.293 HD
ENDBRANCH   2  14
TORSDOF 2
ENDMDL
MODEL 6
REMARK VINA RESULT:    -4.749      2.453      3.343
REMARK INTER + INTRA:          -5.229
REMARK INTER:                  -5.176
REMARK INTRA:                  -0.052
REMARK UNBOUND:                -0.063
REMARK SMILES COc1cc2ccc(=O)oc2cc1O
REMARK SMILES IDX 3 1 13 2 12 3 11 4 5 5 4 6 6 7 7 8 8 9 9 10 10 11 2 12 1 13
REMARK SMILES IDX 14 14
REMARK H PARENT 14 15
REMARK Flexibility Score: inf
ROOT
ATOM      1  C   UNL     1      -2.657   5.840  14.543  1.00  0.00     0.161 A 
ATOM      2  C   UNL     1      -3.183   4.543  14.707  1.00  0.00     0.161 A 
ATOM      3  C   UNL     1      -3.407   3.726  13.594  1.00  0.00     0.098 A 
ATOM      4  C   UNL     1      -3.113   4.185  12.309  1.00  0.00     0.142 A 
ATOM      5  C   UNL     1      -2.587   5.482  12.132  1.00  0.00     0.022 A 
ATOM      6  C   UNL     1      -2.361   6.304  13.244  1.00  0.00     0.062 A 
ATOM      7  C   UNL     1      -2.303   5.914  10.833  1.00  0.00     0.019 A 
ATOM      8  C   UNL     1      -2.545   5.059   9.758  1.00  0.00     0.094 A 
ATOM      9  C   UNL     1      -3.069   3.787  10.009  1.00  0.00     0.336 A 
ATOM     10  O   UNL     1      -3.295   3.000   9.053  1.00  0.00    -0.246 OA
ATOM     11  O   UNL     1      -3.329   3.401  11.255  1.00  0.00    -0.423 OA
ENDROOT
BRANCH   1  12
ATOM     12  O   UNL     1      -2.444   6.633  15.681  1.00  0.00    -0.493 OA
ATOM     13  C   UNL     1      -2.898   7.975  15.827  1.00  0.00     0.278 C 
ENDBRANCH   1  12
BRANCH   2  14
ATOM     14  O   UNL     1      -3.488   4.048  15.975  1.00  0.00    -0.504 OA
ATOM     15  H   UNL     1      -4.351   4.280  16.453  1.00  0.00     0.293 HD
ENDBRANCH   2  14
TORSDOF 2
ENDMDL
MODEL 7
REMARK VINA RESULT:    -4.602      1.198      4.954
REMARK INTER + INTRA:          -5.068
REMARK INTER:                  -5.023
REMARK INTRA:                  -0.045
REMARK UNBOUND:                -0.063
REMARK SMILES COc1cc2ccc(=O)oc2cc1O
REMARK SMILES IDX 3 1 13 2 12 3 11 4 5 5 4 6 6 7 7 8 8 9 9 10 10 11 2 12 1 13
REMARK SMILES IDX 14 14
REMARK H PARENT 14 15
REMARK Flexibility Score: inf
ROOT
ATOM      1  C   UNL     1      -2.748   4.607   9.264  1.00  0.00     0.161 A 
ATOM      2  C   UNL     1      -2.979   4.305  10.621  1.00  0.00     0.161 A 
ATOM      3  C   UNL     1      -2.813   5.291  11.601  1.00  0.00     0.098 A 
ATOM      4  C   UNL     1      -2.417   6.582  11.246  1.00  0.00     0.142 A 
ATOM      5  C   UNL     1      -2.183   6.894   9.890  1.00  0.00     0.022 A 
ATOM      6  C   UNL     1      -2.347   5.911   8.906  1.00  0.00     0.062 A 
ATOM      7  C   UNL     1      -1.786   8.196   9.566  1.00  0.00     0.019 A 
ATOM      8  C   UNL     1      -1.636   9.139  10.582  1.00  0.00     0.094 A 
ATOM      9  C   UNL     1      -1.886   8.757  11.904  1.00  0.00     0.336 A 
ATOM     10  O   UNL     1      -1.756   9.593  12.835  1.00  0.00    -0.246 OA
ATOM     11  O   UNL     1      -2.262   7.512  12.185  1.00  0.00    -0.423 OA
ENDROOT
BRANCH   1  12
ATOM     12  O   UNL     1      -2.924   3.595   8.307  1.00  0.00    -0.493 OA
ATOM     13  C   UNL     1      -1.909   2.681   7.902  1.00  0.00     0.278 C 
ENDBRANCH   1  12
BRANCH   2  14
ATOM     14  O   UNL     1      -3.377   3.028  11.015  1.00  0.00    -0.504 OA
ATOM     15  H   UNL     1      -2.916   2.525  11.764  1.00  0.00     0.293 HD
ENDBRANCH   2  14
TORSDOF 2
ENDMDL
MODEL 8
REMARK VINA RESULT:    -4.540      3.309      5.953
REMARK INTER + INTRA:          -5.001
REMARK INTER:                  -4.943
REMARK INTRA:                  -0.059
REMARK UNBOUND:                -0.063
REMARK SMILES COc1cc2ccc(=O)oc2cc1O
REMARK SMILES IDX 3 1 13 2 12 3 11 4 5 5 4 6 6 7 7 8 8 9 9 10 10 11 2 12 1 13
REMARK SMILES IDX 14 14
REMARK H PARENT 14 15
REMARK Flexibility Score: inf
ROOT
ATOM      1  C   UNL     1      -3.636   3.933  15.012  1.00  0.00     0.161 A 
ATOM      2  C   UNL     1      -3.429   3.567  13.667  1.00  0.00     0.161 A 
ATOM      3  C   UNL     1      -2.935   4.501  12.749  1.00  0.00     0.098 A 
ATOM      4  C   UNL     1      -2.642   5.804  13.154  1.00  0.00     0.142 A 
ATOM      5  C   UNL     1      -2.845   6.181  14.499  1.00  0.00     0.022 A 
ATOM      6  C   UNL     1      -3.340   5.250  15.420  1.00  0.00     0.062 A 
ATOM      7  C   UNL     1      -2.542   7.494  14.874  1.00  0.00     0.019 A 
ATOM      8  C   UNL     1      -2.052   8.385  13.919  1.00  0.00     0.094 A 
ATOM      9  C   UNL     1      -1.876   7.940  12.605  1.00  0.00     0.336 A 
ATOM     10  O   UNL     1      -1.436   8.727  11.728  1.00  0.00    -0.246 OA
ATOM     11  O   UNL     1      -2.172   6.685  12.275  1.00  0.00    -0.423 OA
ENDROOT
BRANCH   1  12
ATOM     12  O   UNL     1      -4.132   2.972  15.906  1.00  0.00    -0.493 OA
ATOM     13  C   UNL     1      -5.372   3.077  16.599  1.00  0.00     0.278 C 
ENDBRANCH   1  12
BRANCH   2  14
ATOM     14  O   UNL     1      -3.710   2.274  13.224  1.00  0.00    -0.504 OA
ATOM     15  H   UNL     1      -3.309   1.896  12.374  1.00  0.00     0.293 HD
ENDBRANCH   2  14
TORSDOF 2
ENDMDL
MODEL 9
REMARK VINA RESULT:    -4.503      2.240      5.304
REMARK INTER + INTRA:          -4.961
REMARK INTER:                  -4.897
REMARK INTRA:                  -0.064
REMARK UNBOUND:                -0.063
REMARK SMILES COc1cc2ccc(=O)oc2cc1O
REMARK SMILES IDX 3 1 13 2 12 3 11 4 5 5 4 6 6 7 7 8 8 9 9 10 10 11 2 12 1 13
REMARK SMILES IDX 14 14
REMARK H PARENT 14 15
REMARK Flexibility Score: inf
ROOT
ATOM      1  C   UNL     1      -2.411   4.358   9.314  1.00  0.00     0.161 A 
ATOM      2  C   UNL     1      -2.033   5.708   9.461  1.00  0.00     0.161 A 
ATOM      3  C   UNL     1      -2.089   6.323  10.716  1.00  0.00     0.098 A 
ATOM      4  C   UNL     1      -2.520   5.609  11.835  1.00  0.00     0.142 A 
ATOM      5  C   UNL     1      -2.902   4.258  11.700  1.00  0.00     0.022 A 
ATOM      6  C   UNL     1      -2.848   3.638  10.445  1.00  0.00     0.062 A 
ATOM      7  C   UNL     1      -3.330   3.570  12.839  1.00  0.00     0.019 A 
ATOM      8  C   UNL     1      -3.367   4.232  14.066  1.00  0.00     0.094 A 
ATOM      9  C   UNL     1      -2.974   5.572  14.125  1.00  0.00     0.336 A 
ATOM     10  O   UNL     1      -3.000   6.187  15.222  1.00  0.00    -0.246 OA
ATOM     11  O   UNL     1      -2.570   6.203  13.025  1.00  0.00    -0.423 OA
ENDROOT
BRANCH   1  12
ATOM     12  O   UNL     1      -2.343   3.771   8.040  1.00  0.00    -0.493 OA
ATOM     13  C   UNL     1      -1.360   2.821   7.641  1.00  0.00     0.278 C 
ENDBRANCH   1  12
BRANCH   2  14
ATOM     14  O   UNL     1      -1.595   6.454   8.366  1.00  0.00    -0.504 OA
ATOM     15  H   UNL     1      -2.193   6.651   7.573  1.00  0.00     0.293 HD
ENDBRANCH   2  14
TORSDOF 2
ENDMDL
