MODEL 1
REMARK VINA RESULT:    -3.970      0.000      0.000
REMARK INTER + INTRA:          -6.590
REMARK INTER:                  -6.058
REMARK INTRA:                  -0.532
REMARK UNBOUND:                -0.532
REMARK SMILES CCCCCCCCCCC(=O)[O-]
REMARK SMILES IDX 7 1 8 2 9 3 10 4 11 5 12 6 13 7 6 8 5 9 4 10 3 11 2 12 1 13
REMARK H PARENT
REMARK Flexibility Score: inf
ROOT
ATOM      1  C   UNL     1     -35.956  -9.419   2.122  1.00  0.00     0.000 C 
ENDROOT
BRANCH   1   2
ATOM      2  C   UNL     1     -37.292  -8.746   1.757  1.00  0.00     0.000 C 
BRANCH   2   3
ATOM      3  C   UNL     1     -37.253  -8.051   0.385  1.00  0.00     0.006 C 
BRANCH   3   4
ATOM      4  C   UNL     1     -36.237  -8.701  -0.563  1.00  0.00     0.053 C 
BRANCH   4   5
ATOM      5  C   UNL     1     -36.827  -8.974  -1.912  1.00  0.00     0.041 C 
ATOM      6  O   UNL     1     -38.029  -8.681  -2.149  1.00  0.00    -0.550 OA
ATOM      7  O   UNL     1     -36.045  -9.536  -2.912  1.00  0.00    -0.550 OA
ENDBRANCH   4   5
ENDBRANCH   3   4
ENDBRANCH   2   3
ENDBRANCH   1   2
BRANCH   1   8
ATOM      8  C   UNL     1     -36.070 -10.866   2.642  1.00  0.00     0.000 C 
BRANCH   8   9
ATOM      9  C   UNL     1     -35.159 -11.885   1.934  1.00  0.00    -0.000 C 
BRANCH   9  10
ATOM     10  C   UNL     1     -33.665 -11.627   2.190  1.00  0.00    -0.000 C 
BRANCH  10  11
ATOM     11  C   UNL     1     -33.342 -11.406   3.679  1.00  0.00    -0.000 C 
BRANCH  11  12
ATOM     12  C   UNL     1     -31.910 -10.920   3.964  1.00  0.00    -0.003 C 
ATOM     13  C   UNL     1     -30.968 -11.102   2.775  1.00  0.00     0.004 C 
ENDBRANCH  11  12
ENDBRANCH  10  11
ENDBRANCH   9  10
ENDBRANCH   8   9
ENDBRANCH   1   8
TORSDOF 9
ENDMDL
MODEL 2
REMARK VINA RESULT:    -3.942      3.616      6.751
REMARK INTER + INTRA:          -6.549
REMARK INTER:                  -6.203
REMARK INTRA:                  -0.346
REMARK UNBOUND:                -0.532
REMARK SMILES CCCCCCCCCCC(=O)[O-]
REMARK SMILES IDX 7 1 8 2 9 3 10 4 11 5 12 6 13 7 6 8 5 9 4 10 3 11 2 12 1 13
REMARK H PARENT
REMARK Flexibility Score: inf
ROOT
ATOM      1  C   UNL     1     -35.803 -10.087   1.187  1.00  0.00     0.000 C 
ENDROOT
BRANCH   1   2
ATOM      2  C   UNL     1     -35.295 -10.345   2.618  1.00  0.00     0.000 C 
BRANCH   2   3
ATOM      3  C   UNL     1     -34.604 -11.712   2.767  1.00  0.00     0.006 C 
BRANCH   3   4
ATOM      4  C   UNL     1     -33.195 -11.715   2.162  1.00  0.00     0.053 C 
BRANCH   4   5
ATOM      5  C   UNL     1     -32.157 -11.312   3.164  1.00  0.00     0.041 C 
ATOM      6  O   UNL     1     -31.003 -10.982   2.784  1.00  0.00    -0.550 OA
ATOM      7  O   UNL     1     -32.470 -11.286   4.517  1.00  0.00    -0.550 OA
ENDBRANCH   4   5
ENDBRANCH   3   4
ENDBRANCH   2   3
ENDBRANCH   1   2
BRANCH   1   8
ATOM      8  C   UNL     1     -36.518  -8.737   0.978  1.00  0.00     0.000 C 
BRANCH   8   9
ATOM      9  C   UNL     1     -36.365  -8.130  -0.428  1.00  0.00    -0.000 C 
BRANCH   9  10
ATOM     10  C   UNL     1     -37.677  -8.148  -1.231  1.00  0.00    -0.000 C 
BRANCH  10  11
ATOM     11  C   UNL     1     -38.119  -6.745  -1.686  1.00  0.00    -0.000 C 
BRANCH  11  12
ATOM     12  C   UNL     1     -37.733  -5.605  -0.728  1.00  0.00    -0.003 C 
ATOM     13  C   UNL     1     -37.245  -4.352  -1.454  1.00  0.00     0.004 C 
ENDBRANCH  11  12
ENDBRANCH  10  11
ENDBRANCH   9  10
ENDBRANCH   8   9
ENDBRANCH   1   8
TORSDOF 9
ENDMDL
MODEL 3
REMARK VINA RESULT:    -3.803      3.369      5.923
REMARK INTER + INTRA:          -6.336
REMARK INTER:                  -5.451
REMARK INTRA:                  -0.885
REMARK UNBOUND:                -0.532
REMARK SMILES CCCCCCCCCCC(=O)[O-]
REMARK SMILES IDX 7 1 8 2 9 3 10 4 11 5 12 6 13 7 6 8 5 9 4 10 3 11 2 12 1 13
REMARK H PARENT
REMARK Flexibility Score: inf
ROOT
ATOM      1  C   UNL     1     -35.654  -9.568   2.268  1.00  0.00     0.000 C 
ENDROOT
BRANCH   1   2
ATOM      2  C   UNL     1     -35.497 -11.079   2.014  1.00  0.00     0.000 C 
BRANCH   2   3
ATOM      3  C   UNL     1     -34.032 -11.545   2.087  1.00  0.00     0.006 C 
BRANCH   3   4
ATOM      4  C   UNL     1     -33.375 -11.176   3.423  1.00  0.00     0.053 C 
BRANCH   4   5
ATOM      5  C   UNL     1     -31.880 -11.233   3.344  1.00  0.00     0.041 C 
ATOM      6  O   UNL     1     -31.315 -11.573   2.271  1.00  0.00    -0.550 OA
ATOM      7  O   UNL     1     -31.112 -10.896   4.451  1.00  0.00    -0.550 OA
ENDBRANCH   4   5
ENDBRANCH   3   4
ENDBRANCH   2   3
ENDBRANCH   1   2
BRANCH   1   8
ATOM      8  C   UNL     1     -37.093  -9.028   2.141  1.00  0.00     0.000 C 
BRANCH   8   9
ATOM      9  C   UNL     1     -37.495  -8.574   0.727  1.00  0.00    -0.000 C 
BRANCH   9  10
ATOM     10  C   UNL     1     -36.282  -8.308  -0.181  1.00  0.00    -0.000 C 
BRANCH  10  11
ATOM     11  C   UNL     1     -36.378  -9.032  -1.536  1.00  0.00    -0.000 C 
BRANCH  11  12
ATOM     12  C   UNL     1     -35.518 -10.303  -1.651  1.00  0.00    -0.003 C 
ATOM     13  C   UNL     1     -36.338 -11.590  -1.574  1.00  0.00     0.004 C 
ENDBRANCH  11  12
ENDBRANCH  10  11
ENDBRANCH   9  10
ENDBRANCH   8   9
ENDBRANCH   1   8
TORSDOF 9
ENDMDL
MODEL 4
REMARK VINA RESULT:    -3.642     20.546     21.990
REMARK INTER + INTRA:          -6.091
REMARK INTER:                  -5.011
REMARK INTRA:                  -1.080
REMARK UNBOUND:                -0.532
REMARK SMILES CCCCCCCCCCC(=O)[O-]
REMARK SMILES IDX 7 1 8 2 9 3 10 4 11 5 12 6 13 7 6 8 5 9 4 10 3 11 2 12 1 13
REMARK H PARENT
REMARK Flexibility Score: inf
ROOT
ATOM      1  C   UNL     1     -20.829   7.198  -3.089  1.00  0.00     0.000 C 
ENDROOT
BRANCH   1   2
ATOM      2  C   UNL     1     -20.092   6.869  -1.778  1.00  0.00     0.000 C 
BRANCH   2   3
ATOM      3  C   UNL     1     -20.511   5.514  -1.182  1.00  0.00     0.006 C 
BRANCH   3   4
ATOM      4  C   UNL     1     -21.619   4.841  -2.002  1.00  0.00     0.053 C 
BRANCH   4   5
ATOM      5  C   UNL     1     -22.906   4.759  -1.239  1.00  0.00     0.041 C 
ATOM      6  O   UNL     1     -23.209   3.706  -0.619  1.00  0.00    -0.550 OA
ATOM      7  O   UNL     1     -23.761   5.853  -1.199  1.00  0.00    -0.550 OA
ENDBRANCH   4   5
ENDBRANCH   3   4
ENDBRANCH   2   3
ENDBRANCH   1   2
BRANCH   1   8
ATOM      8  C   UNL     1     -19.928   7.331  -4.333  1.00  0.00     0.000 C 
BRANCH   8   9
ATOM      9  C   UNL     1     -19.582   6.004  -5.032  1.00  0.00    -0.000 C 
BRANCH   9  10
ATOM     10  C   UNL     1     -18.131   5.559  -4.781  1.00  0.00    -0.000 C 
BRANCH  10  11
ATOM     11  C   UNL     1     -18.031   4.345  -3.840  1.00  0.00    -0.000 C 
BRANCH  11  12
ATOM     12  C   UNL     1     -18.875   3.131  -4.262  1.00  0.00    -0.003 C 
ATOM     13  C   UNL     1     -18.168   1.797  -4.026  1.00  0.00     0.004 C 
ENDBRANCH  11  12
ENDBRANCH  10  11
ENDBRANCH   9  10
ENDBRANCH   8   9
ENDBRANCH   1   8
TORSDOF 9
ENDMDL
MODEL 5
REMARK VINA RESULT:    -3.608     20.378     22.229
REMARK INTER + INTRA:          -6.038
REMARK INTER:                  -5.055
REMARK INTRA:                  -0.983
REMARK UNBOUND:                -0.532
REMARK SMILES CCCCCCCCCCC(=O)[O-]
REMARK SMILES IDX 7 1 8 2 9 3 10 4 11 5 12 6 13 7 6 8 5 9 4 10 3 11 2 12 1 13
REMARK H PARENT
REMARK Flexibility Score: inf
ROOT
ATOM      1  C   UNL     1     -22.844   4.747  12.970  1.00  0.00     0.000 C 
ENDROOT
BRANCH   1   2
ATOM      2  C   UNL     1     -22.098   3.590  12.280  1.00  0.00     0.000 C 
BRANCH   2   3
ATOM      3  C   UNL     1     -22.672   3.255  10.892  1.00  0.00     0.006 C 
BRANCH   3   4
ATOM      4  C   UNL     1     -22.197   1.887  10.386  1.00  0.00     0.053 C 
BRANCH   4   5
ATOM      5  C   UNL     1     -21.974   1.886   8.905  1.00  0.00     0.041 C 
ATOM      6  O   UNL     1     -20.974   2.473   8.415  1.00  0.00    -0.550 OA
ATOM      7  O   UNL     1     -22.862   1.223   8.068  1.00  0.00    -0.550 OA
ENDBRANCH   4   5
ENDBRANCH   3   4
ENDBRANCH   2   3
ENDBRANCH   1   2
BRANCH   1   8
ATOM      8  C   UNL     1     -24.184   5.144  12.319  1.00  0.00     0.000 C 
BRANCH   8   9
ATOM      9  C   UNL     1     -24.461   6.658  12.271  1.00  0.00    -0.000 C 
BRANCH   9  10
ATOM     10  C   UNL     1     -23.176   7.500  12.348  1.00  0.00    -0.000 C 
BRANCH  10  11
ATOM     11  C   UNL     1     -22.703   7.998  10.970  1.00  0.00    -0.000 C 
BRANCH  11  12
ATOM     12  C   UNL     1     -21.532   7.205  10.365  1.00  0.00    -0.003 C 
ATOM     13  C   UNL     1     -20.399   6.957  11.359  1.00  0.00     0.004 C 
ENDBRANCH  11  12
ENDBRANCH  10  11
ENDBRANCH   9  10
ENDBRANCH   8   9
ENDBRANCH   1   8
TORSDOF 9
ENDMDL
MODEL 6
REMARK VINA RESULT:    -3.493     19.965     22.027
REMARK INTER + INTRA:          -5.862
REMARK INTER:                  -4.999
REMARK INTRA:                  -0.863
REMARK UNBOUND:                -0.532
REMARK SMILES CCCCCCCCCCC(=O)[O-]
REMARK SMILES IDX 7 1 8 2 9 3 10 4 11 5 12 6 13 7 6 8 5 9 4 10 3 11 2 12 1 13
REMARK H PARENT
REMARK Flexibility Score: inf
ROOT
ATOM      1  C   UNL     1     -20.656   5.251  10.486  1.00  0.00     0.000 C 
ENDROOT
BRANCH   1   2
ATOM      2  C   UNL     1     -20.011   3.931  10.024  1.00  0.00     0.000 C 
BRANCH   2   3
ATOM      3  C   UNL     1     -20.624   2.697  10.709  1.00  0.00     0.006 C 
BRANCH   3   4
ATOM      4  C   UNL     1     -22.019   2.368  10.164  1.00  0.00     0.053 C 
BRANCH   4   5
ATOM      5  C   UNL     1     -21.956   1.408   9.015  1.00  0.00     0.041 C 
ATOM      6  O   UNL     1     -20.972   0.631   8.891  1.00  0.00    -0.550 OA
ATOM      7  O   UNL     1     -22.993   1.359   8.092  1.00  0.00    -0.550 OA
ENDBRANCH   4   5
ENDBRANCH   3   4
ENDBRANCH   2   3
ENDBRANCH   1   2
BRANCH   1   8
ATOM      8  C   UNL     1     -20.466   5.588  11.978  1.00  0.00     0.000 C 
BRANCH   8   9
ATOM      9  C   UNL     1     -21.741   6.045  12.710  1.00  0.00    -0.000 C 
BRANCH   9  10
ATOM     10  C   UNL     1     -22.665   4.873  13.082  1.00  0.00    -0.000 C 
BRANCH  10  11
ATOM     11  C   UNL     1     -23.954   4.836  12.241  1.00  0.00    -0.000 C 
BRANCH  11  12
ATOM     12  C   UNL     1     -24.768   6.141  12.252  1.00  0.00    -0.003 C 
ATOM     13  C   UNL     1     -26.263   5.917  12.026  1.00  0.00     0.004 C 
ENDBRANCH  11  12
ENDBRANCH  10  11
ENDBRANCH   9  10
ENDBRANCH   8   9
ENDBRANCH   1   8
TORSDOF 9
ENDMDL
MODEL 7
REMARK VINA RESULT:    -3.488     20.859     22.685
REMARK INTER + INTRA:          -5.855
REMARK INTER:                  -4.874
REMARK INTRA:                  -0.981
REMARK UNBOUND:                -0.532
REMARK SMILES CCCCCCCCCCC(=O)[O-]
REMARK SMILES IDX 7 1 8 2 9 3 10 4 11 5 12 6 13 7 6 8 5 9 4 10 3 11 2 12 1 13
REMARK H PARENT
REMARK Flexibility Score: inf
ROOT
ATOM      1  C   UNL     1     -24.082   5.123  12.322  1.00  0.00     0.000 C 
ENDROOT
BRANCH   1   2
ATOM      2  C   UNL     1     -22.823   4.749  13.125  1.00  0.00     0.000 C 
BRANCH   2   3
ATOM      3  C   UNL     1     -22.049   3.572  12.505  1.00  0.00     0.006 C 
BRANCH   3   4
ATOM      4  C   UNL     1     -22.542   3.238  11.092  1.00  0.00     0.053 C 
BRANCH   4   5
ATOM      5  C   UNL     1     -21.772   2.104  10.486  1.00  0.00     0.041 C 
ATOM      6  O   UNL     1     -22.376   1.182   9.877  1.00  0.00    -0.550 OA
ATOM      7  O   UNL     1     -20.387   2.076  10.581  1.00  0.00    -0.550 OA
ENDBRANCH   4   5
ENDBRANCH   3   4
ENDBRANCH   2   3
ENDBRANCH   1   2
BRANCH   1   8
ATOM      8  C   UNL     1     -24.477   6.612  12.377  1.00  0.00     0.000 C 
BRANCH   8   9
ATOM      9  C   UNL     1     -23.295   7.598  12.419  1.00  0.00    -0.000 C 
BRANCH   9  10
ATOM     10  C   UNL     1     -22.678   7.847  11.032  1.00  0.00    -0.000 C 
BRANCH  10  11
ATOM     11  C   UNL     1     -21.303   7.178  10.859  1.00  0.00    -0.000 C 
BRANCH  11  12
ATOM     12  C   UNL     1     -20.877   6.947   9.399  1.00  0.00    -0.003 C 
ATOM     13  C   UNL     1     -20.464   5.503   9.117  1.00  0.00     0.004 C 
ENDBRANCH  11  12
ENDBRANCH  10  11
ENDBRANCH   9  10
ENDBRANCH   8   9
ENDBRANCH   1   8
TORSDOF 9
ENDMDL
MODEL 8
REMARK VINA RESULT:    -3.413     20.322     22.277
REMARK INTER + INTRA:          -5.741
REMARK INTER:                  -5.007
REMARK INTRA:                  -0.733
REMARK UNBOUND:                -0.532
REMARK SMILES CCCCCCCCCCC(=O)[O-]
REMARK SMILES IDX 7 1 8 2 9 3 10 4 11 5 12 6 13 7 6 8 5 9 4 10 3 11 2 12 1 13
REMARK H PARENT
REMARK Flexibility Score: inf
ROOT
ATOM      1  C   UNL     1     -22.689   3.280  10.958  1.00  0.00     0.000 C 
ENDROOT
BRANCH   1   2
ATOM      2  C   UNL     1     -22.326   1.835  10.569  1.00  0.00     0.000 C 
BRANCH   2   3
ATOM      3  C   UNL     1     -21.940   1.697   9.086  1.00  0.00     0.006 C 
BRANCH   3   4
ATOM      4  C   UNL     1     -20.715   2.549   8.727  1.00  0.00     0.053 C 
BRANCH   4   5
ATOM      5  C   UNL     1     -19.493   2.111   9.475  1.00  0.00     0.041 C 
ATOM      6  O   UNL     1     -19.052   0.939   9.338  1.00  0.00    -0.550 OA
ATOM      7  O   UNL     1     -18.832   3.003  10.310  1.00  0.00    -0.550 OA
ENDBRANCH   4   5
ENDBRANCH   3   4
ENDBRANCH   2   3
ENDBRANCH   1   2
BRANCH   1   8
ATOM      8  C   UNL     1     -22.081   3.774  12.286  1.00  0.00     0.000 C 
BRANCH   8   9
ATOM      9  C   UNL     1     -22.957   4.765  13.074  1.00  0.00    -0.000 C 
BRANCH   9  10
ATOM     10  C   UNL     1     -24.206   5.207  12.292  1.00  0.00    -0.000 C 
BRANCH  10  11
ATOM     11  C   UNL     1     -24.402   6.734  12.289  1.00  0.00    -0.000 C 
BRANCH  11  12
ATOM     12  C   UNL     1     -23.099   7.551  12.351  1.00  0.00    -0.003 C 
ATOM     13  C   UNL     1     -22.495   7.821  10.974  1.00  0.00     0.004 C 
ENDBRANCH  11  12
ENDBRANCH  10  11
ENDBRANCH   9  10
ENDBRANCH   8   9
ENDBRANCH   1   8
TORSDOF 9
ENDMDL
MODEL 9
REMARK VINA RESULT:    -3.370      3.750      6.872
REMARK INTER + INTRA:          -5.675
REMARK INTER:                  -5.338
REMARK INTRA:                  -0.337
REMARK UNBOUND:                -0.532
REMARK SMILES CCCCCCCCCCC(=O)[O-]
REMARK SMILES IDX 7 1 8 2 9 3 10 4 11 5 12 6 13 7 6 8 5 9 4 10 3 11 2 12 1 13
REMARK H PARENT
REMARK Flexibility Score: inf
ROOT
ATOM      1  C   UNL     1     -36.635  -8.115  -0.046  1.00  0.00     0.000 C 
ENDROOT
BRANCH   1   2
ATOM      2  C   UNL     1     -37.583  -9.190   0.516  1.00  0.00     0.000 C 
BRANCH   2   3
ATOM      3  C   UNL     1     -37.334  -9.484   2.006  1.00  0.00     0.006 C 
BRANCH   3   4
ATOM      4  C   UNL     1     -35.844  -9.422   2.365  1.00  0.00     0.053 C 
BRANCH   4   5
ATOM      5  C   UNL     1     -35.184 -10.761   2.239  1.00  0.00     0.041 C 
ATOM      6  O   UNL     1     -34.964 -11.254   1.101  1.00  0.00    -0.550 OA
ATOM      7  O   UNL     1     -34.796 -11.455   3.377  1.00  0.00    -0.550 OA
ENDBRANCH   4   5
ENDBRANCH   3   4
ENDBRANCH   2   3
ENDBRANCH   1   2
BRANCH   1   8
ATOM      8  C   UNL     1     -37.151  -7.372  -1.295  1.00  0.00     0.000 C 
BRANCH   8   9
ATOM      9  C   UNL     1     -38.125  -6.215  -1.007  1.00  0.00    -0.000 C 
BRANCH   9  10
ATOM     10  C   UNL     1     -37.510  -4.834  -1.295  1.00  0.00    -0.000 C 
BRANCH  10  11
ATOM     11  C   UNL     1     -38.006  -3.745  -0.327  1.00  0.00    -0.000 C 
BRANCH  11  12
ATOM     12  C   UNL     1     -37.066  -2.535  -0.182  1.00  0.00    -0.003 C 
ATOM     13  C   UNL     1     -36.643  -1.941  -1.525  1.00  0.00     0.004 C 
ENDBRANCH  11  12
ENDBRANCH  10  11
ENDBRANCH   9  10
ENDBRANCH   8   9
ENDBRANCH   1   8
TORSDOF 9
ENDMDL
