MODEL 1
REMARK VINA RESULT:    -5.983      0.000      0.000
REMARK INTER + INTRA:         -11.428
REMARK INTER:                  -9.130
REMARK INTRA:                  -2.297
REMARK UNBOUND:                -2.297
REMARK SMILES CC(=O)CCC=C(C)CCC=C(C)CCC=C(C)C
REMARK SMILES IDX 10 1 11 2 12 3 13 4 14 5 15 6 16 7 18 8 17 9 19 10 9 11 7 12
REMARK SMILES IDX 6 13 8 14 5 15 4 16 2 17 3 18 1 19
REMARK H PARENT
REMARK Flexibility Score: inf
ROOT
ATOM      1  C   UNL     1      19.297  28.098 -15.698  1.00  0.00     0.032 C 
ENDROOT
BRANCH   1   2
ATOM      2  C   UNL     1      18.444  27.423 -14.651  1.00  0.00    -0.028 C 
ATOM      3  C   UNL     1      18.431  27.742 -13.337  1.00  0.00    -0.077 C 
ATOM      4  C   UNL     1      17.540  26.948 -12.418  1.00  0.00     0.039 C 
BRANCH   3   5
ATOM      5  C   UNL     1      19.214  28.906 -12.762  1.00  0.00     0.034 C 
BRANCH   5   6
ATOM      6  C   UNL     1      20.679  28.513 -12.544  1.00  0.00     0.032 C 
BRANCH   6   7
ATOM      7  C   UNL     1      21.594  29.671 -12.859  1.00  0.00    -0.028 C 
ATOM      8  C   UNL     1      23.664  28.420 -12.209  1.00  0.00     0.039 C 
ATOM      9  C   UNL     1      22.939  29.635 -12.738  1.00  0.00    -0.080 C 
ATOM     10  C   UNL     1      23.727  30.858 -13.130  1.00  0.00     0.039 C 
ENDBRANCH   6   7
ENDBRANCH   5   6
ENDBRANCH   3   5
ENDBRANCH   1   2
BRANCH   1  11
ATOM     11  C   UNL     1      20.484  27.219 -16.115  1.00  0.00     0.034 C 
BRANCH  11  12
ATOM     12  C   UNL     1      21.771  28.014 -16.205  1.00  0.00    -0.077 C 
ATOM     13  C   UNL     1      21.730  29.278 -16.680  1.00  0.00    -0.028 C 
ATOM     14  C   UNL     1      23.067  27.360 -15.784  1.00  0.00     0.039 C 
BRANCH  13  15
ATOM     15  C   UNL     1      22.927  30.194 -16.789  1.00  0.00     0.035 C 
BRANCH  15  16
ATOM     16  C   UNL     1      23.373  30.375 -18.244  1.00  0.00     0.079 C 
BRANCH  16  17
ATOM     17  C   UNL     1      24.502  29.441 -18.599  1.00  0.00     0.130 C 
ATOM     18  O   UNL     1      25.657  29.796 -18.415  1.00  0.00    -0.300 OA
ATOM     19  C   UNL     1      24.238  28.082 -19.178  1.00  0.00     0.087 C 
ENDBRANCH  16  17
ENDBRANCH  15  16
ENDBRANCH  13  15
ENDBRANCH  11  12
ENDBRANCH   1  11
TORSDOF 9
ENDMDL
MODEL 2
REMARK VINA RESULT:    -5.862      1.380      1.531
REMARK INTER + INTRA:         -11.243
REMARK INTER:                  -9.321
REMARK INTRA:                  -1.922
REMARK UNBOUND:                -2.297
REMARK SMILES CC(=O)CCC=C(C)CCC=C(C)CCC=C(C)C
REMARK SMILES IDX 10 1 11 2 12 3 13 4 14 5 15 6 16 7 18 8 17 9 19 10 9 11 7 12
REMARK SMILES IDX 6 13 8 14 5 15 4 16 2 17 3 18 1 19
REMARK H PARENT
REMARK Flexibility Score: inf
ROOT
ATOM      1  C   UNL     1      19.237  28.384 -15.298  1.00  0.00     0.032 C 
ENDROOT
BRANCH   1   2
ATOM      2  C   UNL     1      18.889  27.901 -13.910  1.00  0.00    -0.028 C 
ATOM      3  C   UNL     1      19.536  28.263 -12.779  1.00  0.00    -0.077 C 
ATOM      4  C   UNL     1      19.079  27.665 -11.473  1.00  0.00     0.039 C 
BRANCH   3   5
ATOM      5  C   UNL     1      20.648  29.293 -12.756  1.00  0.00     0.034 C 
BRANCH   5   6
ATOM      6  C   UNL     1      21.980  28.637 -12.377  1.00  0.00     0.032 C 
BRANCH   6   7
ATOM      7  C   UNL     1      22.815  29.572 -11.536  1.00  0.00    -0.028 C 
ATOM      8  C   UNL     1      22.142  28.490  -9.379  1.00  0.00     0.039 C 
ATOM      9  C   UNL     1      22.917  29.502 -10.191  1.00  0.00    -0.080 C 
ATOM     10  C   UNL     1      23.824  30.480  -9.489  1.00  0.00     0.039 C 
ENDBRANCH   6   7
ENDBRANCH   5   6
ENDBRANCH   3   5
ENDBRANCH   1   2
BRANCH   1  11
ATOM     11  C   UNL     1      20.268  27.469 -15.974  1.00  0.00     0.034 C 
BRANCH  11  12
ATOM     12  C   UNL     1      21.614  28.149 -16.126  1.00  0.00    -0.077 C 
ATOM     13  C   UNL     1      21.663  29.400 -16.638  1.00  0.00    -0.028 C 
ATOM     14  C   UNL     1      22.863  27.401 -15.724  1.00  0.00     0.039 C 
BRANCH  13  15
ATOM     15  C   UNL     1      22.927  30.208 -16.809  1.00  0.00     0.035 C 
BRANCH  15  16
ATOM     16  C   UNL     1      23.316  30.349 -18.286  1.00  0.00     0.079 C 
BRANCH  16  17
ATOM     17  C   UNL     1      24.441  29.416 -18.656  1.00  0.00     0.130 C 
ATOM     18  O   UNL     1      25.598  29.793 -18.540  1.00  0.00    -0.300 OA
ATOM     19  C   UNL     1      24.170  28.032 -19.168  1.00  0.00     0.087 C 
ENDBRANCH  16  17
ENDBRANCH  15  16
ENDBRANCH  13  15
ENDBRANCH  11  12
ENDBRANCH   1  11
TORSDOF 9
ENDMDL
MODEL 3
REMARK VINA RESULT:    -5.813      2.351      5.803
REMARK INTER + INTRA:         -11.169
REMARK INTER:                  -9.028
REMARK INTRA:                  -2.141
REMARK UNBOUND:                -2.297
REMARK SMILES CC(=O)CCC=C(C)CCC=C(C)CCC=C(C)C
REMARK SMILES IDX 10 1 11 2 12 3 13 4 14 5 15 6 16 7 18 8 17 9 19 10 9 11 7 12
REMARK SMILES IDX 6 13 8 14 5 15 4 16 2 17 3 18 1 19
REMARK H PARENT
REMARK Flexibility Score: inf
ROOT
ATOM      1  C   UNL     1      19.928  28.400 -15.744  1.00  0.00     0.032 C 
ENDROOT
BRANCH   1   2
ATOM      2  C   UNL     1      21.187  27.568 -15.792  1.00  0.00    -0.028 C 
ATOM      3  C   UNL     1      22.445  28.064 -15.804  1.00  0.00    -0.077 C 
ATOM      4  C   UNL     1      23.595  27.094 -15.883  1.00  0.00     0.039 C 
BRANCH   3   5
ATOM      5  C   UNL     1      22.751  29.543 -15.670  1.00  0.00     0.034 C 
BRANCH   5   6
ATOM      6  C   UNL     1      23.641  30.015 -16.825  1.00  0.00     0.032 C 
BRANCH   6   7
ATOM      7  C   UNL     1      22.803  30.446 -18.003  1.00  0.00    -0.028 C 
ATOM      8  C   UNL     1      23.417  28.444 -19.378  1.00  0.00     0.039 C 
ATOM      9  C   UNL     1      22.672  29.738 -19.146  1.00  0.00    -0.080 C 
ATOM     10  C   UNL     1      21.765  30.275 -20.223  1.00  0.00     0.039 C 
ENDBRANCH   6   7
ENDBRANCH   5   6
ENDBRANCH   3   5
ENDBRANCH   1   2
BRANCH   1  11
ATOM     11  C   UNL     1      18.901  27.817 -14.762  1.00  0.00     0.034 C 
BRANCH  11  12
ATOM     12  C   UNL     1      19.205  28.209 -13.329  1.00  0.00    -0.077 C 
ATOM     13  C   UNL     1      19.955  29.308 -13.094  1.00  0.00    -0.028 C 
ATOM     14  C   UNL     1      18.680  27.344 -12.207  1.00  0.00     0.039 C 
BRANCH  13  15
ATOM     15  C   UNL     1      20.302  29.833 -11.721  1.00  0.00     0.035 C 
BRANCH  15  16
ATOM     16  C   UNL     1      21.818  29.887 -11.499  1.00  0.00     0.079 C 
BRANCH  16  17
ATOM     17  C   UNL     1      22.414  28.505 -11.400  1.00  0.00     0.130 C 
ATOM     18  O   UNL     1      21.934  27.696 -10.620  1.00  0.00    -0.300 OA
ATOM     19  C   UNL     1      23.590  28.102 -12.240  1.00  0.00     0.087 C 
ENDBRANCH  16  17
ENDBRANCH  15  16
ENDBRANCH  13  15
ENDBRANCH  11  12
ENDBRANCH   1  11
TORSDOF 9
ENDMDL
MODEL 4
REMARK VINA RESULT:    -5.710      1.142      1.174
REMARK INTER + INTRA:         -11.012
REMARK INTER:                  -9.134
REMARK INTRA:                  -1.878
REMARK UNBOUND:                -2.297
REMARK SMILES CC(=O)CCC=C(C)CCC=C(C)CCC=C(C)C
REMARK SMILES IDX 10 1 11 2 12 3 13 4 14 5 15 6 16 7 18 8 17 9 19 10 9 11 7 12
REMARK SMILES IDX 6 13 8 14 5 15 4 16 2 17 3 18 1 19
REMARK H PARENT
REMARK Flexibility Score: inf
ROOT
ATOM      1  C   UNL     1      19.253  28.454 -15.453  1.00  0.00     0.032 C 
ENDROOT
BRANCH   1   2
ATOM      2  C   UNL     1      18.580  27.705 -14.328  1.00  0.00    -0.028 C 
ATOM      3  C   UNL     1      18.806  27.918 -13.011  1.00  0.00    -0.077 C 
ATOM      4  C   UNL     1      18.071  27.062 -12.013  1.00  0.00     0.039 C 
BRANCH   3   5
ATOM      5  C   UNL     1      19.707  29.022 -12.495  1.00  0.00     0.034 C 
BRANCH   5   6
ATOM      6  C   UNL     1      21.169  28.563 -12.487  1.00  0.00     0.032 C 
BRANCH   6   7
ATOM      7  C   UNL     1      22.057  29.601 -13.127  1.00  0.00    -0.028 C 
ATOM      8  C   UNL     1      22.975  30.401 -10.938  1.00  0.00     0.039 C 
ATOM      9  C   UNL     1      22.892  30.416 -12.447  1.00  0.00    -0.080 C 
ATOM     10  C   UNL     1      23.751  31.377 -13.228  1.00  0.00     0.039 C 
ENDBRANCH   6   7
ENDBRANCH   5   6
ENDBRANCH   3   5
ENDBRANCH   1   2
BRANCH   1  11
ATOM     11  C   UNL     1      20.204  27.547 -16.248  1.00  0.00     0.034 C 
BRANCH  11  12
ATOM     12  C   UNL     1      21.595  28.139 -16.350  1.00  0.00    -0.077 C 
ATOM     13  C   UNL     1      21.746  29.372 -16.884  1.00  0.00    -0.028 C 
ATOM     14  C   UNL     1      22.774  27.324 -15.874  1.00  0.00     0.039 C 
BRANCH  13  15
ATOM     15  C   UNL     1      23.065  30.096 -17.011  1.00  0.00     0.035 C 
BRANCH  15  16
ATOM     16  C   UNL     1      23.404  30.406 -18.474  1.00  0.00     0.079 C 
BRANCH  16  17
ATOM     17  C   UNL     1      23.249  29.188 -19.350  1.00  0.00     0.130 C 
ATOM     18  O   UNL     1      22.350  29.151 -20.177  1.00  0.00    -0.300 OA
ATOM     19  C   UNL     1      24.178  28.016 -19.227  1.00  0.00     0.087 C 
ENDBRANCH  16  17
ENDBRANCH  15  16
ENDBRANCH  13  15
ENDBRANCH  11  12
ENDBRANCH   1  11
TORSDOF 9
ENDMDL
MODEL 5
REMARK VINA RESULT:    -5.683      1.801      4.209
REMARK INTER + INTRA:         -10.970
REMARK INTER:                  -9.282
REMARK INTRA:                  -1.688
REMARK UNBOUND:                -2.297
REMARK SMILES CC(=O)CCC=C(C)CCC=C(C)CCC=C(C)C
REMARK SMILES IDX 10 1 11 2 12 3 13 4 14 5 15 6 16 7 18 8 17 9 19 10 9 11 7 12
REMARK SMILES IDX 6 13 8 14 5 15 4 16 2 17 3 18 1 19
REMARK H PARENT
REMARK Flexibility Score: inf
ROOT
ATOM      1  C   UNL     1      22.941  29.346 -11.144  1.00  0.00     0.032 C 
ENDROOT
BRANCH   1   2
ATOM      2  C   UNL     1      22.320  28.621  -9.975  1.00  0.00    -0.028 C 
ATOM      3  C   UNL     1      20.991  28.475  -9.771  1.00  0.00    -0.077 C 
ATOM      4  C   UNL     1      20.534  27.746  -8.534  1.00  0.00     0.039 C 
BRANCH   3   5
ATOM      5  C   UNL     1      19.946  28.946 -10.762  1.00  0.00     0.034 C 
BRANCH   5   6
ATOM      6  C   UNL     1      19.320  27.752 -11.492  1.00  0.00     0.032 C 
BRANCH   6   7
ATOM      7  C   UNL     1      18.983  28.115 -12.917  1.00  0.00    -0.028 C 
ATOM      8  C   UNL     1      17.001  26.586 -13.008  1.00  0.00     0.039 C 
ATOM      9  C   UNL     1      17.930  27.619 -13.603  1.00  0.00    -0.080 C 
ATOM     10  C   UNL     1      17.695  28.107 -15.009  1.00  0.00     0.039 C 
ENDBRANCH   6   7
ENDBRANCH   5   6
ENDBRANCH   3   5
ENDBRANCH   1   2
BRANCH   1  11
ATOM     11  C   UNL     1      23.159  28.409 -12.341  1.00  0.00     0.034 C 
BRANCH  11  12
ATOM     12  C   UNL     1      22.821  29.084 -13.655  1.00  0.00    -0.077 C 
ATOM     13  C   UNL     1      22.169  28.378 -14.606  1.00  0.00    -0.028 C 
ATOM     14  C   UNL     1      23.243  30.517 -13.872  1.00  0.00     0.039 C 
BRANCH  13  15
ATOM     15  C   UNL     1      21.738  28.935 -15.943  1.00  0.00     0.035 C 
BRANCH  15  16
ATOM     16  C   UNL     1      22.700  28.527 -17.065  1.00  0.00     0.079 C 
BRANCH  16  17
ATOM     17  C   UNL     1      23.504  29.703 -17.562  1.00  0.00     0.130 C 
ATOM     18  O   UNL     1      22.945  30.769 -17.771  1.00  0.00    -0.300 OA
ATOM     19  C   UNL     1      24.980  29.590 -17.806  1.00  0.00     0.087 C 
ENDBRANCH  16  17
ENDBRANCH  15  16
ENDBRANCH  13  15
ENDBRANCH  11  12
ENDBRANCH   1  11
TORSDOF 9
ENDMDL
MODEL 6
REMARK VINA RESULT:    -5.642      1.425      3.736
REMARK INTER + INTRA:         -10.907
REMARK INTER:                  -9.315
REMARK INTRA:                  -1.592
REMARK UNBOUND:                -2.297
REMARK SMILES CC(=O)CCC=C(C)CCC=C(C)CCC=C(C)C
REMARK SMILES IDX 10 1 11 2 12 3 13 4 14 5 15 6 16 7 18 8 17 9 19 10 9 11 7 12
REMARK SMILES IDX 6 13 8 14 5 15 4 16 2 17 3 18 1 19
REMARK H PARENT
REMARK Flexibility Score: inf
ROOT
ATOM      1  C   UNL     1      22.586  29.424 -13.348  1.00  0.00     0.032 C 
ENDROOT
BRANCH   1   2
ATOM      2  C   UNL     1      22.783  28.841 -11.969  1.00  0.00    -0.028 C 
ATOM      3  C   UNL     1      21.847  28.828 -10.992  1.00  0.00    -0.077 C 
ATOM      4  C   UNL     1      22.215  28.231  -9.659  1.00  0.00     0.039 C 
BRANCH   3   5
ATOM      5  C   UNL     1      20.429  29.321 -11.200  1.00  0.00     0.034 C 
BRANCH   5   6
ATOM      6  C   UNL     1      19.515  28.166 -11.622  1.00  0.00     0.032 C 
BRANCH   6   7
ATOM      7  C   UNL     1      19.069  28.334 -13.054  1.00  0.00    -0.028 C 
ATOM      8  C   UNL     1      17.067  26.855 -12.773  1.00  0.00     0.039 C 
ATOM      9  C   UNL     1      17.958  27.772 -13.578  1.00  0.00    -0.080 C 
ATOM     10  C   UNL     1      17.617  28.065 -15.017  1.00  0.00     0.039 C 
ENDBRANCH   6   7
ENDBRANCH   5   6
ENDBRANCH   3   5
ENDBRANCH   1   2
BRANCH   1  11
ATOM     11  C   UNL     1      22.481  28.326 -14.417  1.00  0.00     0.034 C 
BRANCH  11  12
ATOM     12  C   UNL     1      22.227  28.904 -15.795  1.00  0.00    -0.077 C 
ATOM     13  C   UNL     1      23.066  29.849 -16.275  1.00  0.00    -0.028 C 
ATOM     14  C   UNL     1      21.031  28.422 -16.582  1.00  0.00     0.039 C 
BRANCH  13  15
ATOM     15  C   UNL     1      22.954  30.481 -17.643  1.00  0.00     0.035 C 
BRANCH  15  16
ATOM     16  C   UNL     1      24.063  29.997 -18.584  1.00  0.00     0.079 C 
BRANCH  16  17
ATOM     17  C   UNL     1      23.702  28.690 -19.243  1.00  0.00     0.130 C 
ATOM     18  O   UNL     1      24.424  27.717 -19.088  1.00  0.00    -0.300 OA
ATOM     19  C   UNL     1      22.470  28.558 -20.090  1.00  0.00     0.087 C 
ENDBRANCH  16  17
ENDBRANCH  15  16
ENDBRANCH  13  15
ENDBRANCH  11  12
ENDBRANCH   1  11
TORSDOF 9
ENDMDL
MODEL 7
REMARK VINA RESULT:    -5.641      1.832      3.259
REMARK INTER + INTRA:         -10.907
REMARK INTER:                  -8.913
REMARK INTRA:                  -1.994
REMARK UNBOUND:                -2.297
REMARK SMILES CC(=O)CCC=C(C)CCC=C(C)CCC=C(C)C
REMARK SMILES IDX 10 1 11 2 12 3 13 4 14 5 15 6 16 7 18 8 17 9 19 10 9 11 7 12
REMARK SMILES IDX 6 13 8 14 5 15 4 16 2 17 3 18 1 19
REMARK H PARENT
REMARK Flexibility Score: inf
ROOT
ATOM      1  C   UNL     1      19.832  29.336 -11.998  1.00  0.00     0.032 C 
ENDROOT
BRANCH   1   2
ATOM      2  C   UNL     1      19.942  28.933 -10.547  1.00  0.00    -0.028 C 
ATOM      3  C   UNL     1      21.010  28.316  -9.992  1.00  0.00    -0.077 C 
ATOM      4  C   UNL     1      20.948  27.956  -8.531  1.00  0.00     0.039 C 
BRANCH   3   5
ATOM      5  C   UNL     1      22.290  28.036 -10.754  1.00  0.00     0.034 C 
BRANCH   5   6
ATOM      6  C   UNL     1      23.254  29.221 -10.640  1.00  0.00     0.032 C 
BRANCH   6   7
ATOM      7  C   UNL     1      23.591  29.768 -12.006  1.00  0.00    -0.028 C 
ATOM      8  C   UNL     1      22.474  31.968 -11.578  1.00  0.00     0.039 C 
ATOM      9  C   UNL     1      23.270  31.009 -12.432  1.00  0.00    -0.080 C 
ATOM     10  C   UNL     1      23.711  31.430 -13.810  1.00  0.00     0.039 C 
ENDBRANCH   6   7
ENDBRANCH   5   6
ENDBRANCH   3   5
ENDBRANCH   1   2
BRANCH   1  11
ATOM     11  C   UNL     1      19.538  28.128 -12.899  1.00  0.00     0.034 C 
BRANCH  11  12
ATOM     12  C   UNL     1      19.872  28.412 -14.350  1.00  0.00    -0.077 C 
ATOM     13  C   UNL     1      21.167  28.408 -14.738  1.00  0.00    -0.028 C 
ATOM     14  C   UNL     1      18.750  28.714 -15.314  1.00  0.00     0.039 C 
BRANCH  13  15
ATOM     15  C   UNL     1      21.639  28.636 -16.155  1.00  0.00     0.035 C 
BRANCH  15  16
ATOM     16  C   UNL     1      23.167  28.721 -16.238  1.00  0.00     0.079 C 
BRANCH  16  17
ATOM     17  C   UNL     1      23.613  29.711 -17.284  1.00  0.00     0.130 C 
ATOM     18  O   UNL     1      22.876  30.636 -17.591  1.00  0.00    -0.300 OA
ATOM     19  C   UNL     1      24.947  29.584 -17.960  1.00  0.00     0.087 C 
ENDBRANCH  16  17
ENDBRANCH  15  16
ENDBRANCH  13  15
ENDBRANCH  11  12
ENDBRANCH   1  11
TORSDOF 9
ENDMDL
MODEL 8
REMARK VINA RESULT:    -5.346      5.251      9.025
REMARK INTER + INTRA:         -10.456
REMARK INTER:                  -8.879
REMARK INTRA:                  -1.577
REMARK UNBOUND:                -2.297
REMARK SMILES CC(=O)CCC=C(C)CCC=C(C)CCC=C(C)C
REMARK SMILES IDX 10 1 11 2 12 3 13 4 14 5 15 6 16 7 18 8 17 9 19 10 9 11 7 12
REMARK SMILES IDX 6 13 8 14 5 15 4 16 2 17 3 18 1 19
REMARK H PARENT
REMARK Flexibility Score: inf
ROOT
ATOM      1  C   UNL     1      21.777  27.246 -22.592  1.00  0.00     0.032 C 
ENDROOT
BRANCH   1   2
ATOM      2  C   UNL     1      20.329  26.827 -22.674  1.00  0.00    -0.028 C 
ATOM      3  C   UNL     1      19.651  26.600 -23.822  1.00  0.00    -0.077 C 
ATOM      4  C   UNL     1      18.198  26.215 -23.729  1.00  0.00     0.039 C 
BRANCH   3   5
ATOM      5  C   UNL     1      20.304  26.646 -25.189  1.00  0.00     0.034 C 
BRANCH   5   6
ATOM      6  C   UNL     1      20.653  25.233 -25.667  1.00  0.00     0.032 C 
BRANCH   6   7
ATOM      7  C   UNL     1      22.078  24.887 -25.313  1.00  0.00    -0.028 C 
ATOM      8  C   UNL     1      21.415  23.388 -23.419  1.00  0.00     0.039 C 
ATOM      9  C   UNL     1      22.435  24.040 -24.323  1.00  0.00    -0.080 C 
ATOM     10  C   UNL     1      23.901  23.758 -24.113  1.00  0.00     0.039 C 
ENDBRANCH   6   7
ENDBRANCH   5   6
ENDBRANCH   3   5
ENDBRANCH   1   2
BRANCH   1  11
ATOM     11  C   UNL     1      21.942  28.758 -22.805  1.00  0.00     0.034 C 
BRANCH  11  12
ATOM     12  C   UNL     1      21.655  29.541 -21.540  1.00  0.00    -0.077 C 
ATOM     13  C   UNL     1      22.108  29.066 -20.358  1.00  0.00    -0.028 C 
ATOM     14  C   UNL     1      20.852  30.817 -21.634  1.00  0.00     0.039 C 
BRANCH  13  15
ATOM     15  C   UNL     1      21.928  29.762 -19.028  1.00  0.00     0.035 C 
BRANCH  15  16
ATOM     16  C   UNL     1      23.169  30.574 -18.640  1.00  0.00     0.079 C 
BRANCH  16  17
ATOM     17  C   UNL     1      23.873  29.977 -17.448  1.00  0.00     0.130 C 
ATOM     18  O   UNL     1      24.994  29.510 -17.582  1.00  0.00    -0.300 OA
ATOM     19  C   UNL     1      23.223  29.943 -16.096  1.00  0.00     0.087 C 
ENDBRANCH  16  17
ENDBRANCH  15  16
ENDBRANCH  13  15
ENDBRANCH  11  12
ENDBRANCH   1  11
TORSDOF 9
ENDMDL
MODEL 9
REMARK VINA RESULT:    -5.299      1.295      2.517
REMARK INTER + INTRA:         -10.384
REMARK INTER:                  -8.478
REMARK INTRA:                  -1.906
REMARK UNBOUND:                -2.297
REMARK SMILES CC(=O)CCC=C(C)CCC=C(C)CCC=C(C)C
REMARK SMILES IDX 10 1 11 2 12 3 13 4 14 5 15 6 16 7 18 8 17 9 19 10 9 11 7 12
REMARK SMILES IDX 6 13 8 14 5 15 4 16 2 17 3 18 1 19
REMARK H PARENT
REMARK Flexibility Score: inf
ROOT
ATOM      1  C   UNL     1      17.372  27.490 -13.370  1.00  0.00     0.032 C 
ENDROOT
BRANCH   1   2
ATOM      2  C   UNL     1      18.125  27.032 -12.144  1.00  0.00    -0.028 C 
ATOM      3  C   UNL     1      19.183  27.675 -11.600  1.00  0.00    -0.077 C 
ATOM      4  C   UNL     1      19.842  27.067 -10.389  1.00  0.00     0.039 C 
BRANCH   3   5
ATOM      5  C   UNL     1      19.690  29.010 -12.107  1.00  0.00     0.034 C 
BRANCH   5   6
ATOM      6  C   UNL     1      20.772  29.565 -11.175  1.00  0.00     0.032 C 
BRANCH   6   7
ATOM      7  C   UNL     1      21.711  30.474 -11.929  1.00  0.00    -0.028 C 
ATOM      8  C   UNL     1      23.244  28.608 -12.593  1.00  0.00     0.039 C 
ATOM      9  C   UNL     1      22.811  30.056 -12.592  1.00  0.00    -0.080 C 
ATOM     10  C   UNL     1      23.631  31.077 -13.337  1.00  0.00     0.039 C 
ENDBRANCH   6   7
ENDBRANCH   5   6
ENDBRANCH   3   5
ENDBRANCH   1   2
BRANCH   1  11
ATOM     11  C   UNL     1      18.004  26.945 -14.659  1.00  0.00     0.034 C 
BRANCH  11  12
ATOM     12  C   UNL     1      18.975  27.933 -15.272  1.00  0.00    -0.077 C 
ATOM     13  C   UNL     1      20.283  27.602 -15.355  1.00  0.00    -0.028 C 
ATOM     14  C   UNL     1      18.457  29.268 -15.752  1.00  0.00     0.039 C 
BRANCH  13  15
ATOM     15  C   UNL     1      21.351  28.473 -15.976  1.00  0.00     0.035 C 
BRANCH  15  16
ATOM     16  C   UNL     1      22.691  27.736 -16.087  1.00  0.00     0.079 C 
BRANCH  16  17
ATOM     17  C   UNL     1      23.651  28.463 -16.994  1.00  0.00     0.130 C 
ATOM     18  O   UNL     1      24.396  27.822 -17.721  1.00  0.00    -0.300 OA
ATOM     19  C   UNL     1      23.714  29.962 -17.021  1.00  0.00     0.087 C 
ENDBRANCH  16  17
ENDBRANCH  15  16
ENDBRANCH  13  15
ENDBRANCH  11  12
ENDBRANCH   1  11
TORSDOF 9
ENDMDL
