MODEL 1
REMARK VINA RESULT:    -4.094      0.000      0.000
REMARK INTER + INTRA:          -6.566
REMARK INTER:                  -6.009
REMARK INTRA:                  -0.557
REMARK UNBOUND:                -0.557
REMARK SMILES O=C([O-])CCCCCCCC(=O)[O-]
REMARK SMILES IDX 7 1 6 2 5 3 4 4 2 5 1 6 3 7 8 8 9 9 10 10 11 11 12 12 13 13
REMARK H PARENT
REMARK Flexibility Score: inf
ROOT
ATOM      1  C   UNL     1      28.132  33.792  33.783  1.00  0.00     0.000 C 
ENDROOT
BRANCH   1   2
ATOM      2  C   UNL     1      27.226  35.019  33.589  1.00  0.00     0.000 C 
BRANCH   2   3
ATOM      3  C   UNL     1      27.252  35.551  32.145  1.00  0.00     0.006 C 
BRANCH   3   4
ATOM      4  C   UNL     1      27.320  34.417  31.113  1.00  0.00     0.053 C 
BRANCH   4   5
ATOM      5  C   UNL     1      25.956  33.934  30.729  1.00  0.00     0.041 C 
ATOM      6  O   UNL     1      25.362  33.080  31.439  1.00  0.00    -0.550 OA
ATOM      7  O   UNL     1      25.325  34.453  29.605  1.00  0.00    -0.550 OA
ENDBRANCH   4   5
ENDBRANCH   3   4
ENDBRANCH   2   3
ENDBRANCH   1   2
BRANCH   1   8
ATOM      8  C   UNL     1      28.202  33.335  35.248  1.00  0.00     0.000 C 
BRANCH   8   9
ATOM      9  C   UNL     1      27.316  32.106  35.482  1.00  0.00     0.006 C 
BRANCH   9  10
ATOM     10  C   UNL     1      26.294  32.367  36.593  1.00  0.00     0.053 C 
BRANCH  10  11
ATOM     11  C   UNL     1      25.126  33.134  36.061  1.00  0.00     0.041 C 
ATOM     12  O   UNL     1      24.577  34.021  36.766  1.00  0.00    -0.550 OA
ATOM     13  O   UNL     1      24.674  32.905  34.767  1.00  0.00    -0.550 OA
ENDBRANCH  10  11
ENDBRANCH   9  10
ENDBRANCH   8   9
ENDBRANCH   1   8
TORSDOF 8
ENDMDL
MODEL 2
REMARK VINA RESULT:    -4.049      0.281      4.917
REMARK INTER + INTRA:          -6.500
REMARK INTER:                  -6.025
REMARK INTRA:                  -0.475
REMARK UNBOUND:                -0.557
REMARK SMILES O=C([O-])CCCCCCCC(=O)[O-]
REMARK SMILES IDX 7 1 6 2 5 3 4 4 2 5 1 6 3 7 8 8 9 9 10 10 11 11 12 12 13 13
REMARK H PARENT
REMARK Flexibility Score: inf
ROOT
ATOM      1  C   UNL     1      28.112  33.742  33.880  1.00  0.00     0.000 C 
ENDROOT
BRANCH   1   2
ATOM      2  C   UNL     1      28.157  33.291  35.349  1.00  0.00     0.000 C 
BRANCH   2   3
ATOM      3  C   UNL     1      27.325  32.022  35.604  1.00  0.00     0.006 C 
BRANCH   3   4
ATOM      4  C   UNL     1      26.242  32.246  36.668  1.00  0.00     0.053 C 
BRANCH   4   5
ATOM      5  C   UNL     1      25.243  33.274  36.235  1.00  0.00     0.041 C 
ATOM      6  O   UNL     1      25.204  34.399  36.799  1.00  0.00    -0.550 OA
ATOM      7  O   UNL     1      24.377  33.002  35.183  1.00  0.00    -0.550 OA
ENDBRANCH   4   5
ENDBRANCH   3   4
ENDBRANCH   2   3
ENDBRANCH   1   2
BRANCH   1   8
ATOM      8  C   UNL     1      27.164  34.930  33.656  1.00  0.00     0.000 C 
BRANCH   8   9
ATOM      9  C   UNL     1      27.329  35.505  32.245  1.00  0.00     0.006 C 
BRANCH   9  10
ATOM     10  C   UNL     1      27.383  34.389  31.198  1.00  0.00     0.053 C 
BRANCH  10  11
ATOM     11  C   UNL     1      26.002  33.982  30.793  1.00  0.00     0.041 C 
ATOM     12  O   UNL     1      25.360  33.146  31.481  1.00  0.00    -0.550 OA
ATOM     13  O   UNL     1      25.404  34.564  29.682  1.00  0.00    -0.550 OA
ENDBRANCH  10  11
ENDBRANCH   9  10
ENDBRANCH   8   9
ENDBRANCH   1   8
TORSDOF 8
ENDMDL
MODEL 3
REMARK VINA RESULT:    -3.929      2.141      2.929
REMARK INTER + INTRA:          -6.323
REMARK INTER:                  -5.654
REMARK INTRA:                  -0.669
REMARK UNBOUND:                -0.557
REMARK SMILES O=C([O-])CCCCCCCC(=O)[O-]
REMARK SMILES IDX 7 1 6 2 5 3 4 4 2 5 1 6 3 7 8 8 9 9 10 10 11 11 12 12 13 13
REMARK H PARENT
REMARK Flexibility Score: inf
ROOT
ATOM      1  C   UNL     1      26.628  35.023  34.143  1.00  0.00     0.000 C 
ENDROOT
BRANCH   1   2
ATOM      2  C   UNL     1      27.315  35.400  32.821  1.00  0.00     0.000 C 
BRANCH   2   3
ATOM      3  C   UNL     1      27.880  34.177  32.077  1.00  0.00     0.006 C 
BRANCH   3   4
ATOM      4  C   UNL     1      27.397  34.113  30.622  1.00  0.00     0.053 C 
BRANCH   4   5
ATOM      5  C   UNL     1      25.916  33.913  30.537  1.00  0.00     0.041 C 
ATOM      6  O   UNL     1      25.245  34.506  29.651  1.00  0.00    -0.550 OA
ATOM      7  O   UNL     1      25.280  33.044  31.415  1.00  0.00    -0.550 OA
ENDBRANCH   4   5
ENDBRANCH   3   4
ENDBRANCH   2   3
ENDBRANCH   1   2
BRANCH   1   8
ATOM      8  C   UNL     1      26.735  33.523  34.457  1.00  0.00     0.000 C 
BRANCH   8   9
ATOM      9  C   UNL     1      27.382  33.294  35.828  1.00  0.00     0.006 C 
BRANCH   9  10
ATOM     10  C   UNL     1      28.883  33.019  35.690  1.00  0.00     0.053 C 
BRANCH  10  11
ATOM     11  C   UNL     1      29.116  31.745  34.942  1.00  0.00     0.041 C 
ATOM     12  O   UNL     1      29.811  31.744  33.892  1.00  0.00    -0.550 OA
ATOM     13  O   UNL     1      28.607  30.548  35.431  1.00  0.00    -0.550 OA
ENDBRANCH  10  11
ENDBRANCH   9  10
ENDBRANCH   8   9
ENDBRANCH   1   8
TORSDOF 8
ENDMDL
MODEL 4
REMARK VINA RESULT:    -3.869      2.097      5.410
REMARK INTER + INTRA:          -6.235
REMARK INTER:                  -5.680
REMARK INTRA:                  -0.555
REMARK UNBOUND:                -0.557
REMARK SMILES O=C([O-])CCCCCCCC(=O)[O-]
REMARK SMILES IDX 7 1 6 2 5 3 4 4 2 5 1 6 3 7 8 8 9 9 10 10 11 11 12 12 13 13
REMARK H PARENT
REMARK Flexibility Score: inf
ROOT
ATOM      1  C   UNL     1      25.515  34.377  35.172  1.00  0.00     0.000 C 
ENDROOT
BRANCH   1   2
ATOM      2  C   UNL     1      25.021  33.248  36.092  1.00  0.00     0.000 C 
BRANCH   2   3
ATOM      3  C   UNL     1      26.079  32.821  37.125  1.00  0.00     0.006 C 
BRANCH   3   4
ATOM      4  C   UNL     1      26.770  31.507  36.735  1.00  0.00     0.053 C 
BRANCH   4   5
ATOM      5  C   UNL     1      28.142  31.745  36.186  1.00  0.00     0.041 C 
ATOM      6  O   UNL     1      28.696  32.867  36.324  1.00  0.00    -0.550 OA
ATOM      7  O   UNL     1      28.825  30.715  35.550  1.00  0.00    -0.550 OA
ENDBRANCH   4   5
ENDBRANCH   3   4
ENDBRANCH   2   3
ENDBRANCH   1   2
BRANCH   1   8
ATOM      8  C   UNL     1      26.229  33.848  33.919  1.00  0.00     0.000 C 
BRANCH   8   9
ATOM      9  C   UNL     1      27.296  34.836  33.437  1.00  0.00     0.006 C 
BRANCH   9  10
ATOM     10  C   UNL     1      26.843  35.561  32.166  1.00  0.00     0.053 C 
BRANCH  10  11
ATOM     11  C   UNL     1      26.739  34.600  31.024  1.00  0.00     0.041 C 
ATOM     12  O   UNL     1      27.742  33.929  30.667  1.00  0.00    -0.550 OA
ATOM     13  O   UNL     1      25.520  34.410  30.386  1.00  0.00    -0.550 OA
ENDBRANCH  10  11
ENDBRANCH   9  10
ENDBRANCH   8   9
ENDBRANCH   1   8
TORSDOF 8
ENDMDL
MODEL 5
REMARK VINA RESULT:    -3.860      2.135      2.776
REMARK INTER + INTRA:          -6.222
REMARK INTER:                  -5.653
REMARK INTRA:                  -0.569
REMARK UNBOUND:                -0.557
REMARK SMILES O=C([O-])CCCCCCCC(=O)[O-]
REMARK SMILES IDX 7 1 6 2 5 3 4 4 2 5 1 6 3 7 8 8 9 9 10 10 11 11 12 12 13 13
REMARK H PARENT
REMARK Flexibility Score: inf
ROOT
ATOM      1  C   UNL     1      25.495  34.373  35.401  1.00  0.00     0.000 C 
ENDROOT
BRANCH   1   2
ATOM      2  C   UNL     1      26.081  33.904  34.059  1.00  0.00     0.000 C 
BRANCH   2   3
ATOM      3  C   UNL     1      27.228  34.804  33.567  1.00  0.00     0.006 C 
BRANCH   3   4
ATOM      4  C   UNL     1      26.861  35.556  32.280  1.00  0.00     0.053 C 
BRANCH   4   5
ATOM      5  C   UNL     1      26.777  34.633  31.104  1.00  0.00     0.041 C 
ATOM      6  O   UNL     1      27.788  33.976  30.740  1.00  0.00    -0.550 OA
ATOM      7  O   UNL     1      25.572  34.471  30.432  1.00  0.00    -0.550 OA
ENDBRANCH   4   5
ENDBRANCH   3   4
ENDBRANCH   2   3
ENDBRANCH   1   2
BRANCH   1   8
ATOM      8  C   UNL     1      25.212  33.207  36.361  1.00  0.00     0.000 C 
BRANCH   8   9
ATOM      9  C   UNL     1      26.492  32.764  37.078  1.00  0.00     0.006 C 
BRANCH   9  10
ATOM     10  C   UNL     1      26.942  31.381  36.598  1.00  0.00     0.053 C 
BRANCH  10  11
ATOM     11  C   UNL     1      28.244  31.478  35.867  1.00  0.00     0.041 C 
ATOM     12  O   UNL     1      28.877  32.565  35.842  1.00  0.00    -0.550 OA
ATOM     13  O   UNL     1      28.783  30.353  35.255  1.00  0.00    -0.550 OA
ENDBRANCH  10  11
ENDBRANCH   9  10
ENDBRANCH   8   9
ENDBRANCH   1   8
TORSDOF 8
ENDMDL
MODEL 6
REMARK VINA RESULT:    -3.737      2.176      5.455
REMARK INTER + INTRA:          -6.042
REMARK INTER:                  -5.512
REMARK INTRA:                  -0.530
REMARK UNBOUND:                -0.557
REMARK SMILES O=C([O-])CCCCCCCC(=O)[O-]
REMARK SMILES IDX 7 1 6 2 5 3 4 4 2 5 1 6 3 7 8 8 9 9 10 10 11 11 12 12 13 13
REMARK H PARENT
REMARK Flexibility Score: inf
ROOT
ATOM      1  C   UNL     1      26.972  33.969  34.309  1.00  0.00     0.000 C 
ENDROOT
BRANCH   1   2
ATOM      2  C   UNL     1      28.429  33.520  34.108  1.00  0.00     0.000 C 
BRANCH   2   3
ATOM      3  C   UNL     1      29.215  33.454  35.429  1.00  0.00     0.006 C 
BRANCH   3   4
ATOM      4  C   UNL     1      28.341  32.980  36.599  1.00  0.00     0.053 C 
BRANCH   4   5
ATOM      5  C   UNL     1      28.142  31.496  36.576  1.00  0.00     0.041 C 
ATOM      6  O   UNL     1      27.006  31.005  36.807  1.00  0.00    -0.550 OA
ATOM      7  O   UNL     1      29.204  30.656  36.265  1.00  0.00    -0.550 OA
ENDBRANCH   4   5
ENDBRANCH   3   4
ENDBRANCH   2   3
ENDBRANCH   1   2
BRANCH   1   8
ATOM      8  C   UNL     1      26.731  35.414  33.847  1.00  0.00     0.000 C 
BRANCH   8   9
ATOM      9  C   UNL     1      27.200  35.613  32.401  1.00  0.00     0.006 C 
BRANCH   9  10
ATOM     10  C   UNL     1      26.145  35.116  31.407  1.00  0.00     0.053 C 
BRANCH  10  11
ATOM     11  C   UNL     1      26.660  33.940  30.640  1.00  0.00     0.041 C 
ATOM     12  O   UNL     1      25.860  33.177  30.038  1.00  0.00    -0.550 OA
ATOM     13  O   UNL     1      28.028  33.714  30.548  1.00  0.00    -0.550 OA
ENDBRANCH  10  11
ENDBRANCH   9  10
ENDBRANCH   8   9
ENDBRANCH   1   8
TORSDOF 8
ENDMDL
MODEL 7
REMARK VINA RESULT:    -3.590      2.333      5.203
REMARK INTER + INTRA:          -5.826
REMARK INTER:                  -5.433
REMARK INTRA:                  -0.393
REMARK UNBOUND:                -0.557
REMARK SMILES O=C([O-])CCCCCCCC(=O)[O-]
REMARK SMILES IDX 7 1 6 2 5 3 4 4 2 5 1 6 3 7 8 8 9 9 10 10 11 11 12 12 13 13
REMARK H PARENT
REMARK Flexibility Score: inf
ROOT
ATOM      1  C   UNL     1      25.932  34.308  34.533  1.00  0.00     0.000 C 
ENDROOT
BRANCH   1   2
ATOM      2  C   UNL     1      26.260  33.647  35.882  1.00  0.00     0.000 C 
BRANCH   2   3
ATOM      3  C   UNL     1      27.667  33.027  35.911  1.00  0.00     0.006 C 
BRANCH   3   4
ATOM      4  C   UNL     1      27.637  31.513  35.663  1.00  0.00     0.053 C 
BRANCH   4   5
ATOM      5  C   UNL     1      28.983  30.988  35.270  1.00  0.00     0.041 C 
ATOM      6  O   UNL     1      29.101  29.821  34.812  1.00  0.00    -0.550 OA
ATOM      7  O   UNL     1      30.105  31.802  35.375  1.00  0.00    -0.550 OA
ENDBRANCH   4   5
ENDBRANCH   3   4
ENDBRANCH   2   3
ENDBRANCH   1   2
BRANCH   1   8
ATOM      8  C   UNL     1      27.190  34.769  33.781  1.00  0.00     0.000 C 
BRANCH   8   9
ATOM      9  C   UNL     1      26.817  35.491  32.481  1.00  0.00     0.006 C 
BRANCH   9  10
ATOM     10  C   UNL     1      27.115  34.616  31.260  1.00  0.00     0.053 C 
BRANCH  10  11
ATOM     11  C   UNL     1      25.855  34.009  30.730  1.00  0.00     0.041 C 
ATOM     12  O   UNL     1      25.312  33.047  31.334  1.00  0.00    -0.550 OA
ATOM     13  O   UNL     1      25.252  34.538  29.596  1.00  0.00    -0.550 OA
ENDBRANCH  10  11
ENDBRANCH   9  10
ENDBRANCH   8   9
ENDBRANCH   1   8
TORSDOF 8
ENDMDL
MODEL 8
REMARK VINA RESULT:    -3.587      2.859      3.473
REMARK INTER + INTRA:          -5.822
REMARK INTER:                  -5.287
REMARK INTRA:                  -0.535
REMARK UNBOUND:                -0.557
REMARK SMILES O=C([O-])CCCCCCCC(=O)[O-]
REMARK SMILES IDX 7 1 6 2 5 3 4 4 2 5 1 6 3 7 8 8 9 9 10 10 11 11 12 12 13 13
REMARK H PARENT
REMARK Flexibility Score: inf
ROOT
ATOM      1  C   UNL     1      27.085  33.458  34.843  1.00  0.00     0.000 C 
ENDROOT
BRANCH   1   2
ATOM      2  C   UNL     1      26.350  34.684  34.277  1.00  0.00     0.000 C 
BRANCH   2   3
ATOM      3  C   UNL     1      27.194  35.459  33.251  1.00  0.00     0.006 C 
BRANCH   3   4
ATOM      4  C   UNL     1      26.594  35.391  31.839  1.00  0.00     0.053 C 
BRANCH   4   5
ATOM      5  C   UNL     1      26.898  34.087  31.170  1.00  0.00     0.041 C 
ATOM      6  O   UNL     1      25.979  33.433  30.609  1.00  0.00    -0.550 OA
ATOM      7  O   UNL     1      28.202  33.610  31.135  1.00  0.00    -0.550 OA
ENDBRANCH   4   5
ENDBRANCH   3   4
ENDBRANCH   2   3
ENDBRANCH   1   2
BRANCH   1   8
ATOM      8  C   UNL     1      28.613  33.598  34.763  1.00  0.00     0.000 C 
BRANCH   8   9
ATOM      9  C   UNL     1      29.273  32.246  34.471  1.00  0.00     0.006 C 
BRANCH   9  10
ATOM     10  C   UNL     1      29.675  31.537  35.768  1.00  0.00     0.053 C 
BRANCH  10  11
ATOM     11  C   UNL     1      29.504  30.057  35.632  1.00  0.00     0.041 C 
ATOM     12  O   UNL     1      29.320  29.542  34.498  1.00  0.00    -0.550 OA
ATOM     13  O   UNL     1      29.599  29.240  36.752  1.00  0.00    -0.550 OA
ENDBRANCH  10  11
ENDBRANCH   9  10
ENDBRANCH   8   9
ENDBRANCH   1   8
TORSDOF 8
ENDMDL
MODEL 9
REMARK VINA RESULT:    -3.407      2.508      4.947
REMARK INTER + INTRA:          -5.558
REMARK INTER:                  -4.822
REMARK INTRA:                  -0.735
REMARK UNBOUND:                -0.557
REMARK SMILES O=C([O-])CCCCCCCC(=O)[O-]
REMARK SMILES IDX 7 1 6 2 5 3 4 4 2 5 1 6 3 7 8 8 9 9 10 10 11 11 12 12 13 13
REMARK H PARENT
REMARK Flexibility Score: inf
ROOT
ATOM      1  C   UNL     1      26.050  33.659  36.930  1.00  0.00     0.000 C 
ENDROOT
BRANCH   1   2
ATOM      2  C   UNL     1      26.287  32.154  36.722  1.00  0.00     0.000 C 
BRANCH   2   3
ATOM      3  C   UNL     1      27.768  31.763  36.863  1.00  0.00     0.006 C 
BRANCH   3   4
ATOM      4  C   UNL     1      28.316  31.106  35.589  1.00  0.00     0.053 C 
BRANCH   4   5
ATOM      5  C   UNL     1      29.279  32.002  34.874  1.00  0.00     0.041 C 
ATOM      6  O   UNL     1      29.930  31.573  33.884  1.00  0.00    -0.550 OA
ATOM      7  O   UNL     1      29.432  33.323  35.278  1.00  0.00    -0.550 OA
ENDBRANCH   4   5
ENDBRANCH   3   4
ENDBRANCH   2   3
ENDBRANCH   1   2
BRANCH   1   8
ATOM      8  C   UNL     1      25.352  34.318  35.731  1.00  0.00     0.000 C 
BRANCH   8   9
ATOM      9  C   UNL     1      25.989  33.869  34.411  1.00  0.00     0.006 C 
BRANCH   9  10
ATOM     10  C   UNL     1      26.811  34.998  33.783  1.00  0.00     0.053 C 
BRANCH  10  11
ATOM     11  C   UNL     1      27.121  34.689  32.353  1.00  0.00     0.041 C 
ATOM     12  O   UNL     1      26.413  35.174  31.432  1.00  0.00    -0.550 OA
ATOM     13  O   UNL     1      28.224  33.906  32.034  1.00  0.00    -0.550 OA
ENDBRANCH  10  11
ENDBRANCH   9  10
ENDBRANCH   8   9
ENDBRANCH   1   8
TORSDOF 8
ENDMDL
