MODEL 1
REMARK VINA RESULT:    -4.659      0.000      0.000
REMARK INTER + INTRA:         -14.583
REMARK INTER:                 -10.651
REMARK INTRA:                  -3.933
REMARK UNBOUND:                -3.933
REMARK SMILES CCCCCCCCCCCCCCCCCCCCCCCC(=O)[O-]
REMARK SMILES IDX 13 1 14 2 15 3 16 4 17 5 18 6 19 7 20 8 21 9 22 10 23 11
REMARK SMILES IDX 24 12 25 13 26 14 12 15 11 16 10 17 9 18 8 19 7 20 6 21 5 22
REMARK SMILES IDX 4 23 3 24 2 25 1 26
REMARK H PARENT
REMARK Flexibility Score: inf
ROOT
ATOM      1  C   UNL     1     208.230 205.805 158.435  1.00  0.00     0.000 C 
ENDROOT
BRANCH   1   2
ATOM      2  C   UNL     1     208.698 207.266 158.563  1.00  0.00     0.000 C 
BRANCH   2   3
ATOM      3  C   UNL     1     209.100 207.939 157.235  1.00  0.00     0.000 C 
BRANCH   3   4
ATOM      4  C   UNL     1     209.341 206.984 156.048  1.00  0.00     0.000 C 
BRANCH   4   5
ATOM      5  C   UNL     1     208.332 207.106 154.892  1.00  0.00     0.000 C 
BRANCH   5   6
ATOM      6  C   UNL     1     207.095 206.205 155.068  1.00  0.00     0.000 C 
BRANCH   6   7
ATOM      7  C   UNL     1     205.854 206.761 154.335  1.00  0.00     0.000 C 
BRANCH   7   8
ATOM      8  C   UNL     1     204.731 207.252 155.273  1.00  0.00     0.000 C 
BRANCH   8   9
ATOM      9  C   UNL     1     204.748 206.649 156.687  1.00  0.00     0.000 C 
BRANCH   9  10
ATOM     10  C   UNL     1     205.028 207.684 157.791  1.00  0.00     0.006 C 
BRANCH  10  11
ATOM     11  C   UNL     1     205.617 208.987 157.232  1.00  0.00     0.053 C 
BRANCH  11  12
ATOM     12  C   UNL     1     205.934 209.974 158.313  1.00  0.00     0.041 C 
ATOM     13  O   UNL     1     205.137 210.140 159.276  1.00  0.00    -0.550 OA
ATOM     14  O   UNL     1     207.113 210.706 158.260  1.00  0.00    -0.550 OA
ENDBRANCH  11  12
ENDBRANCH  10  11
ENDBRANCH   9  10
ENDBRANCH   8   9
ENDBRANCH   7   8
ENDBRANCH   6   7
ENDBRANCH   5   6
ENDBRANCH   4   5
ENDBRANCH   3   4
ENDBRANCH   2   3
ENDBRANCH   1   2
BRANCH   1  15
ATOM     15  C   UNL     1     207.719 205.229 159.764  1.00  0.00     0.000 C 
BRANCH  15  16
ATOM     16  C   UNL     1     206.355 204.531 159.633  1.00  0.00     0.000 C 
BRANCH  16  17
ATOM     17  C   UNL     1     206.114 203.877 158.255  1.00  0.00     0.000 C 
BRANCH  17  18
ATOM     18  C   UNL     1     206.138 202.340 158.325  1.00  0.00    -0.000 C 
BRANCH  18  19
ATOM     19  C   UNL     1     206.436 201.681 156.965  1.00  0.00    -0.000 C 
BRANCH  19  20
ATOM     20  C   UNL     1     206.071 202.541 155.737  1.00  0.00    -0.000 C 
BRANCH  20  21
ATOM     21  C   UNL     1     207.280 202.843 154.835  1.00  0.00    -0.000 C 
BRANCH  21  22
ATOM     22  C   UNL     1     208.555 202.164 155.366  1.00  0.00    -0.000 C 
BRANCH  22  23
ATOM     23  C   UNL     1     209.431 203.118 156.197  1.00  0.00    -0.000 C 
BRANCH  23  24
ATOM     24  C   UNL     1     210.700 203.628 155.483  1.00  0.00    -0.000 C 
BRANCH  24  25
ATOM     25  C   UNL     1     211.577 202.531 154.854  1.00  0.00    -0.003 C 
ATOM     26  C   UNL     1     212.447 203.044 153.706  1.00  0.00     0.004 C 
ENDBRANCH  24  25
ENDBRANCH  23  24
ENDBRANCH  22  23
ENDBRANCH  21  22
ENDBRANCH  20  21
ENDBRANCH  19  20
ENDBRANCH  18  19
ENDBRANCH  17  18
ENDBRANCH  16  17
ENDBRANCH  15  16
ENDBRANCH   1  15
TORSDOF 22
ENDMDL
MODEL 2
REMARK VINA RESULT:    -4.658      3.223      7.559
REMARK INTER + INTRA:         -14.582
REMARK INTER:                 -10.889
REMARK INTRA:                  -3.693
REMARK UNBOUND:                -3.933
REMARK SMILES CCCCCCCCCCCCCCCCCCCCCCCC(=O)[O-]
REMARK SMILES IDX 13 1 14 2 15 3 16 4 17 5 18 6 19 7 20 8 21 9 22 10 23 11
REMARK SMILES IDX 24 12 25 13 26 14 12 15 11 16 10 17 9 18 8 19 7 20 6 21 5 22
REMARK SMILES IDX 4 23 3 24 2 25 1 26
REMARK H PARENT
REMARK Flexibility Score: inf
ROOT
ATOM      1  C   UNL     1     205.211 204.068 158.201  1.00  0.00     0.000 C 
ENDROOT
BRANCH   1   2
ATOM      2  C   UNL     1     206.217 203.923 159.357  1.00  0.00     0.000 C 
BRANCH   2   3
ATOM      3  C   UNL     1     206.824 205.247 159.862  1.00  0.00     0.000 C 
BRANCH   3   4
ATOM      4  C   UNL     1     208.357 205.257 160.035  1.00  0.00     0.000 C 
BRANCH   4   5
ATOM      5  C   UNL     1     209.094 206.388 159.297  1.00  0.00     0.000 C 
BRANCH   5   6
ATOM      6  C   UNL     1     208.229 207.078 158.224  1.00  0.00     0.000 C 
BRANCH   6   7
ATOM      7  C   UNL     1     209.036 207.423 156.952  1.00  0.00     0.000 C 
BRANCH   7   8
ATOM      8  C   UNL     1     209.089 206.288 155.909  1.00  0.00     0.000 C 
BRANCH   8   9
ATOM      9  C   UNL     1     208.066 205.159 156.115  1.00  0.00     0.000 C 
BRANCH   9  10
ATOM     10  C   UNL     1     208.703 203.827 156.550  1.00  0.00     0.006 C 
BRANCH  10  11
ATOM     11  C   UNL     1     208.312 202.665 155.627  1.00  0.00     0.053 C 
BRANCH  11  12
ATOM     12  C   UNL     1     206.922 202.174 155.893  1.00  0.00     0.041 C 
ATOM     13  O   UNL     1     205.949 202.633 155.236  1.00  0.00    -0.550 OA
ATOM     14  O   UNL     1     206.704 201.203 156.862  1.00  0.00    -0.550 OA
ENDBRANCH  11  12
ENDBRANCH  10  11
ENDBRANCH   9  10
ENDBRANCH   8   9
ENDBRANCH   7   8
ENDBRANCH   6   7
ENDBRANCH   5   6
ENDBRANCH   4   5
ENDBRANCH   3   4
ENDBRANCH   2   3
ENDBRANCH   1   2
BRANCH   1  15
ATOM     15  C   UNL     1     204.908 205.536 157.862  1.00  0.00     0.000 C 
BRANCH  15  16
ATOM     16  C   UNL     1     203.884 205.693 156.726  1.00  0.00     0.000 C 
BRANCH  16  17
ATOM     17  C   UNL     1     204.129 206.923 155.826  1.00  0.00     0.000 C 
BRANCH  17  18
ATOM     18  C   UNL     1     205.441 207.650 156.172  1.00  0.00    -0.000 C 
BRANCH  18  19
ATOM     19  C   UNL     1     205.245 209.156 156.428  1.00  0.00    -0.000 C 
BRANCH  19  20
ATOM     20  C   UNL     1     206.110 209.736 157.566  1.00  0.00    -0.000 C 
BRANCH  20  21
ATOM     21  C   UNL     1     205.291 210.096 158.818  1.00  0.00    -0.000 C 
BRANCH  21  22
ATOM     22  C   UNL     1     204.707 208.838 159.484  1.00  0.00    -0.000 C 
BRANCH  22  23
ATOM     23  C   UNL     1     203.186 208.936 159.702  1.00  0.00    -0.000 C 
BRANCH  23  24
ATOM     24  C   UNL     1     202.640 210.371 159.849  1.00  0.00    -0.000 C 
BRANCH  24  25
ATOM     25  C   UNL     1     201.252 210.474 160.505  1.00  0.00    -0.003 C 
ATOM     26  C   UNL     1     201.165 211.588 161.549  1.00  0.00     0.004 C 
ENDBRANCH  24  25
ENDBRANCH  23  24
ENDBRANCH  22  23
ENDBRANCH  21  22
ENDBRANCH  20  21
ENDBRANCH  19  20
ENDBRANCH  18  19
ENDBRANCH  17  18
ENDBRANCH  16  17
ENDBRANCH  15  16
ENDBRANCH   1  15
TORSDOF 22
ENDMDL
MODEL 3
REMARK VINA RESULT:    -4.651      1.727      3.586
REMARK INTER + INTRA:         -14.566
REMARK INTER:                 -10.480
REMARK INTRA:                  -4.087
REMARK UNBOUND:                -3.933
REMARK SMILES CCCCCCCCCCCCCCCCCCCCCCCC(=O)[O-]
REMARK SMILES IDX 13 1 14 2 15 3 16 4 17 5 18 6 19 7 20 8 21 9 22 10 23 11
REMARK SMILES IDX 24 12 25 13 26 14 12 15 11 16 10 17 9 18 8 19 7 20 6 21 5 22
REMARK SMILES IDX 4 23 3 24 2 25 1 26
REMARK H PARENT
REMARK Flexibility Score: inf
ROOT
ATOM      1  C   UNL     1     209.034 207.469 156.105  1.00  0.00     0.000 C 
ENDROOT
BRANCH   1   2
ATOM      2  C   UNL     1     208.301 207.029 154.825  1.00  0.00     0.000 C 
BRANCH   2   3
ATOM      3  C   UNL     1     206.944 206.335 155.059  1.00  0.00     0.000 C 
BRANCH   3   4
ATOM      4  C   UNL     1     205.716 207.049 154.456  1.00  0.00     0.000 C 
BRANCH   4   5
ATOM      5  C   UNL     1     204.407 206.884 155.248  1.00  0.00     0.000 C 
BRANCH   5   6
ATOM      6  C   UNL     1     204.574 206.048 156.532  1.00  0.00     0.000 C 
BRANCH   6   7
ATOM      7  C   UNL     1     203.974 206.747 157.771  1.00  0.00     0.000 C 
BRANCH   7   8
ATOM      8  C   UNL     1     204.992 207.566 158.592  1.00  0.00     0.000 C 
BRANCH   8   9
ATOM      9  C   UNL     1     205.010 209.075 158.295  1.00  0.00     0.000 C 
BRANCH   9  10
ATOM     10  C   UNL     1     204.649 209.943 159.513  1.00  0.00     0.006 C 
BRANCH  10  11
ATOM     11  C   UNL     1     203.382 210.778 159.279  1.00  0.00     0.053 C 
BRANCH  11  12
ATOM     12  C   UNL     1     202.204 210.239 160.030  1.00  0.00     0.041 C 
ATOM     13  O   UNL     1     201.551 210.985 160.810  1.00  0.00    -0.550 OA
ATOM     14  O   UNL     1     201.821 208.914 159.862  1.00  0.00    -0.550 OA
ENDBRANCH  11  12
ENDBRANCH  10  11
ENDBRANCH   9  10
ENDBRANCH   8   9
ENDBRANCH   7   8
ENDBRANCH   6   7
ENDBRANCH   5   6
ENDBRANCH   4   5
ENDBRANCH   3   4
ENDBRANCH   2   3
ENDBRANCH   1   2
BRANCH   1  15
ATOM     15  C   UNL     1     208.135 207.417 157.349  1.00  0.00     0.000 C 
BRANCH  15  16
ATOM     16  C   UNL     1     208.917 207.163 158.648  1.00  0.00     0.000 C 
BRANCH  16  17
ATOM     17  C   UNL     1     208.562 205.833 159.345  1.00  0.00     0.000 C 
BRANCH  17  18
ATOM     18  C   UNL     1     207.559 204.995 158.532  1.00  0.00    -0.000 C 
BRANCH  18  19
ATOM     19  C   UNL     1     206.465 204.351 159.406  1.00  0.00    -0.000 C 
BRANCH  19  20
ATOM     20  C   UNL     1     205.555 203.349 158.665  1.00  0.00    -0.000 C 
BRANCH  20  21
ATOM     21  C   UNL     1     206.102 201.912 158.688  1.00  0.00    -0.000 C 
BRANCH  21  22
ATOM     22  C   UNL     1     206.557 201.465 157.288  1.00  0.00    -0.000 C 
BRANCH  22  23
ATOM     23  C   UNL     1     206.235 202.506 156.201  1.00  0.00    -0.000 C 
BRANCH  23  24
ATOM     24  C   UNL     1     207.394 202.816 155.232  1.00  0.00    -0.000 C 
BRANCH  24  25
ATOM     25  C   UNL     1     208.776 202.323 155.693  1.00  0.00    -0.003 C 
ATOM     26  C   UNL     1     209.723 203.461 156.076  1.00  0.00     0.004 C 
ENDBRANCH  24  25
ENDBRANCH  23  24
ENDBRANCH  22  23
ENDBRANCH  21  22
ENDBRANCH  20  21
ENDBRANCH  19  20
ENDBRANCH  18  19
ENDBRANCH  17  18
ENDBRANCH  16  17
ENDBRANCH  15  16
ENDBRANCH   1  15
TORSDOF 22
ENDMDL
MODEL 4
REMARK VINA RESULT:    -4.597      2.843      6.660
REMARK INTER + INTRA:         -14.441
REMARK INTER:                 -10.445
REMARK INTRA:                  -3.996
REMARK UNBOUND:                -3.933
REMARK SMILES CCCCCCCCCCCCCCCCCCCCCCCC(=O)[O-]
REMARK SMILES IDX 13 1 14 2 15 3 16 4 17 5 18 6 19 7 20 8 21 9 22 10 23 11
REMARK SMILES IDX 24 12 25 13 26 14 12 15 11 16 10 17 9 18 8 19 7 20 6 21 5 22
REMARK SMILES IDX 4 23 3 24 2 25 1 26
REMARK H PARENT
REMARK Flexibility Score: inf
ROOT
ATOM      1  C   UNL     1     208.637 207.024 158.415  1.00  0.00     0.000 C 
ENDROOT
BRANCH   1   2
ATOM      2  C   UNL     1     208.045 205.604 158.359  1.00  0.00     0.000 C 
BRANCH   2   3
ATOM      3  C   UNL     1     207.643 205.013 159.725  1.00  0.00     0.000 C 
BRANCH   3   4
ATOM      4  C   UNL     1     206.356 204.161 159.732  1.00  0.00     0.000 C 
BRANCH   4   5
ATOM      5  C   UNL     1     206.051 203.423 158.417  1.00  0.00     0.000 C 
BRANCH   5   6
ATOM      6  C   UNL     1     205.998 201.891 158.578  1.00  0.00     0.000 C 
BRANCH   6   7
ATOM      7  C   UNL     1     206.803 201.157 157.483  1.00  0.00     0.000 C 
BRANCH   7   8
ATOM      8  C   UNL     1     206.431 201.565 156.043  1.00  0.00     0.000 C 
BRANCH   8   9
ATOM      9  C   UNL     1     207.460 202.455 155.327  1.00  0.00     0.000 C 
BRANCH   9  10
ATOM     10  C   UNL     1     208.895 202.278 155.854  1.00  0.00     0.006 C 
BRANCH  10  11
ATOM     11  C   UNL     1     209.867 201.822 154.757  1.00  0.00     0.053 C 
BRANCH  11  12
ATOM     12  C   UNL     1     211.213 202.466 154.892  1.00  0.00     0.041 C 
ATOM     13  O   UNL     1     212.262 201.793 154.699  1.00  0.00    -0.550 OA
ATOM     14  O   UNL     1     211.308 203.812 155.223  1.00  0.00    -0.550 OA
ENDBRANCH  11  12
ENDBRANCH  10  11
ENDBRANCH   9  10
ENDBRANCH   8   9
ENDBRANCH   7   8
ENDBRANCH   6   7
ENDBRANCH   5   6
ENDBRANCH   4   5
ENDBRANCH   3   4
ENDBRANCH   2   3
ENDBRANCH   1   2
BRANCH   1  15
ATOM     15  C   UNL     1     209.184 207.490 157.058  1.00  0.00     0.000 C 
BRANCH  15  16
ATOM     16  C   UNL     1     208.907 206.493 155.921  1.00  0.00     0.000 C 
BRANCH  16  17
ATOM     17  C   UNL     1     208.269 207.131 154.668  1.00  0.00     0.000 C 
BRANCH  17  18
ATOM     18  C   UNL     1     206.768 206.811 154.549  1.00  0.00    -0.000 C 
BRANCH  18  19
ATOM     19  C   UNL     1     206.407 205.410 155.077  1.00  0.00    -0.000 C 
BRANCH  19  20
ATOM     20  C   UNL     1     205.182 205.369 156.014  1.00  0.00    -0.000 C 
BRANCH  20  21
ATOM     21  C   UNL     1     204.642 206.768 156.355  1.00  0.00    -0.000 C 
BRANCH  21  22
ATOM     22  C   UNL     1     204.686 207.029 157.871  1.00  0.00    -0.000 C 
BRANCH  22  23
ATOM     23  C   UNL     1     205.356 208.370 158.221  1.00  0.00    -0.000 C 
BRANCH  23  24
ATOM     24  C   UNL     1     205.547 209.334 157.032  1.00  0.00    -0.000 C 
BRANCH  24  25
ATOM     25  C   UNL     1     206.905 210.055 156.992  1.00  0.00    -0.003 C 
ATOM     26  C   UNL     1     207.251 210.754 158.307  1.00  0.00     0.004 C 
ENDBRANCH  24  25
ENDBRANCH  23  24
ENDBRANCH  22  23
ENDBRANCH  21  22
ENDBRANCH  20  21
ENDBRANCH  19  20
ENDBRANCH  18  19
ENDBRANCH  17  18
ENDBRANCH  16  17
ENDBRANCH  15  16
ENDBRANCH   1  15
TORSDOF 22
ENDMDL
MODEL 5
REMARK VINA RESULT:    -4.573      3.123      6.880
REMARK INTER + INTRA:         -14.388
REMARK INTER:                 -10.680
REMARK INTRA:                  -3.708
REMARK UNBOUND:                -3.933
REMARK SMILES CCCCCCCCCCCCCCCCCCCCCCCC(=O)[O-]
REMARK SMILES IDX 13 1 14 2 15 3 16 4 17 5 18 6 19 7 20 8 21 9 22 10 23 11
REMARK SMILES IDX 24 12 25 13 26 14 12 15 11 16 10 17 9 18 8 19 7 20 6 21 5 22
REMARK SMILES IDX 4 23 3 24 2 25 1 26
REMARK H PARENT
REMARK Flexibility Score: inf
ROOT
ATOM      1  C   UNL     1     208.733 206.546 156.835  1.00  0.00     0.000 C 
ENDROOT
BRANCH   1   2
ATOM      2  C   UNL     1     208.055 205.371 157.564  1.00  0.00     0.000 C 
BRANCH   2   3
ATOM      3  C   UNL     1     208.093 205.452 159.103  1.00  0.00     0.000 C 
BRANCH   3   4
ATOM      4  C   UNL     1     207.110 204.522 159.845  1.00  0.00     0.000 C 
BRANCH   4   5
ATOM      5  C   UNL     1     205.858 204.119 159.047  1.00  0.00     0.000 C 
BRANCH   5   6
ATOM      6  C   UNL     1     205.914 202.673 158.518  1.00  0.00     0.000 C 
BRANCH   6   7
ATOM      7  C   UNL     1     205.981 202.614 156.976  1.00  0.00     0.000 C 
BRANCH   7   8
ATOM      8  C   UNL     1     207.095 201.700 156.424  1.00  0.00     0.000 C 
BRANCH   8   9
ATOM      9  C   UNL     1     207.965 202.321 155.320  1.00  0.00     0.000 C 
BRANCH   9  10
ATOM     10  C   UNL     1     209.471 202.288 155.635  1.00  0.00     0.006 C 
BRANCH  10  11
ATOM     11  C   UNL     1     210.298 201.725 154.471  1.00  0.00     0.053 C 
BRANCH  11  12
ATOM     12  C   UNL     1     211.722 202.186 154.514  1.00  0.00     0.041 C 
ATOM     13  O   UNL     1     212.005 203.398 154.306  1.00  0.00    -0.550 OA
ATOM     14  O   UNL     1     212.737 201.279 154.791  1.00  0.00    -0.550 OA
ENDBRANCH  11  12
ENDBRANCH  10  11
ENDBRANCH   9  10
ENDBRANCH   8   9
ENDBRANCH   7   8
ENDBRANCH   6   7
ENDBRANCH   5   6
ENDBRANCH   4   5
ENDBRANCH   3   4
ENDBRANCH   2   3
ENDBRANCH   1   2
BRANCH   1  15
ATOM     15  C   UNL     1     208.604 207.870 157.603  1.00  0.00     0.000 C 
BRANCH  15  16
ATOM     16  C   UNL     1     207.910 208.973 156.788  1.00  0.00     0.000 C 
BRANCH  16  17
ATOM     17  C   UNL     1     207.158 210.011 157.649  1.00  0.00     0.000 C 
BRANCH  17  18
ATOM     18  C   UNL     1     205.630 209.881 157.520  1.00  0.00    -0.000 C 
BRANCH  18  19
ATOM     19  C   UNL     1     204.911 209.872 158.883  1.00  0.00    -0.000 C 
BRANCH  19  20
ATOM     20  C   UNL     1     204.519 208.470 159.396  1.00  0.00    -0.000 C 
BRANCH  20  21
ATOM     21  C   UNL     1     204.826 207.354 158.383  1.00  0.00    -0.000 C 
BRANCH  21  22
ATOM     22  C   UNL     1     203.537 206.657 157.912  1.00  0.00    -0.000 C 
BRANCH  22  23
ATOM     23  C   UNL     1     203.688 206.010 156.524  1.00  0.00    -0.000 C 
BRANCH  23  24
ATOM     24  C   UNL     1     205.120 206.025 155.950  1.00  0.00    -0.000 C 
BRANCH  24  25
ATOM     25  C   UNL     1     205.366 207.069 154.847  1.00  0.00    -0.003 C 
ATOM     26  C   UNL     1     206.483 206.669 153.882  1.00  0.00     0.004 C 
ENDBRANCH  24  25
ENDBRANCH  23  24
ENDBRANCH  22  23
ENDBRANCH  21  22
ENDBRANCH  20  21
ENDBRANCH  19  20
ENDBRANCH  18  19
ENDBRANCH  17  18
ENDBRANCH  16  17
ENDBRANCH  15  16
ENDBRANCH   1  15
TORSDOF 22
ENDMDL
MODEL 6
REMARK VINA RESULT:    -4.479      3.231      7.501
REMARK INTER + INTRA:         -14.173
REMARK INTER:                 -10.953
REMARK INTRA:                  -3.220
REMARK UNBOUND:                -3.933
REMARK SMILES CCCCCCCCCCCCCCCCCCCCCCCC(=O)[O-]
REMARK SMILES IDX 13 1 14 2 15 3 16 4 17 5 18 6 19 7 20 8 21 9 22 10 23 11
REMARK SMILES IDX 24 12 25 13 26 14 12 15 11 16 10 17 9 18 8 19 7 20 6 21 5 22
REMARK SMILES IDX 4 23 3 24 2 25 1 26
REMARK H PARENT
REMARK Flexibility Score: inf
ROOT
ATOM      1  C   UNL     1     208.525 205.619 157.712  1.00  0.00     0.000 C 
ENDROOT
BRANCH   1   2
ATOM      2  C   UNL     1     208.264 205.692 159.227  1.00  0.00     0.000 C 
BRANCH   2   3
ATOM      3  C   UNL     1     206.803 205.432 159.649  1.00  0.00     0.000 C 
BRANCH   3   4
ATOM      4  C   UNL     1     206.398 203.948 159.777  1.00  0.00     0.000 C 
BRANCH   4   5
ATOM      5  C   UNL     1     205.893 203.291 158.480  1.00  0.00     0.000 C 
BRANCH   5   6
ATOM      6  C   UNL     1     205.983 201.753 158.503  1.00  0.00     0.000 C 
BRANCH   6   7
ATOM      7  C   UNL     1     206.607 201.181 157.211  1.00  0.00     0.000 C 
BRANCH   7   8
ATOM      8  C   UNL     1     206.428 202.081 155.970  1.00  0.00     0.000 C 
BRANCH   8   9
ATOM      9  C   UNL     1     207.722 202.703 155.420  1.00  0.00     0.000 C 
BRANCH   9  10
ATOM     10  C   UNL     1     208.998 202.114 156.046  1.00  0.00     0.006 C 
BRANCH  10  11
ATOM     11  C   UNL     1     210.243 202.955 155.732  1.00  0.00     0.053 C 
BRANCH  11  12
ATOM     12  C   UNL     1     211.066 202.360 154.632  1.00  0.00     0.041 C 
ATOM     13  O   UNL     1     210.765 201.235 154.149  1.00  0.00    -0.550 OA
ATOM     14  O   UNL     1     212.163 203.052 154.133  1.00  0.00    -0.550 OA
ENDBRANCH  11  12
ENDBRANCH  10  11
ENDBRANCH   9  10
ENDBRANCH   8   9
ENDBRANCH   7   8
ENDBRANCH   6   7
ENDBRANCH   5   6
ENDBRANCH   4   5
ENDBRANCH   3   4
ENDBRANCH   2   3
ENDBRANCH   1   2
BRANCH   1  15
ATOM     15  C   UNL     1     208.610 207.007 157.059  1.00  0.00     0.000 C 
BRANCH  15  16
ATOM     16  C   UNL     1     208.185 207.004 155.582  1.00  0.00     0.000 C 
BRANCH  16  17
ATOM     17  C   UNL     1     206.950 206.127 155.285  1.00  0.00     0.000 C 
BRANCH  17  18
ATOM     18  C   UNL     1     205.824 206.916 154.594  1.00  0.00    -0.000 C 
BRANCH  18  19
ATOM     19  C   UNL     1     204.805 207.505 155.589  1.00  0.00    -0.000 C 
BRANCH  19  20
ATOM     20  C   UNL     1     204.653 206.710 156.903  1.00  0.00    -0.000 C 
BRANCH  20  21
ATOM     21  C   UNL     1     204.779 207.595 158.155  1.00  0.00    -0.000 C 
BRANCH  21  22
ATOM     22  C   UNL     1     205.487 208.922 157.833  1.00  0.00    -0.000 C 
BRANCH  22  23
ATOM     23  C   UNL     1     205.242 209.999 158.905  1.00  0.00    -0.000 C 
BRANCH  23  24
ATOM     24  C   UNL     1     203.794 210.527 158.978  1.00  0.00    -0.000 C 
BRANCH  24  25
ATOM     25  C   UNL     1     202.913 209.859 160.049  1.00  0.00    -0.003 C 
ATOM     26  C   UNL     1     201.654 210.663 160.375  1.00  0.00     0.004 C 
ENDBRANCH  24  25
ENDBRANCH  23  24
ENDBRANCH  22  23
ENDBRANCH  21  22
ENDBRANCH  20  21
ENDBRANCH  19  20
ENDBRANCH  18  19
ENDBRANCH  17  18
ENDBRANCH  16  17
ENDBRANCH  15  16
ENDBRANCH   1  15
TORSDOF 22
ENDMDL
MODEL 7
REMARK VINA RESULT:    -4.461      3.096      6.852
REMARK INTER + INTRA:         -14.131
REMARK INTER:                 -10.120
REMARK INTRA:                  -4.010
REMARK UNBOUND:                -3.933
REMARK SMILES CCCCCCCCCCCCCCCCCCCCCCCC(=O)[O-]
REMARK SMILES IDX 13 1 14 2 15 3 16 4 17 5 18 6 19 7 20 8 21 9 22 10 23 11
REMARK SMILES IDX 24 12 25 13 26 14 12 15 11 16 10 17 9 18 8 19 7 20 6 21 5 22
REMARK SMILES IDX 4 23 3 24 2 25 1 26
REMARK H PARENT
REMARK Flexibility Score: inf
ROOT
ATOM      1  C   UNL     1     208.345 205.242 159.624  1.00  0.00     0.000 C 
ENDROOT
BRANCH   1   2
ATOM      2  C   UNL     1     206.989 204.551 159.851  1.00  0.00     0.000 C 
BRANCH   2   3
ATOM      3  C   UNL     1     206.011 204.632 158.661  1.00  0.00     0.000 C 
BRANCH   3   4
ATOM      4  C   UNL     1     205.272 203.322 158.313  1.00  0.00     0.000 C 
BRANCH   4   5
ATOM      5  C   UNL     1     206.045 202.029 158.627  1.00  0.00     0.000 C 
BRANCH   5   6
ATOM      6  C   UNL     1     206.458 201.246 157.366  1.00  0.00     0.000 C 
BRANCH   6   7
ATOM      7  C   UNL     1     206.398 202.114 156.090  1.00  0.00     0.000 C 
BRANCH   7   8
ATOM      8  C   UNL     1     207.768 202.361 155.426  1.00  0.00     0.000 C 
BRANCH   8   9
ATOM      9  C   UNL     1     208.611 203.481 156.058  1.00  0.00     0.000 C 
BRANCH   9  10
ATOM     10  C   UNL     1     210.124 203.208 156.013  1.00  0.00     0.006 C 
BRANCH  10  11
ATOM     11  C   UNL     1     210.490 202.115 154.998  1.00  0.00     0.053 C 
BRANCH  11  12
ATOM     12  C   UNL     1     211.908 202.228 154.533  1.00  0.00     0.041 C 
ATOM     13  O   UNL     1     212.751 201.340 154.838  1.00  0.00    -0.550 OA
ATOM     14  O   UNL     1     212.299 203.310 153.754  1.00  0.00    -0.550 OA
ENDBRANCH  11  12
ENDBRANCH  10  11
ENDBRANCH   9  10
ENDBRANCH   8   9
ENDBRANCH   7   8
ENDBRANCH   6   7
ENDBRANCH   5   6
ENDBRANCH   4   5
ENDBRANCH   3   4
ENDBRANCH   2   3
ENDBRANCH   1   2
BRANCH   1  15
ATOM     15  C   UNL     1     208.389 206.043 158.314  1.00  0.00     0.000 C 
BRANCH  15  16
ATOM     16  C   UNL     1     208.989 207.447 158.487  1.00  0.00     0.000 C 
BRANCH  16  17
ATOM     17  C   UNL     1     209.190 208.212 157.161  1.00  0.00     0.000 C 
BRANCH  17  18
ATOM     18  C   UNL     1     210.023 207.412 156.144  1.00  0.00    -0.000 C 
BRANCH  18  19
ATOM     19  C   UNL     1     209.223 207.022 154.886  1.00  0.00    -0.000 C 
BRANCH  19  20
ATOM     20  C   UNL     1     207.723 207.382 154.937  1.00  0.00    -0.000 C 
BRANCH  20  21
ATOM     21  C   UNL     1     206.812 206.210 154.535  1.00  0.00    -0.000 C 
BRANCH  21  22
ATOM     22  C   UNL     1     205.704 205.981 155.578  1.00  0.00    -0.000 C 
BRANCH  22  23
ATOM     23  C   UNL     1     204.899 207.259 155.877  1.00  0.00    -0.000 C 
BRANCH  23  24
ATOM     24  C   UNL     1     204.502 207.448 157.356  1.00  0.00    -0.000 C 
BRANCH  24  25
ATOM     25  C   UNL     1     205.498 208.267 158.196  1.00  0.00    -0.003 C 
ATOM     26  C   UNL     1     204.815 209.269 159.127  1.00  0.00     0.004 C 
ENDBRANCH  24  25
ENDBRANCH  23  24
ENDBRANCH  22  23
ENDBRANCH  21  22
ENDBRANCH  20  21
ENDBRANCH  19  20
ENDBRANCH  18  19
ENDBRANCH  17  18
ENDBRANCH  16  17
ENDBRANCH  15  16
ENDBRANCH   1  15
TORSDOF 22
ENDMDL
MODEL 8
REMARK VINA RESULT:    -4.451      1.904      3.452
REMARK INTER + INTRA:         -14.109
REMARK INTER:                 -10.771
REMARK INTRA:                  -3.339
REMARK UNBOUND:                -3.933
REMARK SMILES CCCCCCCCCCCCCCCCCCCCCCCC(=O)[O-]
REMARK SMILES IDX 13 1 14 2 15 3 16 4 17 5 18 6 19 7 20 8 21 9 22 10 23 11
REMARK SMILES IDX 24 12 25 13 26 14 12 15 11 16 10 17 9 18 8 19 7 20 6 21 5 22
REMARK SMILES IDX 4 23 3 24 2 25 1 26
REMARK H PARENT
REMARK Flexibility Score: inf
ROOT
ATOM      1  C   UNL     1     206.392 206.818 153.998  1.00  0.00     0.000 C 
ENDROOT
BRANCH   1   2
ATOM      2  C   UNL     1     207.474 206.350 154.987  1.00  0.00     0.000 C 
BRANCH   2   3
ATOM      3  C   UNL     1     208.747 207.221 155.019  1.00  0.00     0.000 C 
BRANCH   3   4
ATOM      4  C   UNL     1     209.337 207.490 156.419  1.00  0.00     0.000 C 
BRANCH   4   5
ATOM      5  C   UNL     1     208.306 207.605 157.555  1.00  0.00     0.000 C 
BRANCH   5   6
ATOM      6  C   UNL     1     207.948 209.063 157.906  1.00  0.00     0.000 C 
BRANCH   6   7
ATOM      7  C   UNL     1     206.699 209.560 157.145  1.00  0.00     0.000 C 
BRANCH   7   8
ATOM      8  C   UNL     1     205.484 209.855 158.048  1.00  0.00     0.000 C 
BRANCH   8   9
ATOM      9  C   UNL     1     205.098 208.727 159.019  1.00  0.00     0.000 C 
BRANCH   9  10
ATOM     10  C   UNL     1     203.759 208.968 159.736  1.00  0.00     0.006 C 
BRANCH  10  11
ATOM     11  C   UNL     1     203.194 210.369 159.463  1.00  0.00     0.053 C 
BRANCH  11  12
ATOM     12  C   UNL     1     201.872 210.586 160.131  1.00  0.00     0.041 C 
ATOM     13  O   UNL     1     200.985 209.690 160.093  1.00  0.00    -0.550 OA
ATOM     14  O   UNL     1     201.621 211.777 160.802  1.00  0.00    -0.550 OA
ENDBRANCH  11  12
ENDBRANCH  10  11
ENDBRANCH   9  10
ENDBRANCH   8   9
ENDBRANCH   7   8
ENDBRANCH   6   7
ENDBRANCH   5   6
ENDBRANCH   4   5
ENDBRANCH   3   4
ENDBRANCH   2   3
ENDBRANCH   1   2
BRANCH   1  15
ATOM     15  C   UNL     1     204.978 206.753 154.594  1.00  0.00     0.000 C 
BRANCH  15  16
ATOM     16  C   UNL     1     204.973 206.717 156.131  1.00  0.00     0.000 C 
BRANCH  16  17
ATOM     17  C   UNL     1     203.752 205.993 156.738  1.00  0.00     0.000 C 
BRANCH  17  18
ATOM     18  C   UNL     1     204.160 204.811 157.637  1.00  0.00    -0.000 C 
BRANCH  18  19
ATOM     19  C   UNL     1     205.687 204.640 157.748  1.00  0.00    -0.000 C 
BRANCH  19  20
ATOM     20  C   UNL     1     206.221 203.279 157.254  1.00  0.00    -0.000 C 
BRANCH  20  21
ATOM     21  C   UNL     1     205.999 203.060 155.748  1.00  0.00    -0.000 C 
BRANCH  21  22
ATOM     22  C   UNL     1     207.295 202.610 155.052  1.00  0.00    -0.000 C 
BRANCH  22  23
ATOM     23  C   UNL     1     208.389 202.191 156.051  1.00  0.00    -0.000 C 
BRANCH  23  24
ATOM     24  C   UNL     1     209.806 202.701 155.718  1.00  0.00    -0.000 C 
BRANCH  24  25
ATOM     25  C   UNL     1     210.490 201.991 154.536  1.00  0.00    -0.003 C 
ATOM     26  C   UNL     1     212.011 201.921 154.679  1.00  0.00     0.004 C 
ENDBRANCH  24  25
ENDBRANCH  23  24
ENDBRANCH  22  23
ENDBRANCH  21  22
ENDBRANCH  20  21
ENDBRANCH  19  20
ENDBRANCH  18  19
ENDBRANCH  17  18
ENDBRANCH  16  17
ENDBRANCH  15  16
ENDBRANCH   1  15
TORSDOF 22
ENDMDL
MODEL 9
REMARK VINA RESULT:    -4.449      3.118      6.972
REMARK INTER + INTRA:         -14.103
REMARK INTER:                 -10.375
REMARK INTRA:                  -3.729
REMARK UNBOUND:                -3.933
REMARK SMILES CCCCCCCCCCCCCCCCCCCCCCCC(=O)[O-]
REMARK SMILES IDX 13 1 14 2 15 3 16 4 17 5 18 6 19 7 20 8 21 9 22 10 23 11
REMARK SMILES IDX 24 12 25 13 26 14 12 15 11 16 10 17 9 18 8 19 7 20 6 21 5 22
REMARK SMILES IDX 4 23 3 24 2 25 1 26
REMARK H PARENT
REMARK Flexibility Score: inf
ROOT
ATOM      1  C   UNL     1     208.252 205.720 158.404  1.00  0.00     0.000 C 
ENDROOT
BRANCH   1   2
ATOM      2  C   UNL     1     207.807 205.081 159.732  1.00  0.00     0.000 C 
BRANCH   2   3
ATOM      3  C   UNL     1     206.381 204.496 159.726  1.00  0.00     0.000 C 
BRANCH   3   4
ATOM      4  C   UNL     1     205.999 203.677 158.475  1.00  0.00     0.000 C 
BRANCH   4   5
ATOM      5  C   UNL     1     206.042 202.149 158.653  1.00  0.00     0.000 C 
BRANCH   5   6
ATOM      6  C   UNL     1     206.475 201.401 157.377  1.00  0.00     0.000 C 
BRANCH   6   7
ATOM      7  C   UNL     1     206.473 202.315 156.131  1.00  0.00     0.000 C 
BRANCH   7   8
ATOM      8  C   UNL     1     207.858 202.497 155.477  1.00  0.00     0.000 C 
BRANCH   8   9
ATOM      9  C   UNL     1     208.909 203.198 156.354  1.00  0.00     0.000 C 
BRANCH   9  10
ATOM     10  C   UNL     1     210.281 203.336 155.671  1.00  0.00     0.006 C 
BRANCH  10  11
ATOM     11  C   UNL     1     210.680 202.069 154.903  1.00  0.00     0.053 C 
BRANCH  11  12
ATOM     12  C   UNL     1     212.101 202.117 154.431  1.00  0.00     0.041 C 
ATOM     13  O   UNL     1     212.899 201.184 154.719  1.00  0.00    -0.550 OA
ATOM     14  O   UNL     1     212.542 203.190 153.667  1.00  0.00    -0.550 OA
ENDBRANCH  11  12
ENDBRANCH  10  11
ENDBRANCH   9  10
ENDBRANCH   8   9
ENDBRANCH   7   8
ENDBRANCH   6   7
ENDBRANCH   5   6
ENDBRANCH   4   5
ENDBRANCH   3   4
ENDBRANCH   2   3
ENDBRANCH   1   2
BRANCH   1  15
ATOM     15  C   UNL     1     208.666 207.191 158.565  1.00  0.00     0.000 C 
BRANCH  15  16
ATOM     16  C   UNL     1     209.045 207.859 157.234  1.00  0.00     0.000 C 
BRANCH  16  17
ATOM     17  C   UNL     1     209.256 206.866 156.070  1.00  0.00     0.000 C 
BRANCH  17  18
ATOM     18  C   UNL     1     208.269 207.102 154.913  1.00  0.00    -0.000 C 
BRANCH  18  19
ATOM     19  C   UNL     1     207.020 206.204 154.995  1.00  0.00    -0.000 C 
BRANCH  19  20
ATOM     20  C   UNL     1     205.704 206.888 154.566  1.00  0.00    -0.000 C 
BRANCH  20  21
ATOM     21  C   UNL     1     204.551 206.641 155.553  1.00  0.00    -0.000 C 
BRANCH  21  22
ATOM     22  C   UNL     1     204.986 206.924 157.002  1.00  0.00    -0.000 C 
BRANCH  22  23
ATOM     23  C   UNL     1     205.307 208.411 157.244  1.00  0.00    -0.000 C 
BRANCH  23  24
ATOM     24  C   UNL     1     205.105 208.894 158.695  1.00  0.00    -0.000 C 
BRANCH  24  25
ATOM     25  C   UNL     1     205.718 210.268 159.013  1.00  0.00    -0.003 C 
ATOM     26  C   UNL     1     206.911 210.613 158.120  1.00  0.00     0.004 C 
ENDBRANCH  24  25
ENDBRANCH  23  24
ENDBRANCH  22  23
ENDBRANCH  21  22
ENDBRANCH  20  21
ENDBRANCH  19  20
ENDBRANCH  18  19
ENDBRANCH  17  18
ENDBRANCH  16  17
ENDBRANCH  15  16
ENDBRANCH   1  15
TORSDOF 22
ENDMDL
