MODEL 1
REMARK VINA RESULT:    -4.659      0.000      0.000
REMARK INTER + INTRA:          -4.795
REMARK INTER:                  -4.795
REMARK INTRA:                   0.000
REMARK UNBOUND:                 0.000
REMARK SMILES Oc1ccc2[nH]ccc2c1
REMARK SMILES IDX 3 1 4 2 5 3 9 4 8 5 7 6 6 7 10 8 2 9 1 11
REMARK H PARENT 6 10 1 12
REMARK Flexibility Score: inf
ROOT
ATOM      1  C   UNL     1      -1.893  12.430   1.958  1.00  0.00     0.048 A 
ATOM      2  C   UNL     1      -1.481  13.750   1.698  1.00  0.00     0.030 A 
ATOM      3  C   UNL     1      -1.562  14.210   0.385  1.00  0.00     0.046 A 
ATOM      4  C   UNL     1      -2.026  13.414  -0.629  1.00  0.00     0.003 A 
ATOM      5  C   UNL     1      -1.981  14.157  -1.788  1.00  0.00     0.028 A 
ATOM      6  C   UNL     1      -1.478  15.397  -1.407  1.00  0.00     0.083 A 
ATOM      7  N   UNL     1      -1.225  15.424  -0.078  1.00  0.00    -0.361 N 
ATOM      8  C   UNL     1      -2.442  12.104  -0.405  1.00  0.00     0.056 A 
ATOM      9  C   UNL     1      -2.373  11.606   0.914  1.00  0.00     0.116 A 
ATOM     10  H   UNL     1      -0.844  16.227   0.471  1.00  0.00     0.166 HD
ENDROOT
BRANCH   9  11
ATOM     11  O   UNL     1      -2.775  10.303   1.198  1.00  0.00    -0.508 OA
ATOM     12  H   UNL     1      -2.865   9.975   2.153  1.00  0.00     0.293 HD
ENDBRANCH   9  11
TORSDOF 1
ENDMDL
MODEL 2
REMARK VINA RESULT:    -4.613      0.844      2.362
REMARK INTER + INTRA:          -4.748
REMARK INTER:                  -4.748
REMARK INTRA:                   0.000
REMARK UNBOUND:                 0.000
REMARK SMILES Oc1ccc2[nH]ccc2c1
REMARK SMILES IDX 3 1 4 2 5 3 9 4 8 5 7 6 6 7 10 8 2 9 1 11
REMARK H PARENT 6 10 1 12
REMARK Flexibility Score: inf
ROOT
ATOM      1  C   UNL     1      -2.382  12.182  -0.378  1.00  0.00     0.048 A 
ATOM      2  C   UNL     1      -2.014  13.524  -0.585  1.00  0.00     0.030 A 
ATOM      3  C   UNL     1      -1.641  14.276   0.528  1.00  0.00     0.046 A 
ATOM      4  C   UNL     1      -1.628  13.738   1.788  1.00  0.00     0.003 A 
ATOM      5  C   UNL     1      -1.218  14.729   2.653  1.00  0.00     0.028 A 
ATOM      6  C   UNL     1      -0.998  15.845   1.852  1.00  0.00     0.083 A 
ATOM      7  N   UNL     1      -1.258  15.562   0.554  1.00  0.00    -0.361 N 
ATOM      8  C   UNL     1      -1.985  12.414   2.027  1.00  0.00     0.056 A 
ATOM      9  C   UNL     1      -2.369  11.624   0.922  1.00  0.00     0.116 A 
ATOM     10  H   UNL     1      -1.176  16.215  -0.258  1.00  0.00     0.166 HD
ENDROOT
BRANCH   9  11
ATOM     11  O   UNL     1      -2.737  10.293   1.099  1.00  0.00    -0.508 OA
ATOM     12  H   UNL     1      -2.689   9.848   2.009  1.00  0.00     0.293 HD
ENDBRANCH   9  11
TORSDOF 1
ENDMDL
MODEL 3
REMARK VINA RESULT:    -4.353      1.484      1.918
REMARK INTER + INTRA:          -4.481
REMARK INTER:                  -4.481
REMARK INTRA:                   0.000
REMARK UNBOUND:                 0.000
REMARK SMILES Oc1ccc2[nH]ccc2c1
REMARK SMILES IDX 3 1 4 2 5 3 9 4 8 5 7 6 6 7 10 8 2 9 1 11
REMARK H PARENT 6 10 1 12
REMARK Flexibility Score: inf
ROOT
ATOM      1  C   UNL     1      -2.259  13.956   1.529  1.00  0.00     0.048 A 
ATOM      2  C   UNL     1      -1.407  15.071   1.623  1.00  0.00     0.030 A 
ATOM      3  C   UNL     1      -0.986  15.670   0.437  1.00  0.00     0.046 A 
ATOM      4  C   UNL     1      -1.382  15.198  -0.787  1.00  0.00     0.003 A 
ATOM      5  C   UNL     1      -0.801  16.001  -1.744  1.00  0.00     0.028 A 
ATOM      6  C   UNL     1      -0.063  16.941  -1.033  1.00  0.00     0.083 A 
ATOM      7  N   UNL     1      -0.180  16.735   0.300  1.00  0.00    -0.361 N 
ATOM      8  C   UNL     1      -2.225  14.097  -0.914  1.00  0.00     0.056 A 
ATOM      9  C   UNL     1      -2.670  13.467   0.267  1.00  0.00     0.116 A 
ATOM     10  H   UNL     1       0.267  17.292   1.062  1.00  0.00     0.166 HD
ENDROOT
BRANCH   9  11
ATOM     11  O   UNL     1      -3.514  12.361   0.203  1.00  0.00    -0.508 OA
ATOM     12  H   UNL     1      -4.513  12.450   0.346  1.00  0.00     0.293 HD
ENDBRANCH   9  11
TORSDOF 1
ENDMDL
MODEL 4
REMARK VINA RESULT:    -4.278      1.560      2.227
REMARK INTER + INTRA:          -4.403
REMARK INTER:                  -4.403
REMARK INTRA:                   0.000
REMARK UNBOUND:                 0.000
REMARK SMILES Oc1ccc2[nH]ccc2c1
REMARK SMILES IDX 3 1 4 2 5 3 9 4 8 5 7 6 6 7 10 8 2 9 1 11
REMARK H PARENT 6 10 1 12
REMARK Flexibility Score: inf
ROOT
ATOM      1  C   UNL     1      -2.138  11.763   1.436  1.00  0.00     0.048 A 
ATOM      2  C   UNL     1      -2.399  11.843   0.056  1.00  0.00     0.030 A 
ATOM      3  C   UNL     1      -2.204  13.071  -0.573  1.00  0.00     0.046 A 
ATOM      4  C   UNL     1      -1.772  14.172   0.117  1.00  0.00     0.003 A 
ATOM      5  C   UNL     1      -1.680  15.212  -0.783  1.00  0.00     0.028 A 
ATOM      6  C   UNL     1      -2.074  14.673  -2.003  1.00  0.00     0.083 A 
ATOM      7  N   UNL     1      -2.392  13.364  -1.870  1.00  0.00    -0.361 N 
ATOM      8  C   UNL     1      -1.503  14.126   1.483  1.00  0.00     0.056 A 
ATOM      9  C   UNL     1      -1.690  12.898   2.151  1.00  0.00     0.116 A 
ATOM     10  H   UNL     1      -2.718  12.718  -2.624  1.00  0.00     0.166 HD
ENDROOT
BRANCH   9  11
ATOM     11  O   UNL     1      -1.439  12.792   3.517  1.00  0.00    -0.508 OA
ATOM     12  H   UNL     1      -2.027  13.254   4.200  1.00  0.00     0.293 HD
ENDBRANCH   9  11
TORSDOF 1
ENDMDL
MODEL 5
REMARK VINA RESULT:    -4.087      2.605      4.015
REMARK INTER + INTRA:          -4.206
REMARK INTER:                  -4.206
REMARK INTRA:                   0.000
REMARK UNBOUND:                 0.000
REMARK SMILES Oc1ccc2[nH]ccc2c1
REMARK SMILES IDX 3 1 4 2 5 3 9 4 8 5 7 6 6 7 10 8 2 9 1 11
REMARK H PARENT 6 10 1 12
REMARK Flexibility Score: inf
ROOT
ATOM      1  C   UNL     1      -2.097  13.892  -1.556  1.00  0.00     0.048 A 
ATOM      2  C   UNL     1      -2.455  12.872  -0.656  1.00  0.00     0.030 A 
ATOM      3  C   UNL     1      -2.270  13.110   0.705  1.00  0.00     0.046 A 
ATOM      4  C   UNL     1      -1.759  14.295   1.164  1.00  0.00     0.003 A 
ATOM      5  C   UNL     1      -1.705  14.214   2.539  1.00  0.00     0.028 A 
ATOM      6  C   UNL     1      -2.198  12.951   2.849  1.00  0.00     0.083 A 
ATOM      7  N   UNL     1      -2.543  12.281   1.725  1.00  0.00    -0.361 N 
ATOM      8  C   UNL     1      -1.397  15.326   0.300  1.00  0.00     0.056 A 
ATOM      9  C   UNL     1      -1.570  15.117  -1.084  1.00  0.00     0.116 A 
ATOM     10  H   UNL     1      -2.939  11.316   1.667  1.00  0.00     0.166 HD
ENDROOT
BRANCH   9  11
ATOM     11  O   UNL     1      -1.225  16.111  -1.997  1.00  0.00    -0.508 OA
ATOM     12  H   UNL     1      -1.840  16.894  -2.184  1.00  0.00     0.293 HD
ENDBRANCH   9  11
TORSDOF 1
ENDMDL
MODEL 6
REMARK VINA RESULT:    -4.020      2.740      3.594
REMARK INTER + INTRA:          -4.137
REMARK INTER:                  -4.137
REMARK INTRA:                   0.000
REMARK UNBOUND:                 0.000
REMARK SMILES Oc1ccc2[nH]ccc2c1
REMARK SMILES IDX 3 1 4 2 5 3 9 4 8 5 7 6 6 7 10 8 2 9 1 11
REMARK H PARENT 6 10 1 12
REMARK Flexibility Score: inf
ROOT
ATOM      1  C   UNL     1      -1.604  15.105   2.449  1.00  0.00     0.048 A 
ATOM      2  C   UNL     1      -1.939  13.762   2.701  1.00  0.00     0.030 A 
ATOM      3  C   UNL     1      -2.067  12.907   1.608  1.00  0.00     0.046 A 
ATOM      4  C   UNL     1      -1.875  13.346   0.325  1.00  0.00     0.003 A 
ATOM      5  C   UNL     1      -2.071  12.269  -0.512  1.00  0.00     0.028 A 
ATOM      6  C   UNL     1      -2.381  11.206   0.330  1.00  0.00     0.083 A 
ATOM      7  N   UNL     1      -2.376  11.601   1.624  1.00  0.00    -0.361 N 
ATOM      8  C   UNL     1      -1.542  14.668   0.041  1.00  0.00     0.056 A 
ATOM      9  C   UNL     1      -1.405  15.561   1.125  1.00  0.00     0.116 A 
ATOM     10  H   UNL     1      -2.574  11.008   2.461  1.00  0.00     0.166 HD
ENDROOT
BRANCH   9  11
ATOM     11  O   UNL     1      -1.074  16.896   0.903  1.00  0.00    -0.508 OA
ATOM     12  H   UNL     1      -1.440  17.405   0.107  1.00  0.00     0.293 HD
ENDBRANCH   9  11
TORSDOF 1
ENDMDL
MODEL 7
REMARK VINA RESULT:    -3.997      1.729      3.213
REMARK INTER + INTRA:          -4.114
REMARK INTER:                  -4.114
REMARK INTRA:                   0.000
REMARK UNBOUND:                 0.000
REMARK SMILES Oc1ccc2[nH]ccc2c1
REMARK SMILES IDX 3 1 4 2 5 3 9 4 8 5 7 6 6 7 10 8 2 9 1 11
REMARK H PARENT 6 10 1 12
REMARK Flexibility Score: inf
ROOT
ATOM      1  C   UNL     1      -1.704  13.714  -0.501  1.00  0.00     0.048 A 
ATOM      2  C   UNL     1      -1.919  14.726   0.452  1.00  0.00     0.030 A 
ATOM      3  C   UNL     1      -2.141  14.340   1.773  1.00  0.00     0.046 A 
ATOM      4  C   UNL     1      -2.152  13.022   2.144  1.00  0.00     0.003 A 
ATOM      5  C   UNL     1      -2.394  12.979   3.500  1.00  0.00     0.028 A 
ATOM      6  C   UNL     1      -2.522  14.308   3.890  1.00  0.00     0.083 A 
ATOM      7  N   UNL     1      -2.365  15.136   2.830  1.00  0.00    -0.361 N 
ATOM      8  C   UNL     1      -1.942  11.996   1.226  1.00  0.00     0.056 A 
ATOM      9  C   UNL     1      -1.714  12.352  -0.120  1.00  0.00     0.116 A 
ATOM     10  H   UNL     1      -2.411  16.180   2.839  1.00  0.00     0.166 HD
ENDROOT
BRANCH   9  11
ATOM     11  O   UNL     1      -1.499  11.370  -1.083  1.00  0.00    -0.508 OA
ATOM     12  H   UNL     1      -2.269  10.855  -1.494  1.00  0.00     0.293 HD
ENDBRANCH   9  11
TORSDOF 1
ENDMDL
MODEL 8
REMARK VINA RESULT:    -3.852      2.796      4.048
REMARK INTER + INTRA:          -3.964
REMARK INTER:                  -3.964
REMARK INTRA:                   0.000
REMARK UNBOUND:                 0.000
REMARK SMILES Oc1ccc2[nH]ccc2c1
REMARK SMILES IDX 3 1 4 2 5 3 9 4 8 5 7 6 6 7 10 8 2 9 1 11
REMARK H PARENT 6 10 1 12
REMARK Flexibility Score: inf
ROOT
ATOM      1  C   UNL     1      -0.516  16.481  -1.798  1.00  0.00     0.048 A 
ATOM      2  C   UNL     1      -0.522  16.352  -0.398  1.00  0.00     0.030 A 
ATOM      3  C   UNL     1      -1.338  15.370   0.162  1.00  0.00     0.046 A 
ATOM      4  C   UNL     1      -2.112  14.550  -0.615  1.00  0.00     0.003 A 
ATOM      5  C   UNL     1      -2.789  13.700   0.232  1.00  0.00     0.028 A 
ATOM      6  C   UNL     1      -2.380  14.059   1.512  1.00  0.00     0.083 A 
ATOM      7  N   UNL     1      -1.492  15.079   1.463  1.00  0.00    -0.361 N 
ATOM      8  C   UNL     1      -2.128  14.651  -2.004  1.00  0.00     0.056 A 
ATOM      9  C   UNL     1      -1.314  15.635  -2.603  1.00  0.00     0.116 A 
ATOM     10  H   UNL     1      -1.026  15.543   2.275  1.00  0.00     0.166 HD
ENDROOT
BRANCH   9  11
ATOM     11  O   UNL     1      -1.289  15.784  -3.988  1.00  0.00    -0.508 OA
ATOM     12  H   UNL     1      -1.941  16.395  -4.465  1.00  0.00     0.293 HD
ENDBRANCH   9  11
TORSDOF 1
ENDMDL
MODEL 9
REMARK VINA RESULT:    -3.802     10.692     11.780
REMARK INTER + INTRA:          -3.913
REMARK INTER:                  -3.913
REMARK INTRA:                   0.000
REMARK UNBOUND:                 0.000
REMARK SMILES Oc1ccc2[nH]ccc2c1
REMARK SMILES IDX 3 1 4 2 5 3 9 4 8 5 7 6 6 7 10 8 2 9 1 11
REMARK H PARENT 6 10 1 12
REMARK Flexibility Score: inf
ROOT
ATOM      1  C   UNL     1      -8.068   8.380   7.338  1.00  0.00     0.048 A 
ATOM      2  C   UNL     1      -8.031   7.014   7.672  1.00  0.00     0.030 A 
ATOM      3  C   UNL     1      -8.699   6.121   6.834  1.00  0.00     0.046 A 
ATOM      4  C   UNL     1      -9.371   6.547   5.719  1.00  0.00     0.003 A 
ATOM      5  C   UNL     1      -9.913   5.433   5.116  1.00  0.00     0.028 A 
ATOM      6  C   UNL     1      -9.532   4.363   5.918  1.00  0.00     0.083 A 
ATOM      7  N   UNL     1      -8.789   4.789   6.966  1.00  0.00    -0.361 N 
ATOM      8  C   UNL     1      -9.425   7.892   5.361  1.00  0.00     0.056 A 
ATOM      9  C   UNL     1      -8.760   8.822   6.187  1.00  0.00     0.116 A 
ATOM     10  H   UNL     1      -8.374   4.198   7.721  1.00  0.00     0.166 HD
ENDROOT
BRANCH   9  11
ATOM     11  O   UNL     1      -8.780  10.180   5.880  1.00  0.00    -0.508 OA
ATOM     12  H   UNL     1      -8.072  10.813   6.234  1.00  0.00     0.293 HD
ENDBRANCH   9  11
TORSDOF 1
ENDMDL
