MODEL 1
REMARK VINA RESULT:    -6.948      0.000      0.000
REMARK INTER + INTRA:          -8.620
REMARK INTER:                  -8.370
REMARK INTRA:                  -0.250
REMARK UNBOUND:                -0.250
REMARK SMILES O=c1c(O)c(-c2ccc(O)c(O)c2)oc2cc(O)cc(O)c12
REMARK SMILES IDX 5 1 3 2 2 3 1 4 22 5 20 6 19 7 17 8 16 9 15 10 14 11 6 12
REMARK SMILES IDX 7 13 8 14 9 15 13 16 11 17 10 18 12 20 4 22 21 24 18 26
REMARK H PARENT 10 19 12 21 4 23 21 25 18 27
REMARK Flexibility Score: inf
ROOT
ATOM      1  C   UNL     1      54.812   5.901  78.479  1.00  0.00     0.180 A 
ATOM      2  C   UNL     1      56.036   5.395  78.947  1.00  0.00     0.208 A 
ATOM      3  C   UNL     1      57.213   6.123  78.705  1.00  0.00     0.238 A 
ATOM      4  O   UNL     1      58.294   5.701  79.192  1.00  0.00    -0.285 OA
ATOM      5  C   UNL     1      57.157   7.320  77.950  1.00  0.00     0.111 A 
ATOM      6  C   UNL     1      58.293   8.116  77.606  1.00  0.00     0.134 A 
ATOM      7  C   UNL     1      58.105   9.337  76.946  1.00  0.00     0.093 A 
ATOM      8  C   UNL     1      56.833   9.760  76.560  1.00  0.00     0.123 A 
ATOM      9  C   UNL     1      55.723   8.963  76.843  1.00  0.00     0.094 A 
ATOM     10  C   UNL     1      55.873   7.759  77.534  1.00  0.00     0.146 A 
ATOM     11  O   UNL     1      54.787   7.043  77.802  1.00  0.00    -0.452 OA
ENDROOT
BRANCH   1  12
ATOM     12  C   UNL     1      53.529   5.198  78.706  1.00  0.00     0.025 A 
ATOM     13  C   UNL     1      52.938   5.148  79.982  1.00  0.00     0.016 A 
ATOM     14  C   UNL     1      51.714   4.500  80.168  1.00  0.00     0.051 A 
ATOM     15  C   UNL     1      51.057   3.906  79.082  1.00  0.00     0.157 A 
ATOM     16  C   UNL     1      52.856   4.619  77.619  1.00  0.00     0.062 A 
ATOM     17  C   UNL     1      51.627   3.968  77.805  1.00  0.00     0.158 A 
BRANCH  15  18
ATOM     18  O   UNL     1      49.838   3.256  79.265  1.00  0.00    -0.504 OA
ATOM     19  H   UNL     1      49.175   3.151  78.507  1.00  0.00     0.293 HD
ENDBRANCH  15  18
BRANCH  17  20
ATOM     20  O   UNL     1      50.968   3.383  76.726  1.00  0.00    -0.504 OA
ATOM     21  H   UNL     1      51.323   2.546  76.277  1.00  0.00     0.293 HD
ENDBRANCH  17  20
ENDBRANCH   1  12
BRANCH   2  22
ATOM     22  O   UNL     1      56.080   4.173  79.624  1.00  0.00    -0.502 OA
ATOM     23  H   UNL     1      55.677   4.046  80.545  1.00  0.00     0.293 HD
ENDBRANCH   2  22
BRANCH   6  24
ATOM     24  O   UNL     1      59.616   7.746  77.864  1.00  0.00    -0.507 OA
ATOM     25  H   UNL     1      59.942   7.326  78.720  1.00  0.00     0.293 HD
ENDBRANCH   6  24
BRANCH   8  26
ATOM     26  O   UNL     1      56.686  10.972  75.889  1.00  0.00    -0.508 OA
ATOM     27  H   UNL     1      57.154  11.151  75.009  1.00  0.00     0.293 HD
ENDBRANCH   8  26
TORSDOF 6
ENDMDL
MODEL 2
REMARK VINA RESULT:    -6.881      1.220      3.033
REMARK INTER + INTRA:          -8.539
REMARK INTER:                  -8.281
REMARK INTRA:                  -0.258
REMARK UNBOUND:                -0.250
REMARK SMILES O=c1c(O)c(-c2ccc(O)c(O)c2)oc2cc(O)cc(O)c12
REMARK SMILES IDX 5 1 3 2 2 3 1 4 22 5 20 6 19 7 17 8 16 9 15 10 14 11 6 12
REMARK SMILES IDX 7 13 8 14 9 15 13 16 11 17 10 18 12 20 4 22 21 24 18 26
REMARK H PARENT 10 19 12 21 4 23 21 25 18 27
REMARK Flexibility Score: inf
ROOT
ATOM      1  C   UNL     1      53.815   6.887  77.666  1.00  0.00     0.180 A 
ATOM      2  C   UNL     1      53.470   8.008  76.892  1.00  0.00     0.208 A 
ATOM      3  C   UNL     1      54.480   8.896  76.489  1.00  0.00     0.238 A 
ATOM      4  O   UNL     1      54.175   9.856  75.735  1.00  0.00    -0.285 OA
ATOM      5  C   UNL     1      55.815   8.683  76.913  1.00  0.00     0.111 A 
ATOM      6  C   UNL     1      56.913   9.543  76.602  1.00  0.00     0.134 A 
ATOM      7  C   UNL     1      58.208   9.174  76.985  1.00  0.00     0.093 A 
ATOM      8  C   UNL     1      58.439   8.013  77.722  1.00  0.00     0.123 A 
ATOM      9  C   UNL     1      57.367   7.194  78.078  1.00  0.00     0.094 A 
ATOM     10  C   UNL     1      56.068   7.515  77.678  1.00  0.00     0.146 A 
ATOM     11  O   UNL     1      55.080   6.695  78.019  1.00  0.00    -0.452 OA
ENDROOT
BRANCH   1  12
ATOM     12  C   UNL     1      52.808   5.899  78.116  1.00  0.00     0.025 A 
ATOM     13  C   UNL     1      52.338   5.884  79.441  1.00  0.00     0.016 A 
ATOM     14  C   UNL     1      51.370   4.958  79.837  1.00  0.00     0.051 A 
ATOM     15  C   UNL     1      50.848   4.043  78.912  1.00  0.00     0.157 A 
ATOM     16  C   UNL     1      52.266   4.994  77.189  1.00  0.00     0.062 A 
ATOM     17  C   UNL     1      51.295   4.063  77.586  1.00  0.00     0.158 A 
BRANCH  15  18
ATOM     18  O   UNL     1      49.884   3.116  79.305  1.00  0.00    -0.504 OA
ATOM     19  H   UNL     1      50.051   2.119  79.242  1.00  0.00     0.293 HD
ENDBRANCH  15  18
BRANCH  17  20
ATOM     20  O   UNL     1      50.769   3.157  76.667  1.00  0.00    -0.504 OA
ATOM     21  H   UNL     1      50.200   3.464  75.885  1.00  0.00     0.293 HD
ENDBRANCH  17  20
ENDBRANCH   1  12
BRANCH   2  22
ATOM     22  O   UNL     1      52.135   8.243  76.549  1.00  0.00    -0.502 OA
ATOM     23  H   UNL     1      51.823   8.305  75.587  1.00  0.00     0.293 HD
ENDBRANCH   2  22
BRANCH   6  24
ATOM     24  O   UNL     1      56.784  10.771  75.948  1.00  0.00    -0.507 OA
ATOM     25  H   UNL     1      57.059  11.662  76.331  1.00  0.00     0.293 HD
ENDBRANCH   6  24
BRANCH   8  26
ATOM     26  O   UNL     1      59.740   7.687  78.102  1.00  0.00    -0.508 OA
ATOM     27  H   UNL     1      60.056   6.725  78.134  1.00  0.00     0.293 HD
ENDBRANCH   8  26
TORSDOF 6
ENDMDL
MODEL 3
REMARK VINA RESULT:    -6.699      1.640      7.012
REMARK INTER + INTRA:          -8.320
REMARK INTER:                  -8.016
REMARK INTRA:                  -0.304
REMARK UNBOUND:                -0.250
REMARK SMILES O=c1c(O)c(-c2ccc(O)c(O)c2)oc2cc(O)cc(O)c12
REMARK SMILES IDX 5 1 3 2 2 3 1 4 22 5 20 6 19 7 17 8 16 9 15 10 14 11 6 12
REMARK SMILES IDX 7 13 8 14 9 15 13 16 11 17 10 18 12 20 4 22 21 24 18 26
REMARK H PARENT 10 19 12 21 4 23 21 25 18 27
REMARK Flexibility Score: inf
ROOT
ATOM      1  C   UNL     1      54.589   5.489  79.426  1.00  0.00     0.180 A 
ATOM      2  C   UNL     1      54.004   5.540  80.702  1.00  0.00     0.208 A 
ATOM      3  C   UNL     1      52.726   4.988  80.889  1.00  0.00     0.238 A 
ATOM      4  O   UNL     1      52.240   4.971  82.049  1.00  0.00    -0.285 OA
ATOM      5  C   UNL     1      52.027   4.441  79.785  1.00  0.00     0.111 A 
ATOM      6  C   UNL     1      50.709   3.894  79.849  1.00  0.00     0.134 A 
ATOM      7  C   UNL     1      50.159   3.284  78.714  1.00  0.00     0.093 A 
ATOM      8  C   UNL     1      50.850   3.257  77.504  1.00  0.00     0.123 A 
ATOM      9  C   UNL     1      52.116   3.838  77.416  1.00  0.00     0.094 A 
ATOM     10  C   UNL     1      52.708   4.420  78.540  1.00  0.00     0.146 A 
ATOM     11  O   UNL     1      53.923   4.940  78.417  1.00  0.00    -0.452 OA
ENDROOT
BRANCH   1  12
ATOM     12  C   UNL     1      55.938   6.037  79.154  1.00  0.00     0.025 A 
ATOM     13  C   UNL     1      57.101   5.326  79.500  1.00  0.00     0.016 A 
ATOM     14  C   UNL     1      58.363   5.852  79.211  1.00  0.00     0.051 A 
ATOM     15  C   UNL     1      58.481   7.088  78.562  1.00  0.00     0.157 A 
ATOM     16  C   UNL     1      56.063   7.265  78.485  1.00  0.00     0.062 A 
ATOM     17  C   UNL     1      57.329   7.794  78.196  1.00  0.00     0.158 A 
BRANCH  15  18
ATOM     18  O   UNL     1      59.738   7.617  78.275  1.00  0.00    -0.504 OA
ATOM     19  H   UNL     1      60.510   7.531  78.925  1.00  0.00     0.293 HD
ENDBRANCH  15  18
BRANCH  17  20
ATOM     20  O   UNL     1      57.449   9.020  77.543  1.00  0.00    -0.504 OA
ATOM     21  H   UNL     1      58.054   9.752  77.896  1.00  0.00     0.293 HD
ENDBRANCH  17  20
ENDBRANCH   1  12
BRANCH   2  22
ATOM     22  O   UNL     1      54.678   6.153  81.762  1.00  0.00    -0.502 OA
ATOM     23  H   UNL     1      55.216   7.003  81.646  1.00  0.00     0.293 HD
ENDBRANCH   2  22
BRANCH   6  24
ATOM     24  O   UNL     1      49.894   3.946  80.983  1.00  0.00    -0.507 OA
ATOM     25  H   UNL     1      49.317   3.189  81.316  1.00  0.00     0.293 HD
ENDBRANCH   6  24
BRANCH   8  26
ATOM     26  O   UNL     1      50.265   2.657  76.390  1.00  0.00    -0.508 OA
ATOM     27  H   UNL     1      50.563   2.884  75.449  1.00  0.00     0.293 HD
ENDBRANCH   8  26
TORSDOF 6
ENDMDL
MODEL 4
REMARK VINA RESULT:    -6.690      1.090      1.728
REMARK INTER + INTRA:          -8.310
REMARK INTER:                  -8.052
REMARK INTRA:                  -0.258
REMARK UNBOUND:                -0.250
REMARK SMILES O=c1c(O)c(-c2ccc(O)c(O)c2)oc2cc(O)cc(O)c12
REMARK SMILES IDX 5 1 3 2 2 3 1 4 22 5 20 6 19 7 17 8 16 9 15 10 14 11 6 12
REMARK SMILES IDX 7 13 8 14 9 15 13 16 11 17 10 18 12 20 4 22 21 24 18 26
REMARK H PARENT 10 19 12 21 4 23 21 25 18 27
REMARK Flexibility Score: inf
ROOT
ATOM      1  C   UNL     1      54.289   5.208  78.507  1.00  0.00     0.180 A 
ATOM      2  C   UNL     1      55.338   4.624  79.237  1.00  0.00     0.208 A 
ATOM      3  C   UNL     1      56.595   5.248  79.243  1.00  0.00     0.238 A 
ATOM      4  O   UNL     1      57.509   4.760  79.957  1.00  0.00    -0.285 OA
ATOM      5  C   UNL     1      56.804   6.419  78.473  1.00  0.00     0.111 A 
ATOM      6  C   UNL     1      58.049   7.112  78.369  1.00  0.00     0.134 A 
ATOM      7  C   UNL     1      58.110   8.320  77.664  1.00  0.00     0.093 A 
ATOM      8  C   UNL     1      56.991   8.828  77.006  1.00  0.00     0.123 A 
ATOM      9  C   UNL     1      55.783   8.132  77.056  1.00  0.00     0.094 A 
ATOM     10  C   UNL     1      55.680   6.943  77.783  1.00  0.00     0.146 A 
ATOM     11  O   UNL     1      54.505   6.325  77.822  1.00  0.00    -0.452 OA
ENDROOT
BRANCH   1  12
ATOM     12  C   UNL     1      52.932   4.617  78.465  1.00  0.00     0.025 A 
ATOM     13  C   UNL     1      52.480   3.902  77.341  1.00  0.00     0.016 A 
ATOM     14  C   UNL     1      51.204   3.332  77.333  1.00  0.00     0.051 A 
ATOM     15  C   UNL     1      50.368   3.456  78.451  1.00  0.00     0.157 A 
ATOM     16  C   UNL     1      52.098   4.719  79.590  1.00  0.00     0.062 A 
ATOM     17  C   UNL     1      50.817   4.148  79.582  1.00  0.00     0.158 A 
BRANCH  15  18
ATOM     18  O   UNL     1      49.094   2.891  78.446  1.00  0.00    -0.504 OA
ATOM     19  H   UNL     1      48.845   2.141  79.080  1.00  0.00     0.293 HD
ENDBRANCH  15  18
BRANCH  17  20
ATOM     20  O   UNL     1      49.987   4.263  80.696  1.00  0.00    -0.504 OA
ATOM     21  H   UNL     1      49.844   5.152  81.162  1.00  0.00     0.293 HD
ENDBRANCH  17  20
ENDBRANCH   1  12
BRANCH   2  22
ATOM     22  O   UNL     1      55.133   3.426  79.928  1.00  0.00    -0.502 OA
ATOM     23  H   UNL     1      55.127   2.525  79.465  1.00  0.00     0.293 HD
ENDBRANCH   2  22
BRANCH   6  24
ATOM     24  O   UNL     1      59.251   6.647  78.912  1.00  0.00    -0.507 OA
ATOM     25  H   UNL     1      59.761   5.843  78.583  1.00  0.00     0.293 HD
ENDBRANCH   6  24
BRANCH   8  26
ATOM     26  O   UNL     1      57.092  10.025  76.299  1.00  0.00    -0.508 OA
ATOM     27  H   UNL     1      57.991  10.407  76.032  1.00  0.00     0.293 HD
ENDBRANCH   8  26
TORSDOF 6
ENDMDL
MODEL 5
REMARK VINA RESULT:    -6.143      3.202      6.943
REMARK INTER + INTRA:          -7.650
REMARK INTER:                  -7.326
REMARK INTRA:                  -0.323
REMARK UNBOUND:                -0.250
REMARK SMILES O=c1c(O)c(-c2ccc(O)c(O)c2)oc2cc(O)cc(O)c12
REMARK SMILES IDX 5 1 3 2 2 3 1 4 22 5 20 6 19 7 17 8 16 9 15 10 14 11 6 12
REMARK SMILES IDX 7 13 8 14 9 15 13 16 11 17 10 18 12 20 4 22 21 24 18 26
REMARK H PARENT 10 19 12 21 4 23 21 25 18 27
REMARK Flexibility Score: inf
ROOT
ATOM      1  C   UNL     1      52.880   5.701  79.323  1.00  0.00     0.180 A 
ATOM      2  C   UNL     1      51.647   5.043  79.460  1.00  0.00     0.208 A 
ATOM      3  C   UNL     1      51.479   4.118  80.504  1.00  0.00     0.238 A 
ATOM      4  O   UNL     1      50.349   3.588  80.664  1.00  0.00    -0.285 OA
ATOM      5  C   UNL     1      52.565   3.821  81.363  1.00  0.00     0.111 A 
ATOM      6  C   UNL     1      52.522   2.868  82.427  1.00  0.00     0.134 A 
ATOM      7  C   UNL     1      53.624   2.735  83.280  1.00  0.00     0.093 A 
ATOM      8  C   UNL     1      54.790   3.472  83.071  1.00  0.00     0.123 A 
ATOM      9  C   UNL     1      54.862   4.366  82.002  1.00  0.00     0.094 A 
ATOM     10  C   UNL     1      53.766   4.549  81.157  1.00  0.00     0.146 A 
ATOM     11  O   UNL     1      53.870   5.427  80.166  1.00  0.00    -0.452 OA
ENDROOT
BRANCH   1  12
ATOM     12  C   UNL     1      53.129   6.699  78.258  1.00  0.00     0.025 A 
ATOM     13  C   UNL     1      53.632   6.318  77.001  1.00  0.00     0.016 A 
ATOM     14  C   UNL     1      53.835   7.274  76.003  1.00  0.00     0.051 A 
ATOM     15  C   UNL     1      53.527   8.620  76.241  1.00  0.00     0.157 A 
ATOM     16  C   UNL     1      52.803   8.046  78.483  1.00  0.00     0.062 A 
ATOM     17  C   UNL     1      53.007   9.006  77.482  1.00  0.00     0.158 A 
BRANCH  15  18
ATOM     18  O   UNL     1      53.732   9.577  75.248  1.00  0.00    -0.504 OA
ATOM     19  H   UNL     1      53.873  10.554  75.475  1.00  0.00     0.293 HD
ENDBRANCH  15  18
BRANCH  17  20
ATOM     20  O   UNL     1      52.694  10.344  77.713  1.00  0.00    -0.504 OA
ATOM     21  H   UNL     1      52.248  10.644  78.573  1.00  0.00     0.293 HD
ENDBRANCH  17  20
ENDBRANCH   1  12
BRANCH   2  22
ATOM     22  O   UNL     1      50.612   5.293  78.555  1.00  0.00    -0.502 OA
ATOM     23  H   UNL     1      49.674   5.534  78.853  1.00  0.00     0.293 HD
ENDBRANCH   2  22
BRANCH   6  24
ATOM     24  O   UNL     1      51.441   2.016  82.671  1.00  0.00    -0.507 OA
ATOM     25  H   UNL     1      51.208   1.621  83.568  1.00  0.00     0.293 HD
ENDBRANCH   6  24
BRANCH   8  26
ATOM     26  O   UNL     1      55.874   3.301  83.929  1.00  0.00    -0.508 OA
ATOM     27  H   UNL     1      56.768   3.742  83.748  1.00  0.00     0.293 HD
ENDBRANCH   8  26
TORSDOF 6
ENDMDL
MODEL 6
REMARK VINA RESULT:    -6.097      2.458      3.674
REMARK INTER + INTRA:          -7.595
REMARK INTER:                  -7.279
REMARK INTRA:                  -0.316
REMARK UNBOUND:                -0.250
REMARK SMILES O=c1c(O)c(-c2ccc(O)c(O)c2)oc2cc(O)cc(O)c12
REMARK SMILES IDX 5 1 3 2 2 3 1 4 22 5 20 6 19 7 17 8 16 9 15 10 14 11 6 12
REMARK SMILES IDX 7 13 8 14 9 15 13 16 11 17 10 18 12 20 4 22 21 24 18 26
REMARK H PARENT 10 19 12 21 4 23 21 25 18 27
REMARK Flexibility Score: inf
ROOT
ATOM      1  C   UNL     1      55.849   5.869  78.941  1.00  0.00     0.180 A 
ATOM      2  C   UNL     1      56.567   6.598  77.979  1.00  0.00     0.208 A 
ATOM      3  C   UNL     1      57.637   7.408  78.394  1.00  0.00     0.238 A 
ATOM      4  O   UNL     1      58.321   7.999  77.519  1.00  0.00    -0.285 OA
ATOM      5  C   UNL     1      57.938   7.523  79.773  1.00  0.00     0.111 A 
ATOM      6  C   UNL     1      58.972   8.349  80.312  1.00  0.00     0.134 A 
ATOM      7  C   UNL     1      59.249   8.301  81.684  1.00  0.00     0.093 A 
ATOM      8  C   UNL     1      58.492   7.508  82.545  1.00  0.00     0.123 A 
ATOM      9  C   UNL     1      57.444   6.739  82.037  1.00  0.00     0.094 A 
ATOM     10  C   UNL     1      57.168   6.736  80.668  1.00  0.00     0.146 A 
ATOM     11  O   UNL     1      56.177   5.971  80.224  1.00  0.00    -0.452 OA
ENDROOT
BRANCH   1  12
ATOM     12  C   UNL     1      54.719   4.984  78.579  1.00  0.00     0.025 A 
ATOM     13  C   UNL     1      53.392   5.449  78.588  1.00  0.00     0.016 A 
ATOM     14  C   UNL     1      52.344   4.602  78.219  1.00  0.00     0.051 A 
ATOM     15  C   UNL     1      52.607   3.283  77.824  1.00  0.00     0.157 A 
ATOM     16  C   UNL     1      54.978   3.668  78.163  1.00  0.00     0.062 A 
ATOM     17  C   UNL     1      53.927   2.817  77.793  1.00  0.00     0.158 A 
BRANCH  15  18
ATOM     18  O   UNL     1      51.564   2.435  77.458  1.00  0.00    -0.504 OA
ATOM     19  H   UNL     1      51.352   1.597  77.987  1.00  0.00     0.293 HD
ENDBRANCH  15  18
BRANCH  17  20
ATOM     20  O   UNL     1      54.187   1.507  77.392  1.00  0.00    -0.504 OA
ATOM     21  H   UNL     1      54.012   0.720  78.005  1.00  0.00     0.293 HD
ENDBRANCH  17  20
ENDBRANCH   1  12
BRANCH   2  22
ATOM     22  O   UNL     1      56.205   6.531  76.630  1.00  0.00    -0.502 OA
ATOM     23  H   UNL     1      55.855   7.333  76.120  1.00  0.00     0.293 HD
ENDBRANCH   2  22
BRANCH   6  24
ATOM     24  O   UNL     1      59.732   9.246  79.555  1.00  0.00    -0.507 OA
ATOM     25  H   UNL     1      59.454  10.188  79.326  1.00  0.00     0.293 HD
ENDBRANCH   6  24
BRANCH   8  26
ATOM     26  O   UNL     1      58.785   7.499  83.908  1.00  0.00    -0.508 OA
ATOM     27  H   UNL     1      58.054   7.557  84.607  1.00  0.00     0.293 HD
ENDBRANCH   8  26
TORSDOF 6
ENDMDL
MODEL 7
REMARK VINA RESULT:    -6.044      1.841      7.356
REMARK INTER + INTRA:          -7.531
REMARK INTER:                  -7.481
REMARK INTRA:                  -0.050
REMARK UNBOUND:                -0.250
REMARK SMILES O=c1c(O)c(-c2ccc(O)c(O)c2)oc2cc(O)cc(O)c12
REMARK SMILES IDX 5 1 3 2 2 3 1 4 22 5 20 6 19 7 17 8 16 9 15 10 14 11 6 12
REMARK SMILES IDX 7 13 8 14 9 15 13 16 11 17 10 18 12 20 4 22 21 24 18 26
REMARK H PARENT 10 19 12 21 4 23 21 25 18 27
REMARK Flexibility Score: inf
ROOT
ATOM      1  C   UNL     1      54.550   5.569  79.371  1.00  0.00     0.180 A 
ATOM      2  C   UNL     1      53.581   5.403  78.368  1.00  0.00     0.208 A 
ATOM      3  C   UNL     1      52.326   4.877  78.711  1.00  0.00     0.238 A 
ATOM      4  O   UNL     1      51.439   4.801  77.820  1.00  0.00    -0.285 OA
ATOM      5  C   UNL     1      52.073   4.469  80.044  1.00  0.00     0.111 A 
ATOM      6  C   UNL     1      50.852   3.881  80.496  1.00  0.00     0.134 A 
ATOM      7  C   UNL     1      50.677   3.616  81.860  1.00  0.00     0.093 A 
ATOM      8  C   UNL     1      51.699   3.857  82.778  1.00  0.00     0.123 A 
ATOM      9  C   UNL     1      52.915   4.380  82.339  1.00  0.00     0.094 A 
ATOM     10  C   UNL     1      53.107   4.691  80.990  1.00  0.00     0.146 A 
ATOM     11  O   UNL     1      54.272   5.209  80.620  1.00  0.00    -0.452 OA
ENDROOT
BRANCH   1  12
ATOM     12  C   UNL     1      55.890   6.130  79.090  1.00  0.00     0.025 A 
ATOM     13  C   UNL     1      57.062   5.407  79.376  1.00  0.00     0.016 A 
ATOM     14  C   UNL     1      58.316   5.948  79.079  1.00  0.00     0.051 A 
ATOM     15  C   UNL     1      58.417   7.211  78.482  1.00  0.00     0.157 A 
ATOM     16  C   UNL     1      55.998   7.387  78.473  1.00  0.00     0.062 A 
ATOM     17  C   UNL     1      57.256   7.930  78.175  1.00  0.00     0.158 A 
BRANCH  15  18
ATOM     18  O   UNL     1      59.666   7.754  78.187  1.00  0.00    -0.504 OA
ATOM     19  H   UNL     1      59.762   8.573  77.598  1.00  0.00     0.293 HD
ENDBRANCH  15  18
BRANCH  17  20
ATOM     20  O   UNL     1      57.358   9.184  77.573  1.00  0.00    -0.504 OA
ATOM     21  H   UNL     1      57.428   9.285  76.567  1.00  0.00     0.293 HD
ENDBRANCH  17  20
ENDBRANCH   1  12
BRANCH   2  22
ATOM     22  O   UNL     1      53.876   5.740  77.043  1.00  0.00    -0.502 OA
ATOM     23  H   UNL     1      54.153   5.050  76.355  1.00  0.00     0.293 HD
ENDBRANCH   2  22
BRANCH   6  24
ATOM     24  O   UNL     1      49.799   3.516  79.651  1.00  0.00    -0.507 OA
ATOM     25  H   UNL     1      49.614   3.925  78.749  1.00  0.00     0.293 HD
ENDBRANCH   6  24
BRANCH   8  26
ATOM     26  O   UNL     1      51.496   3.565  84.125  1.00  0.00    -0.508 OA
ATOM     27  H   UNL     1      52.084   2.904  84.618  1.00  0.00     0.293 HD
ENDBRANCH   8  26
TORSDOF 6
ENDMDL
MODEL 8
REMARK VINA RESULT:    -6.014     10.689     12.545
REMARK INTER + INTRA:          -7.495
REMARK INTER:                  -7.199
REMARK INTRA:                  -0.295
REMARK UNBOUND:                -0.250
REMARK SMILES O=c1c(O)c(-c2ccc(O)c(O)c2)oc2cc(O)cc(O)c12
REMARK SMILES IDX 5 1 3 2 2 3 1 4 22 5 20 6 19 7 17 8 16 9 15 10 14 11 6 12
REMARK SMILES IDX 7 13 8 14 9 15 13 16 11 17 10 18 12 20 4 22 21 24 18 26
REMARK H PARENT 10 19 12 21 4 23 21 25 18 27
REMARK Flexibility Score: inf
ROOT
ATOM      1  C   UNL     1      51.097  -4.844  81.469  1.00  0.00     0.180 A 
ATOM      2  C   UNL     1      50.826  -3.558  81.965  1.00  0.00     0.208 A 
ATOM      3  C   UNL     1      51.863  -2.824  82.563  1.00  0.00     0.238 A 
ATOM      4  O   UNL     1      51.629  -1.646  82.938  1.00  0.00    -0.285 OA
ATOM      5  C   UNL     1      53.145  -3.408  82.707  1.00  0.00     0.111 A 
ATOM      6  C   UNL     1      54.260  -2.773  83.337  1.00  0.00     0.134 A 
ATOM      7  C   UNL     1      55.510  -3.404  83.327  1.00  0.00     0.093 A 
ATOM      8  C   UNL     1      55.673  -4.671  82.769  1.00  0.00     0.123 A 
ATOM      9  C   UNL     1      54.579  -5.323  82.200  1.00  0.00     0.094 A 
ATOM     10  C   UNL     1      53.327  -4.704  82.160  1.00  0.00     0.146 A 
ATOM     11  O   UNL     1      52.319  -5.351  81.588  1.00  0.00    -0.452 OA
ENDROOT
BRANCH   1  12
ATOM     12  C   UNL     1      50.060  -5.672  80.813  1.00  0.00     0.025 A 
ATOM     13  C   UNL     1      49.108  -6.384  81.564  1.00  0.00     0.016 A 
ATOM     14  C   UNL     1      48.123  -7.140  80.923  1.00  0.00     0.051 A 
ATOM     15  C   UNL     1      48.067  -7.185  79.523  1.00  0.00     0.157 A 
ATOM     16  C   UNL     1      49.986  -5.705  79.411  1.00  0.00     0.062 A 
ATOM     17  C   UNL     1      48.998  -6.464  78.766  1.00  0.00     0.158 A 
BRANCH  15  18
ATOM     18  O   UNL     1      47.088  -7.940  78.880  1.00  0.00    -0.504 OA
ATOM     19  H   UNL     1      46.144  -8.000  79.241  1.00  0.00     0.293 HD
ENDBRANCH  15  18
BRANCH  17  20
ATOM     20  O   UNL     1      48.936  -6.504  77.374  1.00  0.00    -0.504 OA
ATOM     21  H   UNL     1      48.462  -5.782  76.843  1.00  0.00     0.293 HD
ENDBRANCH  17  20
ENDBRANCH   1  12
BRANCH   2  22
ATOM     22  O   UNL     1      49.534  -3.030  81.882  1.00  0.00    -0.502 OA
ATOM     23  H   UNL     1      48.712  -3.558  82.150  1.00  0.00     0.293 HD
ENDBRANCH   2  22
BRANCH   6  24
ATOM     24  O   UNL     1      54.188  -1.546  84.004  1.00  0.00    -0.507 OA
ATOM     25  H   UNL     1      54.181  -0.644  83.555  1.00  0.00     0.293 HD
ENDBRANCH   6  24
BRANCH   8  26
ATOM     26  O   UNL     1      56.928  -5.277  82.792  1.00  0.00    -0.508 OA
ATOM     27  H   UNL     1      57.687  -4.945  82.209  1.00  0.00     0.293 HD
ENDBRANCH   8  26
TORSDOF 6
ENDMDL
MODEL 9
REMARK VINA RESULT:    -5.947     12.404     14.225
REMARK INTER + INTRA:          -7.414
REMARK INTER:                  -7.097
REMARK INTRA:                  -0.317
REMARK UNBOUND:                -0.250
REMARK SMILES O=c1c(O)c(-c2ccc(O)c(O)c2)oc2cc(O)cc(O)c12
REMARK SMILES IDX 5 1 3 2 2 3 1 4 22 5 20 6 19 7 17 8 16 9 15 10 14 11 6 12
REMARK SMILES IDX 7 13 8 14 9 15 13 16 11 17 10 18 12 20 4 22 21 24 18 26
REMARK H PARENT 10 19 12 21 4 23 21 25 18 27
REMARK Flexibility Score: inf
ROOT
ATOM      1  C   UNL     1      47.357  -4.757  78.626  1.00  0.00     0.180 A 
ATOM      2  C   UNL     1      46.068  -5.164  78.243  1.00  0.00     0.208 A 
ATOM      3  C   UNL     1      45.691  -5.059  76.895  1.00  0.00     0.238 A 
ATOM      4  O   UNL     1      44.562  -5.493  76.548  1.00  0.00    -0.285 OA
ATOM      5  C   UNL     1      46.589  -4.496  75.955  1.00  0.00     0.111 A 
ATOM      6  C   UNL     1      46.298  -4.300  74.570  1.00  0.00     0.134 A 
ATOM      7  C   UNL     1      47.302  -3.833  73.713  1.00  0.00     0.093 A 
ATOM      8  C   UNL     1      48.565  -3.494  74.198  1.00  0.00     0.123 A 
ATOM      9  C   UNL     1      48.843  -3.631  75.559  1.00  0.00     0.094 A 
ATOM     10  C   UNL     1      47.874  -4.130  76.433  1.00  0.00     0.146 A 
ATOM     11  O   UNL     1      48.189  -4.265  77.716  1.00  0.00    -0.452 OA
ENDROOT
BRANCH   1  12
ATOM     12  C   UNL     1      47.831  -4.851  80.026  1.00  0.00     0.025 A 
ATOM     13  C   UNL     1      47.701  -3.771  80.916  1.00  0.00     0.016 A 
ATOM     14  C   UNL     1      48.133  -3.890  82.240  1.00  0.00     0.051 A 
ATOM     15  C   UNL     1      48.689  -5.094  82.695  1.00  0.00     0.157 A 
ATOM     16  C   UNL     1      48.369  -6.060  80.493  1.00  0.00     0.062 A 
ATOM     17  C   UNL     1      48.804  -6.181  81.821  1.00  0.00     0.158 A 
BRANCH  15  18
ATOM     18  O   UNL     1      49.124  -5.216  84.013  1.00  0.00    -0.504 OA
ATOM     19  H   UNL     1      49.195  -4.411  84.624  1.00  0.00     0.293 HD
ENDBRANCH  15  18
BRANCH  17  20
ATOM     20  O   UNL     1      49.350  -7.379  82.279  1.00  0.00    -0.504 OA
ATOM     21  H   UNL     1      48.950  -7.880  83.064  1.00  0.00     0.293 HD
ENDBRANCH  17  20
ENDBRANCH   1  12
BRANCH   2  22
ATOM     22  O   UNL     1      45.169  -5.645  79.199  1.00  0.00    -0.502 OA
ATOM     23  H   UNL     1      44.554  -6.431  79.022  1.00  0.00     0.293 HD
ENDBRANCH   2  22
BRANCH   6  24
ATOM     24  O   UNL     1      45.043  -4.521  73.995  1.00  0.00    -0.507 OA
ATOM     25  H   UNL     1      44.313  -3.830  73.918  1.00  0.00     0.293 HD
ENDBRANCH   6  24
BRANCH   8  26
ATOM     26  O   UNL     1      49.534  -3.016  73.319  1.00  0.00    -0.508 OA
ATOM     27  H   UNL     1      49.576  -3.328  72.356  1.00  0.00     0.293 HD
ENDBRANCH   8  26
TORSDOF 6
ENDMDL
