MODEL 1
REMARK VINA RESULT:    -3.369      0.000      0.000
REMARK INTER + INTRA:          -3.779
REMARK INTER:                  -3.763
REMARK INTRA:                  -0.016
REMARK UNBOUND:                -0.016
REMARK SMILES CCCC(=O)[O-]
REMARK SMILES IDX 3 1 4 2 5 3 6 4 2 5 1 6
REMARK H PARENT
REMARK Flexibility Score: inf
ROOT
ATOM      1  C   UNL     1      13.924  19.118   0.251  1.00  0.00     0.052 C 
ENDROOT
BRANCH   1   2
ATOM      2  C   UNL     1      12.822  18.102   0.257  1.00  0.00     0.041 C 
ATOM      3  O   UNL     1      11.879  18.187  -0.573  1.00  0.00    -0.550 OA
ATOM      4  O   UNL     1      12.856  17.044   1.155  1.00  0.00    -0.550 OA
ENDBRANCH   1   2
BRANCH   1   5
ATOM      5  C   UNL     1      13.531  20.379  -0.529  1.00  0.00     0.003 C 
ATOM      6  C   UNL     1      14.743  21.100  -1.119  1.00  0.00     0.004 C 
ENDBRANCH   1   5
TORSDOF 2
ENDMDL
MODEL 2
REMARK VINA RESULT:    -3.246      1.368      1.925
REMARK INTER + INTRA:          -3.641
REMARK INTER:                  -3.630
REMARK INTRA:                  -0.012
REMARK UNBOUND:                -0.016
REMARK SMILES CCCC(=O)[O-]
REMARK SMILES IDX 3 1 4 2 5 3 6 4 2 5 1 6
REMARK H PARENT
REMARK Flexibility Score: inf
ROOT
ATOM      1  C   UNL     1      13.775  20.256  -0.397  1.00  0.00     0.052 C 
ENDROOT
BRANCH   1   2
ATOM      2  C   UNL     1      13.990  18.965   0.333  1.00  0.00     0.041 C 
ATOM      3  O   UNL     1      15.113  18.703   0.836  1.00  0.00    -0.550 OA
ATOM      4  O   UNL     1      12.940  18.070   0.487  1.00  0.00    -0.550 OA
ENDBRANCH   1   2
BRANCH   1   5
ATOM      5  C   UNL     1      15.101  20.963  -0.706  1.00  0.00     0.003 C 
ATOM      6  C   UNL     1      14.992  21.909  -1.901  1.00  0.00     0.004 C 
ENDBRANCH   1   5
TORSDOF 2
ENDMDL
MODEL 3
REMARK VINA RESULT:    -3.179      2.761      3.645
REMARK INTER + INTRA:          -3.566
REMARK INTER:                  -3.557
REMARK INTRA:                  -0.009
REMARK UNBOUND:                -0.016
REMARK SMILES CCCC(=O)[O-]
REMARK SMILES IDX 3 1 4 2 5 3 6 4 2 5 1 6
REMARK H PARENT
REMARK Flexibility Score: inf
ROOT
ATOM      1  C   UNL     1      13.499  20.039  -0.483  1.00  0.00     0.052 C 
ENDROOT
BRANCH   1   2
ATOM      2  C   UNL     1      14.738  20.834  -0.766  1.00  0.00     0.041 C 
ATOM      3  O   UNL     1      14.741  21.692  -1.688  1.00  0.00    -0.550 OA
ATOM      4  O   UNL     1      15.875  20.652   0.009  1.00  0.00    -0.550 OA
ENDBRANCH   1   2
BRANCH   1   5
ATOM      5  C   UNL     1      13.793  18.827   0.409  1.00  0.00     0.003 C 
ATOM      6  C   UNL     1      12.690  17.771   0.338  1.00  0.00     0.004 C 
ENDBRANCH   1   5
TORSDOF 2
ENDMDL
MODEL 4
REMARK VINA RESULT:    -3.009      2.563      3.686
REMARK INTER + INTRA:          -3.377
REMARK INTER:                  -3.368
REMARK INTRA:                  -0.009
REMARK UNBOUND:                -0.016
REMARK SMILES CCCC(=O)[O-]
REMARK SMILES IDX 3 1 4 2 5 3 6 4 2 5 1 6
REMARK H PARENT
REMARK Flexibility Score: inf
ROOT
ATOM      1  C   UNL     1      14.501  19.032   0.484  1.00  0.00     0.052 C 
ENDROOT
BRANCH   1   2
ATOM      2  C   UNL     1      14.832  20.341  -0.166  1.00  0.00     0.041 C 
ATOM      3  O   UNL     1      15.966  20.861   0.003  1.00  0.00    -0.550 OA
ATOM      4  O   UNL     1      13.902  20.967  -0.985  1.00  0.00    -0.550 OA
ENDBRANCH   1   2
BRANCH   1   5
ATOM      5  C   UNL     1      13.089  18.555   0.118  1.00  0.00     0.003 C 
ATOM      6  C   UNL     1      12.711  17.256   0.828  1.00  0.00     0.004 C 
ENDBRANCH   1   5
TORSDOF 2
ENDMDL
MODEL 5
REMARK VINA RESULT:    -2.667      1.880      2.285
REMARK INTER + INTRA:          -2.995
REMARK INTER:                  -2.984
REMARK INTRA:                  -0.010
REMARK UNBOUND:                -0.016
REMARK SMILES CCCC(=O)[O-]
REMARK SMILES IDX 3 1 4 2 5 3 6 4 2 5 1 6
REMARK H PARENT
REMARK Flexibility Score: inf
ROOT
ATOM      1  C   UNL     1      14.535  18.722   0.715  1.00  0.00     0.052 C 
ENDROOT
BRANCH   1   2
ATOM      2  C   UNL     1      13.311  19.093  -0.066  1.00  0.00     0.041 C 
ATOM      3  O   UNL     1      13.265  20.187  -0.687  1.00  0.00    -0.550 OA
ATOM      4  O   UNL     1      12.237  18.216  -0.137  1.00  0.00    -0.550 OA
ENDBRANCH   1   2
BRANCH   1   5
ATOM      5  C   UNL     1      15.752  19.558   0.298  1.00  0.00     0.003 C 
ATOM      6  C   UNL     1      17.071  18.928   0.744  1.00  0.00     0.004 C 
ENDBRANCH   1   5
TORSDOF 2
ENDMDL
MODEL 6
REMARK VINA RESULT:    -2.615     23.654     24.088
REMARK INTER + INTRA:          -2.937
REMARK INTER:                  -2.930
REMARK INTRA:                  -0.006
REMARK UNBOUND:                -0.016
REMARK SMILES CCCC(=O)[O-]
REMARK SMILES IDX 3 1 4 2 5 3 6 4 2 5 1 6
REMARK H PARENT
REMARK Flexibility Score: inf
ROOT
ATOM      1  C   UNL     1      -1.007   4.716  11.946  1.00  0.00     0.052 C 
ENDROOT
BRANCH   1   2
ATOM      2  C   UNL     1      -1.504   3.481  11.258  1.00  0.00     0.041 C 
ATOM      3  O   UNL     1      -2.175   3.576  10.196  1.00  0.00    -0.550 OA
ATOM      4  O   UNL     1      -1.198   2.228  11.769  1.00  0.00    -0.550 OA
ENDBRANCH   1   2
BRANCH   1   5
ATOM      5  C   UNL     1      -2.141   5.474  12.647  1.00  0.00     0.003 C 
ATOM      6  C   UNL     1      -1.708   6.860  13.125  1.00  0.00     0.004 C 
ENDBRANCH   1   5
TORSDOF 2
ENDMDL
MODEL 7
REMARK VINA RESULT:    -2.597     10.817     11.803
REMARK INTER + INTRA:          -2.916
REMARK INTER:                  -2.905
REMARK INTRA:                  -0.011
REMARK UNBOUND:                -0.016
REMARK SMILES CCCC(=O)[O-]
REMARK SMILES IDX 3 1 4 2 5 3 6 4 2 5 1 6
REMARK H PARENT
REMARK Flexibility Score: inf
ROOT
ATOM      1  C   UNL     1      14.461  13.364   9.595  1.00  0.00     0.052 C 
ENDROOT
BRANCH   1   2
ATOM      2  C   UNL     1      14.120  12.419  10.707  1.00  0.00     0.041 C 
ATOM      3  O   UNL     1      13.288  12.756  11.589  1.00  0.00    -0.550 OA
ATOM      4  O   UNL     1      14.695  11.156  10.749  1.00  0.00    -0.550 OA
ENDBRANCH   1   2
BRANCH   1   5
ATOM      5  C   UNL     1      13.970  12.847   8.237  1.00  0.00     0.003 C 
ATOM      6  C   UNL     1      14.886  13.269   7.088  1.00  0.00     0.004 C 
ENDBRANCH   1   5
TORSDOF 2
ENDMDL
MODEL 8
REMARK VINA RESULT:    -2.548      9.289     10.607
REMARK INTER + INTRA:          -2.862
REMARK INTER:                  -2.856
REMARK INTRA:                  -0.006
REMARK UNBOUND:                -0.016
REMARK SMILES CCCC(=O)[O-]
REMARK SMILES IDX 3 1 4 2 5 3 6 4 2 5 1 6
REMARK H PARENT
REMARK Flexibility Score: inf
ROOT
ATOM      1  C   UNL     1      14.221  13.039   7.952  1.00  0.00     0.052 C 
ENDROOT
BRANCH   1   2
ATOM      2  C   UNL     1      15.320  13.642   7.131  1.00  0.00     0.041 C 
ATOM      3  O   UNL     1      15.564  14.875   7.209  1.00  0.00    -0.550 OA
ATOM      4  O   UNL     1      16.097  12.837   6.309  1.00  0.00    -0.550 OA
ENDBRANCH   1   2
BRANCH   1   5
ATOM      5  C   UNL     1      14.488  13.182   9.456  1.00  0.00     0.003 C 
ATOM      6  C   UNL     1      13.984  11.980  10.254  1.00  0.00     0.004 C 
ENDBRANCH   1   5
TORSDOF 2
ENDMDL
MODEL 9
REMARK VINA RESULT:    -2.428     10.332     11.640
REMARK INTER + INTRA:          -2.728
REMARK INTER:                  -2.709
REMARK INTRA:                  -0.019
REMARK UNBOUND:                -0.016
REMARK SMILES CCCC(=O)[O-]
REMARK SMILES IDX 3 1 4 2 5 3 6 4 2 5 1 6
REMARK H PARENT
REMARK Flexibility Score: inf
ROOT
ATOM      1  C   UNL     1      14.673  13.285   9.739  1.00  0.00     0.052 C 
ENDROOT
BRANCH   1   2
ATOM      2  C   UNL     1      14.369  13.112   8.282  1.00  0.00     0.041 C 
ATOM      3  O   UNL     1      13.399  12.394   7.919  1.00  0.00    -0.550 OA
ATOM      4  O   UNL     1      15.133  13.769   7.327  1.00  0.00    -0.550 OA
ENDBRANCH   1   2
BRANCH   1   5
ATOM      5  C   UNL     1      14.045  12.173  10.588  1.00  0.00     0.003 C 
ATOM      6  C   UNL     1      13.602  12.671  11.964  1.00  0.00     0.004 C 
ENDBRANCH   1   5
TORSDOF 2
ENDMDL
