MODEL 1
REMARK VINA RESULT:    -3.802      0.000      0.000
REMARK INTER + INTRA:          -7.285
REMARK INTER:                  -6.469
REMARK INTRA:                  -0.816
REMARK UNBOUND:                -0.816
REMARK SMILES CCCCCCCCCCCCCC(=O)[O-]
REMARK SMILES IDX 8 1 9 2 10 3 11 4 12 5 13 6 14 7 15 8 16 9 7 10 6 11 5 12
REMARK SMILES IDX 4 13 3 14 2 15 1 16
REMARK H PARENT
REMARK Flexibility Score: inf
ROOT
ATOM      1  C   UNL     1      34.963  28.966  16.768  1.00  0.00     0.000 C 
ENDROOT
BRANCH   1   2
ATOM      2  C   UNL     1      35.790  27.882  16.057  1.00  0.00     0.000 C 
BRANCH   2   3
ATOM      3  C   UNL     1      34.939  26.997  15.133  1.00  0.00     0.000 C 
BRANCH   3   4
ATOM      4  C   UNL     1      35.453  27.059  13.687  1.00  0.00     0.000 C 
BRANCH   4   5
ATOM      5  C   UNL     1      34.329  27.272  12.655  1.00  0.00     0.006 C 
BRANCH   5   6
ATOM      6  C   UNL     1      34.111  28.745  12.265  1.00  0.00     0.053 C 
BRANCH   6   7
ATOM      7  C   UNL     1      32.977  29.380  13.010  1.00  0.00     0.041 C 
ATOM      8  O   UNL     1      32.706  30.598  12.840  1.00  0.00    -0.550 OA
ATOM      9  O   UNL     1      32.237  28.633  13.919  1.00  0.00    -0.550 OA
ENDBRANCH   6   7
ENDBRANCH   5   6
ENDBRANCH   4   5
ENDBRANCH   3   4
ENDBRANCH   2   3
ENDBRANCH   1   2
BRANCH   1  10
ATOM     10  C   UNL     1      34.983  28.816  18.300  1.00  0.00     0.000 C 
BRANCH  10  11
ATOM     11  C   UNL     1      34.697  27.376  18.757  1.00  0.00    -0.000 C 
BRANCH  11  12
ATOM     12  C   UNL     1      35.711  26.876  19.802  1.00  0.00    -0.000 C 
BRANCH  12  13
ATOM     13  C   UNL     1      36.457  28.027  20.499  1.00  0.00    -0.000 C 
BRANCH  13  14
ATOM     14  C   UNL     1      36.255  28.023  22.024  1.00  0.00    -0.000 C 
BRANCH  14  15
ATOM     15  C   UNL     1      35.335  29.161  22.497  1.00  0.00    -0.003 C 
ATOM     16  C   UNL     1      34.939  29.031  23.967  1.00  0.00     0.004 C 
ENDBRANCH  14  15
ENDBRANCH  13  14
ENDBRANCH  12  13
ENDBRANCH  11  12
ENDBRANCH  10  11
ENDBRANCH   1  10
TORSDOF 12
ENDMDL
MODEL 2
REMARK VINA RESULT:    -3.661      4.036      7.985
REMARK INTER + INTRA:          -7.044
REMARK INTER:                  -5.907
REMARK INTRA:                  -1.137
REMARK UNBOUND:                -0.816
REMARK SMILES CCCCCCCCCCCCCC(=O)[O-]
REMARK SMILES IDX 8 1 9 2 10 3 11 4 12 5 13 6 14 7 15 8 16 9 7 10 6 11 5 12
REMARK SMILES IDX 4 13 3 14 2 15 1 16
REMARK H PARENT
REMARK Flexibility Score: inf
ROOT
ATOM      1  C   UNL     1      34.700  28.809  18.136  1.00  0.00     0.000 C 
ENDROOT
BRANCH   1   2
ATOM      2  C   UNL     1      34.879  27.402  18.729  1.00  0.00     0.000 C 
BRANCH   2   3
ATOM      3  C   UNL     1      35.851  27.378  19.919  1.00  0.00     0.000 C 
BRANCH   3   4
ATOM      4  C   UNL     1      36.668  28.676  19.987  1.00  0.00     0.000 C 
BRANCH   4   5
ATOM      5  C   UNL     1      36.514  29.418  21.328  1.00  0.00     0.006 C 
BRANCH   5   6
ATOM      6  C   UNL     1      35.244  29.035  22.110  1.00  0.00     0.053 C 
BRANCH   6   7
ATOM      7  C   UNL     1      35.382  29.261  23.585  1.00  0.00     0.041 C 
ATOM      8  O   UNL     1      34.944  28.411  24.404  1.00  0.00    -0.550 OA
ATOM      9  O   UNL     1      35.969  30.429  24.057  1.00  0.00    -0.550 OA
ENDBRANCH   6   7
ENDBRANCH   5   6
ENDBRANCH   4   5
ENDBRANCH   3   4
ENDBRANCH   2   3
ENDBRANCH   1   2
BRANCH   1  10
ATOM     10  C   UNL     1      34.840  28.829  16.604  1.00  0.00     0.000 C 
BRANCH  10  11
ATOM     11  C   UNL     1      36.226  28.359  16.130  1.00  0.00    -0.000 C 
BRANCH  11  12
ATOM     12  C   UNL     1      36.143  27.207  15.114  1.00  0.00    -0.000 C 
BRANCH  12  13
ATOM     13  C   UNL     1      34.748  27.080  14.477  1.00  0.00    -0.000 C 
BRANCH  13  14
ATOM     14  C   UNL     1      34.783  27.222  12.945  1.00  0.00    -0.000 C 
BRANCH  14  15
ATOM     15  C   UNL     1      33.883  28.361  12.440  1.00  0.00    -0.003 C 
ATOM     16  C   UNL     1      32.885  28.841  13.494  1.00  0.00     0.004 C 
ENDBRANCH  14  15
ENDBRANCH  13  14
ENDBRANCH  12  13
ENDBRANCH  11  12
ENDBRANCH  10  11
ENDBRANCH   1  10
TORSDOF 12
ENDMDL
MODEL 3
REMARK VINA RESULT:    -3.597      0.971      1.209
REMARK INTER + INTRA:          -6.935
REMARK INTER:                  -5.882
REMARK INTRA:                  -1.053
REMARK UNBOUND:                -0.816
REMARK SMILES CCCCCCCCCCCCCC(=O)[O-]
REMARK SMILES IDX 8 1 9 2 10 3 11 4 12 5 13 6 14 7 15 8 16 9 7 10 6 11 5 12
REMARK SMILES IDX 4 13 3 14 2 15 1 16
REMARK H PARENT
REMARK Flexibility Score: inf
ROOT
ATOM      1  C   UNL     1      34.993  29.051  17.031  1.00  0.00     0.000 C 
ENDROOT
BRANCH   1   2
ATOM      2  C   UNL     1      36.432  28.799  16.551  1.00  0.00     0.000 C 
BRANCH   2   3
ATOM      3  C   UNL     1      36.495  27.875  15.325  1.00  0.00     0.000 C 
BRANCH   3   4
ATOM      4  C   UNL     1      35.241  26.994  15.236  1.00  0.00     0.000 C 
BRANCH   4   5
ATOM      5  C   UNL     1      34.493  27.140  13.898  1.00  0.00     0.006 C 
BRANCH   5   6
ATOM      6  C   UNL     1      33.389  28.214  13.914  1.00  0.00     0.053 C 
BRANCH   6   7
ATOM      7  C   UNL     1      33.461  29.135  12.735  1.00  0.00     0.041 C 
ATOM      8  O   UNL     1      32.898  30.261  12.771  1.00  0.00    -0.550 OA
ATOM      9  O   UNL     1      34.125  28.737  11.580  1.00  0.00    -0.550 OA
ENDBRANCH   6   7
ENDBRANCH   5   6
ENDBRANCH   4   5
ENDBRANCH   3   4
ENDBRANCH   2   3
ENDBRANCH   1   2
BRANCH   1  10
ATOM     10  C   UNL     1      34.819  28.797  18.539  1.00  0.00     0.000 C 
BRANCH  10  11
ATOM     11  C   UNL     1      34.846  27.301  18.894  1.00  0.00    -0.000 C 
BRANCH  11  12
ATOM     12  C   UNL     1      36.168  26.876  19.557  1.00  0.00    -0.000 C 
BRANCH  12  13
ATOM     13  C   UNL     1      36.819  28.016  20.361  1.00  0.00    -0.000 C 
BRANCH  13  14
ATOM     14  C   UNL     1      36.506  27.931  21.864  1.00  0.00    -0.000 C 
BRANCH  14  15
ATOM     15  C   UNL     1      35.256  28.740  22.250  1.00  0.00    -0.003 C 
ATOM     16  C   UNL     1      35.413  29.477  23.580  1.00  0.00     0.004 C 
ENDBRANCH  14  15
ENDBRANCH  13  14
ENDBRANCH  12  13
ENDBRANCH  11  12
ENDBRANCH  10  11
ENDBRANCH   1  10
TORSDOF 12
ENDMDL
MODEL 4
REMARK VINA RESULT:    -3.588      1.025      1.964
REMARK INTER + INTRA:          -6.921
REMARK INTER:                  -6.055
REMARK INTRA:                  -0.867
REMARK UNBOUND:                -0.816
REMARK SMILES CCCCCCCCCCCCCC(=O)[O-]
REMARK SMILES IDX 8 1 9 2 10 3 11 4 12 5 13 6 14 7 15 8 16 9 7 10 6 11 5 12
REMARK SMILES IDX 4 13 3 14 2 15 1 16
REMARK H PARENT
REMARK Flexibility Score: inf
ROOT
ATOM      1  C   UNL     1      34.516  28.658  18.197  1.00  0.00     0.000 C 
ENDROOT
BRANCH   1   2
ATOM      2  C   UNL     1      35.433  29.083  17.038  1.00  0.00     0.000 C 
BRANCH   2   3
ATOM      3  C   UNL     1      36.392  27.965  16.600  1.00  0.00     0.000 C 
BRANCH   3   4
ATOM      4  C   UNL     1      36.233  27.660  15.104  1.00  0.00     0.000 C 
BRANCH   4   5
ATOM      5  C   UNL     1      34.937  26.893  14.779  1.00  0.00     0.006 C 
BRANCH   5   6
ATOM      6  C   UNL     1      34.464  27.057  13.323  1.00  0.00     0.053 C 
BRANCH   6   7
ATOM      7  C   UNL     1      33.797  28.375  13.075  1.00  0.00     0.041 C 
ATOM      8  O   UNL     1      32.843  28.753  13.804  1.00  0.00    -0.550 OA
ATOM      9  O   UNL     1      34.209  29.174  12.016  1.00  0.00    -0.550 OA
ENDBRANCH   6   7
ENDBRANCH   5   6
ENDBRANCH   4   5
ENDBRANCH   3   4
ENDBRANCH   2   3
ENDBRANCH   1   2
BRANCH   1  10
ATOM     10  C   UNL     1      35.035  27.411  18.936  1.00  0.00     0.000 C 
BRANCH  10  11
ATOM     11  C   UNL     1      35.680  27.752  20.290  1.00  0.00    -0.000 C 
BRANCH  11  12
ATOM     12  C   UNL     1      35.159  29.077  20.875  1.00  0.00    -0.000 C 
BRANCH  12  13
ATOM     13  C   UNL     1      35.619  29.303  22.326  1.00  0.00    -0.000 C 
BRANCH  13  14
ATOM     14  C   UNL     1      35.761  27.988  23.112  1.00  0.00    -0.000 C 
BRANCH  14  15
ATOM     15  C   UNL     1      35.343  28.136  24.584  1.00  0.00    -0.003 C 
ATOM     16  C   UNL     1      34.481  29.373  24.834  1.00  0.00     0.004 C 
ENDBRANCH  14  15
ENDBRANCH  13  14
ENDBRANCH  12  13
ENDBRANCH  11  12
ENDBRANCH  10  11
ENDBRANCH   1  10
TORSDOF 12
ENDMDL
MODEL 5
REMARK VINA RESULT:    -3.541      0.945      1.771
REMARK INTER + INTRA:          -6.840
REMARK INTER:                  -6.186
REMARK INTRA:                  -0.654
REMARK UNBOUND:                -0.816
REMARK SMILES CCCCCCCCCCCCCC(=O)[O-]
REMARK SMILES IDX 8 1 9 2 10 3 11 4 12 5 13 6 14 7 15 8 16 9 7 10 6 11 5 12
REMARK SMILES IDX 4 13 3 14 2 15 1 16
REMARK H PARENT
REMARK Flexibility Score: inf
ROOT
ATOM      1  C   UNL     1      36.727  27.538  15.357  1.00  0.00     0.000 C 
ENDROOT
BRANCH   1   2
ATOM      2  C   UNL     1      36.484  27.383  13.846  1.00  0.00     0.000 C 
BRANCH   2   3
ATOM      3  C   UNL     1      35.054  26.926  13.519  1.00  0.00     0.000 C 
BRANCH   3   4
ATOM      4  C   UNL     1      34.828  26.875  12.001  1.00  0.00     0.000 C 
BRANCH   4   5
ATOM      5  C   UNL     1      33.881  27.979  11.494  1.00  0.00     0.006 C 
BRANCH   5   6
ATOM      6  C   UNL     1      34.035  29.321  12.233  1.00  0.00     0.053 C 
BRANCH   6   7
ATOM      7  C   UNL     1      32.824  29.682  13.037  1.00  0.00     0.041 C 
ATOM      8  O   UNL     1      32.269  30.802  12.886  1.00  0.00    -0.550 OA
ATOM      9  O   UNL     1      32.324  28.791  13.980  1.00  0.00    -0.550 OA
ENDBRANCH   6   7
ENDBRANCH   5   6
ENDBRANCH   4   5
ENDBRANCH   3   4
ENDBRANCH   2   3
ENDBRANCH   1   2
BRANCH   1  10
ATOM     10  C   UNL     1      35.502  28.102  16.099  1.00  0.00     0.000 C 
BRANCH  10  11
ATOM     11  C   UNL     1      35.887  29.121  17.185  1.00  0.00    -0.000 C 
BRANCH  11  12
ATOM     12  C   UNL     1      36.581  28.464  18.391  1.00  0.00    -0.000 C 
BRANCH  12  13
ATOM     13  C   UNL     1      35.756  27.314  18.993  1.00  0.00    -0.000 C 
BRANCH  13  14
ATOM     14  C   UNL     1      35.831  27.273  20.529  1.00  0.00    -0.000 C 
BRANCH  14  15
ATOM     15  C   UNL     1      35.911  28.678  21.150  1.00  0.00    -0.003 C 
ATOM     16  C   UNL     1      35.599  28.683  22.646  1.00  0.00     0.004 C 
ENDBRANCH  14  15
ENDBRANCH  13  14
ENDBRANCH  12  13
ENDBRANCH  11  12
ENDBRANCH  10  11
ENDBRANCH   1  10
TORSDOF 12
ENDMDL
MODEL 6
REMARK VINA RESULT:    -3.491      4.054      8.197
REMARK INTER + INTRA:          -6.755
REMARK INTER:                  -6.127
REMARK INTRA:                  -0.628
REMARK UNBOUND:                -0.816
REMARK SMILES CCCCCCCCCCCCCC(=O)[O-]
REMARK SMILES IDX 8 1 9 2 10 3 11 4 12 5 13 6 14 7 15 8 16 9 7 10 6 11 5 12
REMARK SMILES IDX 4 13 3 14 2 15 1 16
REMARK H PARENT
REMARK Flexibility Score: inf
ROOT
ATOM      1  C   UNL     1      36.226  29.080  16.904  1.00  0.00     0.000 C 
ENDROOT
BRANCH   1   2
ATOM      2  C   UNL     1      36.243  28.984  18.439  1.00  0.00     0.000 C 
BRANCH   2   3
ATOM      3  C   UNL     1      35.209  27.987  18.983  1.00  0.00     0.000 C 
BRANCH   3   4
ATOM      4  C   UNL     1      35.657  27.415  20.336  1.00  0.00     0.000 C 
BRANCH   4   5
ATOM      5  C   UNL     1      36.363  28.453  21.227  1.00  0.00     0.006 C 
BRANCH   5   6
ATOM      6  C   UNL     1      35.408  29.256  22.128  1.00  0.00     0.053 C 
BRANCH   6   7
ATOM      7  C   UNL     1      35.319  28.703  23.517  1.00  0.00     0.041 C 
ATOM      8  O   UNL     1      36.054  27.743  23.869  1.00  0.00    -0.550 OA
ATOM      9  O   UNL     1      34.399  29.229  24.417  1.00  0.00    -0.550 OA
ENDBRANCH   6   7
ENDBRANCH   5   6
ENDBRANCH   4   5
ENDBRANCH   3   4
ENDBRANCH   2   3
ENDBRANCH   1   2
BRANCH   1  10
ATOM     10  C   UNL     1      35.687  27.801  16.238  1.00  0.00     0.000 C 
BRANCH  10  11
ATOM     11  C   UNL     1      35.948  27.769  14.723  1.00  0.00    -0.000 C 
BRANCH  11  12
ATOM     12  C   UNL     1      34.907  26.928  13.962  1.00  0.00    -0.000 C 
BRANCH  12  13
ATOM     13  C   UNL     1      34.957  27.160  12.442  1.00  0.00    -0.000 C 
BRANCH  13  14
ATOM     14  C   UNL     1      33.814  28.059  11.943  1.00  0.00    -0.000 C 
BRANCH  14  15
ATOM     15  C   UNL     1      32.971  28.631  13.095  1.00  0.00    -0.003 C 
ATOM     16  C   UNL     1      32.733  30.135  12.966  1.00  0.00     0.004 C 
ENDBRANCH  14  15
ENDBRANCH  13  14
ENDBRANCH  12  13
ENDBRANCH  11  12
ENDBRANCH  10  11
ENDBRANCH   1  10
TORSDOF 12
ENDMDL
MODEL 7
REMARK VINA RESULT:    -3.245      4.164      8.391
REMARK INTER + INTRA:          -6.337
REMARK INTER:                  -5.586
REMARK INTRA:                  -0.751
REMARK UNBOUND:                -0.816
REMARK SMILES CCCCCCCCCCCCCC(=O)[O-]
REMARK SMILES IDX 8 1 9 2 10 3 11 4 12 5 13 6 14 7 15 8 16 9 7 10 6 11 5 12
REMARK SMILES IDX 4 13 3 14 2 15 1 16
REMARK H PARENT
REMARK Flexibility Score: inf
ROOT
ATOM      1  C   UNL     1      34.402  28.554  18.861  1.00  0.00     0.000 C 
ENDROOT
BRANCH   1   2
ATOM      2  C   UNL     1      34.767  29.126  20.241  1.00  0.00     0.000 C 
BRANCH   2   3
ATOM      3  C   UNL     1      36.281  29.118  20.505  1.00  0.00     0.000 C 
BRANCH   3   4
ATOM      4  C   UNL     1      36.575  29.053  22.011  1.00  0.00     0.000 C 
BRANCH   4   5
ATOM      5  C   UNL     1      35.927  27.838  22.701  1.00  0.00     0.006 C 
BRANCH   5   6
ATOM      6  C   UNL     1      35.860  27.954  24.234  1.00  0.00     0.053 C 
BRANCH   6   7
ATOM      7  C   UNL     1      35.088  29.152  24.692  1.00  0.00     0.041 C 
ATOM      8  O   UNL     1      35.689  30.193  25.069  1.00  0.00    -0.550 OA
ATOM      9  O   UNL     1      33.699  29.111  24.734  1.00  0.00    -0.550 OA
ENDBRANCH   6   7
ENDBRANCH   5   6
ENDBRANCH   4   5
ENDBRANCH   3   4
ENDBRANCH   2   3
ENDBRANCH   1   2
BRANCH   1  10
ATOM     10  C   UNL     1      34.888  27.106  18.673  1.00  0.00     0.000 C 
BRANCH  10  11
ATOM     11  C   UNL     1      35.540  26.875  17.299  1.00  0.00    -0.000 C 
BRANCH  11  12
ATOM     12  C   UNL     1      35.393  28.089  16.365  1.00  0.00    -0.000 C 
BRANCH  12  13
ATOM     13  C   UNL     1      35.772  27.764  14.909  1.00  0.00    -0.000 C 
BRANCH  13  14
ATOM     14  C   UNL     1      34.578  27.248  14.089  1.00  0.00    -0.000 C 
BRANCH  14  15
ATOM     15  C   UNL     1      34.054  28.295  13.092  1.00  0.00    -0.003 C 
ATOM     16  C   UNL     1      32.731  28.922  13.531  1.00  0.00     0.004 C 
ENDBRANCH  14  15
ENDBRANCH  13  14
ENDBRANCH  12  13
ENDBRANCH  11  12
ENDBRANCH  10  11
ENDBRANCH   1  10
TORSDOF 12
ENDMDL
MODEL 8
REMARK VINA RESULT:    -2.834      2.952      7.349
REMARK INTER + INTRA:          -5.637
REMARK INTER:                  -4.880
REMARK INTRA:                  -0.758
REMARK UNBOUND:                -0.816
REMARK SMILES CCCCCCCCCCCCCC(=O)[O-]
REMARK SMILES IDX 8 1 9 2 10 3 11 4 12 5 13 6 14 7 15 8 16 9 7 10 6 11 5 12
REMARK SMILES IDX 4 13 3 14 2 15 1 16
REMARK H PARENT
REMARK Flexibility Score: inf
ROOT
ATOM      1  C   UNL     1      34.848  28.062  15.788  1.00  0.00     0.000 C 
ENDROOT
BRANCH   1   2
ATOM      2  C   UNL     1      36.253  28.638  16.033  1.00  0.00     0.000 C 
BRANCH   2   3
ATOM      3  C   UNL     1      37.125  27.722  16.906  1.00  0.00     0.000 C 
BRANCH   3   4
ATOM      4  C   UNL     1      36.305  27.115  18.054  1.00  0.00     0.000 C 
BRANCH   4   5
ATOM      5  C   UNL     1      36.703  27.665  19.437  1.00  0.00     0.006 C 
BRANCH   5   6
ATOM      6  C   UNL     1      35.559  27.652  20.466  1.00  0.00     0.053 C 
BRANCH   6   7
ATOM      7  C   UNL     1      35.105  29.029  20.845  1.00  0.00     0.041 C 
ATOM      8  O   UNL     1      34.013  29.482  20.412  1.00  0.00    -0.550 OA
ATOM      9  O   UNL     1      35.905  29.827  21.655  1.00  0.00    -0.550 OA
ENDBRANCH   6   7
ENDBRANCH   5   6
ENDBRANCH   4   5
ENDBRANCH   3   4
ENDBRANCH   2   3
ENDBRANCH   1   2
BRANCH   1  10
ATOM     10  C   UNL     1      34.857  26.877  14.807  1.00  0.00     0.000 C 
BRANCH  10  11
ATOM     11  C   UNL     1      35.615  27.191  13.506  1.00  0.00    -0.000 C 
BRANCH  11  12
ATOM     12  C   UNL     1      34.768  26.918  12.249  1.00  0.00    -0.000 C 
BRANCH  12  13
ATOM     13  C   UNL     1      34.043  28.176  11.741  1.00  0.00    -0.000 C 
BRANCH  13  14
ATOM     14  C   UNL     1      32.927  28.639  12.694  1.00  0.00    -0.000 C 
BRANCH  14  15
ATOM     15  C   UNL     1      33.158  30.067  13.216  1.00  0.00    -0.003 C 
ATOM     16  C   UNL     1      31.994  31.008  12.905  1.00  0.00     0.004 C 
ENDBRANCH  14  15
ENDBRANCH  13  14
ENDBRANCH  12  13
ENDBRANCH  11  12
ENDBRANCH  10  11
ENDBRANCH   1  10
TORSDOF 12
ENDMDL
MODEL 9
REMARK VINA RESULT:    -2.564     16.905     18.411
REMARK INTER + INTRA:          -5.179
REMARK INTER:                  -4.160
REMARK INTRA:                  -1.019
REMARK UNBOUND:                -0.816
REMARK SMILES CCCCCCCCCCCCCC(=O)[O-]
REMARK SMILES IDX 8 1 9 2 10 3 11 4 12 5 13 6 14 7 15 8 16 9 7 10 6 11 5 12
REMARK SMILES IDX 4 13 3 14 2 15 1 16
REMARK H PARENT
REMARK Flexibility Score: inf
ROOT
ATOM      1  C   UNL     1      32.812  42.991  24.979  1.00  0.00     0.000 C 
ENDROOT
BRANCH   1   2
ATOM      2  C   UNL     1      34.321  43.252  25.120  1.00  0.00     0.000 C 
BRANCH   2   3
ATOM      3  C   UNL     1      34.775  44.522  24.385  1.00  0.00     0.000 C 
BRANCH   3   4
ATOM      4  C   UNL     1      36.259  44.811  24.653  1.00  0.00     0.000 C 
BRANCH   4   5
ATOM      5  C   UNL     1      37.124  44.757  23.380  1.00  0.00     0.006 C 
BRANCH   5   6
ATOM      6  C   UNL     1      36.679  45.738  22.280  1.00  0.00     0.053 C 
BRANCH   6   7
ATOM      7  C   UNL     1      36.263  45.044  21.019  1.00  0.00     0.041 C 
ATOM      8  O   UNL     1      35.175  44.414  20.967  1.00  0.00    -0.550 OA
ATOM      9  O   UNL     1      37.096  45.067  19.906  1.00  0.00    -0.550 OA
ENDBRANCH   6   7
ENDBRANCH   5   6
ENDBRANCH   4   5
ENDBRANCH   3   4
ENDBRANCH   2   3
ENDBRANCH   1   2
BRANCH   1  10
ATOM     10  C   UNL     1      32.116  44.021  24.071  1.00  0.00     0.000 C 
BRANCH  10  11
ATOM     11  C   UNL     1      31.398  43.368  22.879  1.00  0.00    -0.000 C 
BRANCH  11  12
ATOM     12  C   UNL     1      31.491  44.216  21.597  1.00  0.00    -0.000 C 
BRANCH  12  13
ATOM     13  C   UNL     1      32.274  45.523  21.810  1.00  0.00    -0.000 C 
BRANCH  13  14
ATOM     14  C   UNL     1      31.386  46.772  21.674  1.00  0.00    -0.000 C 
BRANCH  14  15
ATOM     15  C   UNL     1      30.349  46.881  22.804  1.00  0.00    -0.003 C 
ATOM     16  C   UNL     1      28.914  46.688  22.313  1.00  0.00     0.004 C 
ENDBRANCH  14  15
ENDBRANCH  13  14
ENDBRANCH  12  13
ENDBRANCH  11  12
ENDBRANCH  10  11
ENDBRANCH   1  10
TORSDOF 12
ENDMDL
