MODEL 1
REMARK VINA RESULT:    -3.489      0.000      0.000
REMARK INTER + INTRA:          -4.466
REMARK INTER:                  -4.305
REMARK INTRA:                  -0.160
REMARK UNBOUND:                -0.160
REMARK SMILES CCCCC=CC(C)=O
REMARK SMILES IDX 4 1 3 2 2 3 1 4 5 5 6 6 7 7 9 8 8 9
REMARK H PARENT
REMARK Flexibility Score: inf
ROOT
ATOM      1  C   UNL     1     128.444 122.222  99.121  1.00  0.00     0.027 C 
ENDROOT
BRANCH   1   2
ATOM      2  C   UNL     1     129.142 123.589  99.197  1.00  0.00     0.004 C 
BRANCH   2   3
ATOM      3  C   UNL     1     128.886 124.451  97.952  1.00  0.00    -0.003 C 
ATOM      4  C   UNL     1     130.173 125.006  97.342  1.00  0.00     0.004 C 
ENDBRANCH   2   3
ENDBRANCH   1   2
BRANCH   1   5
ATOM      5  C   UNL     1     129.432 121.124  98.852  1.00  0.00    -0.023 C 
ATOM      6  C   UNL     1     129.267 119.895  99.354  1.00  0.00     0.042 C 
BRANCH   6   7
ATOM      7  C   UNL     1     130.233 118.807  99.114  1.00  0.00     0.152 C 
ATOM      8  O   UNL     1     130.008 117.640  99.537  1.00  0.00    -0.295 OA
ATOM      9  C   UNL     1     131.495 119.090  98.365  1.00  0.00     0.093 C 
ENDBRANCH   6   7
ENDBRANCH   1   5
TORSDOF 4
ENDMDL
MODEL 2
REMARK VINA RESULT:    -3.425      2.542      3.556
REMARK INTER + INTRA:          -4.386
REMARK INTER:                  -4.211
REMARK INTRA:                  -0.175
REMARK UNBOUND:                -0.160
REMARK SMILES CCCCC=CC(C)=O
REMARK SMILES IDX 4 1 3 2 2 3 1 4 5 5 6 6 7 7 9 8 8 9
REMARK H PARENT
REMARK Flexibility Score: inf
ROOT
ATOM      1  C   UNL     1     129.515 122.985  98.599  1.00  0.00     0.027 C 
ENDROOT
BRANCH   1   2
ATOM      2  C   UNL     1     128.850 124.246  98.025  1.00  0.00     0.004 C 
BRANCH   2   3
ATOM      3  C   UNL     1     129.872 125.331  97.650  1.00  0.00    -0.003 C 
ATOM      4  C   UNL     1     131.311 124.816  97.658  1.00  0.00     0.004 C 
ENDBRANCH   2   3
ENDBRANCH   1   2
BRANCH   1   5
ATOM      5  C   UNL     1     128.487 122.005  99.086  1.00  0.00    -0.023 C 
ATOM      6  C   UNL     1     127.477 122.386  99.877  1.00  0.00     0.042 C 
BRANCH   6   7
ATOM      7  C   UNL     1     126.466 121.437 100.379  1.00  0.00     0.152 C 
ATOM      8  O   UNL     1     126.794 120.272 100.732  1.00  0.00    -0.295 OA
ATOM      9  C   UNL     1     125.034 121.859 100.466  1.00  0.00     0.093 C 
ENDBRANCH   6   7
ENDBRANCH   1   5
TORSDOF 4
ENDMDL
MODEL 3
REMARK VINA RESULT:    -3.389      0.889      1.368
REMARK INTER + INTRA:          -4.341
REMARK INTER:                  -4.114
REMARK INTRA:                  -0.228
REMARK UNBOUND:                -0.160
REMARK SMILES CCCCC=CC(C)=O
REMARK SMILES IDX 4 1 3 2 2 3 1 4 5 5 6 6 7 7 9 8 8 9
REMARK H PARENT
REMARK Flexibility Score: inf
ROOT
ATOM      1  C   UNL     1     128.747 123.491  98.865  1.00  0.00     0.027 C 
ENDROOT
BRANCH   1   2
ATOM      2  C   UNL     1     129.056 124.222  97.550  1.00  0.00     0.004 C 
BRANCH   2   3
ATOM      3  C   UNL     1     130.142 125.297  97.714  1.00  0.00    -0.003 C 
ATOM      4  C   UNL     1     131.547 124.766  97.429  1.00  0.00     0.004 C 
ENDBRANCH   2   3
ENDBRANCH   1   2
BRANCH   1   5
ATOM      5  C   UNL     1     128.880 122.005  98.703  1.00  0.00    -0.023 C 
ATOM      6  C   UNL     1     129.935 121.339  99.188  1.00  0.00     0.042 C 
BRANCH   6   7
ATOM      7  C   UNL     1     130.091 119.881  99.027  1.00  0.00     0.152 C 
ATOM      8  O   UNL     1     129.235 119.085  99.496  1.00  0.00    -0.295 OA
ATOM      9  C   UNL     1     131.282 119.341  98.302  1.00  0.00     0.093 C 
ENDBRANCH   6   7
ENDBRANCH   1   5
TORSDOF 4
ENDMDL
MODEL 4
REMARK VINA RESULT:    -3.379      2.169      3.491
REMARK INTER + INTRA:          -4.330
REMARK INTER:                  -4.041
REMARK INTRA:                  -0.289
REMARK UNBOUND:                -0.160
REMARK SMILES CCCCC=CC(C)=O
REMARK SMILES IDX 4 1 3 2 2 3 1 4 5 5 6 6 7 7 9 8 8 9
REMARK H PARENT
REMARK Flexibility Score: inf
ROOT
ATOM      1  C   UNL     1     129.615 125.312  97.694  1.00  0.00     0.027 C 
ENDROOT
BRANCH   1   2
ATOM      2  C   UNL     1     131.094 125.008  97.410  1.00  0.00     0.004 C 
BRANCH   2   3
ATOM      3  C   UNL     1     132.044 125.935  98.183  1.00  0.00    -0.003 C 
ATOM      4  C   UNL     1     132.283 125.473  99.621  1.00  0.00     0.004 C 
ENDBRANCH   2   3
ENDBRANCH   1   2
BRANCH   1   5
ATOM      5  C   UNL     1     128.877 124.072  98.107  1.00  0.00    -0.023 C 
ATOM      6  C   UNL     1     129.525 122.978  98.524  1.00  0.00     0.042 C 
BRANCH   6   7
ATOM      7  C   UNL     1     128.820 121.744  98.920  1.00  0.00     0.152 C 
ATOM      8  O   UNL     1     129.223 120.617  98.526  1.00  0.00    -0.295 OA
ATOM      9  C   UNL     1     127.611 121.832  99.795  1.00  0.00     0.093 C 
ENDBRANCH   6   7
ENDBRANCH   1   5
TORSDOF 4
ENDMDL
MODEL 5
REMARK VINA RESULT:    -3.368      2.166      5.225
REMARK INTER + INTRA:          -4.316
REMARK INTER:                  -4.122
REMARK INTRA:                  -0.194
REMARK UNBOUND:                -0.160
REMARK SMILES CCCCC=CC(C)=O
REMARK SMILES IDX 4 1 3 2 2 3 1 4 5 5 6 6 7 7 9 8 8 9
REMARK H PARENT
REMARK Flexibility Score: inf
ROOT
ATOM      1  C   UNL     1     130.407 118.960  98.594  1.00  0.00     0.027 C 
ENDROOT
BRANCH   1   2
ATOM      2  C   UNL     1     131.930 119.005  98.396  1.00  0.00     0.004 C 
BRANCH   2   3
ATOM      3  C   UNL     1     132.653 117.862  99.125  1.00  0.00    -0.003 C 
ATOM      4  C   UNL     1     131.706 117.001  99.961  1.00  0.00     0.004 C 
ENDBRANCH   2   3
ENDBRANCH   1   2
BRANCH   1   5
ATOM      5  C   UNL     1     129.816 120.340  98.561  1.00  0.00    -0.023 C 
ATOM      6  C   UNL     1     128.909 120.734  99.461  1.00  0.00     0.042 C 
BRANCH   6   7
ATOM      7  C   UNL     1     128.305 122.080  99.437  1.00  0.00     0.152 C 
ATOM      8  O   UNL     1     127.239 122.319 100.066  1.00  0.00    -0.295 OA
ATOM      9  C   UNL     1     128.962 123.172  98.656  1.00  0.00     0.093 C 
ENDBRANCH   6   7
ENDBRANCH   1   5
TORSDOF 4
ENDMDL
MODEL 6
REMARK VINA RESULT:    -3.355      2.380      5.099
REMARK INTER + INTRA:          -4.300
REMARK INTER:                  -4.131
REMARK INTRA:                  -0.169
REMARK UNBOUND:                -0.160
REMARK SMILES CCCCC=CC(C)=O
REMARK SMILES IDX 4 1 3 2 2 3 1 4 5 5 6 6 7 7 9 8 8 9
REMARK H PARENT
REMARK Flexibility Score: inf
ROOT
ATOM      1  C   UNL     1     129.413 119.988  99.046  1.00  0.00     0.027 C 
ENDROOT
BRANCH   1   2
ATOM      2  C   UNL     1     130.327 119.045  98.248  1.00  0.00     0.004 C 
BRANCH   2   3
ATOM      3  C   UNL     1     131.817 119.368  98.438  1.00  0.00    -0.003 C 
ATOM      4  C   UNL     1     132.610 118.192  99.007  1.00  0.00     0.004 C 
ENDBRANCH   2   3
ENDBRANCH   1   2
BRANCH   1   5
ATOM      5  C   UNL     1     129.870 121.413  98.928  1.00  0.00    -0.023 C 
ATOM      6  C   UNL     1     128.997 122.420  98.813  1.00  0.00     0.042 C 
BRANCH   6   7
ATOM      7  C   UNL     1     129.425 123.826  98.681  1.00  0.00     0.152 C 
ATOM      8  O   UNL     1     130.011 124.413  99.630  1.00  0.00    -0.295 OA
ATOM      9  C   UNL     1     129.159 124.563  97.408  1.00  0.00     0.093 C 
ENDBRANCH   6   7
ENDBRANCH   1   5
TORSDOF 4
ENDMDL
MODEL 7
REMARK VINA RESULT:    -3.335      3.401      5.592
REMARK INTER + INTRA:          -4.275
REMARK INTER:                  -4.002
REMARK INTRA:                  -0.273
REMARK UNBOUND:                -0.160
REMARK SMILES CCCCC=CC(C)=O
REMARK SMILES IDX 4 1 3 2 2 3 1 4 5 5 6 6 7 7 9 8 8 9
REMARK H PARENT
REMARK Flexibility Score: inf
ROOT
ATOM      1  C   UNL     1     128.866 124.446  97.744  1.00  0.00     0.027 C 
ENDROOT
BRANCH   1   2
ATOM      2  C   UNL     1     128.899 123.495  98.951  1.00  0.00     0.004 C 
BRANCH   2   3
ATOM      3  C   UNL     1     128.886 122.016  98.535  1.00  0.00    -0.003 C 
ATOM      4  C   UNL     1     130.197 121.299  98.856  1.00  0.00     0.004 C 
ENDBRANCH   2   3
ENDBRANCH   1   2
BRANCH   1   5
ATOM      5  C   UNL     1     130.079 125.331  97.718  1.00  0.00    -0.023 C 
ATOM      6  C   UNL     1     131.277 124.865  97.348  1.00  0.00     0.042 C 
BRANCH   6   7
ATOM      7  C   UNL     1     132.483 125.713  97.330  1.00  0.00     0.152 C 
ATOM      8  O   UNL     1     133.310 125.638  96.380  1.00  0.00    -0.295 OA
ATOM      9  C   UNL     1     132.732 126.669  98.451  1.00  0.00     0.093 C 
ENDBRANCH   6   7
ENDBRANCH   1   5
TORSDOF 4
ENDMDL
MODEL 8
REMARK VINA RESULT:    -3.279     14.833     16.122
REMARK INTER + INTRA:          -4.206
REMARK INTER:                  -3.965
REMARK INTRA:                  -0.241
REMARK UNBOUND:                -0.160
REMARK SMILES CCCCC=CC(C)=O
REMARK SMILES IDX 4 1 3 2 2 3 1 4 5 5 6 6 7 7 9 8 8 9
REMARK H PARENT
REMARK Flexibility Score: inf
ROOT
ATOM      1  C   UNL     1     116.640 126.152 108.679  1.00  0.00     0.027 C 
ENDROOT
BRANCH   1   2
ATOM      2  C   UNL     1     115.814 125.901 107.408  1.00  0.00     0.004 C 
BRANCH   2   3
ATOM      3  C   UNL     1     114.432 126.571 107.462  1.00  0.00    -0.003 C 
ATOM      4  C   UNL     1     114.293 127.548 108.629  1.00  0.00     0.004 C 
ENDBRANCH   2   3
ENDBRANCH   1   2
BRANCH   1   5
ATOM      5  C   UNL     1     118.074 126.444 108.343  1.00  0.00    -0.023 C 
ATOM      6  C   UNL     1     118.564 126.226 107.117  1.00  0.00     0.042 C 
BRANCH   6   7
ATOM      7  C   UNL     1     119.973 126.492 106.771  1.00  0.00     0.152 C 
ATOM      8  O   UNL     1     120.559 125.811 105.886  1.00  0.00    -0.295 OA
ATOM      9  C   UNL     1     120.717 127.577 107.480  1.00  0.00     0.093 C 
ENDBRANCH   6   7
ENDBRANCH   1   5
TORSDOF 4
ENDMDL
MODEL 9
REMARK VINA RESULT:    -3.145     16.419     17.549
REMARK INTER + INTRA:          -4.040
REMARK INTER:                  -3.893
REMARK INTRA:                  -0.147
REMARK UNBOUND:                -0.160
REMARK SMILES CCCCC=CC(C)=O
REMARK SMILES IDX 4 1 3 2 2 3 1 4 5 5 6 6 7 7 9 8 8 9
REMARK H PARENT
REMARK Flexibility Score: inf
ROOT
ATOM      1  C   UNL     1     114.847 121.701 106.802  1.00  0.00     0.027 C 
ENDROOT
BRANCH   1   2
ATOM      2  C   UNL     1     115.992 120.677 106.836  1.00  0.00     0.004 C 
BRANCH   2   3
ATOM      3  C   UNL     1     115.534 119.268 106.427  1.00  0.00    -0.003 C 
ATOM      4  C   UNL     1     114.057 119.016 106.729  1.00  0.00     0.004 C 
ENDBRANCH   2   3
ENDBRANCH   1   2
BRANCH   1   5
ATOM      5  C   UNL     1     115.377 123.106 106.811  1.00  0.00    -0.023 C 
ATOM      6  C   UNL     1     114.590 124.149 107.102  1.00  0.00     0.042 C 
BRANCH   6   7
ATOM      7  C   UNL     1     115.087 125.537 107.102  1.00  0.00     0.152 C 
ATOM      8  O   UNL     1     114.353 126.485 106.712  1.00  0.00    -0.295 OA
ATOM      9  C   UNL     1     116.479 125.825 107.566  1.00  0.00     0.093 C 
ENDBRANCH   6   7
ENDBRANCH   1   5
TORSDOF 4
ENDMDL
