MODEL 1
REMARK VINA RESULT:    -5.234      0.000      0.000
REMARK INTER + INTRA:          -5.740
REMARK INTER:                  -5.693
REMARK INTRA:                  -0.047
REMARK UNBOUND:                -0.047
REMARK SMILES COc1cc2ccc(=O)oc2cc1O
REMARK SMILES IDX 3 1 13 2 12 3 11 4 5 5 4 6 6 7 7 8 8 9 9 10 10 11 2 12 1 13
REMARK SMILES IDX 14 14
REMARK H PARENT 14 15
REMARK Flexibility Score: inf
ROOT
ATOM      1  C   UNL     1      26.732  11.570 -32.178  1.00  0.00     0.161 A 
ATOM      2  C   UNL     1      26.399  10.213 -32.364  1.00  0.00     0.161 A 
ATOM      3  C   UNL     1      27.281   9.357 -33.034  1.00  0.00     0.098 A 
ATOM      4  C   UNL     1      28.497   9.836 -33.524  1.00  0.00     0.142 A 
ATOM      5  C   UNL     1      28.840  11.192 -33.342  1.00  0.00     0.022 A 
ATOM      6  C   UNL     1      27.961  12.054 -32.672  1.00  0.00     0.062 A 
ATOM      7  C   UNL     1      30.066  11.643 -33.844  1.00  0.00     0.019 A 
ATOM      8  C   UNL     1      30.906  10.747 -34.503  1.00  0.00     0.094 A 
ATOM      9  C   UNL     1      30.500   9.416 -34.647  1.00  0.00     0.336 A 
ATOM     10  O   UNL     1      31.245   8.592 -35.238  1.00  0.00    -0.246 OA
ATOM     11  O   UNL     1      29.329   9.013 -34.159  1.00  0.00    -0.423 OA
ENDROOT
BRANCH   1  12
ATOM     12  O   UNL     1      25.825  12.401 -31.502  1.00  0.00    -0.493 OA
ATOM     13  C   UNL     1      24.770  13.125 -32.127  1.00  0.00     0.278 C 
ENDBRANCH   1  12
BRANCH   2  14
ATOM     14  O   UNL     1      25.193   9.697 -31.890  1.00  0.00    -0.504 OA
ATOM     15  H   UNL     1      24.442  10.293 -31.562  1.00  0.00     0.293 HD
ENDBRANCH   2  14
TORSDOF 2
ENDMDL
MODEL 2
REMARK VINA RESULT:    -5.167      1.617      4.973
REMARK INTER + INTRA:          -5.666
REMARK INTER:                  -5.621
REMARK INTRA:                  -0.045
REMARK UNBOUND:                -0.047
REMARK SMILES COc1cc2ccc(=O)oc2cc1O
REMARK SMILES IDX 3 1 13 2 12 3 11 4 5 5 4 6 6 7 7 8 8 9 9 10 10 11 2 12 1 13
REMARK SMILES IDX 14 14
REMARK H PARENT 14 15
REMARK Flexibility Score: inf
ROOT
ATOM      1  C   UNL     1      28.857  11.003 -33.011  1.00  0.00     0.161 A 
ATOM      2  C   UNL     1      28.090  11.913 -32.256  1.00  0.00     0.161 A 
ATOM      3  C   UNL     1      26.765  11.611 -31.923  1.00  0.00     0.098 A 
ATOM      4  C   UNL     1      26.189  10.408 -32.335  1.00  0.00     0.142 A 
ATOM      5  C   UNL     1      26.947   9.491 -33.091  1.00  0.00     0.022 A 
ATOM      6  C   UNL     1      28.275   9.788 -33.428  1.00  0.00     0.062 A 
ATOM      7  C   UNL     1      26.342   8.294 -33.490  1.00  0.00     0.019 A 
ATOM      8  C   UNL     1      25.018   8.043 -33.131  1.00  0.00     0.094 A 
ATOM      9  C   UNL     1      24.327   9.000 -32.379  1.00  0.00     0.336 A 
ATOM     10  O   UNL     1      23.131   8.792 -32.045  1.00  0.00    -0.246 OA
ATOM     11  O   UNL     1      24.927  10.130 -32.013  1.00  0.00    -0.423 OA
ENDROOT
BRANCH   1  12
ATOM     12  O   UNL     1      30.183  11.336 -33.328  1.00  0.00    -0.493 OA
ATOM     13  C   UNL     1      30.890  10.852 -34.466  1.00  0.00     0.278 C 
ENDBRANCH   1  12
BRANCH   2  14
ATOM     14  O   UNL     1      28.631  13.125 -31.826  1.00  0.00    -0.504 OA
ATOM     15  H   UNL     1      29.214  13.699 -32.424  1.00  0.00     0.293 HD
ENDBRANCH   2  14
TORSDOF 2
ENDMDL
MODEL 3
REMARK VINA RESULT:    -5.166     11.732     12.247
REMARK INTER + INTRA:          -5.665
REMARK INTER:                  -5.602
REMARK INTRA:                  -0.063
REMARK UNBOUND:                -0.047
REMARK SMILES COc1cc2ccc(=O)oc2cc1O
REMARK SMILES IDX 3 1 13 2 12 3 11 4 5 5 4 6 6 7 7 8 8 9 9 10 10 11 2 12 1 13
REMARK SMILES IDX 14 14
REMARK H PARENT 14 15
REMARK Flexibility Score: inf
ROOT
ATOM      1  C   UNL     1      32.314   7.966 -21.430  1.00  0.00     0.161 A 
ATOM      2  C   UNL     1      31.141   7.464 -20.829  1.00  0.00     0.161 A 
ATOM      3  C   UNL     1      30.320   6.570 -21.525  1.00  0.00     0.098 A 
ATOM      4  C   UNL     1      30.653   6.165 -22.819  1.00  0.00     0.142 A 
ATOM      5  C   UNL     1      31.824   6.660 -23.429  1.00  0.00     0.022 A 
ATOM      6  C   UNL     1      32.650   7.557 -22.737  1.00  0.00     0.062 A 
ATOM      7  C   UNL     1      32.131   6.236 -24.726  1.00  0.00     0.019 A 
ATOM      8  C   UNL     1      31.278   5.343 -25.374  1.00  0.00     0.094 A 
ATOM      9  C   UNL     1      30.133   4.893 -24.707  1.00  0.00     0.336 A 
ATOM     10  O   UNL     1      29.351   4.087 -25.274  1.00  0.00    -0.246 OA
ATOM     11  O   UNL     1      29.866   5.313 -23.472  1.00  0.00    -0.423 OA
ENDROOT
BRANCH   1  12
ATOM     12  O   UNL     1      33.115   8.861 -20.704  1.00  0.00    -0.493 OA
ATOM     13  C   UNL     1      34.398   8.549 -20.170  1.00  0.00     0.278 C 
ENDBRANCH   1  12
BRANCH   2  14
ATOM     14  O   UNL     1      30.776   7.845 -19.538  1.00  0.00    -0.504 OA
ATOM     15  H   UNL     1      30.919   8.787 -19.191  1.00  0.00     0.293 HD
ENDBRANCH   2  14
TORSDOF 2
ENDMDL
MODEL 4
REMARK VINA RESULT:    -5.014     13.438     13.593
REMARK INTER + INTRA:          -5.500
REMARK INTER:                  -5.459
REMARK INTRA:                  -0.041
REMARK UNBOUND:                -0.047
REMARK SMILES COc1cc2ccc(=O)oc2cc1O
REMARK SMILES IDX 3 1 13 2 12 3 11 4 5 5 4 6 6 7 7 8 8 9 9 10 10 11 2 12 1 13
REMARK SMILES IDX 14 14
REMARK H PARENT 14 15
REMARK Flexibility Score: inf
ROOT
ATOM      1  C   UNL     1      32.148   7.816 -21.759  1.00  0.00     0.161 A 
ATOM      2  C   UNL     1      32.674   8.137 -20.492  1.00  0.00     0.161 A 
ATOM      3  C   UNL     1      34.029   7.923 -20.217  1.00  0.00     0.098 A 
ATOM      4  C   UNL     1      34.874   7.391 -21.192  1.00  0.00     0.142 A 
ATOM      5  C   UNL     1      34.358   7.066 -22.464  1.00  0.00     0.022 A 
ATOM      6  C   UNL     1      33.001   7.278 -22.745  1.00  0.00     0.062 A 
ATOM      7  C   UNL     1      35.229   6.534 -23.421  1.00  0.00     0.019 A 
ATOM      8  C   UNL     1      36.570   6.342 -23.094  1.00  0.00     0.094 A 
ATOM      9  C   UNL     1      37.012   6.687 -21.812  1.00  0.00     0.336 A 
ATOM     10  O   UNL     1      38.219   6.521 -21.497  1.00  0.00    -0.246 OA
ATOM     11  O   UNL     1      36.162   7.191 -20.920  1.00  0.00    -0.423 OA
ENDROOT
BRANCH   1  12
ATOM     12  O   UNL     1      30.784   8.043 -22.003  1.00  0.00    -0.493 OA
ATOM     13  C   UNL     1      29.745   7.112 -21.716  1.00  0.00     0.278 C 
ENDBRANCH   1  12
BRANCH   2  14
ATOM     14  O   UNL     1      31.862   8.671 -19.491  1.00  0.00    -0.504 OA
ATOM     15  H   UNL     1      31.809   9.667 -19.312  1.00  0.00     0.293 HD
ENDBRANCH   2  14
TORSDOF 2
ENDMDL
MODEL 5
REMARK VINA RESULT:    -4.905      2.142      3.390
REMARK INTER + INTRA:          -5.382
REMARK INTER:                  -5.323
REMARK INTRA:                  -0.059
REMARK UNBOUND:                -0.047
REMARK SMILES COc1cc2ccc(=O)oc2cc1O
REMARK SMILES IDX 3 1 13 2 12 3 11 4 5 5 4 6 6 7 7 8 8 9 9 10 10 11 2 12 1 13
REMARK SMILES IDX 14 14
REMARK H PARENT 14 15
REMARK Flexibility Score: inf
ROOT
ATOM      1  C   UNL     1      25.881   8.670 -33.046  1.00  0.00     0.161 A 
ATOM      2  C   UNL     1      25.437   9.783 -32.303  1.00  0.00     0.161 A 
ATOM      3  C   UNL     1      26.280  10.882 -32.109  1.00  0.00     0.098 A 
ATOM      4  C   UNL     1      27.568  10.889 -32.647  1.00  0.00     0.142 A 
ATOM      5  C   UNL     1      28.023   9.781 -33.392  1.00  0.00     0.022 A 
ATOM      6  C   UNL     1      27.182   8.677 -33.589  1.00  0.00     0.062 A 
ATOM      7  C   UNL     1      29.319   9.818 -33.918  1.00  0.00     0.019 A 
ATOM      8  C   UNL     1      30.117  10.938 -33.694  1.00  0.00     0.094 A 
ATOM      9  C   UNL     1      29.600  12.001 -32.945  1.00  0.00     0.336 A 
ATOM     10  O   UNL     1      30.305  13.021 -32.732  1.00  0.00    -0.246 OA
ATOM     11  O   UNL     1      28.363  11.940 -32.456  1.00  0.00    -0.423 OA
ENDROOT
BRANCH   1  12
ATOM     12  O   UNL     1      25.009   7.584 -33.223  1.00  0.00    -0.493 OA
ATOM     13  C   UNL     1      24.957   6.442 -32.373  1.00  0.00     0.278 C 
ENDBRANCH   1  12
BRANCH   2  14
ATOM     14  O   UNL     1      24.157   9.813 -31.751  1.00  0.00    -0.504 OA
ATOM     15  H   UNL     1      23.721  10.675 -31.442  1.00  0.00     0.293 HD
ENDBRANCH   2  14
TORSDOF 2
ENDMDL
MODEL 6
REMARK VINA RESULT:    -4.822     13.472     13.603
REMARK INTER + INTRA:          -5.291
REMARK INTER:                  -5.227
REMARK INTRA:                  -0.064
REMARK UNBOUND:                -0.047
REMARK SMILES COc1cc2ccc(=O)oc2cc1O
REMARK SMILES IDX 3 1 13 2 12 3 11 4 5 5 4 6 6 7 7 8 8 9 9 10 10 11 2 12 1 13
REMARK SMILES IDX 14 14
REMARK H PARENT 14 15
REMARK Flexibility Score: inf
ROOT
ATOM      1  C   UNL     1      32.402   7.796 -21.971  1.00  0.00     0.161 A 
ATOM      2  C   UNL     1      32.924   7.422 -23.225  1.00  0.00     0.161 A 
ATOM      3  C   UNL     1      34.265   7.043 -23.345  1.00  0.00     0.098 A 
ATOM      4  C   UNL     1      35.100   7.031 -22.226  1.00  0.00     0.142 A 
ATOM      5  C   UNL     1      34.587   7.403 -20.966  1.00  0.00     0.022 A 
ATOM      6  C   UNL     1      33.245   7.785 -20.840  1.00  0.00     0.062 A 
ATOM      7  C   UNL     1      35.448   7.382 -19.864  1.00  0.00     0.019 A 
ATOM      8  C   UNL     1      36.776   6.995 -20.039  1.00  0.00     0.094 A 
ATOM      9  C   UNL     1      37.215   6.639 -21.319  1.00  0.00     0.336 A 
ATOM     10  O   UNL     1      38.410   6.287 -21.498  1.00  0.00    -0.246 OA
ATOM     11  O   UNL     1      36.375   6.668 -22.351  1.00  0.00    -0.423 OA
ENDROOT
BRANCH   1  12
ATOM     12  O   UNL     1      31.052   8.172 -21.885  1.00  0.00    -0.493 OA
ATOM     13  C   UNL     1      29.992   7.300 -21.500  1.00  0.00     0.278 C 
ENDBRANCH   1  12
BRANCH   2  14
ATOM     14  O   UNL     1      32.121   7.421 -24.366  1.00  0.00    -0.504 OA
ATOM     15  H   UNL     1      32.453   7.762 -25.261  1.00  0.00     0.293 HD
ENDBRANCH   2  14
TORSDOF 2
ENDMDL
MODEL 7
REMARK VINA RESULT:    -4.607      3.268      5.679
REMARK INTER + INTRA:          -5.057
REMARK INTER:                  -5.011
REMARK INTRA:                  -0.046
REMARK UNBOUND:                -0.047
REMARK SMILES COc1cc2ccc(=O)oc2cc1O
REMARK SMILES IDX 3 1 13 2 12 3 11 4 5 5 4 6 6 7 7 8 8 9 9 10 10 11 2 12 1 13
REMARK SMILES IDX 14 14
REMARK H PARENT 14 15
REMARK Flexibility Score: inf
ROOT
ATOM      1  C   UNL     1      27.010   9.412 -32.093  1.00  0.00     0.161 A 
ATOM      2  C   UNL     1      26.667   9.077 -30.768  1.00  0.00     0.161 A 
ATOM      3  C   UNL     1      25.687   8.110 -30.517  1.00  0.00     0.098 A 
ATOM      4  C   UNL     1      25.040   7.468 -31.574  1.00  0.00     0.142 A 
ATOM      5  C   UNL     1      25.376   7.796 -32.904  1.00  0.00     0.022 A 
ATOM      6  C   UNL     1      26.356   8.764 -33.161  1.00  0.00     0.062 A 
ATOM      7  C   UNL     1      24.709   7.135 -33.942  1.00  0.00     0.019 A 
ATOM      8  C   UNL     1      23.741   6.180 -33.636  1.00  0.00     0.094 A 
ATOM      9  C   UNL     1      23.460   5.906 -32.293  1.00  0.00     0.336 A 
ATOM     10  O   UNL     1      22.589   5.047 -31.996  1.00  0.00    -0.246 OA
ATOM     11  O   UNL     1      24.109   6.549 -31.325  1.00  0.00    -0.423 OA
ENDROOT
BRANCH   1  12
ATOM     12  O   UNL     1      27.997  10.386 -32.310  1.00  0.00    -0.493 OA
ATOM     13  C   UNL     1      28.909  10.384 -33.404  1.00  0.00     0.278 C 
ENDBRANCH   1  12
BRANCH   2  14
ATOM     14  O   UNL     1      27.291   9.697 -29.686  1.00  0.00    -0.504 OA
ATOM     15  H   UNL     1      27.042  10.630 -29.380  1.00  0.00     0.293 HD
ENDBRANCH   2  14
TORSDOF 2
ENDMDL
MODEL 8
REMARK VINA RESULT:    -4.587     11.906     12.444
REMARK INTER + INTRA:          -5.035
REMARK INTER:                  -4.981
REMARK INTRA:                  -0.055
REMARK UNBOUND:                -0.047
REMARK SMILES COc1cc2ccc(=O)oc2cc1O
REMARK SMILES IDX 3 1 13 2 12 3 11 4 5 5 4 6 6 7 7 8 8 9 9 10 10 11 2 12 1 13
REMARK SMILES IDX 14 14
REMARK H PARENT 14 15
REMARK Flexibility Score: inf
ROOT
ATOM      1  C   UNL     1      30.863   5.342 -24.136  1.00  0.00     0.161 A 
ATOM      2  C   UNL     1      30.048   6.039 -23.221  1.00  0.00     0.161 A 
ATOM      3  C   UNL     1      30.628   6.839 -22.229  1.00  0.00     0.098 A 
ATOM      4  C   UNL     1      32.016   6.955 -22.135  1.00  0.00     0.142 A 
ATOM      5  C   UNL     1      32.840   6.261 -23.046  1.00  0.00     0.022 A 
ATOM      6  C   UNL     1      32.265   5.458 -24.040  1.00  0.00     0.062 A 
ATOM      7  C   UNL     1      34.227   6.397 -22.926  1.00  0.00     0.019 A 
ATOM      8  C   UNL     1      34.751   7.207 -21.920  1.00  0.00     0.094 A 
ATOM      9  C   UNL     1      33.873   7.865 -21.052  1.00  0.00     0.336 A 
ATOM     10  O   UNL     1      34.326   8.601 -20.138  1.00  0.00    -0.246 OA
ATOM     11  O   UNL     1      32.557   7.719 -21.189  1.00  0.00    -0.423 OA
ENDROOT
BRANCH   1  12
ATOM     12  O   UNL     1      30.250   4.548 -25.118  1.00  0.00    -0.493 OA
ATOM     13  C   UNL     1      29.941   3.166 -24.965  1.00  0.00     0.278 C 
ENDBRANCH   1  12
BRANCH   2  14
ATOM     14  O   UNL     1      28.658   5.949 -23.283  1.00  0.00    -0.504 OA
ATOM     15  H   UNL     1      28.185   5.137 -23.662  1.00  0.00     0.293 HD
ENDBRANCH   2  14
TORSDOF 2
ENDMDL
MODEL 9
REMARK VINA RESULT:    -4.530      2.246      3.393
REMARK INTER + INTRA:          -4.974
REMARK INTER:                  -4.953
REMARK INTRA:                  -0.020
REMARK UNBOUND:                -0.047
REMARK SMILES COc1cc2ccc(=O)oc2cc1O
REMARK SMILES IDX 3 1 13 2 12 3 11 4 5 5 4 6 6 7 7 8 8 9 9 10 10 11 2 12 1 13
REMARK SMILES IDX 14 14
REMARK H PARENT 14 15
REMARK Flexibility Score: inf
ROOT
ATOM      1  C   UNL     1      25.133   9.006 -32.007  1.00  0.00     0.161 A 
ATOM      2  C   UNL     1      26.247   8.185 -32.275  1.00  0.00     0.161 A 
ATOM      3  C   UNL     1      27.500   8.756 -32.525  1.00  0.00     0.098 A 
ATOM      4  C   UNL     1      27.660  10.142 -32.512  1.00  0.00     0.142 A 
ATOM      5  C   UNL     1      26.552  10.973 -32.245  1.00  0.00     0.022 A 
ATOM      6  C   UNL     1      25.295  10.407 -31.995  1.00  0.00     0.062 A 
ATOM      7  C   UNL     1      26.745  12.359 -32.239  1.00  0.00     0.019 A 
ATOM      8  C   UNL     1      28.014  12.875 -32.495  1.00  0.00     0.094 A 
ATOM      9  C   UNL     1      29.067  11.990 -32.752  1.00  0.00     0.336 A 
ATOM     10  O   UNL     1      30.221  12.436 -32.984  1.00  0.00    -0.246 OA
ATOM     11  O   UNL     1      28.856  10.675 -32.751  1.00  0.00    -0.423 OA
ENDROOT
BRANCH   1  12
ATOM     12  O   UNL     1      23.890   8.401 -31.761  1.00  0.00    -0.493 OA
ATOM     13  C   UNL     1      22.988   7.965 -32.772  1.00  0.00     0.278 C 
ENDBRANCH   1  12
BRANCH   2  14
ATOM     14  O   UNL     1      26.126   6.795 -32.296  1.00  0.00    -0.504 OA
ATOM     15  H   UNL     1      25.933   6.257 -31.460  1.00  0.00     0.293 HD
ENDBRANCH   2  14
TORSDOF 2
ENDMDL
