MODEL 1
REMARK VINA RESULT:    -5.755      0.000      0.000
REMARK INTER + INTRA:          -6.993
REMARK INTER:                  -6.764
REMARK INTRA:                  -0.229
REMARK UNBOUND:                -0.229
REMARK SMILES O=c1c(O)c(-c2ccc(O)c(O)c2)oc2cc(O)ccc12
REMARK SMILES IDX 5 1 3 2 2 3 1 4 21 5 15 6 14 7 16 8 17 9 19 10 20 11 6 12
REMARK SMILES IDX 7 13 8 14 9 15 13 16 11 17 10 18 12 20 4 22 18 24
REMARK H PARENT 10 19 12 21 4 23 18 25
REMARK Flexibility Score: inf
ROOT
ATOM      1  C   UNL     1       0.726  11.026   4.643  1.00  0.00     0.180 A 
ATOM      2  C   UNL     1      -0.505  10.943   5.327  1.00  0.00     0.208 A 
ATOM      3  C   UNL     1      -1.313  12.088   5.408  1.00  0.00     0.235 A 
ATOM      4  O   UNL     1      -2.413  12.041   6.023  1.00  0.00    -0.285 OA
ATOM      5  C   UNL     1      -0.890  13.275   4.792  1.00  0.00     0.069 A 
ATOM      6  C   UNL     1       0.345  13.271   4.106  1.00  0.00     0.142 A 
ATOM      7  O   UNL     1       1.083  12.168   4.060  1.00  0.00    -0.452 OA
ATOM      8  C   UNL     1       0.796  14.433   3.471  1.00  0.00     0.094 A 
ATOM      9  C   UNL     1       0.032  15.603   3.514  1.00  0.00     0.119 A 
ATOM     10  C   UNL     1      -1.193  15.613   4.195  1.00  0.00     0.047 A 
ATOM     11  C   UNL     1      -1.654  14.456   4.832  1.00  0.00     0.020 A 
ENDROOT
BRANCH   1  12
ATOM     12  C   UNL     1       1.642   9.868   4.530  1.00  0.00     0.025 A 
ATOM     13  C   UNL     1       1.318   8.815   3.660  1.00  0.00     0.016 A 
ATOM     14  C   UNL     1       2.177   7.722   3.520  1.00  0.00     0.051 A 
ATOM     15  C   UNL     1       3.379   7.672   4.234  1.00  0.00     0.157 A 
ATOM     16  C   UNL     1       2.860   9.826   5.230  1.00  0.00     0.062 A 
ATOM     17  C   UNL     1       3.725   8.731   5.090  1.00  0.00     0.158 A 
BRANCH  15  18
ATOM     18  O   UNL     1       4.215   6.567   4.077  1.00  0.00    -0.504 OA
ATOM     19  H   UNL     1       5.215   6.663   3.947  1.00  0.00     0.293 HD
ENDBRANCH  15  18
BRANCH  17  20
ATOM     20  O   UNL     1       4.928   8.694   5.795  1.00  0.00    -0.504 OA
ATOM     21  H   UNL     1       5.801   8.448   5.343  1.00  0.00     0.293 HD
ENDBRANCH  17  20
ENDBRANCH   1  12
BRANCH   2  22
ATOM     22  O   UNL     1      -0.922   9.733   5.888  1.00  0.00    -0.502 OA
ATOM     23  H   UNL     1      -1.894   9.542   6.100  1.00  0.00     0.293 HD
ENDBRANCH   2  22
BRANCH   9  24
ATOM     24  O   UNL     1       0.498  16.752   2.876  1.00  0.00    -0.508 OA
ATOM     25  H   UNL     1       0.225  16.976   1.926  1.00  0.00     0.293 HD
ENDBRANCH   9  24
TORSDOF 5
ENDMDL
MODEL 2
REMARK VINA RESULT:    -5.423      1.163      2.893
REMARK INTER + INTRA:          -6.603
REMARK INTER:                  -6.353
REMARK INTRA:                  -0.251
REMARK UNBOUND:                -0.229
REMARK SMILES O=c1c(O)c(-c2ccc(O)c(O)c2)oc2cc(O)ccc12
REMARK SMILES IDX 5 1 3 2 2 3 1 4 21 5 15 6 14 7 16 8 17 9 19 10 20 11 6 12
REMARK SMILES IDX 7 13 8 14 9 15 13 16 11 17 10 18 12 20 4 22 18 24
REMARK H PARENT 10 19 12 21 4 23 18 25
REMARK Flexibility Score: inf
ROOT
ATOM      1  C   UNL     1       0.920  11.076   4.326  1.00  0.00     0.180 A 
ATOM      2  C   UNL     1       1.270  12.222   3.582  1.00  0.00     0.208 A 
ATOM      3  C   UNL     1       0.402  13.325   3.589  1.00  0.00     0.235 A 
ATOM      4  O   UNL     1       0.688  14.357   2.923  1.00  0.00    -0.285 OA
ATOM      5  C   UNL     1      -0.777  13.270   4.348  1.00  0.00     0.069 A 
ATOM      6  C   UNL     1      -1.044  12.095   5.085  1.00  0.00     0.142 A 
ATOM      7  O   UNL     1      -0.200  11.070   5.044  1.00  0.00    -0.452 OA
ATOM      8  C   UNL     1      -2.205  12.005   5.862  1.00  0.00     0.094 A 
ATOM      9  C   UNL     1      -3.105  13.074   5.911  1.00  0.00     0.119 A 
ATOM     10  C   UNL     1      -2.845  14.241   5.181  1.00  0.00     0.047 A 
ATOM     11  C   UNL     1      -1.687  14.341   4.402  1.00  0.00     0.020 A 
ENDROOT
BRANCH   1  12
ATOM     12  C   UNL     1       1.774   9.867   4.354  1.00  0.00     0.025 A 
ATOM     13  C   UNL     1       1.410   8.747   3.591  1.00  0.00     0.016 A 
ATOM     14  C   UNL     1       2.213   7.603   3.585  1.00  0.00     0.051 A 
ATOM     15  C   UNL     1       3.397   7.565   4.329  1.00  0.00     0.157 A 
ATOM     16  C   UNL     1       2.976   9.836   5.084  1.00  0.00     0.062 A 
ATOM     17  C   UNL     1       3.783   8.689   5.079  1.00  0.00     0.158 A 
BRANCH  15  18
ATOM     18  O   UNL     1       4.175   6.409   4.306  1.00  0.00    -0.504 OA
ATOM     19  H   UNL     1       5.183   6.438   4.397  1.00  0.00     0.293 HD
ENDBRANCH  15  18
BRANCH  17  20
ATOM     20  O   UNL     1       4.970   8.664   5.811  1.00  0.00    -0.504 OA
ATOM     21  H   UNL     1       5.327   7.806   6.215  1.00  0.00     0.293 HD
ENDBRANCH  17  20
ENDBRANCH   1  12
BRANCH   2  22
ATOM     22  O   UNL     1       2.475  12.266   2.875  1.00  0.00    -0.502 OA
ATOM     23  H   UNL     1       3.198  11.567   2.994  1.00  0.00     0.293 HD
ENDBRANCH   2  22
BRANCH   9  24
ATOM     24  O   UNL     1      -4.256  12.967   6.690  1.00  0.00    -0.508 OA
ATOM     25  H   UNL     1      -4.531  12.086   7.109  1.00  0.00     0.293 HD
ENDBRANCH   9  24
TORSDOF 5
ENDMDL
MODEL 3
REMARK VINA RESULT:    -4.929      1.837      6.725
REMARK INTER + INTRA:          -6.022
REMARK INTER:                  -5.720
REMARK INTRA:                  -0.302
REMARK UNBOUND:                -0.229
REMARK SMILES O=c1c(O)c(-c2ccc(O)c(O)c2)oc2cc(O)ccc12
REMARK SMILES IDX 5 1 3 2 2 3 1 4 21 5 15 6 14 7 16 8 17 9 19 10 20 11 6 12
REMARK SMILES IDX 7 13 8 14 9 15 13 16 11 17 10 18 12 20 4 22 18 24
REMARK H PARENT 10 19 12 21 4 23 18 25
REMARK Flexibility Score: inf
ROOT
ATOM      1  C   UNL     1      -0.251  10.830   4.436  1.00  0.00     0.180 A 
ATOM      2  C   UNL     1      -0.659   9.693   3.707  1.00  0.00     0.208 A 
ATOM      3  C   UNL     1       0.252   8.639   3.531  1.00  0.00     0.235 A 
ATOM      4  O   UNL     1      -0.087   7.617   2.875  1.00  0.00    -0.285 OA
ATOM      5  C   UNL     1       1.532   8.732   4.097  1.00  0.00     0.069 A 
ATOM      6  C   UNL     1       1.856   9.894   4.833  1.00  0.00     0.142 A 
ATOM      7  O   UNL     1       0.968  10.872   4.969  1.00  0.00    -0.452 OA
ATOM      8  C   UNL     1       3.119  10.019   5.421  1.00  0.00     0.094 A 
ATOM      9  C   UNL     1       4.066   9.000   5.283  1.00  0.00     0.119 A 
ATOM     10  C   UNL     1       3.750   7.846   4.553  1.00  0.00     0.047 A 
ATOM     11  C   UNL     1       2.489   7.710   3.962  1.00  0.00     0.020 A 
ENDROOT
BRANCH   1  12
ATOM     12  C   UNL     1      -1.147  11.990   4.650  1.00  0.00     0.025 A 
ATOM     13  C   UNL     1      -1.084  13.081   3.770  1.00  0.00     0.016 A 
ATOM     14  C   UNL     1      -1.935  14.176   3.939  1.00  0.00     0.051 A 
ATOM     15  C   UNL     1      -2.870  14.192   4.979  1.00  0.00     0.157 A 
ATOM     16  C   UNL     1      -2.102  11.996   5.681  1.00  0.00     0.062 A 
ATOM     17  C   UNL     1      -2.958  13.095   5.852  1.00  0.00     0.158 A 
BRANCH  15  18
ATOM     18  O   UNL     1      -3.703  15.300   5.125  1.00  0.00    -0.504 OA
ATOM     19  H   UNL     1      -4.250  15.667   4.356  1.00  0.00     0.293 HD
ENDBRANCH  15  18
BRANCH  17  20
ATOM     20  O   UNL     1      -3.898  13.096   6.883  1.00  0.00    -0.504 OA
ATOM     21  H   UNL     1      -4.613  12.382   6.951  1.00  0.00     0.293 HD
ENDBRANCH  17  20
ENDBRANCH   1  12
BRANCH   2  22
ATOM     22  O   UNL     1      -1.957   9.608   3.197  1.00  0.00    -0.502 OA
ATOM     23  H   UNL     1      -2.480  10.426   2.909  1.00  0.00     0.293 HD
ENDBRANCH   2  22
BRANCH   9  24
ATOM     24  O   UNL     1       5.320   9.142   5.875  1.00  0.00    -0.508 OA
ATOM     25  H   UNL     1       5.465   8.948   6.859  1.00  0.00     0.293 HD
ENDBRANCH   9  24
TORSDOF 5
ENDMDL
MODEL 4
REMARK VINA RESULT:    -4.612      2.022      6.793
REMARK INTER + INTRA:          -5.650
REMARK INTER:                  -5.335
REMARK INTRA:                  -0.315
REMARK UNBOUND:                -0.229
REMARK SMILES O=c1c(O)c(-c2ccc(O)c(O)c2)oc2cc(O)ccc12
REMARK SMILES IDX 5 1 3 2 2 3 1 4 21 5 15 6 14 7 16 8 17 9 19 10 20 11 6 12
REMARK SMILES IDX 7 13 8 14 9 15 13 16 11 17 10 18 12 20 4 22 18 24
REMARK H PARENT 10 19 12 21 4 23 18 25
REMARK Flexibility Score: inf
ROOT
ATOM      1  C   UNL     1       0.406  11.350   4.503  1.00  0.00     0.180 A 
ATOM      2  C   UNL     1       1.210  12.334   3.890  1.00  0.00     0.208 A 
ATOM      3  C   UNL     1       2.497  11.981   3.455  1.00  0.00     0.235 A 
ATOM      4  O   UNL     1       3.238  12.847   2.914  1.00  0.00    -0.285 OA
ATOM      5  C   UNL     1       2.944  10.662   3.622  1.00  0.00     0.069 A 
ATOM      6  C   UNL     1       2.071   9.730   4.223  1.00  0.00     0.142 A 
ATOM      7  O   UNL     1       0.863  10.106   4.628  1.00  0.00    -0.452 OA
ATOM      8  C   UNL     1       2.477   8.402   4.398  1.00  0.00     0.094 A 
ATOM      9  C   UNL     1       3.747   7.992   3.980  1.00  0.00     0.119 A 
ATOM     10  C   UNL     1       4.618   8.914   3.384  1.00  0.00     0.047 A 
ATOM     11  C   UNL     1       4.221  10.243   3.204  1.00  0.00     0.020 A 
ENDROOT
BRANCH   1  12
ATOM     12  C   UNL     1      -0.955  11.647   5.004  1.00  0.00     0.025 A 
ATOM     13  C   UNL     1      -1.125  12.075   6.330  1.00  0.00     0.016 A 
ATOM     14  C   UNL     1      -2.397  12.383   6.817  1.00  0.00     0.051 A 
ATOM     15  C   UNL     1      -3.517  12.282   5.985  1.00  0.00     0.157 A 
ATOM     16  C   UNL     1      -2.079  11.568   4.162  1.00  0.00     0.062 A 
ATOM     17  C   UNL     1      -3.357  11.878   4.649  1.00  0.00     0.158 A 
BRANCH  15  18
ATOM     18  O   UNL     1      -4.775  12.592   6.501  1.00  0.00    -0.504 OA
ATOM     19  H   UNL     1      -5.423  11.876   6.802  1.00  0.00     0.293 HD
ENDBRANCH  15  18
BRANCH  17  20
ATOM     20  O   UNL     1      -4.467  11.789   3.809  1.00  0.00    -0.504 OA
ATOM     21  H   UNL     1      -4.369  11.749   2.802  1.00  0.00     0.293 HD
ENDBRANCH  17  20
ENDBRANCH   1  12
BRANCH   2  22
ATOM     22  O   UNL     1       0.718  13.627   3.693  1.00  0.00    -0.502 OA
ATOM     23  H   UNL     1       0.572  14.015   2.770  1.00  0.00     0.293 HD
ENDBRANCH   2  22
BRANCH   9  24
ATOM     24  O   UNL     1       4.135   6.666   4.163  1.00  0.00    -0.508 OA
ATOM     25  H   UNL     1       4.134   6.236   5.080  1.00  0.00     0.293 HD
ENDBRANCH   9  24
TORSDOF 5
ENDMDL
MODEL 5
REMARK VINA RESULT:    -4.500      2.784      4.675
REMARK INTER + INTRA:          -5.519
REMARK INTER:                  -5.211
REMARK INTRA:                  -0.307
REMARK UNBOUND:                -0.229
REMARK SMILES O=c1c(O)c(-c2ccc(O)c(O)c2)oc2cc(O)ccc12
REMARK SMILES IDX 5 1 3 2 2 3 1 4 21 5 15 6 14 7 16 8 17 9 19 10 20 11 6 12
REMARK SMILES IDX 7 13 8 14 9 15 13 16 11 17 10 18 12 20 4 22 18 24
REMARK H PARENT 10 19 12 21 4 23 18 25
REMARK Flexibility Score: inf
ROOT
ATOM      1  C   UNL     1      -0.894  10.651   5.106  1.00  0.00     0.180 A 
ATOM      2  C   UNL     1      -1.341  11.715   5.918  1.00  0.00     0.208 A 
ATOM      3  C   UNL     1      -2.702  11.785   6.253  1.00  0.00     0.235 A 
ATOM      4  O   UNL     1      -3.126  12.732   6.970  1.00  0.00    -0.285 OA
ATOM      5  C   UNL     1      -3.578  10.791   5.792  1.00  0.00     0.069 A 
ATOM      6  C   UNL     1      -3.049   9.745   5.003  1.00  0.00     0.142 A 
ATOM      7  O   UNL     1      -1.756   9.720   4.702  1.00  0.00    -0.452 OA
ATOM      8  C   UNL     1      -3.889   8.730   4.533  1.00  0.00     0.094 A 
ATOM      9  C   UNL     1      -5.254   8.745   4.839  1.00  0.00     0.119 A 
ATOM     10  C   UNL     1      -5.783   9.781   5.620  1.00  0.00     0.047 A 
ATOM     11  C   UNL     1      -4.952  10.800   6.096  1.00  0.00     0.020 A 
ENDROOT
BRANCH   1  12
ATOM     12  C   UNL     1       0.522  10.517   4.695  1.00  0.00     0.025 A 
ATOM     13  C   UNL     1       0.940  11.067   3.473  1.00  0.00     0.016 A 
ATOM     14  C   UNL     1       2.276  10.972   3.075  1.00  0.00     0.051 A 
ATOM     15  C   UNL     1       3.216  10.341   3.896  1.00  0.00     0.157 A 
ATOM     16  C   UNL     1       1.472   9.902   5.530  1.00  0.00     0.062 A 
ATOM     17  C   UNL     1       2.814   9.807   5.132  1.00  0.00     0.158 A 
BRANCH  15  18
ATOM     18  O   UNL     1       4.542  10.258   3.471  1.00  0.00    -0.504 OA
ATOM     19  H   UNL     1       4.891   9.461   2.953  1.00  0.00     0.293 HD
ENDBRANCH  15  18
BRANCH  17  20
ATOM     20  O   UNL     1       3.748   9.189   5.963  1.00  0.00    -0.504 OA
ATOM     21  H   UNL     1       4.744   9.318   5.830  1.00  0.00     0.293 HD
ENDBRANCH  17  20
ENDBRANCH   1  12
BRANCH   2  22
ATOM     22  O   UNL     1      -0.435  12.663   6.403  1.00  0.00    -0.502 OA
ATOM     23  H   UNL     1      -0.731  13.463   6.949  1.00  0.00     0.293 HD
ENDBRANCH   2  22
BRANCH   9  24
ATOM     24  O   UNL     1      -6.076   7.726   4.361  1.00  0.00    -0.508 OA
ATOM     25  H   UNL     1      -6.594   7.125   4.991  1.00  0.00     0.293 HD
ENDBRANCH   9  24
TORSDOF 5
ENDMDL
MODEL 6
REMARK VINA RESULT:    -4.369      1.979      6.678
REMARK INTER + INTRA:          -5.365
REMARK INTER:                  -5.046
REMARK INTRA:                  -0.319
REMARK UNBOUND:                -0.229
REMARK SMILES O=c1c(O)c(-c2ccc(O)c(O)c2)oc2cc(O)ccc12
REMARK SMILES IDX 5 1 3 2 2 3 1 4 21 5 15 6 14 7 16 8 17 9 19 10 20 11 6 12
REMARK SMILES IDX 7 13 8 14 9 15 13 16 11 17 10 18 12 20 4 22 18 24
REMARK H PARENT 10 19 12 21 4 23 18 25
REMARK Flexibility Score: inf
ROOT
ATOM      1  C   UNL     1       0.360  11.216   4.116  1.00  0.00     0.180 A 
ATOM      2  C   UNL     1       1.226  12.211   3.616  1.00  0.00     0.208 A 
ATOM      3  C   UNL     1       2.563  11.874   3.353  1.00  0.00     0.235 A 
ATOM      4  O   UNL     1       3.358  12.749   2.915  1.00  0.00    -0.285 OA
ATOM      5  C   UNL     1       2.999  10.559   3.574  1.00  0.00     0.069 A 
ATOM      6  C   UNL     1       2.064   9.615   4.054  1.00  0.00     0.142 A 
ATOM      7  O   UNL     1       0.810   9.977   4.297  1.00  0.00    -0.452 OA
ATOM      8  C   UNL     1       2.459   8.291   4.276  1.00  0.00     0.094 A 
ATOM      9  C   UNL     1       3.777   7.896   4.028  1.00  0.00     0.119 A 
ATOM     10  C   UNL     1       4.708   8.829   3.553  1.00  0.00     0.047 A 
ATOM     11  C   UNL     1       4.324  10.155   3.326  1.00  0.00     0.020 A 
ENDROOT
BRANCH   1  12
ATOM     12  C   UNL     1      -1.059  11.497   4.435  1.00  0.00     0.025 A 
ATOM     13  C   UNL     1      -2.055  11.162   3.505  1.00  0.00     0.016 A 
ATOM     14  C   UNL     1      -3.401  11.397   3.793  1.00  0.00     0.051 A 
ATOM     15  C   UNL     1      -3.775  11.957   5.019  1.00  0.00     0.157 A 
ATOM     16  C   UNL     1      -1.437  12.040   5.676  1.00  0.00     0.062 A 
ATOM     17  C   UNL     1      -2.789  12.276   5.968  1.00  0.00     0.158 A 
BRANCH  15  18
ATOM     18  O   UNL     1      -5.126  12.184   5.277  1.00  0.00    -0.504 OA
ATOM     19  H   UNL     1      -5.442  12.641   6.124  1.00  0.00     0.293 HD
ENDBRANCH  15  18
BRANCH  17  20
ATOM     20  O   UNL     1      -3.155  12.821   7.198  1.00  0.00    -0.504 OA
ATOM     21  H   UNL     1      -3.057  12.299   8.061  1.00  0.00     0.293 HD
ENDBRANCH  17  20
ENDBRANCH   1  12
BRANCH   2  22
ATOM     22  O   UNL     1       0.750  13.500   3.360  1.00  0.00    -0.502 OA
ATOM     23  H   UNL     1       0.159  13.998   4.014  1.00  0.00     0.293 HD
ENDBRANCH   2  22
BRANCH   9  24
ATOM     24  O   UNL     1       4.152   6.573   4.257  1.00  0.00    -0.508 OA
ATOM     25  H   UNL     1       5.097   6.254   4.081  1.00  0.00     0.293 HD
ENDBRANCH   9  24
TORSDOF 5
ENDMDL
MODEL 7
REMARK VINA RESULT:    -4.362      2.343      2.940
REMARK INTER + INTRA:          -5.356
REMARK INTER:                  -5.049
REMARK INTRA:                  -0.307
REMARK UNBOUND:                -0.229
REMARK SMILES O=c1c(O)c(-c2ccc(O)c(O)c2)oc2cc(O)ccc12
REMARK SMILES IDX 5 1 3 2 2 3 1 4 21 5 15 6 14 7 16 8 17 9 19 10 20 11 6 12
REMARK SMILES IDX 7 13 8 14 9 15 13 16 11 17 10 18 12 20 4 22 18 24
REMARK H PARENT 10 19 12 21 4 23 18 25
REMARK Flexibility Score: inf
ROOT
ATOM      1  C   UNL     1      -0.365  10.353   4.516  1.00  0.00     0.180 A 
ATOM      2  C   UNL     1      -1.338   9.338   4.399  1.00  0.00     0.208 A 
ATOM      3  C   UNL     1      -2.692   9.680   4.542  1.00  0.00     0.235 A 
ATOM      4  O   UNL     1      -3.580   8.788   4.452  1.00  0.00    -0.285 OA
ATOM      5  C   UNL     1      -3.045  11.017   4.777  1.00  0.00     0.069 A 
ATOM      6  C   UNL     1      -2.013  11.978   4.857  1.00  0.00     0.142 A 
ATOM      7  O   UNL     1      -0.744  11.612   4.724  1.00  0.00    -0.452 OA
ATOM      8  C   UNL     1      -2.326  13.323   5.081  1.00  0.00     0.094 A 
ATOM      9  C   UNL     1      -3.658  13.723   5.227  1.00  0.00     0.119 A 
ATOM     10  C   UNL     1      -4.685  12.773   5.150  1.00  0.00     0.047 A 
ATOM     11  C   UNL     1      -4.384  11.426   4.925  1.00  0.00     0.020 A 
ENDROOT
BRANCH   1  12
ATOM     12  C   UNL     1       1.083  10.070   4.394  1.00  0.00     0.025 A 
ATOM     13  C   UNL     1       1.676  10.041   3.123  1.00  0.00     0.016 A 
ATOM     14  C   UNL     1       3.046   9.799   2.986  1.00  0.00     0.051 A 
ATOM     15  C   UNL     1       3.845   9.596   4.116  1.00  0.00     0.157 A 
ATOM     16  C   UNL     1       1.891   9.888   5.531  1.00  0.00     0.062 A 
ATOM     17  C   UNL     1       3.266   9.645   5.395  1.00  0.00     0.158 A 
BRANCH  15  18
ATOM     18  O   UNL     1       5.207   9.352   3.948  1.00  0.00    -0.504 OA
ATOM     19  H   UNL     1       5.681   9.529   3.070  1.00  0.00     0.293 HD
ENDBRANCH  15  18
BRANCH  17  20
ATOM     20  O   UNL     1       4.059   9.458   6.527  1.00  0.00    -0.504 OA
ATOM     21  H   UNL     1       3.747   9.744   7.448  1.00  0.00     0.293 HD
ENDBRANCH  17  20
ENDBRANCH   1  12
BRANCH   2  22
ATOM     22  O   UNL     1      -0.959   8.023   4.115  1.00  0.00    -0.502 OA
ATOM     23  H   UNL     1      -1.125   7.261   4.761  1.00  0.00     0.293 HD
ENDBRANCH   2  22
BRANCH   9  24
ATOM     24  O   UNL     1      -3.951  15.067   5.450  1.00  0.00    -0.508 OA
ATOM     25  H   UNL     1      -4.045  15.722   4.682  1.00  0.00     0.293 HD
ENDBRANCH   9  24
TORSDOF 5
ENDMDL
MODEL 8
REMARK VINA RESULT:    -4.343      2.846      4.755
REMARK INTER + INTRA:          -5.334
REMARK INTER:                  -5.020
REMARK INTRA:                  -0.314
REMARK UNBOUND:                -0.229
REMARK SMILES O=c1c(O)c(-c2ccc(O)c(O)c2)oc2cc(O)ccc12
REMARK SMILES IDX 5 1 3 2 2 3 1 4 21 5 15 6 14 7 16 8 17 9 19 10 20 11 6 12
REMARK SMILES IDX 7 13 8 14 9 15 13 16 11 17 10 18 12 20 4 22 18 24
REMARK H PARENT 10 19 12 21 4 23 18 25
REMARK Flexibility Score: inf
ROOT
ATOM      1  C   UNL     1      -0.061   9.983   4.081  1.00  0.00     0.180 A 
ATOM      2  C   UNL     1      -0.507  11.251   3.653  1.00  0.00     0.208 A 
ATOM      3  C   UNL     1      -1.851  11.404   3.278  1.00  0.00     0.235 A 
ATOM      4  O   UNL     1      -2.270  12.526   2.881  1.00  0.00    -0.285 OA
ATOM      5  C   UNL     1      -2.719  10.305   3.356  1.00  0.00     0.069 A 
ATOM      6  C   UNL     1      -2.201   9.074   3.817  1.00  0.00     0.142 A 
ATOM      7  O   UNL     1      -0.921   8.969   4.155  1.00  0.00    -0.452 OA
ATOM      8  C   UNL     1      -3.038   7.958   3.918  1.00  0.00     0.094 A 
ATOM      9  C   UNL     1      -4.387   8.052   3.562  1.00  0.00     0.119 A 
ATOM     10  C   UNL     1      -4.904   9.270   3.103  1.00  0.00     0.047 A 
ATOM     11  C   UNL     1      -4.077  10.393   2.999  1.00  0.00     0.020 A 
ENDROOT
BRANCH   1  12
ATOM     12  C   UNL     1       1.344   9.736   4.476  1.00  0.00     0.025 A 
ATOM     13  C   UNL     1       1.737   9.963   5.805  1.00  0.00     0.016 A 
ATOM     14  C   UNL     1       3.053   9.716   6.206  1.00  0.00     0.051 A 
ATOM     15  C   UNL     1       3.991   9.225   5.291  1.00  0.00     0.157 A 
ATOM     16  C   UNL     1       2.283   9.223   3.564  1.00  0.00     0.062 A 
ATOM     17  C   UNL     1       3.604   8.973   3.965  1.00  0.00     0.158 A 
BRANCH  15  18
ATOM     18  O   UNL     1       5.297   8.992   5.719  1.00  0.00    -0.504 OA
ATOM     19  H   UNL     1       5.819   8.174   5.431  1.00  0.00     0.293 HD
ENDBRANCH  15  18
BRANCH  17  20
ATOM     20  O   UNL     1       4.530   8.471   3.051  1.00  0.00    -0.504 OA
ATOM     21  H   UNL     1       4.703   8.929   2.164  1.00  0.00     0.293 HD
ENDBRANCH  17  20
ENDBRANCH   1  12
BRANCH   2  22
ATOM     22  O   UNL     1       0.370  12.339   3.633  1.00  0.00    -0.502 OA
ATOM     23  H   UNL     1       0.887  12.601   2.803  1.00  0.00     0.293 HD
ENDBRANCH   2  22
BRANCH   9  24
ATOM     24  O   UNL     1      -5.205   6.928   3.669  1.00  0.00    -0.508 OA
ATOM     25  H   UNL     1      -4.816   5.999   3.771  1.00  0.00     0.293 HD
ENDBRANCH   9  24
TORSDOF 5
ENDMDL
MODEL 9
REMARK VINA RESULT:    -4.117      4.283      6.599
REMARK INTER + INTRA:          -5.068
REMARK INTER:                  -4.752
REMARK INTRA:                  -0.316
REMARK UNBOUND:                -0.229
REMARK SMILES O=c1c(O)c(-c2ccc(O)c(O)c2)oc2cc(O)ccc12
REMARK SMILES IDX 5 1 3 2 2 3 1 4 21 5 15 6 14 7 16 8 17 9 19 10 20 11 6 12
REMARK SMILES IDX 7 13 8 14 9 15 13 16 11 17 10 18 12 20 4 22 18 24
REMARK H PARENT 10 19 12 21 4 23 18 25
REMARK Flexibility Score: inf
ROOT
ATOM      1  C   UNL     1      -3.057   9.931   4.954  1.00  0.00     0.180 A 
ATOM      2  C   UNL     1      -3.904  10.656   5.818  1.00  0.00     0.208 A 
ATOM      3  C   UNL     1      -5.165  10.125   6.131  1.00  0.00     0.235 A 
ATOM      4  O   UNL     1      -5.944  10.761   6.893  1.00  0.00    -0.285 OA
ATOM      5  C   UNL     1      -5.543   8.884   5.598  1.00  0.00     0.069 A 
ATOM      6  C   UNL     1      -4.628   8.209   4.760  1.00  0.00     0.142 A 
ATOM      7  O   UNL     1      -3.448   8.750   4.482  1.00  0.00    -0.452 OA
ATOM      8  C   UNL     1      -4.965   6.964   4.217  1.00  0.00     0.094 A 
ATOM      9  C   UNL     1      -6.206   6.384   4.497  1.00  0.00     0.119 A 
ATOM     10  C   UNL     1      -7.117   7.051   5.327  1.00  0.00     0.047 A 
ATOM     11  C   UNL     1      -6.790   8.295   5.876  1.00  0.00     0.020 A 
ENDROOT
BRANCH   1  12
ATOM     12  C   UNL     1      -1.719  10.432   4.562  1.00  0.00     0.025 A 
ATOM     13  C   UNL     1      -1.601  11.290   3.459  1.00  0.00     0.016 A 
ATOM     14  C   UNL     1      -0.352  11.793   3.084  1.00  0.00     0.051 A 
ATOM     15  C   UNL     1       0.793  11.459   3.814  1.00  0.00     0.157 A 
ATOM     16  C   UNL     1      -0.571  10.114   5.308  1.00  0.00     0.062 A 
ATOM     17  C   UNL     1       0.684  10.619   4.935  1.00  0.00     0.158 A 
BRANCH  15  18
ATOM     18  O   UNL     1       2.026  11.972   3.414  1.00  0.00    -0.504 OA
ATOM     19  H   UNL     1       2.681  11.431   2.863  1.00  0.00     0.293 HD
ENDBRANCH  15  18
BRANCH  17  20
ATOM     20  O   UNL     1       1.819  10.292   5.675  1.00  0.00    -0.504 OA
ATOM     21  H   UNL     1       1.930  10.591   6.637  1.00  0.00     0.293 HD
ENDBRANCH  17  20
ENDBRANCH   1  12
BRANCH   2  22
ATOM     22  O   UNL     1      -3.480  11.867   6.373  1.00  0.00    -0.502 OA
ATOM     23  H   UNL     1      -2.515  12.036   6.627  1.00  0.00     0.293 HD
ENDBRANCH   2  22
BRANCH   9  24
ATOM     24  O   UNL     1      -6.524   5.144   3.947  1.00  0.00    -0.508 OA
ATOM     25  H   UNL     1      -7.426   4.971   3.518  1.00  0.00     0.293 HD
ENDBRANCH   9  24
TORSDOF 5
ENDMDL
