MODEL 1
REMARK VINA RESULT:    -5.786      0.000      0.000
REMARK INTER + INTRA:          -7.020
REMARK INTER:                  -6.970
REMARK INTRA:                  -0.050
REMARK UNBOUND:                -0.050
REMARK SMILES O=c1c(O)c(-c2ccc(O)c(O)c2)oc2cc(O)cc(O)c12
REMARK SMILES IDX 5 1 3 2 2 3 1 4 22 5 20 6 19 7 17 8 16 9 15 10 14 11 6 12
REMARK SMILES IDX 7 13 8 14 9 15 13 16 11 17 10 18 12 20 4 22 21 24 18 26
REMARK H PARENT 10 19 12 21 4 23 21 25 18 27
REMARK Flexibility Score: inf
ROOT
ATOM      1  C   UNL     1      -0.038 -19.032  -8.153  1.00  0.00     0.180 A 
ATOM      2  C   UNL     1       1.127 -19.357  -7.431  1.00  0.00     0.208 A 
ATOM      3  C   UNL     1       1.691 -20.632  -7.593  1.00  0.00     0.238 A 
ATOM      4  O   UNL     1       2.729 -20.938  -6.943  1.00  0.00    -0.285 OA
ATOM      5  C   UNL     1       1.096 -21.551  -8.482  1.00  0.00     0.111 A 
ATOM      6  C   UNL     1       1.605 -22.853  -8.704  1.00  0.00     0.134 A 
ATOM      7  C   UNL     1       0.959 -23.705  -9.613  1.00  0.00     0.093 A 
ATOM      8  C   UNL     1      -0.181 -23.279 -10.303  1.00  0.00     0.123 A 
ATOM      9  C   UNL     1      -0.685 -21.996 -10.087  1.00  0.00     0.094 A 
ATOM     10  C   UNL     1      -0.058 -21.132  -9.184  1.00  0.00     0.146 A 
ATOM     11  O   UNL     1      -0.563 -19.919  -8.993  1.00  0.00    -0.452 OA
ENDROOT
BRANCH   1  12
ATOM     12  C   UNL     1      -0.703 -17.716  -8.021  1.00  0.00     0.025 A 
ATOM     13  C   UNL     1       0.024 -16.546  -8.292  1.00  0.00     0.016 A 
ATOM     14  C   UNL     1      -0.587 -15.293  -8.195  1.00  0.00     0.051 A 
ATOM     15  C   UNL     1      -1.936 -15.191  -7.841  1.00  0.00     0.157 A 
ATOM     16  C   UNL     1      -2.064 -17.611  -7.686  1.00  0.00     0.062 A 
ATOM     17  C   UNL     1      -2.681 -16.355  -7.590  1.00  0.00     0.158 A 
BRANCH  15  18
ATOM     18  O   UNL     1      -2.518 -13.928  -7.749  1.00  0.00    -0.504 OA
ATOM     19  H   UNL     1      -3.436 -13.729  -8.130  1.00  0.00     0.293 HD
ENDBRANCH  15  18
BRANCH  17  20
ATOM     20  O   UNL     1      -4.029 -16.261  -7.250  1.00  0.00    -0.504 OA
ATOM     21  H   UNL     1      -4.387 -16.648  -6.385  1.00  0.00     0.293 HD
ENDBRANCH  17  20
ENDBRANCH   1  12
BRANCH   2  22
ATOM     22  O   UNL     1       1.725 -18.412  -6.594  1.00  0.00    -0.502 OA
ATOM     23  H   UNL     1       1.654 -18.458  -5.584  1.00  0.00     0.293 HD
ENDBRANCH   2  22
BRANCH   6  24
ATOM     24  O   UNL     1       2.740 -23.306  -8.032  1.00  0.00    -0.507 OA
ATOM     25  H   UNL     1       2.717 -24.128  -7.440  1.00  0.00     0.293 HD
ENDBRANCH   6  24
BRANCH   8  26
ATOM     26  O   UNL     1      -0.821 -24.124 -11.206  1.00  0.00    -0.508 OA
ATOM     27  H   UNL     1      -0.297 -24.734 -11.824  1.00  0.00     0.293 HD
ENDBRANCH   8  26
TORSDOF 6
ENDMDL
MODEL 2
REMARK VINA RESULT:    -5.783      1.420      1.687
REMARK INTER + INTRA:          -7.016
REMARK INTER:                  -7.461
REMARK INTRA:                   0.445
REMARK UNBOUND:                -0.050
REMARK SMILES O=c1c(O)c(-c2ccc(O)c(O)c2)oc2cc(O)cc(O)c12
REMARK SMILES IDX 5 1 3 2 2 3 1 4 22 5 20 6 19 7 17 8 16 9 15 10 14 11 6 12
REMARK SMILES IDX 7 13 8 14 9 15 13 16 11 17 10 18 12 20 4 22 21 24 18 26
REMARK H PARENT 10 19 12 21 4 23 21 25 18 27
REMARK Flexibility Score: inf
ROOT
ATOM      1  C   UNL     1       0.148 -18.132  -7.681  1.00  0.00     0.180 A 
ATOM      2  C   UNL     1       1.415 -18.697  -7.435  1.00  0.00     0.208 A 
ATOM      3  C   UNL     1       1.677 -19.998  -7.891  1.00  0.00     0.238 A 
ATOM      4  O   UNL     1       2.804 -20.518  -7.667  1.00  0.00    -0.285 OA
ATOM      5  C   UNL     1       0.681 -20.703  -8.598  1.00  0.00     0.111 A 
ATOM      6  C   UNL     1       0.868 -22.016  -9.095  1.00  0.00     0.134 A 
ATOM      7  C   UNL     1      -0.170 -22.647  -9.798  1.00  0.00     0.093 A 
ATOM      8  C   UNL     1      -1.386 -21.990 -10.014  1.00  0.00     0.123 A 
ATOM      9  C   UNL     1      -1.574 -20.696  -9.526  1.00  0.00     0.094 A 
ATOM     10  C   UNL     1      -0.553 -20.051  -8.822  1.00  0.00     0.146 A 
ATOM     11  O   UNL     1      -0.761 -18.822  -8.364  1.00  0.00    -0.452 OA
ENDROOT
BRANCH   1  12
ATOM     12  C   UNL     1      -0.212 -16.774  -7.214  1.00  0.00     0.025 A 
ATOM     13  C   UNL     1       0.556 -16.164  -6.209  1.00  0.00     0.016 A 
ATOM     14  C   UNL     1       0.249 -14.875  -5.767  1.00  0.00     0.051 A 
ATOM     15  C   UNL     1      -0.819 -14.170  -6.332  1.00  0.00     0.157 A 
ATOM     16  C   UNL     1      -1.272 -16.055  -7.794  1.00  0.00     0.062 A 
ATOM     17  C   UNL     1      -1.581 -14.760  -7.354  1.00  0.00     0.158 A 
BRANCH  15  18
ATOM     18  O   UNL     1      -1.103 -12.886  -5.869  1.00  0.00    -0.504 OA
ATOM     19  H   UNL     1      -1.668 -12.235  -6.401  1.00  0.00     0.293 HD
ENDBRANCH  15  18
BRANCH  17  20
ATOM     20  O   UNL     1      -2.638 -14.058  -7.930  1.00  0.00    -0.504 OA
ATOM     21  H   UNL     1      -3.529 -14.500  -8.119  1.00  0.00     0.293 HD
ENDBRANCH  17  20
ENDBRANCH   1  12
BRANCH   2  22
ATOM     22  O   UNL     1       2.400 -17.959  -6.774  1.00  0.00    -0.502 OA
ATOM     23  H   UNL     1       2.208 -17.068  -6.333  1.00  0.00     0.293 HD
ENDBRANCH   2  22
BRANCH   6  24
ATOM     24  O   UNL     1       2.070 -22.695  -8.896  1.00  0.00    -0.507 OA
ATOM     25  H   UNL     1       2.493 -22.774  -7.979  1.00  0.00     0.293 HD
ENDBRANCH   6  24
BRANCH   8  26
ATOM     26  O   UNL     1      -2.416 -22.616 -10.713  1.00  0.00    -0.508 OA
ATOM     27  H   UNL     1      -2.502 -22.530 -11.719  1.00  0.00     0.293 HD
ENDBRANCH   8  26
TORSDOF 6
ENDMDL
MODEL 3
REMARK VINA RESULT:    -5.718      3.888      4.740
REMARK INTER + INTRA:          -6.938
REMARK INTER:                  -6.894
REMARK INTRA:                  -0.043
REMARK UNBOUND:                -0.050
REMARK SMILES O=c1c(O)c(-c2ccc(O)c(O)c2)oc2cc(O)cc(O)c12
REMARK SMILES IDX 5 1 3 2 2 3 1 4 22 5 20 6 19 7 17 8 16 9 15 10 14 11 6 12
REMARK SMILES IDX 7 13 8 14 9 15 13 16 11 17 10 18 12 20 4 22 21 24 18 26
REMARK H PARENT 10 19 12 21 4 23 21 25 18 27
REMARK Flexibility Score: inf
ROOT
ATOM      1  C   UNL     1       1.555 -17.184  -5.675  1.00  0.00     0.180 A 
ATOM      2  C   UNL     1       2.853 -16.665  -5.502  1.00  0.00     0.208 A 
ATOM      3  C   UNL     1       3.841 -17.484  -4.934  1.00  0.00     0.238 A 
ATOM      4  O   UNL     1       5.004 -17.026  -4.764  1.00  0.00    -0.285 OA
ATOM      5  C   UNL     1       3.523 -18.809  -4.567  1.00  0.00     0.111 A 
ATOM      6  C   UNL     1       4.462 -19.699  -3.993  1.00  0.00     0.134 A 
ATOM      7  C   UNL     1       4.069 -21.005  -3.664  1.00  0.00     0.093 A 
ATOM      8  C   UNL     1       2.759 -21.436  -3.900  1.00  0.00     0.123 A 
ATOM      9  C   UNL     1       1.831 -20.562  -4.466  1.00  0.00     0.094 A 
ATOM     10  C   UNL     1       2.201 -19.256  -4.799  1.00  0.00     0.146 A 
ATOM     11  O   UNL     1       1.296 -18.442  -5.331  1.00  0.00    -0.452 OA
ENDROOT
BRANCH   1  12
ATOM     12  C   UNL     1       0.455 -16.376  -6.248  1.00  0.00     0.025 A 
ATOM     13  C   UNL     1       0.141 -15.134  -5.675  1.00  0.00     0.016 A 
ATOM     14  C   UNL     1      -0.880 -14.345  -6.210  1.00  0.00     0.051 A 
ATOM     15  C   UNL     1      -1.591 -14.776  -7.335  1.00  0.00     0.157 A 
ATOM     16  C   UNL     1      -0.248 -16.799  -7.390  1.00  0.00     0.062 A 
ATOM     17  C   UNL     1      -1.271 -16.007  -7.932  1.00  0.00     0.158 A 
BRANCH  15  18
ATOM     18  O   UNL     1      -2.605 -13.968  -7.846  1.00  0.00    -0.504 OA
ATOM     19  H   UNL     1      -3.260 -13.482  -7.246  1.00  0.00     0.293 HD
ENDBRANCH  15  18
BRANCH  17  20
ATOM     20  O   UNL     1      -1.967 -16.437  -9.060  1.00  0.00    -0.504 OA
ATOM     21  H   UNL     1      -2.924 -16.762  -9.002  1.00  0.00     0.293 HD
ENDBRANCH  17  20
ENDBRANCH   1  12
BRANCH   2  22
ATOM     22  O   UNL     1       3.155 -15.366  -5.918  1.00  0.00    -0.502 OA
ATOM     23  H   UNL     1       4.105 -15.054  -6.078  1.00  0.00     0.293 HD
ENDBRANCH   2  22
BRANCH   6  24
ATOM     24  O   UNL     1       5.775 -19.298  -3.747  1.00  0.00    -0.507 OA
ATOM     25  H   UNL     1       6.384 -18.980  -4.492  1.00  0.00     0.293 HD
ENDBRANCH   6  24
BRANCH   8  26
ATOM     26  O   UNL     1       2.370 -22.734  -3.575  1.00  0.00    -0.508 OA
ATOM     27  H   UNL     1       3.051 -23.457  -3.375  1.00  0.00     0.293 HD
ENDBRANCH   8  26
TORSDOF 6
ENDMDL
MODEL 4
REMARK VINA RESULT:    -5.617      2.822      5.092
REMARK INTER + INTRA:          -6.817
REMARK INTER:                  -6.932
REMARK INTRA:                   0.116
REMARK UNBOUND:                -0.050
REMARK SMILES O=c1c(O)c(-c2ccc(O)c(O)c2)oc2cc(O)cc(O)c12
REMARK SMILES IDX 5 1 3 2 2 3 1 4 22 5 20 6 19 7 17 8 16 9 15 10 14 11 6 12
REMARK SMILES IDX 7 13 8 14 9 15 13 16 11 17 10 18 12 20 4 22 21 24 18 26
REMARK H PARENT 10 19 12 21 4 23 21 25 18 27
REMARK Flexibility Score: inf
ROOT
ATOM      1  C   UNL     1      -1.097 -15.523  -6.293  1.00  0.00     0.180 A 
ATOM      2  C   UNL     1      -1.958 -15.899  -7.343  1.00  0.00     0.208 A 
ATOM      3  C   UNL     1      -1.676 -17.070  -8.064  1.00  0.00     0.238 A 
ATOM      4  O   UNL     1      -2.434 -17.411  -9.013  1.00  0.00    -0.285 OA
ATOM      5  C   UNL     1      -0.556 -17.852  -7.715  1.00  0.00     0.111 A 
ATOM      6  C   UNL     1      -0.205 -19.047  -8.390  1.00  0.00     0.134 A 
ATOM      7  C   UNL     1       0.921 -19.773  -7.975  1.00  0.00     0.093 A 
ATOM      8  C   UNL     1       1.700 -19.329  -6.901  1.00  0.00     0.123 A 
ATOM      9  C   UNL     1       1.358 -18.152  -6.234  1.00  0.00     0.094 A 
ATOM     10  C   UNL     1       0.241 -17.413  -6.632  1.00  0.00     0.146 A 
ATOM     11  O   UNL     1      -0.058 -16.293  -5.984  1.00  0.00    -0.452 OA
ENDROOT
BRANCH   1  12
ATOM     12  C   UNL     1      -1.316 -14.293  -5.500  1.00  0.00     0.025 A 
ATOM     13  C   UNL     1      -0.227 -13.453  -5.215  1.00  0.00     0.016 A 
ATOM     14  C   UNL     1      -0.412 -12.276  -4.485  1.00  0.00     0.051 A 
ATOM     15  C   UNL     1      -1.689 -11.912  -4.042  1.00  0.00     0.157 A 
ATOM     16  C   UNL     1      -2.600 -13.915  -5.070  1.00  0.00     0.062 A 
ATOM     17  C   UNL     1      -2.789 -12.733  -4.340  1.00  0.00     0.158 A 
BRANCH  15  18
ATOM     18  O   UNL     1      -1.843 -10.734  -3.314  1.00  0.00    -0.504 OA
ATOM     19  H   UNL     1      -1.134 -10.010  -3.305  1.00  0.00     0.293 HD
ENDBRANCH  15  18
BRANCH  17  20
ATOM     20  O   UNL     1      -4.066 -12.370  -3.913  1.00  0.00    -0.504 OA
ATOM     21  H   UNL     1      -4.681 -13.032  -3.456  1.00  0.00     0.293 HD
ENDBRANCH  17  20
ENDBRANCH   1  12
BRANCH   2  22
ATOM     22  O   UNL     1      -3.089 -15.134  -7.637  1.00  0.00    -0.502 OA
ATOM     23  H   UNL     1      -3.179 -14.606  -8.497  1.00  0.00     0.293 HD
ENDBRANCH   2  22
BRANCH   6  24
ATOM     24  O   UNL     1      -0.963 -19.515  -9.463  1.00  0.00    -0.507 OA
ATOM     25  H   UNL     1      -1.917 -19.209  -9.615  1.00  0.00     0.293 HD
ENDBRANCH   6  24
BRANCH   8  26
ATOM     26  O   UNL     1       2.818 -20.052  -6.489  1.00  0.00    -0.508 OA
ATOM     27  H   UNL     1       2.776 -21.053  -6.339  1.00  0.00     0.293 HD
ENDBRANCH   8  26
TORSDOF 6
ENDMDL
MODEL 5
REMARK VINA RESULT:    -5.560      2.117      7.126
REMARK INTER + INTRA:          -6.747
REMARK INTER:                  -6.872
REMARK INTRA:                   0.125
REMARK UNBOUND:                -0.050
REMARK SMILES O=c1c(O)c(-c2ccc(O)c(O)c2)oc2cc(O)cc(O)c12
REMARK SMILES IDX 5 1 3 2 2 3 1 4 22 5 20 6 19 7 17 8 16 9 15 10 14 11 6 12
REMARK SMILES IDX 7 13 8 14 9 15 13 16 11 17 10 18 12 20 4 22 21 24 18 26
REMARK H PARENT 10 19 12 21 4 23 21 25 18 27
REMARK Flexibility Score: inf
ROOT
ATOM      1  C   UNL     1      -1.100 -18.610  -8.207  1.00  0.00     0.180 A 
ATOM      2  C   UNL     1      -1.931 -17.624  -8.775  1.00  0.00     0.208 A 
ATOM      3  C   UNL     1      -2.086 -16.401  -8.106  1.00  0.00     0.238 A 
ATOM      4  O   UNL     1      -2.836 -15.514  -8.599  1.00  0.00    -0.285 OA
ATOM      5  C   UNL     1      -1.398 -16.175  -6.896  1.00  0.00     0.111 A 
ATOM      6  C   UNL     1      -1.497 -14.968  -6.162  1.00  0.00     0.134 A 
ATOM      7  C   UNL     1      -0.772 -14.819  -4.970  1.00  0.00     0.093 A 
ATOM      8  C   UNL     1       0.050 -15.850  -4.501  1.00  0.00     0.123 A 
ATOM      9  C   UNL     1       0.150 -17.041  -5.221  1.00  0.00     0.094 A 
ATOM     10  C   UNL     1      -0.565 -17.211  -6.410  1.00  0.00     0.146 A 
ATOM     11  O   UNL     1      -0.456 -18.356  -7.073  1.00  0.00    -0.452 OA
ENDROOT
BRANCH   1  12
ATOM     12  C   UNL     1      -0.902 -19.932  -8.843  1.00  0.00     0.025 A 
ATOM     13  C   UNL     1       0.358 -20.548  -8.776  1.00  0.00     0.016 A 
ATOM     14  C   UNL     1       0.564 -21.804  -9.351  1.00  0.00     0.051 A 
ATOM     15  C   UNL     1      -0.488 -22.472  -9.986  1.00  0.00     0.157 A 
ATOM     16  C   UNL     1      -1.963 -20.614  -9.465  1.00  0.00     0.062 A 
ATOM     17  C   UNL     1      -1.760 -21.877 -10.040  1.00  0.00     0.158 A 
BRANCH  15  18
ATOM     18  O   UNL     1      -0.252 -23.724 -10.553  1.00  0.00    -0.504 OA
ATOM     19  H   UNL     1      -0.949 -24.201 -11.112  1.00  0.00     0.293 HD
ENDBRANCH  15  18
BRANCH  17  20
ATOM     20  O   UNL     1      -2.816 -22.542 -10.661  1.00  0.00    -0.504 OA
ATOM     21  H   UNL     1      -3.395 -23.204 -10.159  1.00  0.00     0.293 HD
ENDBRANCH  17  20
ENDBRANCH   1  12
BRANCH   2  22
ATOM     22  O   UNL     1      -2.563 -17.853  -9.999  1.00  0.00    -0.502 OA
ATOM     23  H   UNL     1      -2.123 -18.372 -10.750  1.00  0.00     0.293 HD
ENDBRANCH   2  22
BRANCH   6  24
ATOM     24  O   UNL     1      -2.306 -13.923  -6.605  1.00  0.00    -0.507 OA
ATOM     25  H   UNL     1      -3.144 -13.648  -6.105  1.00  0.00     0.293 HD
ENDBRANCH   6  24
BRANCH   8  26
ATOM     26  O   UNL     1       0.770 -15.700  -3.318  1.00  0.00    -0.508 OA
ATOM     27  H   UNL     1       1.416 -16.412  -2.997  1.00  0.00     0.293 HD
ENDBRANCH   8  26
TORSDOF 6
ENDMDL
MODEL 6
REMARK VINA RESULT:    -5.557      4.103      6.154
REMARK INTER + INTRA:          -6.744
REMARK INTER:                  -6.452
REMARK INTRA:                  -0.291
REMARK UNBOUND:                -0.050
REMARK SMILES O=c1c(O)c(-c2ccc(O)c(O)c2)oc2cc(O)cc(O)c12
REMARK SMILES IDX 5 1 3 2 2 3 1 4 22 5 20 6 19 7 17 8 16 9 15 10 14 11 6 12
REMARK SMILES IDX 7 13 8 14 9 15 13 16 11 17 10 18 12 20 4 22 21 24 18 26
REMARK H PARENT 10 19 12 21 4 23 21 25 18 27
REMARK Flexibility Score: inf
ROOT
ATOM      1  C   UNL     1      -0.402 -14.713  -5.151  1.00  0.00     0.180 A 
ATOM      2  C   UNL     1      -0.353 -14.953  -6.538  1.00  0.00     0.208 A 
ATOM      3  C   UNL     1       0.446 -16.003  -7.016  1.00  0.00     0.238 A 
ATOM      4  O   UNL     1       0.508 -16.221  -8.257  1.00  0.00    -0.285 OA
ATOM      5  C   UNL     1       1.165 -16.804  -6.104  1.00  0.00     0.111 A 
ATOM      6  C   UNL     1       1.990 -17.883  -6.504  1.00  0.00     0.134 A 
ATOM      7  C   UNL     1       2.665 -18.638  -5.533  1.00  0.00     0.093 A 
ATOM      8  C   UNL     1       2.529 -18.336  -4.174  1.00  0.00     0.123 A 
ATOM      9  C   UNL     1       1.718 -17.274  -3.775  1.00  0.00     0.094 A 
ATOM     10  C   UNL     1       1.038 -16.507  -4.726  1.00  0.00     0.146 A 
ATOM     11  O   UNL     1       0.277 -15.498  -4.320  1.00  0.00    -0.452 OA
ENDROOT
BRANCH   1  12
ATOM     12  C   UNL     1      -1.207 -13.613  -4.572  1.00  0.00     0.025 A 
ATOM     13  C   UNL     1      -0.577 -12.407  -4.227  1.00  0.00     0.016 A 
ATOM     14  C   UNL     1      -1.318 -11.347  -3.697  1.00  0.00     0.051 A 
ATOM     15  C   UNL     1      -2.701 -11.470  -3.520  1.00  0.00     0.157 A 
ATOM     16  C   UNL     1      -2.599 -13.727  -4.411  1.00  0.00     0.062 A 
ATOM     17  C   UNL     1      -3.346 -12.665  -3.882  1.00  0.00     0.158 A 
BRANCH  15  18
ATOM     18  O   UNL     1      -3.414 -10.398  -2.987  1.00  0.00    -0.504 OA
ATOM     19  H   UNL     1      -3.925  -9.748  -3.572  1.00  0.00     0.293 HD
ENDBRANCH  15  18
BRANCH  17  20
ATOM     20  O   UNL     1      -4.724 -12.790  -3.720  1.00  0.00    -0.504 OA
ATOM     21  H   UNL     1      -5.370 -12.124  -4.127  1.00  0.00     0.293 HD
ENDBRANCH  17  20
ENDBRANCH   1  12
BRANCH   2  22
ATOM     22  O   UNL     1      -1.112 -14.177  -7.416  1.00  0.00    -0.502 OA
ATOM     23  H   UNL     1      -1.004 -13.172  -7.485  1.00  0.00     0.293 HD
ENDBRANCH   2  22
BRANCH   6  24
ATOM     24  O   UNL     1       2.143 -18.209  -7.851  1.00  0.00    -0.507 OA
ATOM     25  H   UNL     1       2.958 -17.920  -8.381  1.00  0.00     0.293 HD
ENDBRANCH   6  24
BRANCH   8  26
ATOM     26  O   UNL     1       3.199 -19.087  -3.210  1.00  0.00    -0.508 OA
ATOM     27  H   UNL     1       4.017 -18.728  -2.732  1.00  0.00     0.293 HD
ENDBRANCH   8  26
TORSDOF 6
ENDMDL
MODEL 7
REMARK VINA RESULT:    -5.543      1.807      7.554
REMARK INTER + INTRA:          -6.727
REMARK INTER:                  -7.258
REMARK INTRA:                   0.531
REMARK UNBOUND:                -0.050
REMARK SMILES O=c1c(O)c(-c2ccc(O)c(O)c2)oc2cc(O)cc(O)c12
REMARK SMILES IDX 5 1 3 2 2 3 1 4 22 5 20 6 19 7 17 8 16 9 15 10 14 11 6 12
REMARK SMILES IDX 7 13 8 14 9 15 13 16 11 17 10 18 12 20 4 22 21 24 18 26
REMARK H PARENT 10 19 12 21 4 23 21 25 18 27
REMARK Flexibility Score: inf
ROOT
ATOM      1  C   UNL     1       0.001 -18.259  -7.493  1.00  0.00     0.180 A 
ATOM      2  C   UNL     1      -1.086 -17.926  -8.325  1.00  0.00     0.208 A 
ATOM      3  C   UNL     1      -1.694 -16.671  -8.175  1.00  0.00     0.238 A 
ATOM      4  O   UNL     1      -2.675 -16.365  -8.906  1.00  0.00    -0.285 OA
ATOM      5  C   UNL     1      -1.197 -15.765  -7.215  1.00  0.00     0.111 A 
ATOM      6  C   UNL     1      -1.750 -14.479  -7.004  1.00  0.00     0.134 A 
ATOM      7  C   UNL     1      -1.191 -13.632  -6.035  1.00  0.00     0.093 A 
ATOM      8  C   UNL     1      -0.091 -14.046  -5.276  1.00  0.00     0.123 A 
ATOM      9  C   UNL     1       0.457 -15.313  -5.480  1.00  0.00     0.094 A 
ATOM     10  C   UNL     1      -0.086 -16.172  -6.440  1.00  0.00     0.146 A 
ATOM     11  O   UNL     1       0.452 -17.374  -6.610  1.00  0.00    -0.452 OA
ENDROOT
BRANCH   1  12
ATOM     12  C   UNL     1       0.682 -19.572  -7.577  1.00  0.00     0.025 A 
ATOM     13  C   UNL     1       0.345 -20.459  -8.612  1.00  0.00     0.016 A 
ATOM     14  C   UNL     1       0.988 -21.694  -8.724  1.00  0.00     0.051 A 
ATOM     15  C   UNL     1       1.988 -22.055  -7.815  1.00  0.00     0.157 A 
ATOM     16  C   UNL     1       1.702 -19.929  -6.677  1.00  0.00     0.062 A 
ATOM     17  C   UNL     1       2.350 -21.167  -6.788  1.00  0.00     0.158 A 
BRANCH  15  18
ATOM     18  O   UNL     1       2.610 -23.295  -7.950  1.00  0.00    -0.504 OA
ATOM     19  H   UNL     1       2.090 -24.164  -7.922  1.00  0.00     0.293 HD
ENDBRANCH  15  18
BRANCH  17  20
ATOM     20  O   UNL     1       3.355 -21.515  -5.887  1.00  0.00    -0.504 OA
ATOM     21  H   UNL     1       3.566 -20.942  -5.079  1.00  0.00     0.293 HD
ENDBRANCH  17  20
ENDBRANCH   1  12
BRANCH   2  22
ATOM     22  O   UNL     1      -1.528 -18.822  -9.301  1.00  0.00    -0.502 OA
ATOM     23  H   UNL     1      -0.952 -19.581  -9.644  1.00  0.00     0.293 HD
ENDBRANCH   2  22
BRANCH   6  24
ATOM     24  O   UNL     1      -2.846 -14.038  -7.747  1.00  0.00    -0.507 OA
ATOM     25  H   UNL     1      -3.071 -14.434  -8.651  1.00  0.00     0.293 HD
ENDBRANCH   6  24
BRANCH   8  26
ATOM     26  O   UNL     1       0.464 -13.205  -4.315  1.00  0.00    -0.508 OA
ATOM     27  H   UNL     1       0.725 -13.548  -3.397  1.00  0.00     0.293 HD
ENDBRANCH   8  26
TORSDOF 6
ENDMDL
MODEL 8
REMARK VINA RESULT:    -5.539      2.487      3.583
REMARK INTER + INTRA:          -6.722
REMARK INTER:                  -6.644
REMARK INTRA:                  -0.078
REMARK UNBOUND:                -0.050
REMARK SMILES O=c1c(O)c(-c2ccc(O)c(O)c2)oc2cc(O)cc(O)c12
REMARK SMILES IDX 5 1 3 2 2 3 1 4 22 5 20 6 19 7 17 8 16 9 15 10 14 11 6 12
REMARK SMILES IDX 7 13 8 14 9 15 13 16 11 17 10 18 12 20 4 22 21 24 18 26
REMARK H PARENT 10 19 12 21 4 23 21 25 18 27
REMARK Flexibility Score: inf
ROOT
ATOM      1  C   UNL     1       0.079 -16.960  -5.736  1.00  0.00     0.180 A 
ATOM      2  C   UNL     1       1.275 -17.188  -5.028  1.00  0.00     0.208 A 
ATOM      3  C   UNL     1       2.060 -18.301  -5.366  1.00  0.00     0.238 A 
ATOM      4  O   UNL     1       3.128 -18.522  -4.731  1.00  0.00    -0.285 OA
ATOM      5  C   UNL     1       1.650 -19.153  -6.412  1.00  0.00     0.111 A 
ATOM      6  C   UNL     1       2.387 -20.293  -6.816  1.00  0.00     0.134 A 
ATOM      7  C   UNL     1       1.916 -21.084  -7.874  1.00  0.00     0.093 A 
ATOM      8  C   UNL     1       0.726 -20.758  -8.534  1.00  0.00     0.123 A 
ATOM      9  C   UNL     1      -0.003 -19.636  -8.139  1.00  0.00     0.094 A 
ATOM     10  C   UNL     1       0.448 -18.834  -7.086  1.00  0.00     0.146 A 
ATOM     11  O   UNL     1      -0.268 -17.776  -6.727  1.00  0.00    -0.452 OA
ENDROOT
BRANCH   1  12
ATOM     12  C   UNL     1      -0.813 -15.819  -5.426  1.00  0.00     0.025 A 
ATOM     13  C   UNL     1      -2.138 -16.066  -5.033  1.00  0.00     0.016 A 
ATOM     14  C   UNL     1      -2.992 -15.008  -4.716  1.00  0.00     0.051 A 
ATOM     15  C   UNL     1      -2.532 -13.688  -4.770  1.00  0.00     0.157 A 
ATOM     16  C   UNL     1      -0.348 -14.493  -5.461  1.00  0.00     0.062 A 
ATOM     17  C   UNL     1      -1.202 -13.428  -5.140  1.00  0.00     0.158 A 
BRANCH  15  18
ATOM     18  O   UNL     1      -3.408 -12.651  -4.451  1.00  0.00    -0.504 OA
ATOM     19  H   UNL     1      -3.078 -11.733  -4.179  1.00  0.00     0.293 HD
ENDBRANCH  15  18
BRANCH  17  20
ATOM     20  O   UNL     1      -0.733 -12.116  -5.184  1.00  0.00    -0.504 OA
ATOM     21  H   UNL     1      -1.108 -11.397  -4.577  1.00  0.00     0.293 HD
ENDBRANCH  17  20
ENDBRANCH   1  12
BRANCH   2  22
ATOM     22  O   UNL     1       1.684 -16.302  -4.028  1.00  0.00    -0.502 OA
ATOM     23  H   UNL     1       1.284 -15.377  -3.925  1.00  0.00     0.293 HD
ENDBRANCH   2  22
BRANCH   6  24
ATOM     24  O   UNL     1       3.577 -20.642  -6.178  1.00  0.00    -0.507 OA
ATOM     25  H   UNL     1       3.937 -20.112  -5.394  1.00  0.00     0.293 HD
ENDBRANCH   6  24
BRANCH   8  26
ATOM     26  O   UNL     1       0.259 -21.544  -9.585  1.00  0.00    -0.508 OA
ATOM     27  H   UNL     1       0.455 -22.537  -9.632  1.00  0.00     0.293 HD
ENDBRANCH   8  26
TORSDOF 6
ENDMDL
MODEL 9
REMARK VINA RESULT:    -3.698      3.809      7.726
REMARK INTER + INTRA:          -4.504
REMARK INTER:                  -4.180
REMARK INTRA:                  -0.324
REMARK UNBOUND:                -0.050
REMARK SMILES O=c1c(O)c(-c2ccc(O)c(O)c2)oc2cc(O)cc(O)c12
REMARK SMILES IDX 5 1 3 2 2 3 1 4 22 5 20 6 19 7 17 8 16 9 15 10 14 11 6 12
REMARK SMILES IDX 7 13 8 14 9 15 13 16 11 17 10 18 12 20 4 22 21 24 18 26
REMARK H PARENT 10 19 12 21 4 23 21 25 18 27
REMARK Flexibility Score: inf
ROOT
ATOM      1  C   UNL     1       1.632 -17.199  -5.742  1.00  0.00     0.180 A 
ATOM      2  C   UNL     1       1.350 -17.576  -7.069  1.00  0.00     0.208 A 
ATOM      3  C   UNL     1       0.241 -17.007  -7.714  1.00  0.00     0.238 A 
ATOM      4  O   UNL     1      -0.029 -17.345  -8.899  1.00  0.00    -0.285 OA
ATOM      5  C   UNL     1      -0.554 -16.062  -7.032  1.00  0.00     0.111 A 
ATOM      6  C   UNL     1      -1.686 -15.440  -7.612  1.00  0.00     0.134 A 
ATOM      7  C   UNL     1      -2.419 -14.502  -6.870  1.00  0.00     0.093 A 
ATOM      8  C   UNL     1      -2.041 -14.174  -5.563  1.00  0.00     0.123 A 
ATOM      9  C   UNL     1      -0.926 -14.785  -4.988  1.00  0.00     0.094 A 
ATOM     10  C   UNL     1      -0.183 -15.723  -5.709  1.00  0.00     0.146 A 
ATOM     11  O   UNL     1       0.870 -16.294  -5.136  1.00  0.00    -0.452 OA
ENDROOT
BRANCH   1  12
ATOM     12  C   UNL     1       2.773 -17.769  -4.988  1.00  0.00     0.025 A 
ATOM     13  C   UNL     1       2.599 -18.967  -4.277  1.00  0.00     0.016 A 
ATOM     14  C   UNL     1       3.666 -19.534  -3.576  1.00  0.00     0.051 A 
ATOM     15  C   UNL     1       4.924 -18.923  -3.586  1.00  0.00     0.157 A 
ATOM     16  C   UNL     1       4.043 -17.167  -5.013  1.00  0.00     0.062 A 
ATOM     17  C   UNL     1       5.116 -17.736  -4.312  1.00  0.00     0.158 A 
BRANCH  15  18
ATOM     18  O   UNL     1       5.969 -19.511  -2.875  1.00  0.00    -0.504 OA
ATOM     19  H   UNL     1       6.631 -18.963  -2.340  1.00  0.00     0.293 HD
ENDBRANCH  15  18
BRANCH  17  20
ATOM     20  O   UNL     1       6.371 -17.129  -4.338  1.00  0.00    -0.504 OA
ATOM     21  H   UNL     1       6.596 -16.351  -3.730  1.00  0.00     0.293 HD
ENDBRANCH  17  20
ENDBRANCH   1  12
BRANCH   2  22
ATOM     22  O   UNL     1       2.180 -18.477  -7.739  1.00  0.00    -0.502 OA
ATOM     23  H   UNL     1       2.765 -19.144  -7.250  1.00  0.00     0.293 HD
ENDBRANCH   2  22
BRANCH   6  24
ATOM     24  O   UNL     1      -2.086 -15.746  -8.913  1.00  0.00    -0.507 OA
ATOM     25  H   UNL     1      -2.209 -16.703  -9.222  1.00  0.00     0.293 HD
ENDBRANCH   6  24
BRANCH   8  26
ATOM     26  O   UNL     1      -2.769 -13.242  -4.827  1.00  0.00    -0.508 OA
ATOM     27  H   UNL     1      -2.997 -12.329  -5.205  1.00  0.00     0.293 HD
ENDBRANCH   8  26
TORSDOF 6
ENDMDL
