MODEL 1
REMARK VINA RESULT:    -4.118      0.000      0.000
REMARK INTER + INTRA:          -8.289
REMARK INTER:                  -6.285
REMARK INTRA:                  -2.004
REMARK UNBOUND:                -2.004
REMARK SMILES CC(=O)CCC=C(C)CCC=C(C)CCC=C(C)C
REMARK SMILES IDX 10 1 11 2 12 3 13 4 14 5 15 6 16 7 18 8 17 9 19 10 9 11 7 12
REMARK SMILES IDX 6 13 8 14 5 15 4 16 2 17 3 18 1 19
REMARK H PARENT
REMARK Flexibility Score: inf
ROOT
ATOM      1  C   UNL     1      85.235  -6.038  28.983  1.00  0.00     0.032 C 
ENDROOT
BRANCH   1   2
ATOM      2  C   UNL     1      84.767  -7.322  28.340  1.00  0.00    -0.028 C 
ATOM      3  C   UNL     1      84.794  -8.514  28.976  1.00  0.00    -0.077 C 
ATOM      4  C   UNL     1      85.264  -8.635  30.406  1.00  0.00     0.039 C 
BRANCH   3   5
ATOM      5  C   UNL     1      84.283  -9.748  28.270  1.00  0.00     0.034 C 
BRANCH   5   6
ATOM      6  C   UNL     1      83.987  -9.438  26.798  1.00  0.00     0.032 C 
BRANCH   6   7
ATOM      7  C   UNL     1      82.503  -9.331  26.556  1.00  0.00    -0.028 C 
ATOM      8  C   UNL     1      80.404  -8.316  25.777  1.00  0.00     0.039 C 
ATOM      9  C   UNL     1      81.904  -8.294  25.928  1.00  0.00    -0.080 C 
ATOM     10  C   UNL     1      82.691  -7.136  25.361  1.00  0.00     0.039 C 
ENDBRANCH   6   7
ENDBRANCH   5   6
ENDBRANCH   3   5
ENDBRANCH   1   2
BRANCH   1  11
ATOM     11  C   UNL     1      84.074  -5.299  29.658  1.00  0.00     0.034 C 
BRANCH  11  12
ATOM     12  C   UNL     1      82.990  -4.970  28.656  1.00  0.00    -0.077 C 
ATOM     13  C   UNL     1      81.748  -5.474  28.846  1.00  0.00    -0.028 C 
ATOM     14  C   UNL     1      83.326  -4.114  27.457  1.00  0.00     0.039 C 
BRANCH  13  15
ATOM     15  C   UNL     1      80.559  -5.179  27.962  1.00  0.00     0.035 C 
BRANCH  15  16
ATOM     16  C   UNL     1      79.326  -5.989  28.382  1.00  0.00     0.079 C 
BRANCH  16  17
ATOM     17  C   UNL     1      78.046  -5.343  27.916  1.00  0.00     0.130 C 
ATOM     18  O   UNL     1      77.471  -4.545  28.641  1.00  0.00    -0.300 OA
ATOM     19  C   UNL     1      77.465  -5.686  26.577  1.00  0.00     0.087 C 
ENDBRANCH  16  17
ENDBRANCH  15  16
ENDBRANCH  13  15
ENDBRANCH  11  12
ENDBRANCH   1  11
TORSDOF 9
ENDMDL
MODEL 2
REMARK VINA RESULT:    -4.064      2.257      4.891
REMARK INTER + INTRA:          -8.207
REMARK INTER:                  -5.828
REMARK INTRA:                  -2.379
REMARK UNBOUND:                -2.004
REMARK SMILES CC(=O)CCC=C(C)CCC=C(C)CCC=C(C)C
REMARK SMILES IDX 10 1 11 2 12 3 13 4 14 5 15 6 16 7 18 8 17 9 19 10 9 11 7 12
REMARK SMILES IDX 6 13 8 14 5 15 4 16 2 17 3 18 1 19
REMARK H PARENT
REMARK Flexibility Score: inf
ROOT
ATOM      1  C   UNL     1      86.195  -8.742  30.580  1.00  0.00     0.032 C 
ENDROOT
BRANCH   1   2
ATOM      2  C   UNL     1      85.834  -7.371  31.097  1.00  0.00    -0.028 C 
ATOM      3  C   UNL     1      85.659  -6.303  30.286  1.00  0.00    -0.077 C 
ATOM      4  C   UNL     1      85.776  -6.424  28.786  1.00  0.00     0.039 C 
BRANCH   3   5
ATOM      5  C   UNL     1      85.273  -4.970  30.882  1.00  0.00     0.034 C 
BRANCH   5   6
ATOM      6  C   UNL     1      84.257  -4.256  29.984  1.00  0.00     0.032 C 
BRANCH   6   7
ATOM      7  C   UNL     1      82.915  -4.943  30.034  1.00  0.00    -0.028 C 
ATOM      8  C   UNL     1      80.806  -5.855  29.162  1.00  0.00     0.039 C 
ATOM      9  C   UNL     1      82.135  -5.175  28.954  1.00  0.00    -0.080 C 
ATOM     10  C   UNL     1      82.564  -4.793  27.556  1.00  0.00     0.039 C 
ENDBRANCH   6   7
ENDBRANCH   5   6
ENDBRANCH   3   5
ENDBRANCH   1   2
BRANCH   1  11
ATOM     11  C   UNL     1      85.011  -9.710  30.695  1.00  0.00     0.034 C 
BRANCH  11  12
ATOM     12  C   UNL     1      84.078  -9.561  29.514  1.00  0.00    -0.077 C 
ATOM     13  C   UNL     1      84.522  -9.898  28.281  1.00  0.00    -0.028 C 
ATOM     14  C   UNL     1      82.686  -9.015  29.737  1.00  0.00     0.039 C 
BRANCH  13  15
ATOM     15  C   UNL     1      83.682  -9.858  27.027  1.00  0.00     0.035 C 
BRANCH  15  16
ATOM     16  C   UNL     1      83.954  -8.595  26.201  1.00  0.00     0.079 C 
BRANCH  16  17
ATOM     17  C   UNL     1      82.683  -7.998  25.654  1.00  0.00     0.130 C 
ATOM     18  O   UNL     1      82.722  -7.308  24.647  1.00  0.00    -0.300 OA
ATOM     19  C   UNL     1      81.374  -8.228  26.349  1.00  0.00     0.087 C 
ENDBRANCH  16  17
ENDBRANCH  15  16
ENDBRANCH  13  15
ENDBRANCH  11  12
ENDBRANCH   1  11
TORSDOF 9
ENDMDL
MODEL 3
REMARK VINA RESULT:    -4.023      2.642      5.823
REMARK INTER + INTRA:          -8.144
REMARK INTER:                  -5.525
REMARK INTRA:                  -2.619
REMARK UNBOUND:                -2.004
REMARK SMILES CC(=O)CCC=C(C)CCC=C(C)CCC=C(C)C
REMARK SMILES IDX 10 1 11 2 12 3 13 4 14 5 15 6 16 7 18 8 17 9 19 10 9 11 7 12
REMARK SMILES IDX 6 13 8 14 5 15 4 16 2 17 3 18 1 19
REMARK H PARENT
REMARK Flexibility Score: inf
ROOT
ATOM      1  C   UNL     1      83.032  -7.100  26.118  1.00  0.00     0.032 C 
ENDROOT
BRANCH   1   2
ATOM      2  C   UNL     1      81.809  -6.582  26.834  1.00  0.00    -0.028 C 
ATOM      3  C   UNL     1      81.744  -5.345  27.376  1.00  0.00    -0.077 C 
ATOM      4  C   UNL     1      82.894  -4.374  27.265  1.00  0.00     0.039 C 
BRANCH   3   5
ATOM      5  C   UNL     1      80.471  -4.894  28.053  1.00  0.00     0.034 C 
BRANCH   5   6
ATOM      6  C   UNL     1      79.995  -5.949  29.056  1.00  0.00     0.032 C 
BRANCH   6   7
ATOM      7  C   UNL     1      80.974  -6.093  30.195  1.00  0.00    -0.028 C 
ATOM      8  C   UNL     1      82.454  -7.258  31.773  1.00  0.00     0.039 C 
ATOM      9  C   UNL     1      81.501  -7.268  30.605  1.00  0.00    -0.080 C 
ATOM     10  C   UNL     1      81.181  -8.575  29.918  1.00  0.00     0.039 C 
ENDBRANCH   6   7
ENDBRANCH   5   6
ENDBRANCH   3   5
ENDBRANCH   1   2
BRANCH   1  11
ATOM     11  C   UNL     1      83.327  -8.555  26.499  1.00  0.00     0.034 C 
BRANCH  11  12
ATOM     12  C   UNL     1      84.133  -8.625  27.777  1.00  0.00    -0.077 C 
ATOM     13  C   UNL     1      84.642  -7.481  28.293  1.00  0.00    -0.028 C 
ATOM     14  C   UNL     1      84.372  -9.967  28.428  1.00  0.00     0.039 C 
BRANCH  13  15
ATOM     15  C   UNL     1      85.411  -7.395  29.590  1.00  0.00     0.035 C 
BRANCH  15  16
ATOM     16  C   UNL     1      86.084  -6.027  29.760  1.00  0.00     0.079 C 
BRANCH  16  17
ATOM     17  C   UNL     1      85.462  -5.231  30.878  1.00  0.00     0.130 C 
ATOM     18  O   UNL     1      85.876  -5.363  32.020  1.00  0.00    -0.300 OA
ATOM     19  C   UNL     1      84.325  -4.293  30.603  1.00  0.00     0.087 C 
ENDBRANCH  16  17
ENDBRANCH  15  16
ENDBRANCH  13  15
ENDBRANCH  11  12
ENDBRANCH   1  11
TORSDOF 9
ENDMDL
MODEL 4
REMARK VINA RESULT:    -3.952      1.961      4.265
REMARK INTER + INTRA:          -8.035
REMARK INTER:                  -5.428
REMARK INTRA:                  -2.608
REMARK UNBOUND:                -2.004
REMARK SMILES CC(=O)CCC=C(C)CCC=C(C)CCC=C(C)C
REMARK SMILES IDX 10 1 11 2 12 3 13 4 14 5 15 6 16 7 18 8 17 9 19 10 9 11 7 12
REMARK SMILES IDX 6 13 8 14 5 15 4 16 2 17 3 18 1 19
REMARK H PARENT
REMARK Flexibility Score: inf
ROOT
ATOM      1  C   UNL     1      82.696  -8.197  26.589  1.00  0.00     0.032 C 
ENDROOT
BRANCH   1   2
ATOM      2  C   UNL     1      83.588  -8.652  27.718  1.00  0.00    -0.028 C 
ATOM      3  C   UNL     1      83.110  -9.217  28.850  1.00  0.00    -0.077 C 
ATOM      4  C   UNL     1      81.634  -9.467  29.045  1.00  0.00     0.039 C 
BRANCH   3   5
ATOM      5  C   UNL     1      84.074  -9.671  29.921  1.00  0.00     0.034 C 
BRANCH   5   6
ATOM      6  C   UNL     1      85.514  -9.326  29.527  1.00  0.00     0.032 C 
BRANCH   6   7
ATOM      7  C   UNL     1      86.152  -8.419  30.550  1.00  0.00    -0.028 C 
ATOM      8  C   UNL     1      87.021  -6.319  31.484  1.00  0.00     0.039 C 
ATOM      9  C   UNL     1      86.350  -7.093  30.378  1.00  0.00    -0.080 C 
ATOM     10  C   UNL     1      85.903  -6.369  29.129  1.00  0.00     0.039 C 
ENDBRANCH   6   7
ENDBRANCH   5   6
ENDBRANCH   3   5
ENDBRANCH   1   2
BRANCH   1  11
ATOM     11  C   UNL     1      82.971  -6.736  26.216  1.00  0.00     0.034 C 
BRANCH  11  12
ATOM     12  C   UNL     1      82.327  -5.795  27.211  1.00  0.00    -0.077 C 
ATOM     13  C   UNL     1      81.093  -6.087  27.683  1.00  0.00    -0.028 C 
ATOM     14  C   UNL     1      83.063  -4.543  27.628  1.00  0.00     0.039 C 
BRANCH  13  15
ATOM     15  C   UNL     1      80.358  -5.273  28.721  1.00  0.00     0.035 C 
BRANCH  15  16
ATOM     16  C   UNL     1      80.298  -5.997  30.072  1.00  0.00     0.079 C 
BRANCH  16  17
ATOM     17  C   UNL     1      81.387  -5.534  31.006  1.00  0.00     0.130 C 
ATOM     18  O   UNL     1      81.198  -4.566  31.725  1.00  0.00    -0.300 OA
ATOM     19  C   UNL     1      82.708  -6.242  31.043  1.00  0.00     0.087 C 
ENDBRANCH  16  17
ENDBRANCH  15  16
ENDBRANCH  13  15
ENDBRANCH  11  12
ENDBRANCH   1  11
TORSDOF 9
ENDMDL
MODEL 5
REMARK VINA RESULT:    -3.947      1.703      3.772
REMARK INTER + INTRA:          -8.029
REMARK INTER:                  -5.946
REMARK INTRA:                  -2.083
REMARK UNBOUND:                -2.004
REMARK SMILES CC(=O)CCC=C(C)CCC=C(C)CCC=C(C)C
REMARK SMILES IDX 10 1 11 2 12 3 13 4 14 5 15 6 16 7 18 8 17 9 19 10 9 11 7 12
REMARK SMILES IDX 6 13 8 14 5 15 4 16 2 17 3 18 1 19
REMARK H PARENT
REMARK Flexibility Score: inf
ROOT
ATOM      1  C   UNL     1      82.484  -4.520  27.817  1.00  0.00     0.032 C 
ENDROOT
BRANCH   1   2
ATOM      2  C   UNL     1      83.811  -4.830  28.466  1.00  0.00    -0.028 C 
ATOM      3  C   UNL     1      83.958  -4.974  29.802  1.00  0.00    -0.077 C 
ATOM      4  C   UNL     1      82.781  -4.871  30.742  1.00  0.00     0.039 C 
BRANCH   3   5
ATOM      5  C   UNL     1      85.317  -5.311  30.370  1.00  0.00     0.034 C 
BRANCH   5   6
ATOM      6  C   UNL     1      86.044  -6.310  29.464  1.00  0.00     0.032 C 
BRANCH   6   7
ATOM      7  C   UNL     1      85.896  -7.718  29.985  1.00  0.00    -0.028 C 
ATOM      8  C   UNL     1      85.045 -10.022  30.069  1.00  0.00     0.039 C 
ATOM      9  C   UNL     1      85.107  -8.662  29.423  1.00  0.00    -0.080 C 
ATOM     10  C   UNL     1      84.312  -8.399  28.165  1.00  0.00     0.039 C 
ENDBRANCH   6   7
ENDBRANCH   5   6
ENDBRANCH   3   5
ENDBRANCH   1   2
BRANCH   1  11
ATOM     11  C   UNL     1      81.836  -5.785  27.241  1.00  0.00     0.034 C 
BRANCH  11  12
ATOM     12  C   UNL     1      80.694  -6.250  28.116  1.00  0.00    -0.077 C 
ATOM     13  C   UNL     1      79.807  -5.337  28.577  1.00  0.00    -0.028 C 
ATOM     14  C   UNL     1      80.587  -7.714  28.476  1.00  0.00     0.039 C 
BRANCH  13  15
ATOM     15  C   UNL     1      78.589  -5.667  29.406  1.00  0.00     0.035 C 
BRANCH  15  16
ATOM     16  C   UNL     1      77.291  -5.444  28.621  1.00  0.00     0.079 C 
BRANCH  16  17
ATOM     17  C   UNL     1      77.087  -6.497  27.562  1.00  0.00     0.130 C 
ATOM     18  O   UNL     1      76.967  -7.669  27.887  1.00  0.00    -0.300 OA
ATOM     19  C   UNL     1      77.050  -6.120  26.111  1.00  0.00     0.087 C 
ENDBRANCH  16  17
ENDBRANCH  15  16
ENDBRANCH  13  15
ENDBRANCH  11  12
ENDBRANCH   1  11
TORSDOF 9
ENDMDL
MODEL 6
REMARK VINA RESULT:    -3.945      1.154      2.866
REMARK INTER + INTRA:          -8.025
REMARK INTER:                  -5.979
REMARK INTRA:                  -2.046
REMARK UNBOUND:                -2.004
REMARK SMILES CC(=O)CCC=C(C)CCC=C(C)CCC=C(C)C
REMARK SMILES IDX 10 1 11 2 12 3 13 4 14 5 15 6 16 7 18 8 17 9 19 10 9 11 7 12
REMARK SMILES IDX 6 13 8 14 5 15 4 16 2 17 3 18 1 19
REMARK H PARENT
REMARK Flexibility Score: inf
ROOT
ATOM      1  C   UNL     1      83.742  -4.491  28.866  1.00  0.00     0.032 C 
ENDROOT
BRANCH   1   2
ATOM      2  C   UNL     1      84.783  -5.576  28.997  1.00  0.00    -0.028 C 
ATOM      3  C   UNL     1      85.366  -5.897  30.174  1.00  0.00    -0.077 C 
ATOM      4  C   UNL     1      84.979  -5.208  31.460  1.00  0.00     0.039 C 
BRANCH   3   5
ATOM      5  C   UNL     1      86.381  -7.015  30.222  1.00  0.00     0.034 C 
BRANCH   5   6
ATOM      6  C   UNL     1      85.704  -8.337  30.598  1.00  0.00     0.032 C 
BRANCH   6   7
ATOM      7  C   UNL     1      85.211  -9.061  29.370  1.00  0.00    -0.028 C 
ATOM      8  C   UNL     1      83.567  -9.960  27.781  1.00  0.00     0.039 C 
ATOM      9  C   UNL     1      83.909  -9.189  29.030  1.00  0.00    -0.080 C 
ATOM     10  C   UNL     1      82.800  -8.567  29.847  1.00  0.00     0.039 C 
ENDBRANCH   6   7
ENDBRANCH   5   6
ENDBRANCH   3   5
ENDBRANCH   1   2
BRANCH   1  11
ATOM     11  C   UNL     1      83.142  -4.460  27.456  1.00  0.00     0.034 C 
BRANCH  11  12
ATOM     12  C   UNL     1      82.241  -5.654  27.228  1.00  0.00    -0.077 C 
ATOM     13  C   UNL     1      81.122  -5.782  27.978  1.00  0.00    -0.028 C 
ATOM     14  C   UNL     1      82.627  -6.684  26.192  1.00  0.00     0.039 C 
BRANCH  13  15
ATOM     15  C   UNL     1      80.104  -6.886  27.816  1.00  0.00     0.035 C 
BRANCH  15  16
ATOM     16  C   UNL     1      78.834  -6.611  28.632  1.00  0.00     0.079 C 
BRANCH  16  17
ATOM     17  C   UNL     1      78.019  -5.490  28.041  1.00  0.00     0.130 C 
ATOM     18  O   UNL     1      77.758  -4.508  28.719  1.00  0.00    -0.300 OA
ATOM     19  C   UNL     1      77.511  -5.580  26.634  1.00  0.00     0.087 C 
ENDBRANCH  16  17
ENDBRANCH  15  16
ENDBRANCH  13  15
ENDBRANCH  11  12
ENDBRANCH   1  11
TORSDOF 9
ENDMDL
MODEL 7
REMARK VINA RESULT:    -3.907      2.619      4.997
REMARK INTER + INTRA:          -7.968
REMARK INTER:                  -5.192
REMARK INTRA:                  -2.775
REMARK UNBOUND:                -2.004
REMARK SMILES CC(=O)CCC=C(C)CCC=C(C)CCC=C(C)C
REMARK SMILES IDX 10 1 11 2 12 3 13 4 14 5 15 6 16 7 18 8 17 9 19 10 9 11 7 12
REMARK SMILES IDX 6 13 8 14 5 15 4 16 2 17 3 18 1 19
REMARK H PARENT
REMARK Flexibility Score: inf
ROOT
ATOM      1  C   UNL     1      83.658  -4.274  31.565  1.00  0.00     0.032 C 
ENDROOT
BRANCH   1   2
ATOM      2  C   UNL     1      82.364  -4.593  30.857  1.00  0.00    -0.028 C 
ATOM      3  C   UNL     1      81.752  -5.795  30.952  1.00  0.00    -0.077 C 
ATOM      4  C   UNL     1      82.312  -6.899  31.816  1.00  0.00     0.039 C 
BRANCH   3   5
ATOM      5  C   UNL     1      80.443  -6.024  30.233  1.00  0.00     0.034 C 
BRANCH   5   6
ATOM      6  C   UNL     1      80.456  -5.334  28.865  1.00  0.00     0.032 C 
BRANCH   6   7
ATOM      7  C   UNL     1      81.155  -6.187  27.836  1.00  0.00    -0.028 C 
ATOM      8  C   UNL     1      82.815  -6.752  26.114  1.00  0.00     0.039 C 
ATOM      9  C   UNL     1      82.236  -5.796  27.125  1.00  0.00    -0.080 C 
ATOM     10  C   UNL     1      82.887  -4.447  27.331  1.00  0.00     0.039 C 
ENDBRANCH   6   7
ENDBRANCH   5   6
ENDBRANCH   3   5
ENDBRANCH   1   2
BRANCH   1  11
ATOM     11  C   UNL     1      84.838  -4.254  30.587  1.00  0.00     0.034 C 
BRANCH  11  12
ATOM     12  C   UNL     1      85.519  -5.604  30.537  1.00  0.00    -0.077 C 
ATOM     13  C   UNL     1      85.157  -6.485  29.575  1.00  0.00    -0.028 C 
ATOM     14  C   UNL     1      86.562  -5.944  31.576  1.00  0.00     0.039 C 
BRANCH  13  15
ATOM     15  C   UNL     1      85.794  -7.839  29.370  1.00  0.00     0.035 C 
BRANCH  15  16
ATOM     16  C   UNL     1      84.862  -8.976  29.808  1.00  0.00     0.079 C 
BRANCH  16  17
ATOM     17  C   UNL     1      83.864  -9.328  28.734  1.00  0.00     0.130 C 
ATOM     18  O   UNL     1      84.255  -9.599  27.609  1.00  0.00    -0.300 OA
ATOM     19  C   UNL     1      82.395  -9.330  29.033  1.00  0.00     0.087 C 
ENDBRANCH  16  17
ENDBRANCH  15  16
ENDBRANCH  13  15
ENDBRANCH  11  12
ENDBRANCH   1  11
TORSDOF 9
ENDMDL
MODEL 8
REMARK VINA RESULT:    -3.822      1.458      3.430
REMARK INTER + INTRA:          -7.838
REMARK INTER:                  -5.472
REMARK INTRA:                  -2.366
REMARK UNBOUND:                -2.004
REMARK SMILES CC(=O)CCC=C(C)CCC=C(C)CCC=C(C)C
REMARK SMILES IDX 10 1 11 2 12 3 13 4 14 5 15 6 16 7 18 8 17 9 19 10 9 11 7 12
REMARK SMILES IDX 6 13 8 14 5 15 4 16 2 17 3 18 1 19
REMARK H PARENT
REMARK Flexibility Score: inf
ROOT
ATOM      1  C   UNL     1      82.717  -7.513  25.762  1.00  0.00     0.032 C 
ENDROOT
BRANCH   1   2
ATOM      2  C   UNL     1      83.760  -8.375  26.430  1.00  0.00    -0.028 C 
ATOM      3  C   UNL     1      83.460  -9.281  27.388  1.00  0.00    -0.077 C 
ATOM      4  C   UNL     1      82.036  -9.519  27.831  1.00  0.00     0.039 C 
BRANCH   3   5
ATOM      5  C   UNL     1      84.560 -10.125  27.987  1.00  0.00     0.034 C 
BRANCH   5   6
ATOM      6  C   UNL     1      84.813  -9.720  29.443  1.00  0.00     0.032 C 
BRANCH   6   7
ATOM      7  C   UNL     1      85.585  -8.426  29.517  1.00  0.00    -0.028 C 
ATOM      8  C   UNL     1      85.963  -6.038  29.958  1.00  0.00     0.039 C 
ATOM      9  C   UNL     1      85.075  -7.255  29.961  1.00  0.00    -0.080 C 
ATOM     10  C   UNL     1      83.658  -7.141  30.474  1.00  0.00     0.039 C 
ENDBRANCH   6   7
ENDBRANCH   5   6
ENDBRANCH   3   5
ENDBRANCH   1   2
BRANCH   1  11
ATOM     11  C   UNL     1      83.004  -6.023  25.979  1.00  0.00     0.034 C 
BRANCH  11  12
ATOM     12  C   UNL     1      82.382  -5.536  27.269  1.00  0.00    -0.077 C 
ATOM     13  C   UNL     1      81.181  -6.033  27.645  1.00  0.00    -0.028 C 
ATOM     14  C   UNL     1      83.102  -4.490  28.088  1.00  0.00     0.039 C 
BRANCH  13  15
ATOM     15  C   UNL     1      80.474  -5.685  28.933  1.00  0.00     0.035 C 
BRANCH  15  16
ATOM     16  C   UNL     1      79.562  -6.823  29.407  1.00  0.00     0.079 C 
BRANCH  16  17
ATOM     17  C   UNL     1      78.154  -6.346  29.658  1.00  0.00     0.130 C 
ATOM     18  O   UNL     1      77.548  -6.740  30.643  1.00  0.00    -0.300 OA
ATOM     19  C   UNL     1      77.487  -5.407  28.700  1.00  0.00     0.087 C 
ENDBRANCH  16  17
ENDBRANCH  15  16
ENDBRANCH  13  15
ENDBRANCH  11  12
ENDBRANCH   1  11
TORSDOF 9
ENDMDL
