MODEL 1
REMARK VINA RESULT:    -5.302      0.000      0.000
REMARK INTER + INTRA:         -11.581
REMARK INTER:                  -9.641
REMARK INTRA:                  -1.940
REMARK UNBOUND:                -1.940
REMARK SMILES CCCCCC=CCC=CCCCCCCCC(=O)[O-]
REMARK SMILES IDX 11 1 12 2 13 3 14 4 15 5 16 6 17 7 18 8 19 9 20 10 10 11
REMARK SMILES IDX 9 12 8 13 7 14 6 15 5 16 4 17 3 18 2 19 1 20
REMARK H PARENT
REMARK Flexibility Score: inf
ROOT
ATOM      1  C   UNL     1      -1.900   2.594   3.239  1.00  0.00     0.027 C 
ENDROOT
BRANCH   1   2
ATOM      2  C   UNL     1      -2.947   3.647   3.629  1.00  0.00     0.004 C 
BRANCH   2   3
ATOM      3  C   UNL     1      -3.938   3.139   4.692  1.00  0.00     0.000 C 
BRANCH   3   4
ATOM      4  C   UNL     1      -4.864   2.000   4.224  1.00  0.00     0.000 C 
BRANCH   4   5
ATOM      5  C   UNL     1      -5.036   0.896   5.280  1.00  0.00     0.000 C 
BRANCH   5   6
ATOM      6  C   UNL     1      -5.657  -0.388   4.693  1.00  0.00     0.006 C 
BRANCH   6   7
ATOM      7  C   UNL     1      -5.234  -1.668   5.433  1.00  0.00     0.053 C 
BRANCH   7   8
ATOM      8  C   UNL     1      -6.249  -2.102   6.443  1.00  0.00     0.041 C 
ATOM      9  O   UNL     1      -7.449  -2.280   6.100  1.00  0.00    -0.550 OA
ATOM     10  O   UNL     1      -5.878  -2.286   7.769  1.00  0.00    -0.550 OA
ENDBRANCH   7   8
ENDBRANCH   6   7
ENDBRANCH   5   6
ENDBRANCH   4   5
ENDBRANCH   3   4
ENDBRANCH   2   3
ENDBRANCH   1   2
BRANCH   1  11
ATOM     11  C   UNL     1      -1.187   2.073   4.461  1.00  0.00    -0.031 C 
ATOM     12  C   UNL     1      -1.135   0.777   4.820  1.00  0.00    -0.027 C 
BRANCH  12  13
ATOM     13  C   UNL     1      -1.705  -0.360   4.012  1.00  0.00     0.054 C 
BRANCH  13  14
ATOM     14  C   UNL     1      -1.422  -1.675   4.696  1.00  0.00    -0.027 C 
ATOM     15  C   UNL     1      -0.421  -2.519   4.379  1.00  0.00    -0.031 C 
BRANCH  15  16
ATOM     16  C   UNL     1       0.597  -2.293   3.288  1.00  0.00     0.027 C 
BRANCH  16  17
ATOM     17  C   UNL     1       1.868  -1.576   3.785  1.00  0.00     0.004 C 
BRANCH  17  18
ATOM     18  C   UNL     1       2.161  -0.245   3.066  1.00  0.00     0.000 C 
BRANCH  18  19
ATOM     19  C   UNL     1       3.458  -0.219   2.240  1.00  0.00    -0.003 C 
ATOM     20  C   UNL     1       4.415   0.897   2.660  1.00  0.00     0.004 C 
ENDBRANCH  18  19
ENDBRANCH  17  18
ENDBRANCH  16  17
ENDBRANCH  15  16
ENDBRANCH  13  14
ENDBRANCH  12  13
ENDBRANCH   1  11
TORSDOF 14
ENDMDL
MODEL 2
REMARK VINA RESULT:    -5.249      1.983      3.158
REMARK INTER + INTRA:         -11.486
REMARK INTER:                  -9.007
REMARK INTRA:                  -2.479
REMARK UNBOUND:                -1.940
REMARK SMILES CCCCCC=CCC=CCCCCCCCC(=O)[O-]
REMARK SMILES IDX 11 1 12 2 13 3 14 4 15 5 16 6 17 7 18 8 19 9 20 10 10 11
REMARK SMILES IDX 9 12 8 13 7 14 6 15 5 16 4 17 3 18 2 19 1 20
REMARK H PARENT
REMARK Flexibility Score: inf
ROOT
ATOM      1  C   UNL     1      -2.962   3.469   5.519  1.00  0.00     0.027 C 
ENDROOT
BRANCH   1   2
ATOM      2  C   UNL     1      -3.053   3.197   7.027  1.00  0.00     0.004 C 
BRANCH   2   3
ATOM      3  C   UNL     1      -3.304   1.713   7.352  1.00  0.00     0.000 C 
BRANCH   3   4
ATOM      4  C   UNL     1      -4.394   1.456   8.409  1.00  0.00     0.000 C 
BRANCH   4   5
ATOM      5  C   UNL     1      -5.690   0.887   7.808  1.00  0.00     0.000 C 
BRANCH   5   6
ATOM      6  C   UNL     1      -5.435   0.082   6.517  1.00  0.00     0.006 C 
BRANCH   6   7
ATOM      7  C   UNL     1      -5.814  -1.404   6.635  1.00  0.00     0.053 C 
BRANCH   7   8
ATOM      8  C   UNL     1      -6.949  -1.774   5.733  1.00  0.00     0.041 C 
ATOM      9  O   UNL     1      -7.807  -2.618   6.107  1.00  0.00    -0.550 OA
ATOM     10  O   UNL     1      -7.048  -1.206   4.469  1.00  0.00    -0.550 OA
ENDBRANCH   7   8
ENDBRANCH   6   7
ENDBRANCH   5   6
ENDBRANCH   4   5
ENDBRANCH   3   4
ENDBRANCH   2   3
ENDBRANCH   1   2
BRANCH   1  11
ATOM     11  C   UNL     1      -4.262   3.128   4.835  1.00  0.00    -0.031 C 
ATOM     12  C   UNL     1      -4.371   2.333   3.755  1.00  0.00    -0.027 C 
BRANCH  12  13
ATOM     13  C   UNL     1      -3.224   1.593   3.116  1.00  0.00     0.054 C 
BRANCH  13  14
ATOM     14  C   UNL     1      -3.184   0.169   3.615  1.00  0.00    -0.027 C 
ATOM     15  C   UNL     1      -2.205  -0.366   4.369  1.00  0.00    -0.031 C 
BRANCH  15  16
ATOM     16  C   UNL     1      -0.980   0.368   4.855  1.00  0.00     0.027 C 
BRANCH  16  17
ATOM     17  C   UNL     1       0.310  -0.469   4.749  1.00  0.00     0.004 C 
BRANCH  17  18
ATOM     18  C   UNL     1       0.213  -1.862   5.400  1.00  0.00     0.000 C 
BRANCH  18  19
ATOM     19  C   UNL     1       0.482  -3.046   4.457  1.00  0.00    -0.003 C 
ATOM     20  C   UNL     1       0.431  -2.661   2.978  1.00  0.00     0.004 C 
ENDBRANCH  18  19
ENDBRANCH  17  18
ENDBRANCH  16  17
ENDBRANCH  15  16
ENDBRANCH  13  14
ENDBRANCH  12  13
ENDBRANCH   1  11
TORSDOF 14
ENDMDL
MODEL 3
REMARK VINA RESULT:    -5.204      3.312      4.854
REMARK INTER + INTRA:         -11.404
REMARK INTER:                  -8.518
REMARK INTRA:                  -2.886
REMARK UNBOUND:                -1.940
REMARK SMILES CCCCCC=CCC=CCCCCCCCC(=O)[O-]
REMARK SMILES IDX 11 1 12 2 13 3 14 4 15 5 16 6 17 7 18 8 19 9 20 10 10 11
REMARK SMILES IDX 9 12 8 13 7 14 6 15 5 16 4 17 3 18 2 19 1 20
REMARK H PARENT
REMARK Flexibility Score: inf
ROOT
ATOM      1  C   UNL     1      -5.368   0.061   6.966  1.00  0.00     0.027 C 
ENDROOT
BRANCH   1   2
ATOM      2  C   UNL     1      -4.956   1.503   7.297  1.00  0.00     0.004 C 
BRANCH   2   3
ATOM      3  C   UNL     1      -3.433   1.720   7.223  1.00  0.00     0.000 C 
BRANCH   3   4
ATOM      4  C   UNL     1      -2.992   2.941   6.395  1.00  0.00     0.000 C 
BRANCH   4   5
ATOM      5  C   UNL     1      -4.159   3.612   5.651  1.00  0.00     0.000 C 
BRANCH   5   6
ATOM      6  C   UNL     1      -3.811   3.938   4.183  1.00  0.00     0.006 C 
BRANCH   6   7
ATOM      7  C   UNL     1      -4.532   3.037   3.167  1.00  0.00     0.053 C 
BRANCH   7   8
ATOM      8  C   UNL     1      -3.895   3.084   1.814  1.00  0.00     0.041 C 
ATOM      9  O   UNL     1      -4.609   3.167   0.779  1.00  0.00    -0.550 OA
ATOM     10  O   UNL     1      -2.513   3.010   1.692  1.00  0.00    -0.550 OA
ENDBRANCH   7   8
ENDBRANCH   6   7
ENDBRANCH   5   6
ENDBRANCH   4   5
ENDBRANCH   3   4
ENDBRANCH   2   3
ENDBRANCH   1   2
BRANCH   1  11
ATOM     11  C   UNL     1      -5.821  -0.049   5.533  1.00  0.00    -0.031 C 
ATOM     12  C   UNL     1      -5.020  -0.380   4.503  1.00  0.00    -0.027 C 
BRANCH  12  13
ATOM     13  C   UNL     1      -3.572  -0.776   4.636  1.00  0.00     0.054 C 
BRANCH  13  14
ATOM     14  C   UNL     1      -2.723   0.038   3.690  1.00  0.00    -0.027 C 
ATOM     15  C   UNL     1      -1.481   0.489   3.949  1.00  0.00    -0.031 C 
BRANCH  15  16
ATOM     16  C   UNL     1      -0.715   0.251   5.227  1.00  0.00     0.027 C 
BRANCH  16  17
ATOM     17  C   UNL     1       0.551  -0.604   5.026  1.00  0.00     0.004 C 
BRANCH  17  18
ATOM     18  C   UNL     1       0.417  -2.056   5.524  1.00  0.00     0.000 C 
BRANCH  18  19
ATOM     19  C   UNL     1       0.164  -3.103   4.427  1.00  0.00    -0.003 C 
ATOM     20  C   UNL     1       0.408  -2.567   3.016  1.00  0.00     0.004 C 
ENDBRANCH  18  19
ENDBRANCH  17  18
ENDBRANCH  16  17
ENDBRANCH  15  16
ENDBRANCH  13  14
ENDBRANCH  12  13
ENDBRANCH   1  11
TORSDOF 14
ENDMDL
MODEL 4
REMARK VINA RESULT:    -5.112      1.581      2.407
REMARK INTER + INTRA:         -11.237
REMARK INTER:                  -9.058
REMARK INTRA:                  -2.179
REMARK UNBOUND:                -1.940
REMARK SMILES CCCCCC=CCC=CCCCCCCCC(=O)[O-]
REMARK SMILES IDX 11 1 12 2 13 3 14 4 15 5 16 6 17 7 18 8 19 9 20 10 10 11
REMARK SMILES IDX 9 12 8 13 7 14 6 15 5 16 4 17 3 18 2 19 1 20
REMARK H PARENT
REMARK Flexibility Score: inf
ROOT
ATOM      1  C   UNL     1      -2.250   1.150   5.812  1.00  0.00     0.027 C 
ENDROOT
BRANCH   1   2
ATOM      2  C   UNL     1      -2.821   2.573   5.907  1.00  0.00     0.004 C 
BRANCH   2   3
ATOM      3  C   UNL     1      -4.192   2.620   6.607  1.00  0.00     0.000 C 
BRANCH   3   4
ATOM      4  C   UNL     1      -4.471   1.447   7.565  1.00  0.00     0.000 C 
BRANCH   4   5
ATOM      5  C   UNL     1      -5.761   0.685   7.217  1.00  0.00     0.000 C 
BRANCH   5   6
ATOM      6  C   UNL     1      -5.491  -0.788   6.845  1.00  0.00     0.006 C 
BRANCH   6   7
ATOM      7  C   UNL     1      -5.565  -1.063   5.334  1.00  0.00     0.053 C 
BRANCH   7   8
ATOM      8  C   UNL     1      -6.940  -1.457   4.895  1.00  0.00     0.041 C 
ATOM      9  O   UNL     1      -7.651  -2.198   5.625  1.00  0.00    -0.550 OA
ATOM     10  O   UNL     1      -7.429  -1.027   3.668  1.00  0.00    -0.550 OA
ENDBRANCH   7   8
ENDBRANCH   6   7
ENDBRANCH   5   6
ENDBRANCH   4   5
ENDBRANCH   3   4
ENDBRANCH   2   3
ENDBRANCH   1   2
BRANCH   1  11
ATOM     11  C   UNL     1      -2.458   0.583   4.431  1.00  0.00    -0.031 C 
ATOM     12  C   UNL     1      -1.879  -0.542   3.973  1.00  0.00    -0.027 C 
BRANCH  12  13
ATOM     13  C   UNL     1      -1.005  -1.453   4.796  1.00  0.00     0.054 C 
BRANCH  13  14
ATOM     14  C   UNL     1      -0.331  -2.468   3.907  1.00  0.00    -0.027 C 
ATOM     15  C   UNL     1       0.965  -2.445   3.539  1.00  0.00    -0.031 C 
BRANCH  15  16
ATOM     16  C   UNL     1       1.972  -1.404   3.961  1.00  0.00     0.027 C 
BRANCH  16  17
ATOM     17  C   UNL     1       2.496  -0.556   2.786  1.00  0.00     0.004 C 
BRANCH  17  18
ATOM     18  C   UNL     1       2.331   0.964   2.983  1.00  0.00     0.000 C 
BRANCH  18  19
ATOM     19  C   UNL     1       1.412   1.377   4.144  1.00  0.00    -0.003 C 
ATOM     20  C   UNL     1       0.485   2.540   3.792  1.00  0.00     0.004 C 
ENDBRANCH  18  19
ENDBRANCH  17  18
ENDBRANCH  16  17
ENDBRANCH  15  16
ENDBRANCH  13  14
ENDBRANCH  12  13
ENDBRANCH   1  11
TORSDOF 14
ENDMDL
MODEL 5
REMARK VINA RESULT:    -5.037      3.848      7.771
REMARK INTER + INTRA:         -11.100
REMARK INTER:                  -9.221
REMARK INTRA:                  -1.879
REMARK UNBOUND:                -1.940
REMARK SMILES CCCCCC=CCC=CCCCCCCCC(=O)[O-]
REMARK SMILES IDX 11 1 12 2 13 3 14 4 15 5 16 6 17 7 18 8 19 9 20 10 10 11
REMARK SMILES IDX 9 12 8 13 7 14 6 15 5 16 4 17 3 18 2 19 1 20
REMARK H PARENT
REMARK Flexibility Score: inf
ROOT
ATOM      1  C   UNL     1      -1.216   0.399   5.119  1.00  0.00     0.027 C 
ENDROOT
BRANCH   1   2
ATOM      2  C   UNL     1      -1.333  -0.691   4.044  1.00  0.00     0.004 C 
BRANCH   2   3
ATOM      3  C   UNL     1      -0.878  -2.074   4.544  1.00  0.00     0.000 C 
BRANCH   3   4
ATOM      4  C   UNL     1       0.373  -2.637   3.844  1.00  0.00     0.000 C 
BRANCH   4   5
ATOM      5  C   UNL     1       1.652  -1.851   4.180  1.00  0.00     0.000 C 
BRANCH   5   6
ATOM      6  C   UNL     1       2.242  -1.134   2.948  1.00  0.00     0.006 C 
BRANCH   6   7
ATOM      7  C   UNL     1       2.250   0.398   3.074  1.00  0.00     0.053 C 
BRANCH   7   8
ATOM      8  C   UNL     1       3.209   1.042   2.123  1.00  0.00     0.041 C 
ATOM      9  O   UNL     1       2.791   1.557   1.052  1.00  0.00    -0.550 OA
ATOM     10  O   UNL     1       4.569   1.051   2.406  1.00  0.00    -0.550 OA
ENDBRANCH   7   8
ENDBRANCH   6   7
ENDBRANCH   5   6
ENDBRANCH   4   5
ENDBRANCH   3   4
ENDBRANCH   2   3
ENDBRANCH   1   2
BRANCH   1  11
ATOM     11  C   UNL     1      -0.840   1.721   4.501  1.00  0.00    -0.031 C 
ATOM     12  C   UNL     1      -1.468   2.886   4.746  1.00  0.00    -0.027 C 
BRANCH  12  13
ATOM     13  C   UNL     1      -2.586   3.063   5.741  1.00  0.00     0.054 C 
BRANCH  13  14
ATOM     14  C   UNL     1      -3.796   3.654   5.061  1.00  0.00    -0.027 C 
ATOM     15  C   UNL     1      -4.631   2.990   4.240  1.00  0.00    -0.031 C 
BRANCH  15  16
ATOM     16  C   UNL     1      -4.508   1.534   3.863  1.00  0.00     0.027 C 
BRANCH  16  17
ATOM     17  C   UNL     1      -5.220   0.589   4.851  1.00  0.00     0.004 C 
BRANCH  17  18
ATOM     18  C   UNL     1      -5.008  -0.908   4.554  1.00  0.00     0.000 C 
BRANCH  18  19
ATOM     19  C   UNL     1      -5.425  -1.865   5.684  1.00  0.00    -0.003 C 
ATOM     20  C   UNL     1      -6.926  -1.840   5.969  1.00  0.00     0.004 C 
ENDBRANCH  18  19
ENDBRANCH  17  18
ENDBRANCH  16  17
ENDBRANCH  15  16
ENDBRANCH  13  14
ENDBRANCH  12  13
ENDBRANCH   1  11
TORSDOF 14
ENDMDL
MODEL 6
REMARK VINA RESULT:    -4.955      3.116      4.776
REMARK INTER + INTRA:         -10.951
REMARK INTER:                  -8.472
REMARK INTRA:                  -2.479
REMARK UNBOUND:                -1.940
REMARK SMILES CCCCCC=CCC=CCCCCCCCC(=O)[O-]
REMARK SMILES IDX 11 1 12 2 13 3 14 4 15 5 16 6 17 7 18 8 19 9 20 10 10 11
REMARK SMILES IDX 9 12 8 13 7 14 6 15 5 16 4 17 3 18 2 19 1 20
REMARK H PARENT
REMARK Flexibility Score: inf
ROOT
ATOM      1  C   UNL     1      -4.814   0.508   7.480  1.00  0.00     0.027 C 
ENDROOT
BRANCH   1   2
ATOM      2  C   UNL     1      -4.224   1.922   7.377  1.00  0.00     0.004 C 
BRANCH   2   3
ATOM      3  C   UNL     1      -2.906   1.961   6.582  1.00  0.00     0.000 C 
BRANCH   3   4
ATOM      4  C   UNL     1      -2.875   2.979   5.427  1.00  0.00     0.000 C 
BRANCH   4   5
ATOM      5  C   UNL     1      -4.280   3.420   4.981  1.00  0.00     0.000 C 
BRANCH   5   6
ATOM      6  C   UNL     1      -4.560   3.084   3.502  1.00  0.00     0.006 C 
BRANCH   6   7
ATOM      7  C   UNL     1      -3.322   3.210   2.598  1.00  0.00     0.053 C 
BRANCH   7   8
ATOM      8  C   UNL     1      -3.680   3.235   1.146  1.00  0.00     0.041 C 
ATOM      9  O   UNL     1      -2.778   3.156   0.269  1.00  0.00    -0.550 OA
ATOM     10  O   UNL     1      -5.007   3.371   0.757  1.00  0.00    -0.550 OA
ENDBRANCH   7   8
ENDBRANCH   6   7
ENDBRANCH   5   6
ENDBRANCH   4   5
ENDBRANCH   3   4
ENDBRANCH   2   3
ENDBRANCH   1   2
BRANCH   1  11
ATOM     11  C   UNL     1      -5.882   0.297   6.437  1.00  0.00    -0.031 C 
ATOM     12  C   UNL     1      -5.701  -0.374   5.285  1.00  0.00    -0.027 C 
BRANCH  12  13
ATOM     13  C   UNL     1      -4.432  -1.091   4.900  1.00  0.00     0.054 C 
BRANCH  13  14
ATOM     14  C   UNL     1      -3.692  -0.305   3.846  1.00  0.00    -0.027 C 
ATOM     15  C   UNL     1      -2.353  -0.262   3.702  1.00  0.00    -0.031 C 
BRANCH  15  16
ATOM     16  C   UNL     1      -1.360  -1.002   4.564  1.00  0.00     0.027 C 
BRANCH  16  17
ATOM     17  C   UNL     1      -0.324  -1.800   3.747  1.00  0.00     0.004 C 
BRANCH  17  18
ATOM     18  C   UNL     1       1.136  -1.568   4.183  1.00  0.00     0.000 C 
BRANCH  18  19
ATOM     19  C   UNL     1       1.892  -0.490   3.389  1.00  0.00    -0.003 C 
ATOM     20  C   UNL     1       1.564   0.933   3.843  1.00  0.00     0.004 C 
ENDBRANCH  18  19
ENDBRANCH  17  18
ENDBRANCH  16  17
ENDBRANCH  15  16
ENDBRANCH  13  14
ENDBRANCH  12  13
ENDBRANCH   1  11
TORSDOF 14
ENDMDL
MODEL 7
REMARK VINA RESULT:    -4.874      3.402      5.367
REMARK INTER + INTRA:         -10.803
REMARK INTER:                  -8.498
REMARK INTRA:                  -2.305
REMARK UNBOUND:                -1.940
REMARK SMILES CCCCCC=CCC=CCCCCCCCC(=O)[O-]
REMARK SMILES IDX 11 1 12 2 13 3 14 4 15 5 16 6 17 7 18 8 19 9 20 10 10 11
REMARK SMILES IDX 9 12 8 13 7 14 6 15 5 16 4 17 3 18 2 19 1 20
REMARK H PARENT
REMARK Flexibility Score: inf
ROOT
ATOM      1  C   UNL     1      -3.365   1.537   7.423  1.00  0.00     0.027 C 
ENDROOT
BRANCH   1   2
ATOM      2  C   UNL     1      -2.882   2.829   6.749  1.00  0.00     0.004 C 
BRANCH   2   3
ATOM      3  C   UNL     1      -4.031   3.639   6.119  1.00  0.00     0.000 C 
BRANCH   3   4
ATOM      4  C   UNL     1      -4.309   3.325   4.637  1.00  0.00     0.000 C 
BRANCH   4   5
ATOM      5  C   UNL     1      -4.209   4.566   3.734  1.00  0.00     0.000 C 
BRANCH   5   6
ATOM      6  C   UNL     1      -3.132   4.412   2.641  1.00  0.00     0.006 C 
BRANCH   6   7
ATOM      7  C   UNL     1      -3.076   3.003   2.027  1.00  0.00     0.053 C 
BRANCH   7   8
ATOM      8  C   UNL     1      -3.614   2.970   0.631  1.00  0.00     0.041 C 
ATOM      9  O   UNL     1      -2.825   2.924  -0.351  1.00  0.00    -0.550 OA
ATOM     10  O   UNL     1      -4.984   3.017   0.411  1.00  0.00    -0.550 OA
ENDBRANCH   7   8
ENDBRANCH   6   7
ENDBRANCH   5   6
ENDBRANCH   4   5
ENDBRANCH   3   4
ENDBRANCH   2   3
ENDBRANCH   1   2
BRANCH   1  11
ATOM     11  C   UNL     1      -4.831   1.627   7.764  1.00  0.00    -0.031 C 
ATOM     12  C   UNL     1      -5.770   0.767   7.331  1.00  0.00    -0.027 C 
BRANCH  12  13
ATOM     13  C   UNL     1      -5.490  -0.468   6.513  1.00  0.00     0.054 C 
BRANCH  13  14
ATOM     14  C   UNL     1      -5.515  -0.131   5.042  1.00  0.00    -0.027 C 
ATOM     15  C   UNL     1      -4.476  -0.260   4.195  1.00  0.00    -0.031 C 
BRANCH  15  16
ATOM     16  C   UNL     1      -3.106  -0.772   4.566  1.00  0.00     0.027 C 
BRANCH  16  17
ATOM     17  C   UNL     1      -1.980   0.235   4.265  1.00  0.00     0.004 C 
BRANCH  17  18
ATOM     18  C   UNL     1      -0.622  -0.417   3.940  1.00  0.00     0.000 C 
BRANCH  18  19
ATOM     19  C   UNL     1      -0.446  -1.854   4.457  1.00  0.00    -0.003 C 
ATOM     20  C   UNL     1       0.245  -2.775   3.450  1.00  0.00     0.004 C 
ENDBRANCH  18  19
ENDBRANCH  17  18
ENDBRANCH  16  17
ENDBRANCH  15  16
ENDBRANCH  13  14
ENDBRANCH  12  13
ENDBRANCH   1  11
TORSDOF 14
ENDMDL
MODEL 8
REMARK VINA RESULT:    -4.850      4.182      7.723
REMARK INTER + INTRA:         -10.760
REMARK INTER:                  -9.154
REMARK INTRA:                  -1.606
REMARK UNBOUND:                -1.940
REMARK SMILES CCCCCC=CCC=CCCCCCCCC(=O)[O-]
REMARK SMILES IDX 11 1 12 2 13 3 14 4 15 5 16 6 17 7 18 8 19 9 20 10 10 11
REMARK SMILES IDX 9 12 8 13 7 14 6 15 5 16 4 17 3 18 2 19 1 20
REMARK H PARENT
REMARK Flexibility Score: inf
ROOT
ATOM      1  C   UNL     1      -1.430   0.324   5.336  1.00  0.00     0.027 C 
ENDROOT
BRANCH   1   2
ATOM      2  C   UNL     1      -0.203  -0.562   5.593  1.00  0.00     0.004 C 
BRANCH   2   3
ATOM      3  C   UNL     1      -0.431  -2.030   5.189  1.00  0.00     0.000 C 
BRANCH   3   4
ATOM      4  C   UNL     1       0.704  -2.659   4.361  1.00  0.00     0.000 C 
BRANCH   4   5
ATOM      5  C   UNL     1       0.988  -1.894   3.057  1.00  0.00     0.000 C 
BRANCH   5   6
ATOM      6  C   UNL     1       2.325  -1.126   3.105  1.00  0.00     0.006 C 
BRANCH   6   7
ATOM      7  C   UNL     1       2.163   0.399   2.986  1.00  0.00     0.053 C 
BRANCH   7   8
ATOM      8  C   UNL     1       3.222   1.017   2.129  1.00  0.00     0.041 C 
ATOM      9  O   UNL     1       4.439   0.881   2.426  1.00  0.00    -0.550 OA
ATOM     10  O   UNL     1       2.866   1.766   1.014  1.00  0.00    -0.550 OA
ENDBRANCH   7   8
ENDBRANCH   6   7
ENDBRANCH   5   6
ENDBRANCH   4   5
ENDBRANCH   3   4
ENDBRANCH   2   3
ENDBRANCH   1   2
BRANCH   1  11
ATOM     11  C   UNL     1      -1.737   0.396   3.862  1.00  0.00    -0.031 C 
ATOM     12  C   UNL     1      -2.976   0.356   3.337  1.00  0.00    -0.027 C 
BRANCH  12  13
ATOM     13  C   UNL     1      -4.248   0.322   4.144  1.00  0.00     0.054 C 
BRANCH  13  14
ATOM     14  C   UNL     1      -4.573  -1.097   4.539  1.00  0.00    -0.027 C 
ATOM     15  C   UNL     1      -5.405  -1.458   5.535  1.00  0.00    -0.031 C 
BRANCH  15  16
ATOM     16  C   UNL     1      -6.165  -0.505   6.425  1.00  0.00     0.027 C 
BRANCH  16  17
ATOM     17  C   UNL     1      -5.481  -0.271   7.786  1.00  0.00     0.004 C 
BRANCH  17  18
ATOM     18  C   UNL     1      -5.135   1.204   8.071  1.00  0.00     0.000 C 
BRANCH  18  19
ATOM     19  C   UNL     1      -4.083   1.429   9.169  1.00  0.00    -0.003 C 
ATOM     20  C   UNL     1      -2.737   1.905   8.623  1.00  0.00     0.004 C 
ENDBRANCH  18  19
ENDBRANCH  17  18
ENDBRANCH  16  17
ENDBRANCH  15  16
ENDBRANCH  13  14
ENDBRANCH  12  13
ENDBRANCH   1  11
TORSDOF 14
ENDMDL
MODEL 9
REMARK VINA RESULT:    -4.802      1.481      2.131
REMARK INTER + INTRA:         -10.672
REMARK INTER:                  -9.025
REMARK INTRA:                  -1.647
REMARK UNBOUND:                -1.940
REMARK SMILES CCCCCC=CCC=CCCCCCCCC(=O)[O-]
REMARK SMILES IDX 11 1 12 2 13 3 14 4 15 5 16 6 17 7 18 8 19 9 20 10 10 11
REMARK SMILES IDX 9 12 8 13 7 14 6 15 5 16 4 17 3 18 2 19 1 20
REMARK H PARENT
REMARK Flexibility Score: inf
ROOT
ATOM      1  C   UNL     1      -3.457   3.396   4.781  1.00  0.00     0.027 C 
ENDROOT
BRANCH   1   2
ATOM      2  C   UNL     1      -4.123   3.312   6.162  1.00  0.00     0.004 C 
BRANCH   2   3
ATOM      3  C   UNL     1      -3.762   2.021   6.920  1.00  0.00     0.000 C 
BRANCH   3   4
ATOM      4  C   UNL     1      -4.816   1.553   7.941  1.00  0.00     0.000 C 
BRANCH   4   5
ATOM      5  C   UNL     1      -5.785   0.508   7.365  1.00  0.00     0.000 C 
BRANCH   5   6
ATOM      6  C   UNL     1      -5.273  -0.105   6.045  1.00  0.00     0.006 C 
BRANCH   6   7
ATOM      7  C   UNL     1      -5.549  -1.613   5.920  1.00  0.00     0.053 C 
BRANCH   7   8
ATOM      8  C   UNL     1      -6.958  -1.900   5.509  1.00  0.00     0.041 C 
ATOM      9  O   UNL     1      -7.712  -2.577   6.258  1.00  0.00    -0.550 OA
ATOM     10  O   UNL     1      -7.435  -1.441   4.287  1.00  0.00    -0.550 OA
ENDBRANCH   7   8
ENDBRANCH   6   7
ENDBRANCH   5   6
ENDBRANCH   4   5
ENDBRANCH   3   4
ENDBRANCH   2   3
ENDBRANCH   1   2
BRANCH   1  11
ATOM     11  C   UNL     1      -4.069   2.397   3.831  1.00  0.00    -0.031 C 
ATOM     12  C   UNL     1      -3.425   1.328   3.329  1.00  0.00    -0.027 C 
BRANCH  12  13
ATOM     13  C   UNL     1      -2.025   0.915   3.705  1.00  0.00     0.054 C 
BRANCH  13  14
ATOM     14  C   UNL     1      -1.998  -0.546   4.081  1.00  0.00    -0.027 C 
ATOM     15  C   UNL     1      -0.941  -1.199   4.601  1.00  0.00    -0.031 C 
BRANCH  15  16
ATOM     16  C   UNL     1       0.401  -0.580   4.908  1.00  0.00     0.027 C 
BRANCH  16  17
ATOM     17  C   UNL     1       1.349  -0.556   3.693  1.00  0.00     0.004 C 
BRANCH  17  18
ATOM     18  C   UNL     1       1.889   0.844   3.343  1.00  0.00     0.000 C 
BRANCH  18  19
ATOM     19  C   UNL     1       2.946   0.879   2.227  1.00  0.00    -0.003 C 
ATOM     20  C   UNL     1       4.204   0.080   2.566  1.00  0.00     0.004 C 
ENDBRANCH  18  19
ENDBRANCH  17  18
ENDBRANCH  16  17
ENDBRANCH  15  16
ENDBRANCH  13  14
ENDBRANCH  12  13
ENDBRANCH   1  11
TORSDOF 14
ENDMDL
