MODEL 1
REMARK VINA RESULT:    -3.141      0.000      0.000
REMARK INTER + INTRA:          -4.032
REMARK INTER:                  -3.876
REMARK INTRA:                  -0.156
REMARK UNBOUND:                -0.156
REMARK SMILES CCOC(=O)c1ccc(O)c(O)c1
REMARK SMILES IDX 4 1 5 2 3 3 2 4 1 5 6 6 13 7 7 8 11 9 8 10 9 11 12 12 10 14
REMARK H PARENT 12 13 10 15
REMARK Flexibility Score: inf
ROOT
ATOM      1  C   UNL     1      -9.438   8.896   1.272  1.00  0.00     0.338 C 
ATOM      2  O   UNL     1     -10.043   9.933   1.662  1.00  0.00    -0.246 OA
ENDROOT
BRANCH   1   3
ATOM      3  O   UNL     1      -9.261   7.815   2.146  1.00  0.00    -0.462 OA
BRANCH   3   4
ATOM      4  C   UNL     1     -10.123   6.679   2.176  1.00  0.00     0.230 C 
ATOM      5  C   UNL     1      -9.985   5.933   3.498  1.00  0.00     0.049 C 
ENDBRANCH   3   4
ENDBRANCH   1   3
BRANCH   1   6
ATOM      6  C   UNL     1      -8.922   8.814  -0.112  1.00  0.00     0.064 A 
ATOM      7  C   UNL     1      -9.769   8.449  -1.175  1.00  0.00     0.065 A 
ATOM      8  C   UNL     1      -7.574   9.103  -0.384  1.00  0.00     0.020 A 
ATOM      9  C   UNL     1      -9.278   8.373  -2.486  1.00  0.00     0.158 A 
ATOM     10  C   UNL     1      -7.083   9.028  -1.690  1.00  0.00     0.051 A 
ATOM     11  C   UNL     1      -7.927   8.664  -2.744  1.00  0.00     0.157 A 
BRANCH   9  12
ATOM     12  O   UNL     1     -10.125   8.010  -3.532  1.00  0.00    -0.504 OA
ATOM     13  H   UNL     1     -10.288   8.625  -4.321  1.00  0.00     0.293 HD
ENDBRANCH   9  12
BRANCH  11  14
ATOM     14  O   UNL     1      -7.409   8.598  -4.036  1.00  0.00    -0.504 OA
ATOM     15  H   UNL     1      -6.430   8.405  -4.214  1.00  0.00     0.293 HD
ENDBRANCH  11  14
ENDBRANCH   1   6
TORSDOF 5
ENDMDL
MODEL 2
REMARK VINA RESULT:    -3.122     19.455     21.496
REMARK INTER + INTRA:          -4.008
REMARK INTER:                  -3.746
REMARK INTRA:                  -0.262
REMARK UNBOUND:                -0.156
REMARK SMILES CCOC(=O)c1ccc(O)c(O)c1
REMARK SMILES IDX 4 1 5 2 3 3 2 4 1 5 6 6 13 7 7 8 11 9 8 10 9 11 12 12 10 14
REMARK H PARENT 12 13 10 15
REMARK Flexibility Score: inf
ROOT
ATOM      1  C   UNL     1       1.219  -9.493   7.754  1.00  0.00     0.338 C 
ATOM      2  O   UNL     1       1.057  -9.920   6.577  1.00  0.00    -0.246 OA
ENDROOT
BRANCH   1   3
ATOM      3  O   UNL     1       2.328  -9.905   8.504  1.00  0.00    -0.462 OA
BRANCH   3   4
ATOM      4  C   UNL     1       3.644 -10.021   7.964  1.00  0.00     0.230 C 
ATOM      5  C   UNL     1       4.152  -8.666   7.486  1.00  0.00     0.049 C 
ENDBRANCH   3   4
ENDBRANCH   1   3
BRANCH   1   6
ATOM      6  C   UNL     1       0.244  -8.550   8.342  1.00  0.00     0.064 A 
ATOM      7  C   UNL     1       0.674  -7.356   8.950  1.00  0.00     0.065 A 
ATOM      8  C   UNL     1      -1.132  -8.833   8.297  1.00  0.00     0.020 A 
ATOM      9  C   UNL     1      -0.253  -6.462   9.506  1.00  0.00     0.158 A 
ATOM     10  C   UNL     1      -2.057  -7.944   8.851  1.00  0.00     0.051 A 
ATOM     11  C   UNL     1      -1.625  -6.759   9.455  1.00  0.00     0.157 A 
BRANCH   9  12
ATOM     12  O   UNL     1       0.184  -5.283  10.107  1.00  0.00    -0.504 OA
ATOM     13  H   UNL     1       0.728  -5.292  10.962  1.00  0.00     0.293 HD
ENDBRANCH   9  12
BRANCH  11  14
ATOM     14  O   UNL     1      -2.572  -5.891   9.998  1.00  0.00    -0.504 OA
ATOM     15  H   UNL     1      -3.367  -5.560   9.466  1.00  0.00     0.293 HD
ENDBRANCH  11  14
ENDBRANCH   1   6
TORSDOF 5
ENDMDL
MODEL 3
REMARK VINA RESULT:    -3.096     16.215     17.519
REMARK INTER + INTRA:          -3.976
REMARK INTER:                  -3.749
REMARK INTRA:                  -0.227
REMARK UNBOUND:                -0.156
REMARK SMILES CCOC(=O)c1ccc(O)c(O)c1
REMARK SMILES IDX 4 1 5 2 3 3 2 4 1 5 6 6 13 7 7 8 11 9 8 10 9 11 12 12 10 14
REMARK H PARENT 12 13 10 15
REMARK Flexibility Score: inf
ROOT
ATOM      1  C   UNL     1      -9.782  -8.700  -2.047  1.00  0.00     0.338 C 
ATOM      2  O   UNL     1     -10.088  -9.792  -2.600  1.00  0.00    -0.246 OA
ENDROOT
BRANCH   1   3
ATOM      3  O   UNL     1     -10.032  -7.487  -2.702  1.00  0.00    -0.462 OA
BRANCH   3   4
ATOM      4  C   UNL     1      -9.782  -7.276  -4.091  1.00  0.00     0.230 C 
ATOM      5  C   UNL     1      -8.309  -7.496  -4.412  1.00  0.00     0.049 C 
ENDBRANCH   3   4
ENDBRANCH   1   3
BRANCH   1   6
ATOM      6  C   UNL     1      -9.167  -8.695  -0.702  1.00  0.00     0.064 A 
ATOM      7  C   UNL     1      -9.938  -8.410   0.441  1.00  0.00     0.065 A 
ATOM      8  C   UNL     1      -7.800  -8.980  -0.546  1.00  0.00     0.020 A 
ATOM      9  C   UNL     1      -9.353  -8.407   1.715  1.00  0.00     0.158 A 
ATOM     10  C   UNL     1      -7.215  -8.978   0.723  1.00  0.00     0.051 A 
ATOM     11  C   UNL     1      -7.984  -8.693   1.855  1.00  0.00     0.157 A 
BRANCH   9  12
ATOM     12  O   UNL     1     -10.125  -8.123   2.840  1.00  0.00    -0.504 OA
ATOM     13  H   UNL     1      -9.819  -8.379   3.773  1.00  0.00     0.293 HD
ENDBRANCH   9  12
BRANCH  11  14
ATOM     14  O   UNL     1      -7.373  -8.699   3.109  1.00  0.00    -0.504 OA
ATOM     15  H   UNL     1      -6.676  -9.388   3.365  1.00  0.00     0.293 HD
ENDBRANCH  11  14
ENDBRANCH   1   6
TORSDOF 5
ENDMDL
MODEL 4
REMARK VINA RESULT:    -3.091      0.941      1.928
REMARK INTER + INTRA:          -3.969
REMARK INTER:                  -3.676
REMARK INTRA:                  -0.294
REMARK UNBOUND:                -0.156
REMARK SMILES CCOC(=O)c1ccc(O)c(O)c1
REMARK SMILES IDX 4 1 5 2 3 3 2 4 1 5 6 6 13 7 7 8 11 9 8 10 9 11 12 12 10 14
REMARK H PARENT 12 13 10 15
REMARK Flexibility Score: inf
ROOT
ATOM      1  C   UNL     1      -9.174   8.726   0.975  1.00  0.00     0.338 C 
ATOM      2  O   UNL     1      -9.757   9.708   1.512  1.00  0.00    -0.246 OA
ENDROOT
BRANCH   1   3
ATOM      3  O   UNL     1      -8.676   7.684   1.769  1.00  0.00    -0.462 OA
BRANCH   3   4
ATOM      4  C   UNL     1      -9.507   6.813   2.534  1.00  0.00     0.230 C 
ATOM      5  C   UNL     1     -10.123   5.738   1.646  1.00  0.00     0.049 C 
ENDBRANCH   3   4
ENDBRANCH   1   3
BRANCH   1   6
ATOM      6  C   UNL     1      -9.021   8.666  -0.496  1.00  0.00     0.064 A 
ATOM      7  C   UNL     1      -7.785   8.958  -1.103  1.00  0.00     0.065 A 
ATOM      8  C   UNL     1     -10.112   8.313  -1.308  1.00  0.00     0.020 A 
ATOM      9  C   UNL     1      -7.643   8.900  -2.497  1.00  0.00     0.158 A 
ATOM     10  C   UNL     1      -9.972   8.255  -2.697  1.00  0.00     0.051 A 
ATOM     11  C   UNL     1      -8.743   8.546  -3.297  1.00  0.00     0.157 A 
BRANCH   9  12
ATOM     12  O   UNL     1      -6.415   9.191  -3.089  1.00  0.00    -0.504 OA
ATOM     13  H   UNL     1      -5.905   8.496  -3.623  1.00  0.00     0.293 HD
ENDBRANCH   9  12
BRANCH  11  14
ATOM     14  O   UNL     1      -8.633   8.479  -4.685  1.00  0.00    -0.504 OA
ATOM     15  H   UNL     1      -7.756   8.644  -5.164  1.00  0.00     0.293 HD
ENDBRANCH  11  14
ENDBRANCH   1   6
TORSDOF 5
ENDMDL
MODEL 5
REMARK VINA RESULT:    -3.035     19.429     21.482
REMARK INTER + INTRA:          -3.901
REMARK INTER:                  -3.598
REMARK INTRA:                  -0.302
REMARK UNBOUND:                -0.156
REMARK SMILES CCOC(=O)c1ccc(O)c(O)c1
REMARK SMILES IDX 4 1 5 2 3 3 2 4 1 5 6 6 13 7 7 8 11 9 8 10 9 11 12 12 10 14
REMARK H PARENT 12 13 10 15
REMARK Flexibility Score: inf
ROOT
ATOM      1  C   UNL     1       1.730  -9.385   8.486  1.00  0.00     0.338 C 
ATOM      2  O   UNL     1       2.266  -9.974   9.465  1.00  0.00    -0.246 OA
ENDROOT
BRANCH   1   3
ATOM      3  O   UNL     1       2.326  -9.441   7.220  1.00  0.00    -0.462 OA
BRANCH   3   4
ATOM      4  C   UNL     1       3.649  -8.977   6.952  1.00  0.00     0.230 C 
ATOM      5  C   UNL     1       3.752  -7.477   7.194  1.00  0.00     0.049 C 
ENDBRANCH   3   4
ENDBRANCH   1   3
BRANCH   1   6
ATOM      6  C   UNL     1       0.465  -8.641   8.670  1.00  0.00     0.064 A 
ATOM      7  C   UNL     1      -0.777  -9.264   8.442  1.00  0.00     0.065 A 
ATOM      8  C   UNL     1       0.486  -7.297   9.080  1.00  0.00     0.020 A 
ATOM      9  C   UNL     1      -1.975  -8.556   8.618  1.00  0.00     0.158 A 
ATOM     10  C   UNL     1      -0.707  -6.590   9.256  1.00  0.00     0.051 A 
ATOM     11  C   UNL     1      -1.938  -7.212   9.027  1.00  0.00     0.157 A 
BRANCH   9  12
ATOM     12  O   UNL     1      -3.199  -9.183   8.389  1.00  0.00    -0.504 OA
ATOM     13  H   UNL     1      -3.650  -9.150   7.482  1.00  0.00     0.293 HD
ENDBRANCH   9  12
BRANCH  11  14
ATOM     14  O   UNL     1      -3.111  -6.482   9.211  1.00  0.00    -0.504 OA
ATOM     15  H   UNL     1      -3.958  -6.906   9.573  1.00  0.00     0.293 HD
ENDBRANCH  11  14
ENDBRANCH   1   6
TORSDOF 5
ENDMDL
MODEL 6
REMARK VINA RESULT:    -3.015     18.468     20.066
REMARK INTER + INTRA:          -3.876
REMARK INTER:                  -3.621
REMARK INTRA:                  -0.255
REMARK UNBOUND:                -0.156
REMARK SMILES CCOC(=O)c1ccc(O)c(O)c1
REMARK SMILES IDX 4 1 5 2 3 3 2 4 1 5 6 6 13 7 7 8 11 9 8 10 9 11 12 12 10 14
REMARK H PARENT 12 13 10 15
REMARK Flexibility Score: inf
ROOT
ATOM      1  C   UNL     1       0.675  -6.211   8.984  1.00  0.00     0.338 C 
ATOM      2  O   UNL     1       1.490  -6.686   8.145  1.00  0.00    -0.246 OA
ENDROOT
BRANCH   1   3
ATOM      3  O   UNL     1       1.040  -5.112   9.772  1.00  0.00    -0.462 OA
BRANCH   3   4
ATOM      4  C   UNL     1       1.859  -4.043   9.300  1.00  0.00     0.230 C 
ATOM      5  C   UNL     1       1.037  -3.055   8.481  1.00  0.00     0.049 C 
ENDBRANCH   3   4
ENDBRANCH   1   3
BRANCH   1   6
ATOM      6  C   UNL     1      -0.670  -6.809   9.133  1.00  0.00     0.064 A 
ATOM      7  C   UNL     1      -0.960  -8.074   8.589  1.00  0.00     0.065 A 
ATOM      8  C   UNL     1      -1.679  -6.118   9.826  1.00  0.00     0.020 A 
ATOM      9  C   UNL     1      -2.236  -8.638   8.732  1.00  0.00     0.158 A 
ATOM     10  C   UNL     1      -2.950  -6.679   9.970  1.00  0.00     0.051 A 
ATOM     11  C   UNL     1      -3.235  -7.936   9.427  1.00  0.00     0.157 A 
BRANCH   9  12
ATOM     12  O   UNL     1      -2.513  -9.891   8.189  1.00  0.00    -0.504 OA
ATOM     13  H   UNL     1      -2.082 -10.203   7.326  1.00  0.00     0.293 HD
ENDBRANCH   9  12
BRANCH  11  14
ATOM     14  O   UNL     1      -4.513  -8.470   9.587  1.00  0.00    -0.504 OA
ATOM     15  H   UNL     1      -4.682  -9.469   9.595  1.00  0.00     0.293 HD
ENDBRANCH  11  14
ENDBRANCH   1   6
TORSDOF 5
ENDMDL
MODEL 7
REMARK VINA RESULT:    -2.975     16.418     17.705
REMARK INTER + INTRA:          -3.826
REMARK INTER:                  -3.549
REMARK INTRA:                  -0.277
REMARK UNBOUND:                -0.156
REMARK SMILES CCOC(=O)c1ccc(O)c(O)c1
REMARK SMILES IDX 4 1 5 2 3 3 2 4 1 5 6 6 13 7 7 8 11 9 8 10 9 11 12 12 10 14
REMARK H PARENT 12 13 10 15
REMARK Flexibility Score: inf
ROOT
ATOM      1  C   UNL     1      -7.537  -8.098  -1.092  1.00  0.00     0.338 C 
ATOM      2  O   UNL     1      -6.404  -8.228  -1.633  1.00  0.00    -0.246 OA
ENDROOT
BRANCH   1   3
ATOM      3  O   UNL     1      -8.613  -7.589  -1.830  1.00  0.00    -0.462 OA
BRANCH   3   4
ATOM      4  C   UNL     1      -9.080  -8.173  -3.046  1.00  0.00     0.230 C 
ATOM      5  C   UNL     1     -10.026  -9.332  -2.759  1.00  0.00     0.049 C 
ENDBRANCH   3   4
ENDBRANCH   1   3
BRANCH   1   6
ATOM      6  C   UNL     1      -7.734  -8.491   0.320  1.00  0.00     0.064 A 
ATOM      7  C   UNL     1      -8.840  -8.018   1.051  1.00  0.00     0.065 A 
ATOM      8  C   UNL     1      -6.817  -9.348   0.952  1.00  0.00     0.020 A 
ATOM      9  C   UNL     1      -9.026  -8.393   2.389  1.00  0.00     0.158 A 
ATOM     10  C   UNL     1      -7.001  -9.723   2.286  1.00  0.00     0.051 A 
ATOM     11  C   UNL     1      -8.101  -9.250   3.009  1.00  0.00     0.157 A 
BRANCH   9  12
ATOM     12  O   UNL     1     -10.125  -7.918   3.104  1.00  0.00    -0.504 OA
ATOM     13  H   UNL     1     -10.587  -8.486   3.806  1.00  0.00     0.293 HD
ENDBRANCH   9  12
BRANCH  11  14
ATOM     14  O   UNL     1      -8.258  -9.641   4.338  1.00  0.00    -0.504 OA
ATOM     15  H   UNL     1      -9.161  -9.637   4.797  1.00  0.00     0.293 HD
ENDBRANCH  11  14
ENDBRANCH   1   6
TORSDOF 5
ENDMDL
MODEL 8
REMARK VINA RESULT:    -2.914     19.140     21.117
REMARK INTER + INTRA:          -3.751
REMARK INTER:                  -3.464
REMARK INTRA:                  -0.288
REMARK UNBOUND:                -0.156
REMARK SMILES CCOC(=O)c1ccc(O)c(O)c1
REMARK SMILES IDX 4 1 5 2 3 3 2 4 1 5 6 6 13 7 7 8 11 9 8 10 9 11 12 12 10 14
REMARK H PARENT 12 13 10 15
REMARK Flexibility Score: inf
ROOT
ATOM      1  C   UNL     1       1.365  -9.493   8.287  1.00  0.00     0.338 C 
ATOM      2  O   UNL     1       2.093  -9.999   9.185  1.00  0.00    -0.246 OA
ENDROOT
BRANCH   1   3
ATOM      3  O   UNL     1       1.492  -9.918   6.958  1.00  0.00    -0.462 OA
BRANCH   3   4
ATOM      4  C   UNL     1       1.493  -9.026   5.844  1.00  0.00     0.230 C 
ATOM      5  C   UNL     1       0.512  -9.497   4.777  1.00  0.00     0.049 C 
ENDBRANCH   3   4
ENDBRANCH   1   3
BRANCH   1   6
ATOM      6  C   UNL     1       0.369  -8.457   8.635  1.00  0.00     0.064 A 
ATOM      7  C   UNL     1       0.778  -7.163   9.010  1.00  0.00     0.065 A 
ATOM      8  C   UNL     1      -1.004  -8.751   8.593  1.00  0.00     0.020 A 
ATOM      9  C   UNL     1      -0.168  -6.182   9.339  1.00  0.00     0.158 A 
ATOM     10  C   UNL     1      -1.948  -7.774   8.920  1.00  0.00     0.051 A 
ATOM     11  C   UNL     1      -1.539  -6.491   9.293  1.00  0.00     0.157 A 
BRANCH   9  12
ATOM     12  O   UNL     1       0.247  -4.904   9.709  1.00  0.00    -0.504 OA
ATOM     13  H   UNL     1       0.873  -4.359   9.126  1.00  0.00     0.293 HD
ENDBRANCH   9  12
BRANCH  11  14
ATOM     14  O   UNL     1      -2.504  -5.537   9.614  1.00  0.00    -0.504 OA
ATOM     15  H   UNL     1      -2.484  -4.600   9.227  1.00  0.00     0.293 HD
ENDBRANCH  11  14
ENDBRANCH   1   6
TORSDOF 5
ENDMDL
MODEL 9
REMARK VINA RESULT:    -0.643     20.790     21.788
REMARK INTER + INTRA:          -0.949
REMARK INTER:                  -0.784
REMARK INTRA:                  -0.165
REMARK UNBOUND:                -0.156
REMARK SMILES CCOC(=O)c1ccc(O)c(O)c1
REMARK SMILES IDX 4 1 5 2 3 3 2 4 1 5 6 6 13 7 7 8 11 9 8 10 9 11 12 12 10 14
REMARK H PARENT 12 13 10 15
REMARK Flexibility Score: inf
ROOT
ATOM      1  C   UNL     1       8.801  -1.543   9.748  1.00  0.00     0.338 C 
ATOM      2  O   UNL     1       9.815  -2.194  10.125  1.00  0.00    -0.246 OA
ENDROOT
BRANCH   1   3
ATOM      3  O   UNL     1       7.517  -2.062   9.956  1.00  0.00    -0.462 OA
BRANCH   3   4
ATOM      4  C   UNL     1       7.059  -3.284   9.379  1.00  0.00     0.230 C 
ATOM      5  C   UNL     1       5.621  -3.146   8.895  1.00  0.00     0.049 C 
ENDBRANCH   3   4
ENDBRANCH   1   3
BRANCH   1   6
ATOM      6  C   UNL     1       8.965  -0.227   9.094  1.00  0.00     0.064 A 
ATOM      7  C   UNL     1       8.725   0.964   9.804  1.00  0.00     0.065 A 
ATOM      8  C   UNL     1       9.366  -0.148   7.749  1.00  0.00     0.020 A 
ATOM      9  C   UNL     1       8.882   2.211   9.182  1.00  0.00     0.158 A 
ATOM     10  C   UNL     1       9.523   1.093   7.128  1.00  0.00     0.051 A 
ATOM     11  C   UNL     1       9.283   2.274   7.837  1.00  0.00     0.157 A 
BRANCH   9  12
ATOM     12  O   UNL     1       8.642   3.385   9.894  1.00  0.00    -0.504 OA
ATOM     13  H   UNL     1       8.565   3.387  10.905  1.00  0.00     0.293 HD
ENDBRANCH   9  12
BRANCH  11  14
ATOM     14  O   UNL     1       9.448   3.499   7.190  1.00  0.00    -0.504 OA
ATOM     15  H   UNL     1      10.104   3.621   6.428  1.00  0.00     0.293 HD
ENDBRANCH  11  14
ENDBRANCH   1   6
TORSDOF 5
ENDMDL
