MODEL 1
REMARK VINA RESULT:    10.045      0.000      0.000
REMARK INTER + INTRA:          15.510
REMARK INTER:                  15.917
REMARK INTRA:                  -0.407
REMARK UNBOUND:                -0.407
REMARK SMILES CCCCCCCCCCCC(=O)[O-]
REMARK SMILES IDX 7 1 8 2 9 3 10 4 11 5 12 6 13 7 14 8 6 9 5 10 4 11 3 12 2 13
REMARK SMILES IDX 1 14
REMARK H PARENT
REMARK Flexibility Score: inf
ROOT
ATOM      1  C   UNL     1      14.505   5.967   8.147  1.00  0.00     0.000 C 
ENDROOT
BRANCH   1   2
ATOM      2  C   UNL     1      13.711   7.214   7.720  1.00  0.00     0.000 C 
BRANCH   2   3
ATOM      3  C   UNL     1      12.196   6.992   7.534  1.00  0.00     0.000 C 
BRANCH   3   4
ATOM      4  C   UNL     1      11.442   6.545   8.799  1.00  0.00     0.006 C 
BRANCH   4   5
ATOM      5  C   UNL     1      10.231   5.658   8.488  1.00  0.00     0.053 C 
BRANCH   5   6
ATOM      6  C   UNL     1      10.652   4.230   8.344  1.00  0.00     0.041 C 
ATOM      7  O   UNL     1      11.057   3.797   7.234  1.00  0.00    -0.550 OA
ATOM      8  O   UNL     1      10.646   3.389   9.450  1.00  0.00    -0.550 OA
ENDBRANCH   5   6
ENDBRANCH   4   5
ENDBRANCH   3   4
ENDBRANCH   2   3
ENDBRANCH   1   2
BRANCH   1   9
ATOM      9  C   UNL     1      15.674   5.651   7.203  1.00  0.00     0.000 C 
BRANCH   9  10
ATOM     10  C   UNL     1      17.017   6.012   7.849  1.00  0.00    -0.000 C 
BRANCH  10  11
ATOM     11  C   UNL     1      16.807   6.675   9.219  1.00  0.00    -0.000 C 
BRANCH  11  12
ATOM     12  C   UNL     1      18.125   7.134   9.863  1.00  0.00    -0.000 C 
BRANCH  12  13
ATOM     13  C   UNL     1      18.011   8.515  10.522  1.00  0.00    -0.003 C 
ATOM     14  C   UNL     1      18.125   9.629   9.485  1.00  0.00     0.004 C 
ENDBRANCH  12  13
ENDBRANCH  11  12
ENDBRANCH  10  11
ENDBRANCH   9  10
ENDBRANCH   1   9
TORSDOF 10
ENDMDL
MODEL 2
REMARK VINA RESULT:    10.089      3.229      6.699
REMARK INTER + INTRA:          15.580
REMARK INTER:                  16.252
REMARK INTRA:                  -0.672
REMARK UNBOUND:                -0.407
REMARK SMILES CCCCCCCCCCCC(=O)[O-]
REMARK SMILES IDX 7 1 8 2 9 3 10 4 11 5 12 6 13 7 14 8 6 9 5 10 4 11 3 12 2 13
REMARK SMILES IDX 1 14
REMARK H PARENT
REMARK Flexibility Score: inf
ROOT
ATOM      1  C   UNL     1      14.754   6.011   7.837  1.00  0.00     0.000 C 
ENDROOT
BRANCH   1   2
ATOM      2  C   UNL     1      15.982   5.640   6.986  1.00  0.00     0.000 C 
BRANCH   2   3
ATOM      3  C   UNL     1      17.328   5.658   7.736  1.00  0.00     0.000 C 
BRANCH   3   4
ATOM      4  C   UNL     1      17.233   5.986   9.237  1.00  0.00     0.006 C 
BRANCH   4   5
ATOM      5  C   UNL     1      18.125   7.165   9.646  1.00  0.00     0.053 C 
BRANCH   5   6
ATOM      6  C   UNL     1      17.311   8.414   9.776  1.00  0.00     0.041 C 
ATOM      7  O   UNL     1      16.076   8.344  10.012  1.00  0.00    -0.550 OA
ATOM      8  O   UNL     1      17.925   9.656   9.686  1.00  0.00    -0.550 OA
ENDBRANCH   5   6
ENDBRANCH   4   5
ENDBRANCH   3   4
ENDBRANCH   2   3
ENDBRANCH   1   2
BRANCH   1   9
ATOM      9  C   UNL     1      14.125   7.350   7.426  1.00  0.00     0.000 C 
BRANCH   9  10
ATOM     10  C   UNL     1      12.595   7.255   7.402  1.00  0.00    -0.000 C 
BRANCH  10  11
ATOM     11  C   UNL     1      12.081   6.378   8.554  1.00  0.00    -0.000 C 
BRANCH  11  12
ATOM     12  C   UNL     1      10.624   5.932   8.353  1.00  0.00    -0.000 C 
BRANCH  12  13
ATOM     13  C   UNL     1      10.514   4.511   7.782  1.00  0.00    -0.003 C 
ATOM     14  C   UNL     1      10.756   3.464   8.865  1.00  0.00     0.004 C 
ENDBRANCH  12  13
ENDBRANCH  11  12
ENDBRANCH  10  11
ENDBRANCH   9  10
ENDBRANCH   1   9
TORSDOF 10
ENDMDL
MODEL 3
REMARK VINA RESULT:    10.099      3.282      6.602
REMARK INTER + INTRA:          15.595
REMARK INTER:                  14.653
REMARK INTRA:                   0.942
REMARK UNBOUND:                -0.407
REMARK SMILES CCCCCCCCCCCC(=O)[O-]
REMARK SMILES IDX 7 1 8 2 9 3 10 4 11 5 12 6 13 7 14 8 6 9 5 10 4 11 3 12 2 13
REMARK SMILES IDX 1 14
REMARK H PARENT
REMARK Flexibility Score: inf
ROOT
ATOM      1  C   UNL     1      14.140   6.283   8.374  1.00  0.00     0.000 C 
ENDROOT
BRANCH   1   2
ATOM      2  C   UNL     1      14.783   5.282   7.398  1.00  0.00     0.000 C 
BRANCH   2   3
ATOM      3  C   UNL     1      16.240   5.596   7.005  1.00  0.00     0.000 C 
BRANCH   3   4
ATOM      4  C   UNL     1      17.126   6.118   8.150  1.00  0.00     0.006 C 
BRANCH   4   5
ATOM      5  C   UNL     1      16.330   6.866   9.226  1.00  0.00     0.053 C 
BRANCH   5   6
ATOM      6  C   UNL     1      17.169   7.941   9.842  1.00  0.00     0.041 C 
ATOM      7  O   UNL     1      16.981   9.147   9.533  1.00  0.00    -0.550 OA
ATOM      8  O   UNL     1      18.125   7.616  10.796  1.00  0.00    -0.550 OA
ENDBRANCH   5   6
ENDBRANCH   4   5
ENDBRANCH   3   4
ENDBRANCH   2   3
ENDBRANCH   1   2
BRANCH   1   9
ATOM      9  C   UNL     1      13.384   7.413   7.660  1.00  0.00     0.000 C 
BRANCH   9  10
ATOM     10  C   UNL     1      11.933   7.008   7.373  1.00  0.00    -0.000 C 
BRANCH  10  11
ATOM     11  C   UNL     1      11.225   6.554   8.658  1.00  0.00    -0.000 C 
BRANCH  11  12
ATOM     12  C   UNL     1      10.202   5.433   8.407  1.00  0.00    -0.000 C 
BRANCH  12  13
ATOM     13  C   UNL     1      10.867   4.092   8.065  1.00  0.00    -0.003 C 
ATOM     14  C   UNL     1      10.614   3.060   9.161  1.00  0.00     0.004 C 
ENDBRANCH  12  13
ENDBRANCH  11  12
ENDBRANCH  10  11
ENDBRANCH   9  10
ENDBRANCH   1   9
TORSDOF 10
ENDMDL
MODEL 4
REMARK VINA RESULT:    10.482      0.780      1.449
REMARK INTER + INTRA:          16.203
REMARK INTER:                  16.579
REMARK INTRA:                  -0.376
REMARK UNBOUND:                -0.407
REMARK SMILES CCCCCCCCCCCC(=O)[O-]
REMARK SMILES IDX 7 1 8 2 9 3 10 4 11 5 12 6 13 7 14 8 6 9 5 10 4 11 3 12 2 13
REMARK SMILES IDX 1 14
REMARK H PARENT
REMARK Flexibility Score: inf
ROOT
ATOM      1  C   UNL     1      15.539   6.033   7.093  1.00  0.00     0.000 C 
ENDROOT
BRANCH   1   2
ATOM      2  C   UNL     1      14.272   5.750   7.920  1.00  0.00     0.000 C 
BRANCH   2   3
ATOM      3  C   UNL     1      13.326   6.955   8.100  1.00  0.00     0.000 C 
BRANCH   3   4
ATOM      4  C   UNL     1      11.903   6.754   7.549  1.00  0.00     0.006 C 
BRANCH   4   5
ATOM      5  C   UNL     1      10.994   5.985   8.515  1.00  0.00     0.053 C 
BRANCH   5   6
ATOM      6  C   UNL     1      10.716   4.612   7.989  1.00  0.00     0.041 C 
ATOM      7  O   UNL     1      10.652   3.632   8.777  1.00  0.00    -0.550 OA
ATOM      8  O   UNL     1      10.480   4.421   6.634  1.00  0.00    -0.550 OA
ENDBRANCH   5   6
ENDBRANCH   4   5
ENDBRANCH   3   4
ENDBRANCH   2   3
ENDBRANCH   1   2
BRANCH   1   9
ATOM      9  C   UNL     1      16.809   5.448   7.728  1.00  0.00     0.000 C 
BRANCH   9  10
ATOM     10  C   UNL     1      17.521   6.491   8.597  1.00  0.00    -0.000 C 
BRANCH  10  11
ATOM     11  C   UNL     1      16.597   6.998   9.714  1.00  0.00    -0.000 C 
BRANCH  11  12
ATOM     12  C   UNL     1      16.638   8.527   9.868  1.00  0.00    -0.000 C 
BRANCH  12  13
ATOM     13  C   UNL     1      18.068   9.085   9.859  1.00  0.00    -0.003 C 
ATOM     14  C   UNL     1      18.124  10.441   9.161  1.00  0.00     0.004 C 
ENDBRANCH  12  13
ENDBRANCH  11  12
ENDBRANCH  10  11
ENDBRANCH   9  10
ENDBRANCH   1   9
TORSDOF 10
ENDMDL
MODEL 5
REMARK VINA RESULT:    10.933      1.838      3.041
REMARK INTER + INTRA:          16.917
REMARK INTER:                  17.564
REMARK INTRA:                  -0.646
REMARK UNBOUND:                -0.407
REMARK SMILES CCCCCCCCCCCC(=O)[O-]
REMARK SMILES IDX 7 1 8 2 9 3 10 4 11 5 12 6 13 7 14 8 6 9 5 10 4 11 3 12 2 13
REMARK SMILES IDX 1 14
REMARK H PARENT
REMARK Flexibility Score: inf
ROOT
ATOM      1  C   UNL     1      12.896   7.626   7.454  1.00  0.00     0.000 C 
ENDROOT
BRANCH   1   2
ATOM      2  C   UNL     1      12.185   6.301   7.785  1.00  0.00     0.000 C 
BRANCH   2   3
ATOM      3  C   UNL     1      10.857   6.447   8.555  1.00  0.00     0.000 C 
BRANCH   3   4
ATOM      4  C   UNL     1       9.927   5.222   8.488  1.00  0.00     0.006 C 
BRANCH   4   5
ATOM      5  C   UNL     1      10.523   4.065   7.677  1.00  0.00     0.053 C 
BRANCH   5   6
ATOM      6  C   UNL     1      10.616   2.831   8.519  1.00  0.00     0.041 C 
ATOM      7  O   UNL     1      10.891   1.722   7.990  1.00  0.00    -0.550 OA
ATOM      8  O   UNL     1      10.448   2.914   9.896  1.00  0.00    -0.550 OA
ENDBRANCH   5   6
ENDBRANCH   4   5
ENDBRANCH   3   4
ENDBRANCH   2   3
ENDBRANCH   1   2
BRANCH   1   9
ATOM      9  C   UNL     1      14.416   7.556   7.658  1.00  0.00     0.000 C 
BRANCH   9  10
ATOM     10  C   UNL     1      14.871   6.113   7.909  1.00  0.00    -0.000 C 
BRANCH  10  11
ATOM     11  C   UNL     1      16.298   6.078   8.475  1.00  0.00    -0.000 C 
BRANCH  11  12
ATOM     12  C   UNL     1      17.334   5.606   7.441  1.00  0.00    -0.000 C 
BRANCH  12  13
ATOM     13  C   UNL     1      16.688   5.125   6.134  1.00  0.00    -0.003 C 
ATOM     14  C   UNL     1      17.001   3.654   5.876  1.00  0.00     0.004 C 
ENDBRANCH  12  13
ENDBRANCH  11  12
ENDBRANCH  10  11
ENDBRANCH   9  10
ENDBRANCH   1   9
TORSDOF 10
ENDMDL
MODEL 6
REMARK VINA RESULT:    11.044      2.689      6.474
REMARK INTER + INTRA:          17.094
REMARK INTER:                  17.128
REMARK INTRA:                  -0.034
REMARK UNBOUND:                -0.407
REMARK SMILES CCCCCCCCCCCC(=O)[O-]
REMARK SMILES IDX 7 1 8 2 9 3 10 4 11 5 12 6 13 7 14 8 6 9 5 10 4 11 3 12 2 13
REMARK SMILES IDX 1 14
REMARK H PARENT
REMARK Flexibility Score: inf
ROOT
ATOM      1  C   UNL     1      14.774   6.449   8.555  1.00  0.00     0.000 C 
ENDROOT
BRANCH   1   2
ATOM      2  C   UNL     1      15.784   7.341   9.298  1.00  0.00     0.000 C 
BRANCH   2   3
ATOM      3  C   UNL     1      17.183   6.723   9.493  1.00  0.00     0.000 C 
BRANCH   3   4
ATOM      4  C   UNL     1      17.998   6.533   8.201  1.00  0.00     0.006 C 
BRANCH   4   5
ATOM      5  C   UNL     1      18.092   5.066   7.767  1.00  0.00     0.053 C 
BRANCH   5   6
ATOM      6  C   UNL     1      17.163   4.800   6.624  1.00  0.00     0.041 C 
ATOM      7  O   UNL     1      16.300   5.655   6.297  1.00  0.00    -0.550 OA
ATOM      8  O   UNL     1      17.284   3.628   5.888  1.00  0.00    -0.550 OA
ENDBRANCH   5   6
ENDBRANCH   4   5
ENDBRANCH   3   4
ENDBRANCH   2   3
ENDBRANCH   1   2
BRANCH   1   9
ATOM      9  C   UNL     1      13.515   7.209   8.115  1.00  0.00     0.000 C 
BRANCH   9  10
ATOM     10  C   UNL     1      12.428   6.242   7.631  1.00  0.00    -0.000 C 
BRANCH  10  11
ATOM     11  C   UNL     1      11.049   6.651   8.169  1.00  0.00    -0.000 C 
BRANCH  11  12
ATOM     12  C   UNL     1      10.238   5.453   8.691  1.00  0.00    -0.000 C 
BRANCH  12  13
ATOM     13  C   UNL     1      10.705   4.118   8.095  1.00  0.00    -0.003 C 
ATOM     14  C   UNL     1      10.528   2.979   9.095  1.00  0.00     0.004 C 
ENDBRANCH  12  13
ENDBRANCH  11  12
ENDBRANCH  10  11
ENDBRANCH   9  10
ENDBRANCH   1   9
TORSDOF 10
ENDMDL
MODEL 7
REMARK VINA RESULT:    11.105      1.480      3.010
REMARK INTER + INTRA:          17.190
REMARK INTER:                  17.960
REMARK INTRA:                  -0.770
REMARK UNBOUND:                -0.407
REMARK SMILES CCCCCCCCCCCC(=O)[O-]
REMARK SMILES IDX 7 1 8 2 9 3 10 4 11 5 12 6 13 7 14 8 6 9 5 10 4 11 3 12 2 13
REMARK SMILES IDX 1 14
REMARK H PARENT
REMARK Flexibility Score: inf
ROOT
ATOM      1  C   UNL     1      15.053   6.410   8.747  1.00  0.00     0.000 C 
ENDROOT
BRANCH   1   2
ATOM      2  C   UNL     1      14.501   7.339   7.651  1.00  0.00     0.000 C 
BRANCH   2   3
ATOM      3  C   UNL     1      12.994   7.187   7.362  1.00  0.00     0.000 C 
BRANCH   3   4
ATOM      4  C   UNL     1      12.188   6.477   8.464  1.00  0.00     0.006 C 
BRANCH   4   5
ATOM      5  C   UNL     1      10.723   6.244   8.075  1.00  0.00     0.053 C 
BRANCH   5   6
ATOM      6  C   UNL     1      10.538   4.855   7.550  1.00  0.00     0.041 C 
ATOM      7  O   UNL     1      11.160   3.892   8.071  1.00  0.00    -0.550 OA
ATOM      8  O   UNL     1       9.640   4.616   6.517  1.00  0.00    -0.550 OA
ENDBRANCH   5   6
ENDBRANCH   4   5
ENDBRANCH   3   4
ENDBRANCH   2   3
ENDBRANCH   1   2
BRANCH   1   9
ATOM      9  C   UNL     1      16.194   7.048   9.552  1.00  0.00     0.000 C 
BRANCH   9  10
ATOM     10  C   UNL     1      17.518   6.316   9.305  1.00  0.00    -0.000 C 
BRANCH  10  11
ATOM     11  C   UNL     1      17.848   6.269   7.806  1.00  0.00    -0.000 C 
BRANCH  11  12
ATOM     12  C   UNL     1      18.026   4.834   7.284  1.00  0.00    -0.000 C 
BRANCH  12  13
ATOM     13  C   UNL     1      17.447   4.641   5.875  1.00  0.00    -0.003 C 
ATOM     14  C   UNL     1      16.037   4.060   5.937  1.00  0.00     0.004 C 
ENDBRANCH  12  13
ENDBRANCH  11  12
ENDBRANCH  10  11
ENDBRANCH   9  10
ENDBRANCH   1   9
TORSDOF 10
ENDMDL
