MODEL 1
REMARK VINA RESULT:    -4.912      0.000      0.000
REMARK INTER + INTRA:          -5.630
REMARK INTER:                  -5.917
REMARK INTRA:                   0.288
REMARK UNBOUND:                 0.288
REMARK SMILES O=c1c(O)c(-c2ccc(O)cc2O)oc2cc(O)cc(O)c12
REMARK SMILES IDX 5 1 3 2 2 3 1 4 22 5 20 6 19 7 17 8 16 9 15 10 14 11 6 12
REMARK SMILES IDX 8 13 7 14 9 15 11 16 12 17 10 18 13 20 4 22 21 24 18 26
REMARK H PARENT 10 19 13 21 4 23 21 25 18 27
REMARK Flexibility Score: inf
ROOT
ATOM      1  C   UNL     1      13.265  15.483  15.592  1.00  0.00     0.184 A 
ATOM      2  C   UNL     1      13.924  16.614  16.098  1.00  0.00     0.208 A 
ATOM      3  C   UNL     1      15.124  17.027  15.498  1.00  0.00     0.238 A 
ATOM      4  O   UNL     1      15.742  18.004  15.995  1.00  0.00    -0.285 OA
ATOM      5  C   UNL     1      15.633  16.319  14.382  1.00  0.00     0.111 A 
ATOM      6  C   UNL     1      16.819  16.671  13.671  1.00  0.00     0.134 A 
ATOM      7  C   UNL     1      17.294  15.828  12.659  1.00  0.00     0.093 A 
ATOM      8  C   UNL     1      16.592  14.682  12.288  1.00  0.00     0.123 A 
ATOM      9  C   UNL     1      15.400  14.358  12.937  1.00  0.00     0.094 A 
ATOM     10  C   UNL     1      14.920  15.160  13.976  1.00  0.00     0.146 A 
ATOM     11  O   UNL     1      13.790  14.809  14.577  1.00  0.00    -0.451 OA
ENDROOT
BRANCH   1  12
ATOM     12  C   UNL     1      11.985  15.016  16.168  1.00  0.00     0.063 A 
ATOM     13  C   UNL     1      10.433  14.979  18.042  1.00  0.00     0.047 A 
ATOM     14  C   UNL     1      11.659  15.360  17.492  1.00  0.00     0.020 A 
ATOM     15  C   UNL     1       9.512  14.256  17.276  1.00  0.00     0.119 A 
ATOM     16  C   UNL     1       9.826  13.911  15.959  1.00  0.00     0.093 A 
ATOM     17  C   UNL     1      11.056  14.278  15.397  1.00  0.00     0.130 A 
BRANCH  15  18
ATOM     18  O   UNL     1       8.285  13.875  17.813  1.00  0.00    -0.508 OA
ATOM     19  H   UNL     1       7.675  14.544  18.266  1.00  0.00     0.293 HD
ENDBRANCH  15  18
BRANCH  17  20
ATOM     20  O   UNL     1      11.331  13.875  14.089  1.00  0.00    -0.507 OA
ATOM     21  H   UNL     1      11.565  12.923  13.842  1.00  0.00     0.293 HD
ENDBRANCH  17  20
ENDBRANCH   1  12
BRANCH   2  22
ATOM     22  O   UNL     1      13.396  17.295  17.198  1.00  0.00    -0.502 OA
ATOM     23  H   UNL     1      13.537  18.288  17.340  1.00  0.00     0.293 HD
ENDBRANCH   2  22
BRANCH   6  24
ATOM     24  O   UNL     1      17.548  17.843  13.899  1.00  0.00    -0.507 OA
ATOM     25  H   UNL     1      18.444  17.883  14.362  1.00  0.00     0.293 HD
ENDBRANCH   6  24
BRANCH   8  26
ATOM     26  O   UNL     1      17.085  13.875  11.265  1.00  0.00    -0.508 OA
ATOM     27  H   UNL     1      16.802  12.907  11.171  1.00  0.00     0.293 HD
ENDBRANCH   8  26
TORSDOF 6
ENDMDL
MODEL 2
REMARK VINA RESULT:    -4.693      1.400      6.536
REMARK INTER + INTRA:          -5.365
REMARK INTER:                  -5.538
REMARK INTRA:                   0.173
REMARK UNBOUND:                 0.288
REMARK SMILES O=c1c(O)c(-c2ccc(O)cc2O)oc2cc(O)cc(O)c12
REMARK SMILES IDX 5 1 3 2 2 3 1 4 22 5 20 6 19 7 17 8 16 9 15 10 14 11 6 12
REMARK SMILES IDX 8 13 7 14 9 15 11 16 12 17 10 18 13 20 4 22 21 24 18 26
REMARK H PARENT 10 19 13 21 4 23 21 25 18 27
REMARK Flexibility Score: inf
ROOT
ATOM      1  C   UNL     1      15.831  15.643  13.851  1.00  0.00     0.184 A 
ATOM      2  C   UNL     1      16.035  16.789  14.634  1.00  0.00     0.208 A 
ATOM      3  C   UNL     1      15.071  17.137  15.594  1.00  0.00     0.238 A 
ATOM      4  O   UNL     1      15.229  18.200  16.250  1.00  0.00    -0.285 OA
ATOM      5  C   UNL     1      13.932  16.316  15.777  1.00  0.00     0.111 A 
ATOM      6  C   UNL     1      12.912  16.551  16.747  1.00  0.00     0.134 A 
ATOM      7  C   UNL     1      11.768  15.742  16.756  1.00  0.00     0.093 A 
ATOM      8  C   UNL     1      11.638  14.669  15.876  1.00  0.00     0.123 A 
ATOM      9  C   UNL     1      12.655  14.395  14.962  1.00  0.00     0.094 A 
ATOM     10  C   UNL     1      13.792  15.207  14.903  1.00  0.00     0.146 A 
ATOM     11  O   UNL     1      14.730  14.920  14.009  1.00  0.00    -0.451 OA
ENDROOT
BRANCH   1  12
ATOM     12  C   UNL     1      16.824  15.214  12.841  1.00  0.00     0.063 A 
ATOM     13  C   UNL     1      19.144  15.099  12.116  1.00  0.00     0.047 A 
ATOM     14  C   UNL     1      18.179  15.539  13.026  1.00  0.00     0.020 A 
ATOM     15  C   UNL     1      18.770  14.323  11.014  1.00  0.00     0.119 A 
ATOM     16  C   UNL     1      17.425  13.993  10.823  1.00  0.00     0.093 A 
ATOM     17  C   UNL     1      16.446  14.436  11.722  1.00  0.00     0.130 A 
BRANCH  15  18
ATOM     18  O   UNL     1      19.724  13.875  10.104  1.00  0.00    -0.508 OA
ATOM     19  H   UNL     1      20.414  13.179  10.359  1.00  0.00     0.293 HD
ENDBRANCH  15  18
BRANCH  17  20
ATOM     20  O   UNL     1      15.114  14.107  11.461  1.00  0.00    -0.507 OA
ATOM     21  H   UNL     1      14.764  13.159  11.489  1.00  0.00     0.293 HD
ENDBRANCH  17  20
ENDBRANCH   1  12
BRANCH   2  22
ATOM     22  O   UNL     1      17.171  17.578  14.434  1.00  0.00    -0.502 OA
ATOM     23  H   UNL     1      17.944  17.279  13.853  1.00  0.00     0.293 HD
ENDBRANCH   2  22
BRANCH   6  24
ATOM     24  O   UNL     1      12.983  17.539  17.733  1.00  0.00    -0.507 OA
ATOM     25  H   UNL     1      12.550  18.448  17.671  1.00  0.00     0.293 HD
ENDBRANCH   6  24
BRANCH   8  26
ATOM     26  O   UNL     1      10.494  13.875  15.924  1.00  0.00    -0.508 OA
ATOM     27  H   UNL     1      10.028  13.565  15.080  1.00  0.00     0.293 HD
ENDBRANCH   8  26
TORSDOF 6
ENDMDL
MODEL 3
REMARK VINA RESULT:    -4.106      1.637      7.009
REMARK INTER + INTRA:          -4.658
REMARK INTER:                  -4.312
REMARK INTRA:                  -0.346
REMARK UNBOUND:                 0.288
REMARK SMILES O=c1c(O)c(-c2ccc(O)cc2O)oc2cc(O)cc(O)c12
REMARK SMILES IDX 5 1 3 2 2 3 1 4 22 5 20 6 19 7 17 8 16 9 15 10 14 11 6 12
REMARK SMILES IDX 8 13 7 14 9 15 11 16 12 17 10 18 13 20 4 22 21 24 18 26
REMARK H PARENT 10 19 13 21 4 23 21 25 18 27
REMARK Flexibility Score: inf
ROOT
ATOM      1  C   UNL     1      14.156  14.760  14.463  1.00  0.00     0.184 A 
ATOM      2  C   UNL     1      13.140  14.518  13.526  1.00  0.00     0.208 A 
ATOM      3  C   UNL     1      11.845  14.233  13.985  1.00  0.00     0.238 A 
ATOM      4  O   UNL     1      10.952  13.955  13.142  1.00  0.00    -0.285 OA
ATOM      5  C   UNL     1      11.578  14.223  15.376  1.00  0.00     0.111 A 
ATOM      6  C   UNL     1      10.294  13.986  15.953  1.00  0.00     0.134 A 
ATOM      7  C   UNL     1      10.171  13.878  17.344  1.00  0.00     0.093 A 
ATOM      8  C   UNL     1      11.270  14.065  18.181  1.00  0.00     0.123 A 
ATOM      9  C   UNL     1      12.519  14.355  17.631  1.00  0.00     0.094 A 
ATOM     10  C   UNL     1      12.681  14.431  16.244  1.00  0.00     0.146 A 
ATOM     11  O   UNL     1      13.889  14.696  15.761  1.00  0.00    -0.451 OA
ENDROOT
BRANCH   1  12
ATOM     12  C   UNL     1      15.533  15.090  14.037  1.00  0.00     0.063 A 
ATOM     13  C   UNL     1      17.588  14.414  12.922  1.00  0.00     0.047 A 
ATOM     14  C   UNL     1      16.305  14.112  13.384  1.00  0.00     0.020 A 
ATOM     15  C   UNL     1      18.116  15.697  13.099  1.00  0.00     0.119 A 
ATOM     16  C   UNL     1      17.357  16.676  13.745  1.00  0.00     0.093 A 
ATOM     17  C   UNL     1      16.073  16.385  14.223  1.00  0.00     0.130 A 
BRANCH  15  18
ATOM     18  O   UNL     1      19.393  16.010  12.638  1.00  0.00    -0.508 OA
ATOM     19  H   UNL     1      20.100  15.296  12.512  1.00  0.00     0.293 HD
ENDBRANCH  15  18
BRANCH  17  20
ATOM     20  O   UNL     1      15.373  17.391  14.893  1.00  0.00    -0.507 OA
ATOM     21  H   UNL     1      14.367  17.480  14.859  1.00  0.00     0.293 HD
ENDBRANCH  17  20
ENDBRANCH   1  12
BRANCH   2  22
ATOM     22  O   UNL     1      13.432  14.538  12.159  1.00  0.00    -0.502 OA
ATOM     23  H   UNL     1      13.163  15.306  11.558  1.00  0.00     0.293 HD
ENDBRANCH   2  22
BRANCH   6  24
ATOM     24  O   UNL     1       9.113  13.875  15.213  1.00  0.00    -0.507 OA
ATOM     25  H   UNL     1       8.896  14.416  14.389  1.00  0.00     0.293 HD
ENDBRANCH   6  24
BRANCH   8  26
ATOM     26  O   UNL     1      11.108  13.967  19.561  1.00  0.00    -0.508 OA
ATOM     27  H   UNL     1      10.721  13.136  19.992  1.00  0.00     0.293 HD
ENDBRANCH   8  26
TORSDOF 6
ENDMDL
MODEL 4
REMARK VINA RESULT:    -4.097      1.855      7.016
REMARK INTER + INTRA:          -4.647
REMARK INTER:                  -4.390
REMARK INTRA:                  -0.257
REMARK UNBOUND:                 0.288
REMARK SMILES O=c1c(O)c(-c2ccc(O)cc2O)oc2cc(O)cc(O)c12
REMARK SMILES IDX 5 1 3 2 2 3 1 4 22 5 20 6 19 7 17 8 16 9 15 10 14 11 6 12
REMARK SMILES IDX 8 13 7 14 9 15 11 16 12 17 10 18 13 20 4 22 21 24 18 26
REMARK H PARENT 10 19 13 21 4 23 21 25 18 27
REMARK Flexibility Score: inf
ROOT
ATOM      1  C   UNL     1      14.913  14.616  14.210  1.00  0.00     0.184 A 
ATOM      2  C   UNL     1      13.631  14.552  13.642  1.00  0.00     0.208 A 
ATOM      3  C   UNL     1      12.520  14.403  14.486  1.00  0.00     0.238 A 
ATOM      4  O   UNL     1      11.379  14.284  13.968  1.00  0.00    -0.285 OA
ATOM      5  C   UNL     1      12.704  14.349  15.889  1.00  0.00     0.111 A 
ATOM      6  C   UNL     1      11.647  14.240  16.842  1.00  0.00     0.134 A 
ATOM      7  C   UNL     1      11.954  14.072  18.198  1.00  0.00     0.093 A 
ATOM      8  C   UNL     1      13.275  14.075  18.643  1.00  0.00     0.123 A 
ATOM      9  C   UNL     1      14.315  14.240  17.728  1.00  0.00     0.094 A 
ATOM     10  C   UNL     1      14.042  14.372  16.363  1.00  0.00     0.146 A 
ATOM     11  O   UNL     1      15.061  14.513  15.524  1.00  0.00    -0.451 OA
ENDROOT
BRANCH   1  12
ATOM     12  C   UNL     1      16.118  14.796  13.371  1.00  0.00     0.063 A 
ATOM     13  C   UNL     1      17.488  14.053  11.502  1.00  0.00     0.047 A 
ATOM     14  C   UNL     1      16.387  13.875  12.344  1.00  0.00     0.020 A 
ATOM     15  C   UNL     1      18.331  15.157  11.670  1.00  0.00     0.119 A 
ATOM     16  C   UNL     1      18.071  16.079  12.688  1.00  0.00     0.093 A 
ATOM     17  C   UNL     1      16.977  15.907  13.545  1.00  0.00     0.130 A 
BRANCH  15  18
ATOM     18  O   UNL     1      19.428  15.346  10.834  1.00  0.00    -0.508 OA
ATOM     19  H   UNL     1      19.340  15.823   9.945  1.00  0.00     0.293 HD
ENDBRANCH  15  18
BRANCH  17  20
ATOM     20  O   UNL     1      16.786  16.840  14.567  1.00  0.00    -0.507 OA
ATOM     21  H   UNL     1      16.972  17.828  14.454  1.00  0.00     0.293 HD
ENDBRANCH  17  20
ENDBRANCH   1  12
BRANCH   2  22
ATOM     22  O   UNL     1      13.479  14.611  12.254  1.00  0.00    -0.502 OA
ATOM     23  H   UNL     1      13.005  15.377  11.792  1.00  0.00     0.293 HD
ENDBRANCH   2  22
BRANCH   6  24
ATOM     24  O   UNL     1      10.290  14.316  16.516  1.00  0.00    -0.507 OA
ATOM     25  H   UNL     1       9.903  14.112  15.606  1.00  0.00     0.293 HD
ENDBRANCH   6  24
BRANCH   8  26
ATOM     26  O   UNL     1      13.543  13.922  20.002  1.00  0.00    -0.508 OA
ATOM     27  H   UNL     1      12.945  13.364  20.601  1.00  0.00     0.293 HD
ENDBRANCH   8  26
TORSDOF 6
ENDMDL
MODEL 5
REMARK VINA RESULT:    -3.314      1.295      3.208
REMARK INTER + INTRA:          -3.705
REMARK INTER:                  -4.251
REMARK INTRA:                   0.547
REMARK UNBOUND:                 0.288
REMARK SMILES O=c1c(O)c(-c2ccc(O)cc2O)oc2cc(O)cc(O)c12
REMARK SMILES IDX 5 1 3 2 2 3 1 4 22 5 20 6 19 7 17 8 16 9 15 10 14 11 6 12
REMARK SMILES IDX 8 13 7 14 9 15 11 16 12 17 10 18 13 20 4 22 21 24 18 26
REMARK H PARENT 10 19 13 21 4 23 21 25 18 27
REMARK Flexibility Score: inf
ROOT
ATOM      1  C   UNL     1      12.631  15.395  15.613  1.00  0.00     0.184 A 
ATOM      2  C   UNL     1      12.841  14.741  14.390  1.00  0.00     0.208 A 
ATOM      3  C   UNL     1      14.025  14.991  13.679  1.00  0.00     0.238 A 
ATOM      4  O   UNL     1      14.180  14.450  12.553  1.00  0.00    -0.285 OA
ATOM      5  C   UNL     1      14.996  15.871  14.217  1.00  0.00     0.111 A 
ATOM      6  C   UNL     1      16.249  16.168  13.602  1.00  0.00     0.134 A 
ATOM      7  C   UNL     1      17.080  17.147  14.163  1.00  0.00     0.093 A 
ATOM      8  C   UNL     1      16.733  17.791  15.350  1.00  0.00     0.123 A 
ATOM      9  C   UNL     1      15.537  17.467  15.991  1.00  0.00     0.094 A 
ATOM     10  C   UNL     1      14.670  16.521  15.435  1.00  0.00     0.146 A 
ATOM     11  O   UNL     1      13.535  16.252  16.069  1.00  0.00    -0.451 OA
ENDROOT
BRANCH   1  12
ATOM     12  C   UNL     1      11.414  15.151  16.417  1.00  0.00     0.063 A 
ATOM     13  C   UNL     1       9.367  13.882  16.769  1.00  0.00     0.047 A 
ATOM     14  C   UNL     1      10.497  14.171  16.000  1.00  0.00     0.020 A 
ATOM     15  C   UNL     1       9.142  14.564  17.971  1.00  0.00     0.119 A 
ATOM     16  C   UNL     1      10.048  15.539  18.395  1.00  0.00     0.093 A 
ATOM     17  C   UNL     1      11.180  15.845  17.628  1.00  0.00     0.130 A 
BRANCH  15  18
ATOM     18  O   UNL     1       8.021  14.281  18.748  1.00  0.00    -0.508 OA
ATOM     19  H   UNL     1       7.380  15.009  19.037  1.00  0.00     0.293 HD
ENDBRANCH  15  18
BRANCH  17  20
ATOM     20  O   UNL     1      12.032  16.854  18.082  1.00  0.00    -0.507 OA
ATOM     21  H   UNL     1      11.787  17.834  18.063  1.00  0.00     0.293 HD
ENDBRANCH  17  20
ENDBRANCH   1  12
BRANCH   2  22
ATOM     22  O   UNL     1      11.867  13.875  13.885  1.00  0.00    -0.502 OA
ATOM     23  H   UNL     1      12.010  13.327  13.046  1.00  0.00     0.293 HD
ENDBRANCH   2  22
BRANCH   6  24
ATOM     24  O   UNL     1      16.736  15.517  12.464  1.00  0.00    -0.507 OA
ATOM     25  H   UNL     1      16.910  15.963  11.575  1.00  0.00     0.293 HD
ENDBRANCH   6  24
BRANCH   8  26
ATOM     26  O   UNL     1      17.590  18.747  15.889  1.00  0.00    -0.508 OA
ATOM     27  H   UNL     1      17.698  18.859  16.890  1.00  0.00     0.293 HD
ENDBRANCH   8  26
TORSDOF 6
ENDMDL
MODEL 6
REMARK VINA RESULT:    -2.202      1.982      3.831
REMARK INTER + INTRA:          -2.365
REMARK INTER:                  -1.973
REMARK INTRA:                  -0.392
REMARK UNBOUND:                 0.288
REMARK SMILES O=c1c(O)c(-c2ccc(O)cc2O)oc2cc(O)cc(O)c12
REMARK SMILES IDX 5 1 3 2 2 3 1 4 22 5 20 6 19 7 17 8 16 9 15 10 14 11 6 12
REMARK SMILES IDX 8 13 7 14 9 15 11 16 12 17 10 18 13 20 4 22 21 24 18 26
REMARK H PARENT 10 19 13 21 4 23 21 25 18 27
REMARK Flexibility Score: inf
ROOT
ATOM      1  C   UNL     1      15.037  14.789  14.164  1.00  0.00     0.184 A 
ATOM      2  C   UNL     1      14.664  14.664  12.817  1.00  0.00     0.208 A 
ATOM      3  C   UNL     1      15.664  14.484  11.848  1.00  0.00     0.238 A 
ATOM      4  O   UNL     1      15.329  14.434  10.636  1.00  0.00    -0.285 OA
ATOM      5  C   UNL     1      17.021  14.402  12.245  1.00  0.00     0.111 A 
ATOM      6  C   UNL     1      18.114  14.181  11.354  1.00  0.00     0.134 A 
ATOM      7  C   UNL     1      19.426  14.241  11.841  1.00  0.00     0.093 A 
ATOM      8  C   UNL     1      19.682  14.448  13.195  1.00  0.00     0.123 A 
ATOM      9  C   UNL     1      18.620  14.607  14.086  1.00  0.00     0.094 A 
ATOM     10  C   UNL     1      17.300  14.590  13.624  1.00  0.00     0.146 A 
ATOM     11  O   UNL     1      16.320  14.759  14.502  1.00  0.00    -0.451 OA
ENDROOT
BRANCH   1  12
ATOM     12  C   UNL     1      14.025  14.957  15.230  1.00  0.00     0.063 A 
ATOM     13  C   UNL     1      12.258  13.993  16.597  1.00  0.00     0.047 A 
ATOM     14  C   UNL     1      13.184  13.879  15.557  1.00  0.00     0.020 A 
ATOM     15  C   UNL     1      12.164  15.181  17.329  1.00  0.00     0.119 A 
ATOM     16  C   UNL     1      12.998  16.257  17.012  1.00  0.00     0.093 A 
ATOM     17  C   UNL     1      13.923  16.161  15.966  1.00  0.00     0.130 A 
BRANCH  15  18
ATOM     18  O   UNL     1      11.248  15.304  18.371  1.00  0.00    -0.508 OA
ATOM     19  H   UNL     1      10.259  15.426  18.194  1.00  0.00     0.293 HD
ENDBRANCH  15  18
BRANCH  17  20
ATOM     20  O   UNL     1      14.705  17.280  15.670  1.00  0.00    -0.507 OA
ATOM     21  H   UNL     1      14.322  18.136  15.292  1.00  0.00     0.293 HD
ENDBRANCH  17  20
ENDBRANCH   1  12
BRANCH   2  22
ATOM     22  O   UNL     1      13.316  14.745  12.455  1.00  0.00    -0.502 OA
ATOM     23  H   UNL     1      12.910  15.583  12.060  1.00  0.00     0.293 HD
ENDBRANCH   2  22
BRANCH   6  24
ATOM     24  O   UNL     1      17.967  13.875   9.997  1.00  0.00    -0.507 OA
ATOM     25  H   UNL     1      18.722  13.619   9.379  1.00  0.00     0.293 HD
ENDBRANCH   6  24
BRANCH   8  26
ATOM     26  O   UNL     1      20.999  14.485  13.648  1.00  0.00    -0.508 OA
ATOM     27  H   UNL     1      21.234  14.842  14.567  1.00  0.00     0.293 HD
ENDBRANCH   8  26
TORSDOF 6
ENDMDL
