MODEL 1
REMARK VINA RESULT:    -3.126      0.000      0.000
REMARK INTER + INTRA:         -12.127
REMARK INTER:                  -7.147
REMARK INTRA:                  -4.980
REMARK UNBOUND:                -4.980
REMARK SMILES CCCCCCCCCCCCCCCCCCCCCCCC(=O)[O-]
REMARK SMILES IDX 13 1 14 2 15 3 16 4 17 5 18 6 19 7 20 8 21 9 22 10 23 11
REMARK SMILES IDX 24 12 25 13 26 14 12 15 11 16 10 17 9 18 8 19 7 20 6 21 5 22
REMARK SMILES IDX 4 23 3 24 2 25 1 26
REMARK H PARENT
REMARK Flexibility Score: inf
ROOT
ATOM      1  C   UNL     1      -2.604  -1.822  34.584  1.00  0.00     0.000 C 
ENDROOT
BRANCH   1   2
ATOM      2  C   UNL     1      -3.488  -2.856  33.870  1.00  0.00     0.000 C 
BRANCH   2   3
ATOM      3  C   UNL     1      -4.931  -2.863  34.400  1.00  0.00     0.000 C 
BRANCH   3   4
ATOM      4  C   UNL     1      -5.034  -3.462  35.812  1.00  0.00     0.000 C 
BRANCH   4   5
ATOM      5  C   UNL     1      -5.850  -2.582  36.776  1.00  0.00     0.000 C 
BRANCH   5   6
ATOM      6  C   UNL     1      -5.054  -1.999  37.963  1.00  0.00     0.000 C 
BRANCH   6   7
ATOM      7  C   UNL     1      -5.521  -0.612  38.443  1.00  0.00     0.000 C 
BRANCH   7   8
ATOM      8  C   UNL     1      -6.176   0.217  37.324  1.00  0.00     0.000 C 
BRANCH   8   9
ATOM      9  C   UNL     1      -5.178   1.153  36.624  1.00  0.00     0.000 C 
BRANCH   9  10
ATOM     10  C   UNL     1      -5.083   0.886  35.111  1.00  0.00     0.006 C 
BRANCH  10  11
ATOM     11  C   UNL     1      -6.399   0.347  34.536  1.00  0.00     0.053 C 
BRANCH  11  12
ATOM     12  C   UNL     1      -6.845   1.129  33.339  1.00  0.00     0.041 C 
ATOM     13  O   UNL     1      -7.821   1.921  33.426  1.00  0.00    -0.550 OA
ATOM     14  O   UNL     1      -6.202   0.963  32.119  1.00  0.00    -0.550 OA
ENDBRANCH  11  12
ENDBRANCH  10  11
ENDBRANCH   9  10
ENDBRANCH   8   9
ENDBRANCH   7   8
ENDBRANCH   6   7
ENDBRANCH   5   6
ENDBRANCH   4   5
ENDBRANCH   3   4
ENDBRANCH   2   3
ENDBRANCH   1   2
BRANCH   1  15
ATOM     15  C   UNL     1      -1.486  -2.506  35.377  1.00  0.00     0.000 C 
BRANCH  15  16
ATOM     16  C   UNL     1      -1.271  -1.816  36.732  1.00  0.00     0.000 C 
BRANCH  16  17
ATOM     17  C   UNL     1      -1.992  -0.462  36.827  1.00  0.00     0.000 C 
BRANCH  17  18
ATOM     18  C   UNL     1      -1.134   0.619  37.508  1.00  0.00    -0.000 C 
BRANCH  18  19
ATOM     19  C   UNL     1      -1.037   1.908  36.677  1.00  0.00    -0.000 C 
BRANCH  19  20
ATOM     20  C   UNL     1      -1.432   1.695  35.207  1.00  0.00    -0.000 C 
BRANCH  20  21
ATOM     21  C   UNL     1      -0.200   1.741  34.295  1.00  0.00    -0.000 C 
BRANCH  21  22
ATOM     22  C   UNL     1      -0.098   0.469  33.442  1.00  0.00    -0.000 C 
BRANCH  22  23
ATOM     23  C   UNL     1       1.145  -0.376  33.773  1.00  0.00    -0.000 C 
BRANCH  23  24
ATOM     24  C   UNL     1       1.735  -0.149  35.179  1.00  0.00    -0.000 C 
BRANCH  24  25
ATOM     25  C   UNL     1       2.302  -1.408  35.857  1.00  0.00    -0.003 C 
ATOM     26  C   UNL     1       2.143  -2.667  35.006  1.00  0.00     0.004 C 
ENDBRANCH  24  25
ENDBRANCH  23  24
ENDBRANCH  22  23
ENDBRANCH  21  22
ENDBRANCH  20  21
ENDBRANCH  19  20
ENDBRANCH  18  19
ENDBRANCH  17  18
ENDBRANCH  16  17
ENDBRANCH  15  16
ENDBRANCH   1  15
TORSDOF 22
ENDMDL
MODEL 2
REMARK VINA RESULT:    -3.103      1.069      2.293
REMARK INTER + INTRA:         -12.074
REMARK INTER:                  -7.022
REMARK INTRA:                  -5.053
REMARK UNBOUND:                -4.980
REMARK SMILES CCCCCCCCCCCCCCCCCCCCCCCC(=O)[O-]
REMARK SMILES IDX 13 1 14 2 15 3 16 4 17 5 18 6 19 7 20 8 21 9 22 10 23 11
REMARK SMILES IDX 24 12 25 13 26 14 12 15 11 16 10 17 9 18 8 19 7 20 6 21 5 22
REMARK SMILES IDX 4 23 3 24 2 25 1 26
REMARK H PARENT
REMARK Flexibility Score: inf
ROOT
ATOM      1  C   UNL     1      -3.177  -2.511  33.935  1.00  0.00     0.000 C 
ENDROOT
BRANCH   1   2
ATOM      2  C   UNL     1      -3.859  -3.456  34.936  1.00  0.00     0.000 C 
BRANCH   2   3
ATOM      3  C   UNL     1      -5.348  -3.132  35.130  1.00  0.00     0.000 C 
BRANCH   3   4
ATOM      4  C   UNL     1      -5.700  -2.847  36.600  1.00  0.00     0.000 C 
BRANCH   4   5
ATOM      5  C   UNL     1      -4.464  -2.519  37.456  1.00  0.00     0.000 C 
BRANCH   5   6
ATOM      6  C   UNL     1      -4.626  -1.311  38.403  1.00  0.00     0.000 C 
BRANCH   6   7
ATOM      7  C   UNL     1      -5.563  -0.202  37.891  1.00  0.00     0.000 C 
BRANCH   7   8
ATOM      8  C   UNL     1      -4.809   0.935  37.181  1.00  0.00     0.000 C 
BRANCH   8   9
ATOM      9  C   UNL     1      -4.704   0.714  35.663  1.00  0.00     0.000 C 
BRANCH   9  10
ATOM     10  C   UNL     1      -6.080   0.512  35.001  1.00  0.00     0.006 C 
BRANCH  10  11
ATOM     11  C   UNL     1      -5.958   0.123  33.523  1.00  0.00     0.053 C 
BRANCH  11  12
ATOM     12  C   UNL     1      -6.688   1.082  32.634  1.00  0.00     0.041 C 
ATOM     13  O   UNL     1      -7.924   1.273  32.785  1.00  0.00    -0.550 OA
ATOM     14  O   UNL     1      -6.010   1.742  31.617  1.00  0.00    -0.550 OA
ENDBRANCH  11  12
ENDBRANCH  10  11
ENDBRANCH   9  10
ENDBRANCH   8   9
ENDBRANCH   7   8
ENDBRANCH   6   7
ENDBRANCH   5   6
ENDBRANCH   4   5
ENDBRANCH   3   4
ENDBRANCH   2   3
ENDBRANCH   1   2
BRANCH   1  15
ATOM     15  C   UNL     1      -2.101  -1.663  34.622  1.00  0.00     0.000 C 
BRANCH  15  16
ATOM     16  C   UNL     1      -1.275  -2.511  35.600  1.00  0.00     0.000 C 
BRANCH  16  17
ATOM     17  C   UNL     1      -0.756  -1.698  36.797  1.00  0.00     0.000 C 
BRANCH  17  18
ATOM     18  C   UNL     1      -1.347  -0.278  36.847  1.00  0.00    -0.000 C 
BRANCH  18  19
ATOM     19  C   UNL     1      -0.289   0.811  36.610  1.00  0.00    -0.000 C 
BRANCH  19  20
ATOM     20  C   UNL     1       1.122   0.233  36.420  1.00  0.00    -0.000 C 
BRANCH  20  21
ATOM     21  C   UNL     1       1.687   0.601  35.043  1.00  0.00    -0.000 C 
BRANCH  21  22
ATOM     22  C   UNL     1       1.597  -0.588  34.075  1.00  0.00    -0.000 C 
BRANCH  22  23
ATOM     23  C   UNL     1       0.825  -0.254  32.787  1.00  0.00    -0.000 C 
BRANCH  23  24
ATOM     24  C   UNL     1      -0.124   0.957  32.888  1.00  0.00    -0.000 C 
BRANCH  24  25
ATOM     25  C   UNL     1      -1.387   0.867  32.014  1.00  0.00    -0.003 C 
ATOM     26  C   UNL     1      -2.614   1.498  32.670  1.00  0.00     0.004 C 
ENDBRANCH  24  25
ENDBRANCH  23  24
ENDBRANCH  22  23
ENDBRANCH  21  22
ENDBRANCH  20  21
ENDBRANCH  19  20
ENDBRANCH  18  19
ENDBRANCH  17  18
ENDBRANCH  16  17
ENDBRANCH  15  16
ENDBRANCH   1  15
TORSDOF 22
ENDMDL
MODEL 3
REMARK VINA RESULT:    -3.077      2.477      5.848
REMARK INTER + INTRA:         -12.015
REMARK INTER:                  -7.308
REMARK INTRA:                  -4.706
REMARK UNBOUND:                -4.980
REMARK SMILES CCCCCCCCCCCCCCCCCCCCCCCC(=O)[O-]
REMARK SMILES IDX 13 1 14 2 15 3 16 4 17 5 18 6 19 7 20 8 21 9 22 10 23 11
REMARK SMILES IDX 24 12 25 13 26 14 12 15 11 16 10 17 9 18 8 19 7 20 6 21 5 22
REMARK SMILES IDX 4 23 3 24 2 25 1 26
REMARK H PARENT
REMARK Flexibility Score: inf
ROOT
ATOM      1  C   UNL     1      -5.020  -2.645  34.574  1.00  0.00     0.000 C 
ENDROOT
BRANCH   1   2
ATOM      2  C   UNL     1      -3.548  -2.951  34.259  1.00  0.00     0.000 C 
BRANCH   2   3
ATOM      3  C   UNL     1      -2.683  -3.047  35.526  1.00  0.00     0.000 C 
BRANCH   3   4
ATOM      4  C   UNL     1      -1.353  -2.288  35.387  1.00  0.00     0.000 C 
BRANCH   4   5
ATOM      5  C   UNL     1      -0.858  -1.702  36.721  1.00  0.00     0.000 C 
BRANCH   5   6
ATOM      6  C   UNL     1      -1.917  -0.920  37.525  1.00  0.00     0.000 C 
BRANCH   6   7
ATOM      7  C   UNL     1      -1.912   0.604  37.301  1.00  0.00     0.000 C 
BRANCH   7   8
ATOM      8  C   UNL     1      -3.255   1.133  36.771  1.00  0.00     0.000 C 
BRANCH   8   9
ATOM      9  C   UNL     1      -3.502   0.748  35.304  1.00  0.00     0.000 C 
BRANCH   9  10
ATOM     10  C   UNL     1      -2.367   1.215  34.374  1.00  0.00     0.006 C 
BRANCH  10  11
ATOM     11  C   UNL     1      -2.326   0.415  33.066  1.00  0.00     0.053 C 
BRANCH  11  12
ATOM     12  C   UNL     1      -0.922   0.166  32.609  1.00  0.00     0.041 C 
ATOM     13  O   UNL     1       0.041   0.320  33.407  1.00  0.00    -0.550 OA
ATOM     14  O   UNL     1      -0.673  -0.205  31.294  1.00  0.00    -0.550 OA
ENDBRANCH  11  12
ENDBRANCH  10  11
ENDBRANCH   9  10
ENDBRANCH   8   9
ENDBRANCH   7   8
ENDBRANCH   6   7
ENDBRANCH   5   6
ENDBRANCH   4   5
ENDBRANCH   3   4
ENDBRANCH   2   3
ENDBRANCH   1   2
BRANCH   1  15
ATOM     15  C   UNL     1      -5.391  -3.112  35.986  1.00  0.00     0.000 C 
BRANCH  15  16
ATOM     16  C   UNL     1      -6.042  -1.976  36.788  1.00  0.00     0.000 C 
BRANCH  16  17
ATOM     17  C   UNL     1      -5.309  -1.687  38.107  1.00  0.00     0.000 C 
BRANCH  17  18
ATOM     18  C   UNL     1      -5.876  -0.459  38.842  1.00  0.00    -0.000 C 
BRANCH  18  19
ATOM     19  C   UNL     1      -7.102   0.140  38.134  1.00  0.00    -0.000 C 
BRANCH  19  20
ATOM     20  C   UNL     1      -6.868   1.584  37.667  1.00  0.00    -0.000 C 
BRANCH  20  21
ATOM     21  C   UNL     1      -7.712   1.905  36.427  1.00  0.00    -0.000 C 
BRANCH  21  22
ATOM     22  C   UNL     1      -6.859   1.848  35.151  1.00  0.00    -0.000 C 
BRANCH  22  23
ATOM     23  C   UNL     1      -7.244   0.679  34.226  1.00  0.00    -0.000 C 
BRANCH  23  24
ATOM     24  C   UNL     1      -6.269   0.417  33.061  1.00  0.00    -0.000 C 
BRANCH  24  25
ATOM     25  C   UNL     1      -6.237   1.515  31.983  1.00  0.00    -0.003 C 
ATOM     26  C   UNL     1      -7.631   1.973  31.556  1.00  0.00     0.004 C 
ENDBRANCH  24  25
ENDBRANCH  23  24
ENDBRANCH  22  23
ENDBRANCH  21  22
ENDBRANCH  20  21
ENDBRANCH  19  20
ENDBRANCH  18  19
ENDBRANCH  17  18
ENDBRANCH  16  17
ENDBRANCH  15  16
ENDBRANCH   1  15
TORSDOF 22
ENDMDL
MODEL 4
REMARK VINA RESULT:    -3.043      2.992      6.636
REMARK INTER + INTRA:         -11.937
REMARK INTER:                  -7.145
REMARK INTRA:                  -4.792
REMARK UNBOUND:                -4.980
REMARK SMILES CCCCCCCCCCCCCCCCCCCCCCCC(=O)[O-]
REMARK SMILES IDX 13 1 14 2 15 3 16 4 17 5 18 6 19 7 20 8 21 9 22 10 23 11
REMARK SMILES IDX 24 12 25 13 26 14 12 15 11 16 10 17 9 18 8 19 7 20 6 21 5 22
REMARK SMILES IDX 4 23 3 24 2 25 1 26
REMARK H PARENT
REMARK Flexibility Score: inf
ROOT
ATOM      1  C   UNL     1      -3.489  -2.822  34.185  1.00  0.00     0.000 C 
ENDROOT
BRANCH   1   2
ATOM      2  C   UNL     1      -2.375  -1.875  34.658  1.00  0.00     0.000 C 
BRANCH   2   3
ATOM      3  C   UNL     1      -1.332  -2.584  35.536  1.00  0.00     0.000 C 
BRANCH   3   4
ATOM      4  C   UNL     1      -0.974  -1.774  36.793  1.00  0.00     0.000 C 
BRANCH   4   5
ATOM      5  C   UNL     1      -2.128  -0.875  37.272  1.00  0.00     0.000 C 
BRANCH   5   6
ATOM      6  C   UNL     1      -1.701   0.509  37.805  1.00  0.00     0.000 C 
BRANCH   6   7
ATOM      7  C   UNL     1      -0.551   1.179  37.032  1.00  0.00     0.000 C 
BRANCH   7   8
ATOM      8  C   UNL     1      -1.030   1.910  35.766  1.00  0.00     0.000 C 
BRANCH   8   9
ATOM      9  C   UNL     1      -0.548   1.229  34.475  1.00  0.00     0.000 C 
BRANCH   9  10
ATOM     10  C   UNL     1       0.963   0.938  34.492  1.00  0.00     0.006 C 
BRANCH  10  11
ATOM     11  C   UNL     1       1.282  -0.490  34.033  1.00  0.00     0.053 C 
BRANCH  11  12
ATOM     12  C   UNL     1       2.217  -1.182  34.975  1.00  0.00     0.041 C 
ATOM     13  O   UNL     1       2.876  -2.186  34.593  1.00  0.00    -0.550 OA
ATOM     14  O   UNL     1       2.340  -0.737  36.286  1.00  0.00    -0.550 OA
ENDBRANCH  11  12
ENDBRANCH  10  11
ENDBRANCH   9  10
ENDBRANCH   8   9
ENDBRANCH   7   8
ENDBRANCH   6   7
ENDBRANCH   5   6
ENDBRANCH   4   5
ENDBRANCH   3   4
ENDBRANCH   2   3
ENDBRANCH   1   2
BRANCH   1  15
ATOM     15  C   UNL     1      -4.004  -3.686  35.342  1.00  0.00     0.000 C 
BRANCH  15  16
ATOM     16  C   UNL     1      -5.352  -3.163  35.860  1.00  0.00     0.000 C 
BRANCH  16  17
ATOM     17  C   UNL     1      -5.252  -2.566  37.272  1.00  0.00     0.000 C 
BRANCH  17  18
ATOM     18  C   UNL     1      -5.798  -1.129  37.347  1.00  0.00    -0.000 C 
BRANCH  18  19
ATOM     19  C   UNL     1      -5.908  -0.465  35.965  1.00  0.00    -0.000 C 
BRANCH  19  20
ATOM     20  C   UNL     1      -5.061   0.812  35.854  1.00  0.00    -0.000 C 
BRANCH  20  21
ATOM     21  C   UNL     1      -4.570   1.023  34.417  1.00  0.00    -0.000 C 
BRANCH  21  22
ATOM     22  C   UNL     1      -5.432   0.235  33.420  1.00  0.00    -0.000 C 
BRANCH  22  23
ATOM     23  C   UNL     1      -6.038   1.125  32.320  1.00  0.00    -0.000 C 
BRANCH  23  24
ATOM     24  C   UNL     1      -7.383   1.787  32.680  1.00  0.00    -0.000 C 
BRANCH  24  25
ATOM     25  C   UNL     1      -8.286   0.957  33.611  1.00  0.00    -0.003 C 
ATOM     26  C   UNL     1      -8.799   1.753  34.809  1.00  0.00     0.004 C 
ENDBRANCH  24  25
ENDBRANCH  23  24
ENDBRANCH  22  23
ENDBRANCH  21  22
ENDBRANCH  20  21
ENDBRANCH  19  20
ENDBRANCH  18  19
ENDBRANCH  17  18
ENDBRANCH  16  17
ENDBRANCH  15  16
ENDBRANCH   1  15
TORSDOF 22
ENDMDL
MODEL 5
REMARK VINA RESULT:    -2.972      2.253      5.661
REMARK INTER + INTRA:         -11.775
REMARK INTER:                  -7.109
REMARK INTRA:                  -4.666
REMARK UNBOUND:                -4.980
REMARK SMILES CCCCCCCCCCCCCCCCCCCCCCCC(=O)[O-]
REMARK SMILES IDX 13 1 14 2 15 3 16 4 17 5 18 6 19 7 20 8 21 9 22 10 23 11
REMARK SMILES IDX 24 12 25 13 26 14 12 15 11 16 10 17 9 18 8 19 7 20 6 21 5 22
REMARK SMILES IDX 4 23 3 24 2 25 1 26
REMARK H PARENT
REMARK Flexibility Score: inf
ROOT
ATOM      1  C   UNL     1      -6.439  -1.593  37.092  1.00  0.00     0.000 C 
ENDROOT
BRANCH   1   2
ATOM      2  C   UNL     1      -5.521  -2.798  36.831  1.00  0.00     0.000 C 
BRANCH   2   3
ATOM      3  C   UNL     1      -5.371  -3.110  35.334  1.00  0.00     0.000 C 
BRANCH   3   4
ATOM      4  C   UNL     1      -3.901  -3.268  34.912  1.00  0.00     0.000 C 
BRANCH   4   5
ATOM      5  C   UNL     1      -2.934  -3.275  36.110  1.00  0.00     0.000 C 
BRANCH   5   6
ATOM      6  C   UNL     1      -1.497  -2.810  35.793  1.00  0.00     0.000 C 
BRANCH   6   7
ATOM      7  C   UNL     1      -0.936  -1.735  36.742  1.00  0.00     0.000 C 
BRANCH   7   8
ATOM      8  C   UNL     1      -0.384  -0.509  35.994  1.00  0.00     0.000 C 
BRANCH   8   9
ATOM      9  C   UNL     1       0.241  -0.878  34.639  1.00  0.00     0.000 C 
BRANCH   9  10
ATOM     10  C   UNL     1      -0.385  -0.097  33.470  1.00  0.00     0.006 C 
BRANCH  10  11
ATOM     11  C   UNL     1       0.599   0.094  32.309  1.00  0.00     0.053 C 
BRANCH  11  12
ATOM     12  C   UNL     1      -0.107   0.415  31.028  1.00  0.00     0.041 C 
ATOM     13  O   UNL     1      -1.293   0.839  31.046  1.00  0.00    -0.550 OA
ATOM     14  O   UNL     1       0.534   0.217  29.811  1.00  0.00    -0.550 OA
ENDBRANCH  11  12
ENDBRANCH  10  11
ENDBRANCH   9  10
ENDBRANCH   8   9
ENDBRANCH   7   8
ENDBRANCH   6   7
ENDBRANCH   5   6
ENDBRANCH   4   5
ENDBRANCH   3   4
ENDBRANCH   2   3
ENDBRANCH   1   2
BRANCH   1  15
ATOM     15  C   UNL     1      -5.936  -0.764  38.279  1.00  0.00     0.000 C 
BRANCH  15  16
ATOM     16  C   UNL     1      -4.619  -1.333  38.828  1.00  0.00     0.000 C 
BRANCH  16  17
ATOM     17  C   UNL     1      -3.515  -0.270  38.937  1.00  0.00     0.000 C 
BRANCH  17  18
ATOM     18  C   UNL     1      -3.965   1.106  38.415  1.00  0.00    -0.000 C 
BRANCH  18  19
ATOM     19  C   UNL     1      -3.047   1.647  37.307  1.00  0.00    -0.000 C 
BRANCH  19  20
ATOM     20  C   UNL     1      -3.743   1.708  35.939  1.00  0.00    -0.000 C 
BRANCH  20  21
ATOM     21  C   UNL     1      -3.898   0.305  35.339  1.00  0.00    -0.000 C 
BRANCH  21  22
ATOM     22  C   UNL     1      -3.955   0.366  33.805  1.00  0.00    -0.000 C 
BRANCH  22  23
ATOM     23  C   UNL     1      -5.322   0.834  33.276  1.00  0.00    -0.000 C 
BRANCH  23  24
ATOM     24  C   UNL     1      -6.529   0.003  33.755  1.00  0.00    -0.000 C 
BRANCH  24  25
ATOM     25  C   UNL     1      -7.738   0.829  34.229  1.00  0.00    -0.003 C 
ATOM     26  C   UNL     1      -7.472   1.585  35.529  1.00  0.00     0.004 C 
ENDBRANCH  24  25
ENDBRANCH  23  24
ENDBRANCH  22  23
ENDBRANCH  21  22
ENDBRANCH  20  21
ENDBRANCH  19  20
ENDBRANCH  18  19
ENDBRANCH  17  18
ENDBRANCH  16  17
ENDBRANCH  15  16
ENDBRANCH   1  15
TORSDOF 22
ENDMDL
MODEL 6
REMARK VINA RESULT:    -2.966      1.269      2.677
REMARK INTER + INTRA:         -11.761
REMARK INTER:                  -7.488
REMARK INTRA:                  -4.273
REMARK UNBOUND:                -4.980
REMARK SMILES CCCCCCCCCCCCCCCCCCCCCCCC(=O)[O-]
REMARK SMILES IDX 13 1 14 2 15 3 16 4 17 5 18 6 19 7 20 8 21 9 22 10 23 11
REMARK SMILES IDX 24 12 25 13 26 14 12 15 11 16 10 17 9 18 8 19 7 20 6 21 5 22
REMARK SMILES IDX 4 23 3 24 2 25 1 26
REMARK H PARENT
REMARK Flexibility Score: inf
ROOT
ATOM      1  C   UNL     1      -5.173  -1.437  34.156  1.00  0.00     0.000 C 
ENDROOT
BRANCH   1   2
ATOM      2  C   UNL     1      -4.491  -2.812  34.241  1.00  0.00     0.000 C 
BRANCH   2   3
ATOM      3  C   UNL     1      -4.524  -3.398  35.661  1.00  0.00     0.000 C 
BRANCH   3   4
ATOM      4  C   UNL     1      -5.701  -2.860  36.491  1.00  0.00     0.000 C 
BRANCH   4   5
ATOM      5  C   UNL     1      -5.245  -2.085  37.740  1.00  0.00     0.000 C 
BRANCH   5   6
ATOM      6  C   UNL     1      -5.997  -0.763  38.001  1.00  0.00     0.000 C 
BRANCH   6   7
ATOM      7  C   UNL     1      -7.243  -0.538  37.125  1.00  0.00     0.000 C 
BRANCH   7   8
ATOM      8  C   UNL     1      -7.333   0.896  36.574  1.00  0.00     0.000 C 
BRANCH   8   9
ATOM      9  C   UNL     1      -8.469   1.063  35.552  1.00  0.00     0.000 C 
BRANCH   9  10
ATOM     10  C   UNL     1      -7.990   0.870  34.102  1.00  0.00     0.006 C 
BRANCH  10  11
ATOM     11  C   UNL     1      -7.035   1.985  33.656  1.00  0.00     0.053 C 
BRANCH  11  12
ATOM     12  C   UNL     1      -6.854   2.000  32.169  1.00  0.00     0.041 C 
ATOM     13  O   UNL     1      -5.719   2.222  31.670  1.00  0.00    -0.550 OA
ATOM     14  O   UNL     1      -7.946   1.798  31.333  1.00  0.00    -0.550 OA
ENDBRANCH  11  12
ENDBRANCH  10  11
ENDBRANCH   9  10
ENDBRANCH   8   9
ENDBRANCH   7   8
ENDBRANCH   6   7
ENDBRANCH   5   6
ENDBRANCH   4   5
ENDBRANCH   3   4
ENDBRANCH   2   3
ENDBRANCH   1   2
BRANCH   1  15
ATOM     15  C   UNL     1      -4.146  -0.328  33.899  1.00  0.00     0.000 C 
BRANCH  15  16
ATOM     16  C   UNL     1      -3.973   0.559  35.141  1.00  0.00     0.000 C 
BRANCH  16  17
ATOM     17  C   UNL     1      -2.513   0.635  35.614  1.00  0.00     0.000 C 
BRANCH  17  18
ATOM     18  C   UNL     1      -2.346   0.224  37.088  1.00  0.00    -0.000 C 
BRANCH  18  19
ATOM     19  C   UNL     1      -1.842  -1.219  37.245  1.00  0.00    -0.000 C 
BRANCH  19  20
ATOM     20  C   UNL     1      -1.256  -1.786  35.943  1.00  0.00    -0.000 C 
BRANCH  20  21
ATOM     21  C   UNL     1      -0.136  -2.792  36.236  1.00  0.00    -0.000 C 
BRANCH  21  22
ATOM     22  C   UNL     1       1.191  -2.337  35.611  1.00  0.00    -0.000 C 
BRANCH  22  23
ATOM     23  C   UNL     1       1.682  -0.989  36.166  1.00  0.00    -0.000 C 
BRANCH  23  24
ATOM     24  C   UNL     1       2.071   0.055  35.100  1.00  0.00    -0.000 C 
BRANCH  24  25
ATOM     25  C   UNL     1       0.913   0.531  34.205  1.00  0.00    -0.003 C 
ATOM     26  C   UNL     1       1.006  -0.001  32.775  1.00  0.00     0.004 C 
ENDBRANCH  24  25
ENDBRANCH  23  24
ENDBRANCH  22  23
ENDBRANCH  21  22
ENDBRANCH  20  21
ENDBRANCH  19  20
ENDBRANCH  18  19
ENDBRANCH  17  18
ENDBRANCH  16  17
ENDBRANCH  15  16
ENDBRANCH   1  15
TORSDOF 22
ENDMDL
MODEL 7
REMARK VINA RESULT:    -2.944      1.861      5.491
REMARK INTER + INTRA:         -11.711
REMARK INTER:                  -6.814
REMARK INTRA:                  -4.897
REMARK UNBOUND:                -4.980
REMARK SMILES CCCCCCCCCCCCCCCCCCCCCCCC(=O)[O-]
REMARK SMILES IDX 13 1 14 2 15 3 16 4 17 5 18 6 19 7 20 8 21 9 22 10 23 11
REMARK SMILES IDX 24 12 25 13 26 14 12 15 11 16 10 17 9 18 8 19 7 20 6 21 5 22
REMARK SMILES IDX 4 23 3 24 2 25 1 26
REMARK H PARENT
REMARK Flexibility Score: inf
ROOT
ATOM      1  C   UNL     1      -5.015  -2.871  34.438  1.00  0.00     0.000 C 
ENDROOT
BRANCH   1   2
ATOM      2  C   UNL     1      -3.571  -3.215  34.040  1.00  0.00     0.000 C 
BRANCH   2   3
ATOM      3  C   UNL     1      -2.602  -2.044  34.273  1.00  0.00     0.000 C 
BRANCH   3   4
ATOM      4  C   UNL     1      -1.548  -2.359  35.347  1.00  0.00     0.000 C 
BRANCH   4   5
ATOM      5  C   UNL     1      -1.919  -1.796  36.730  1.00  0.00     0.000 C 
BRANCH   5   6
ATOM      6  C   UNL     1      -1.296  -0.425  37.068  1.00  0.00     0.000 C 
BRANCH   6   7
ATOM      7  C   UNL     1      -0.142   0.011  36.146  1.00  0.00     0.000 C 
BRANCH   7   8
ATOM      8  C   UNL     1      -0.358   1.410  35.543  1.00  0.00     0.000 C 
BRANCH   8   9
ATOM      9  C   UNL     1      -0.813   1.355  34.076  1.00  0.00     0.000 C 
BRANCH   9  10
ATOM     10  C   UNL     1      -0.011   0.334  33.248  1.00  0.00     0.006 C 
BRANCH  10  11
ATOM     11  C   UNL     1      -0.681   0.026  31.903  1.00  0.00     0.053 C 
BRANCH  11  12
ATOM     12  C   UNL     1      -1.114   1.275  31.199  1.00  0.00     0.041 C 
ATOM     13  O   UNL     1      -0.257   2.051  30.698  1.00  0.00    -0.550 OA
ATOM     14  O   UNL     1      -2.463   1.598  31.122  1.00  0.00    -0.550 OA
ENDBRANCH  11  12
ENDBRANCH  10  11
ENDBRANCH   9  10
ENDBRANCH   8   9
ENDBRANCH   7   8
ENDBRANCH   6   7
ENDBRANCH   5   6
ENDBRANCH   4   5
ENDBRANCH   3   4
ENDBRANCH   2   3
ENDBRANCH   1   2
BRANCH   1  15
ATOM     15  C   UNL     1      -5.334  -3.380  35.849  1.00  0.00     0.000 C 
BRANCH  15  16
ATOM     16  C   UNL     1      -5.832  -2.237  36.745  1.00  0.00     0.000 C 
BRANCH  16  17
ATOM     17  C   UNL     1      -5.041  -2.127  38.058  1.00  0.00     0.000 C 
BRANCH  17  18
ATOM     18  C   UNL     1      -5.278  -0.789  38.781  1.00  0.00    -0.000 C 
BRANCH  18  19
ATOM     19  C   UNL     1      -6.506  -0.037  38.245  1.00  0.00    -0.000 C 
BRANCH  19  20
ATOM     20  C   UNL     1      -6.158   1.364  37.716  1.00  0.00    -0.000 C 
BRANCH  20  21
ATOM     21  C   UNL     1      -4.643   1.600  37.744  1.00  0.00    -0.000 C 
BRANCH  21  22
ATOM     22  C   UNL     1      -4.104   1.887  36.335  1.00  0.00    -0.000 C 
BRANCH  22  23
ATOM     23  C   UNL     1      -4.379   0.742  35.345  1.00  0.00    -0.000 C 
BRANCH  23  24
ATOM     24  C   UNL     1      -4.529   1.171  33.872  1.00  0.00    -0.000 C 
BRANCH  24  25
ATOM     25  C   UNL     1      -5.752   0.585  33.146  1.00  0.00    -0.003 C 
ATOM     26  C   UNL     1      -6.903   0.248  34.092  1.00  0.00     0.004 C 
ENDBRANCH  24  25
ENDBRANCH  23  24
ENDBRANCH  22  23
ENDBRANCH  21  22
ENDBRANCH  20  21
ENDBRANCH  19  20
ENDBRANCH  18  19
ENDBRANCH  17  18
ENDBRANCH  16  17
ENDBRANCH  15  16
ENDBRANCH   1  15
TORSDOF 22
ENDMDL
MODEL 8
REMARK VINA RESULT:    -2.937      1.654      2.614
REMARK INTER + INTRA:         -11.694
REMARK INTER:                  -7.313
REMARK INTRA:                  -4.382
REMARK UNBOUND:                -4.980
REMARK SMILES CCCCCCCCCCCCCCCCCCCCCCCC(=O)[O-]
REMARK SMILES IDX 13 1 14 2 15 3 16 4 17 5 18 6 19 7 20 8 21 9 22 10 23 11
REMARK SMILES IDX 24 12 25 13 26 14 12 15 11 16 10 17 9 18 8 19 7 20 6 21 5 22
REMARK SMILES IDX 4 23 3 24 2 25 1 26
REMARK H PARENT
REMARK Flexibility Score: inf
ROOT
ATOM      1  C   UNL     1      -3.423  -2.708  34.476  1.00  0.00     0.000 C 
ENDROOT
BRANCH   1   2
ATOM      2  C   UNL     1      -4.948  -2.727  34.666  1.00  0.00     0.000 C 
BRANCH   2   3
ATOM      3  C   UNL     1      -5.360  -3.231  36.058  1.00  0.00     0.000 C 
BRANCH   3   4
ATOM      4  C   UNL     1      -6.050  -2.141  36.896  1.00  0.00     0.000 C 
BRANCH   4   5
ATOM      5  C   UNL     1      -5.189  -1.664  38.080  1.00  0.00     0.000 C 
BRANCH   5   6
ATOM      6  C   UNL     1      -4.472  -0.315  37.865  1.00  0.00     0.000 C 
BRANCH   6   7
ATOM      7  C   UNL     1      -4.910   0.465  36.612  1.00  0.00     0.000 C 
BRANCH   7   8
ATOM      8  C   UNL     1      -3.745   0.751  35.649  1.00  0.00     0.000 C 
BRANCH   8   9
ATOM      9  C   UNL     1      -4.157   1.659  34.480  1.00  0.00     0.000 C 
BRANCH   9  10
ATOM     10  C   UNL     1      -4.658   0.860  33.262  1.00  0.00     0.006 C 
BRANCH  10  11
ATOM     11  C   UNL     1      -5.856   1.533  32.583  1.00  0.00     0.053 C 
BRANCH  11  12
ATOM     12  C   UNL     1      -7.157   0.960  33.054  1.00  0.00     0.041 C 
ATOM     13  O   UNL     1      -8.241   1.545  32.791  1.00  0.00    -0.550 OA
ATOM     14  O   UNL     1      -7.171  -0.205  33.811  1.00  0.00    -0.550 OA
ENDBRANCH  11  12
ENDBRANCH  10  11
ENDBRANCH   9  10
ENDBRANCH   8   9
ENDBRANCH   7   8
ENDBRANCH   6   7
ENDBRANCH   5   6
ENDBRANCH   4   5
ENDBRANCH   3   4
ENDBRANCH   2   3
ENDBRANCH   1   2
BRANCH   1  15
ATOM     15  C   UNL     1      -2.705  -3.233  35.725  1.00  0.00     0.000 C 
BRANCH  15  16
ATOM     16  C   UNL     1      -1.273  -2.686  35.806  1.00  0.00     0.000 C 
BRANCH  16  17
ATOM     17  C   UNL     1      -1.132  -1.543  36.824  1.00  0.00     0.000 C 
BRANCH  17  18
ATOM     18  C   UNL     1      -0.272  -0.381  36.295  1.00  0.00    -0.000 C 
BRANCH  18  19
ATOM     19  C   UNL     1       0.175  -0.592  34.839  1.00  0.00    -0.000 C 
BRANCH  19  20
ATOM     20  C   UNL     1      -0.393   0.470  33.886  1.00  0.00    -0.000 C 
BRANCH  20  21
ATOM     21  C   UNL     1      -1.220  -0.179  32.769  1.00  0.00    -0.000 C 
BRANCH  21  22
ATOM     22  C   UNL     1      -1.383   0.777  31.578  1.00  0.00    -0.000 C 
BRANCH  22  23
ATOM     23  C   UNL     1      -0.040   1.317  31.056  1.00  0.00    -0.000 C 
BRANCH  23  24
ATOM     24  C   UNL     1       0.613   0.477  29.940  1.00  0.00    -0.000 C 
BRANCH  24  25
ATOM     25  C   UNL     1       1.398  -0.753  30.428  1.00  0.00    -0.003 C 
ATOM     26  C   UNL     1       2.398  -0.423  31.534  1.00  0.00     0.004 C 
ENDBRANCH  24  25
ENDBRANCH  23  24
ENDBRANCH  22  23
ENDBRANCH  21  22
ENDBRANCH  20  21
ENDBRANCH  19  20
ENDBRANCH  18  19
ENDBRANCH  17  18
ENDBRANCH  16  17
ENDBRANCH  15  16
ENDBRANCH   1  15
TORSDOF 22
ENDMDL
MODEL 9
REMARK VINA RESULT:    -2.897      1.269      3.175
REMARK INTER + INTRA:         -11.603
REMARK INTER:                  -7.395
REMARK INTRA:                  -4.207
REMARK UNBOUND:                -4.980
REMARK SMILES CCCCCCCCCCCCCCCCCCCCCCCC(=O)[O-]
REMARK SMILES IDX 13 1 14 2 15 3 16 4 17 5 18 6 19 7 20 8 21 9 22 10 23 11
REMARK SMILES IDX 24 12 25 13 26 14 12 15 11 16 10 17 9 18 8 19 7 20 6 21 5 22
REMARK SMILES IDX 4 23 3 24 2 25 1 26
REMARK H PARENT
REMARK Flexibility Score: inf
ROOT
ATOM      1  C   UNL     1      -5.380  -2.946  36.046  1.00  0.00     0.000 C 
ENDROOT
BRANCH   1   2
ATOM      2  C   UNL     1      -4.987  -2.505  37.464  1.00  0.00     0.000 C 
BRANCH   2   3
ATOM      3  C   UNL     1      -5.477  -1.086  37.796  1.00  0.00     0.000 C 
BRANCH   3   4
ATOM      4  C   UNL     1      -6.878  -0.802  37.229  1.00  0.00     0.000 C 
BRANCH   4   5
ATOM      5  C   UNL     1      -6.892   0.370  36.232  1.00  0.00     0.000 C 
BRANCH   5   6
ATOM      6  C   UNL     1      -5.519   1.027  35.976  1.00  0.00     0.000 C 
BRANCH   6   7
ATOM      7  C   UNL     1      -4.876   0.686  34.619  1.00  0.00     0.000 C 
BRANCH   7   8
ATOM      8  C   UNL     1      -5.871   0.058  33.629  1.00  0.00     0.000 C 
BRANCH   8   9
ATOM      9  C   UNL     1      -6.069   0.917  32.369  1.00  0.00     0.000 C 
BRANCH   9  10
ATOM     10  C   UNL     1      -6.859   2.208  32.655  1.00  0.00     0.006 C 
BRANCH  10  11
ATOM     11  C   UNL     1      -8.355   2.048  32.358  1.00  0.00     0.053 C 
BRANCH  11  12
ATOM     12  C   UNL     1      -9.142   1.769  33.601  1.00  0.00     0.041 C 
ATOM     13  O   UNL     1      -9.299   2.670  34.468  1.00  0.00    -0.550 OA
ATOM     14  O   UNL     1      -9.678   0.506  33.817  1.00  0.00    -0.550 OA
ENDBRANCH  11  12
ENDBRANCH  10  11
ENDBRANCH   9  10
ENDBRANCH   8   9
ENDBRANCH   7   8
ENDBRANCH   6   7
ENDBRANCH   5   6
ENDBRANCH   4   5
ENDBRANCH   3   4
ENDBRANCH   2   3
ENDBRANCH   1   2
BRANCH   1  15
ATOM     15  C   UNL     1      -4.232  -3.699  35.365  1.00  0.00     0.000 C 
BRANCH  15  16
ATOM     16  C   UNL     1      -3.681  -2.900  34.174  1.00  0.00     0.000 C 
BRANCH  16  17
ATOM     17  C   UNL     1      -2.419  -2.099  34.532  1.00  0.00     0.000 C 
BRANCH  17  18
ATOM     18  C   UNL     1      -1.618  -2.739  35.681  1.00  0.00    -0.000 C 
BRANCH  18  19
ATOM     19  C   UNL     1      -1.392  -1.773  36.854  1.00  0.00    -0.000 C 
BRANCH  19  20
ATOM     20  C   UNL     1      -1.922  -0.359  36.566  1.00  0.00    -0.000 C 
BRANCH  20  21
ATOM     21  C   UNL     1      -0.956   0.708  37.094  1.00  0.00    -0.000 C 
BRANCH  21  22
ATOM     22  C   UNL     1       0.426   0.573  36.439  1.00  0.00    -0.000 C 
BRANCH  22  23
ATOM     23  C   UNL     1       0.352   0.450  34.907  1.00  0.00    -0.000 C 
BRANCH  23  24
ATOM     24  C   UNL     1       1.423  -0.457  34.270  1.00  0.00    -0.000 C 
BRANCH  24  25
ATOM     25  C   UNL     1       2.212  -1.326  35.265  1.00  0.00    -0.003 C 
ATOM     26  C   UNL     1       1.976  -2.823  35.069  1.00  0.00     0.004 C 
ENDBRANCH  24  25
ENDBRANCH  23  24
ENDBRANCH  22  23
ENDBRANCH  21  22
ENDBRANCH  20  21
ENDBRANCH  19  20
ENDBRANCH  18  19
ENDBRANCH  17  18
ENDBRANCH  16  17
ENDBRANCH  15  16
ENDBRANCH   1  15
TORSDOF 22
ENDMDL
