MODEL 1
REMARK VINA RESULT:    71.759      0.000      0.000
REMARK INTER + INTRA:          90.250
REMARK INTER:                  90.637
REMARK INTRA:                  -0.387
REMARK UNBOUND:                -0.387
REMARK SMILES CC(C)[C@H](C)C=C[C@H](C)[C@H]1CC[C@@H]2C3=CC=C4C[C@@H](O)CC[C@]4(C)[C@@H]3CC[C@]21C
REMARK SMILES IDX 8 1 9 2 7 3 6 4 4 5 5 6 2 7 1 8 3 9 10 10 11 11 28 12 12 13
REMARK SMILES IDX 13 14 27 15 29 16 14 17 26 18 25 19 15 20 23 21 16 22 17 23
REMARK SMILES IDX 22 24 24 25 18 26 21 27 19 28 20 29
REMARK H PARENT 20 30
REMARK Flexibility Score: inf
ROOT
ATOM      1  C   UNL     1      26.589 -31.962  -2.205  1.00  0.00     0.012 C 
ATOM      2  C   UNL     1      26.372 -31.269  -0.841  1.00  0.00     0.012 C 
ENDROOT
BRANCH   1   3
ATOM      3  C   UNL     1      26.792 -30.905  -3.274  1.00  0.00    -0.028 C 
ATOM      4  C   UNL     1      26.158 -30.978  -4.458  1.00  0.00    -0.028 C 
BRANCH   4   5
ATOM      5  C   UNL     1      26.313 -29.920  -5.531  1.00  0.00     0.011 C 
ATOM      6  C   UNL     1      27.581 -29.103  -5.220  1.00  0.00     0.012 C 
BRANCH   5   7
ATOM      7  C   UNL     1      26.289 -30.583  -6.957  1.00  0.00    -0.011 C 
ATOM      8  C   UNL     1      25.427 -29.755  -7.929  1.00  0.00     0.008 C 
ATOM      9  C   UNL     1      27.682 -30.799  -7.587  1.00  0.00     0.008 C 
ENDBRANCH   5   7
ENDBRANCH   4   5
ENDBRANCH   1   3
BRANCH   1  10
ATOM     10  C   UNL     1      27.758 -33.009  -2.264  1.00  0.00     0.002 C 
ATOM     11  C   UNL     1      27.905 -33.713  -3.643  1.00  0.00     0.005 C 
ATOM     12  C   UNL     1      29.201 -32.518  -1.939  1.00  0.00    -0.023 C 
ATOM     13  C   UNL     1      29.280 -33.316  -4.212  1.00  0.00     0.009 C 
ATOM     14  C   UNL     1      29.750 -32.171  -3.321  1.00  0.00     0.021 C 
ATOM     15  C   UNL     1      29.349 -31.276  -1.026  1.00  0.00     0.008 C 
ATOM     16  C   UNL     1      29.980 -33.718  -1.297  1.00  0.00     0.012 C 
ATOM     17  C   UNL     1      31.209 -31.771  -3.267  1.00  0.00    -0.063 C 
ATOM     18  C   UNL     1      30.832 -30.857  -0.894  1.00  0.00     0.009 C 
ATOM     19  C   UNL     1      31.566 -30.675  -2.266  1.00  0.00     0.025 C 
ATOM     20  C   UNL     1      32.017 -32.027  -4.298  1.00  0.00    -0.000 C 
ATOM     21  C   UNL     1      33.126 -30.408  -2.130  1.00  0.00    -0.005 C 
ATOM     22  C   UNL     1      33.329 -31.390  -4.425  1.00  0.00    -0.000 C 
ATOM     23  C   UNL     1      33.842 -30.596  -3.473  1.00  0.00    -0.061 C 
ATOM     24  C   UNL     1      33.828 -31.382  -1.130  1.00  0.00     0.014 C 
ATOM     25  C   UNL     1      33.300 -28.940  -1.641  1.00  0.00     0.017 C 
ATOM     26  C   UNL     1      35.330 -30.342  -3.500  1.00  0.00     0.063 C 
ATOM     27  C   UNL     1      35.369 -31.245  -1.107  1.00  0.00     0.033 C 
ATOM     28  C   UNL     1      35.999 -31.324  -2.519  1.00  0.00     0.118 C 
BRANCH  28  29
ATOM     29  O   UNL     1      37.384 -31.094  -2.453  1.00  0.00    -0.393 OA
ATOM     30  H   UNL     1      37.520 -30.140  -2.197  1.00  0.00     0.210 HD
ENDBRANCH  28  29
ENDBRANCH   1  10
TORSDOF 5
ENDMDL
MODEL 2
REMARK VINA RESULT:    74.062      7.766     11.348
REMARK INTER + INTRA:          93.159
REMARK INTER:                  93.643
REMARK INTRA:                  -0.484
REMARK UNBOUND:                -0.387
REMARK SMILES CC(C)[C@H](C)C=C[C@H](C)[C@H]1CC[C@@H]2C3=CC=C4C[C@@H](O)CC[C@]4(C)[C@@H]3CC[C@]21C
REMARK SMILES IDX 8 1 9 2 7 3 6 4 4 5 5 6 2 7 1 8 3 9 10 10 11 11 28 12 12 13
REMARK SMILES IDX 13 14 27 15 29 16 14 17 26 18 25 19 15 20 23 21 16 22 17 23
REMARK SMILES IDX 22 24 24 25 18 26 21 27 19 28 20 29
REMARK H PARENT 20 30
REMARK Flexibility Score: inf
ROOT
ATOM      1  C   UNL     1      36.791 -27.346  -0.156  1.00  0.00     0.012 C 
ATOM      2  C   UNL     1      36.505 -28.212   1.091  1.00  0.00     0.012 C 
ENDROOT
BRANCH   1   3
ATOM      3  C   UNL     1      35.960 -27.858  -1.318  1.00  0.00    -0.028 C 
ATOM      4  C   UNL     1      35.502 -29.122  -1.345  1.00  0.00    -0.028 C 
BRANCH   4   5
ATOM      5  C   UNL     1      34.642 -29.652  -2.473  1.00  0.00     0.011 C 
ATOM      6  C   UNL     1      35.373 -30.847  -3.115  1.00  0.00     0.012 C 
BRANCH   5   7
ATOM      7  C   UNL     1      33.193 -29.968  -1.951  1.00  0.00    -0.011 C 
ATOM      8  C   UNL     1      32.357 -30.660  -3.045  1.00  0.00     0.008 C 
ATOM      9  C   UNL     1      33.148 -30.830  -0.670  1.00  0.00     0.008 C 
ENDBRANCH   5   7
ENDBRANCH   4   5
ENDBRANCH   1   3
BRANCH   1  10
ATOM     10  C   UNL     1      36.568 -25.801   0.016  1.00  0.00     0.002 C 
ATOM     11  C   UNL     1      35.071 -25.382   0.073  1.00  0.00     0.005 C 
ATOM     12  C   UNL     1      37.199 -25.102   1.259  1.00  0.00    -0.023 C 
ATOM     13  C   UNL     1      34.819 -24.782   1.469  1.00  0.00     0.009 C 
ATOM     14  C   UNL     1      36.061 -25.147   2.275  1.00  0.00     0.021 C 
ATOM     15  C   UNL     1      38.451 -25.756   1.894  1.00  0.00     0.008 C 
ATOM     16  C   UNL     1      37.546 -23.628   0.851  1.00  0.00     0.012 C 
ATOM     17  C   UNL     1      36.410 -24.408   3.549  1.00  0.00    -0.063 C 
ATOM     18  C   UNL     1      38.882 -25.004   3.173  1.00  0.00     0.009 C 
ATOM     19  C   UNL     1      37.728 -24.803   4.212  1.00  0.00     0.025 C 
ATOM     20  C   UNL     1      35.457 -23.801   4.260  1.00  0.00    -0.000 C 
ATOM     21  C   UNL     1      38.127 -23.889   5.449  1.00  0.00    -0.005 C 
ATOM     22  C   UNL     1      35.687 -23.355   5.635  1.00  0.00    -0.000 C 
ATOM     23  C   UNL     1      36.888 -23.434   6.229  1.00  0.00    -0.061 C 
ATOM     24  C   UNL     1      38.872 -22.582   5.027  1.00  0.00     0.014 C 
ATOM     25  C   UNL     1      39.048 -24.741   6.372  1.00  0.00     0.017 C 
ATOM     26  C   UNL     1      37.120 -22.583   7.455  1.00  0.00     0.063 C 
ATOM     27  C   UNL     1      39.124 -21.603   6.200  1.00  0.00     0.033 C 
ATOM     28  C   UNL     1      37.840 -21.295   7.009  1.00  0.00     0.118 C 
BRANCH  28  29
ATOM     29  O   UNL     1      38.141 -20.486   8.119  1.00  0.00    -0.393 OA
ATOM     30  H   UNL     1      39.073 -20.697   8.402  1.00  0.00     0.210 HD
ENDBRANCH  28  29
ENDBRANCH   1  10
TORSDOF 5
ENDMDL
MODEL 3
REMARK VINA RESULT:    74.183     10.215     14.264
REMARK INTER + INTRA:          93.312
REMARK INTER:                  92.915
REMARK INTRA:                   0.397
REMARK UNBOUND:                -0.387
REMARK SMILES CC(C)[C@H](C)C=C[C@H](C)[C@H]1CC[C@@H]2C3=CC=C4C[C@@H](O)CC[C@]4(C)[C@@H]3CC[C@]21C
REMARK SMILES IDX 8 1 9 2 7 3 6 4 4 5 5 6 2 7 1 8 3 9 10 10 11 11 28 12 12 13
REMARK SMILES IDX 13 14 27 15 29 16 14 17 26 18 25 19 15 20 23 21 16 22 17 23
REMARK SMILES IDX 22 24 24 25 18 26 21 27 19 28 20 29
REMARK H PARENT 20 30
REMARK Flexibility Score: inf
ROOT
ATOM      1  C   UNL     1      34.833 -23.728   6.449  1.00  0.00     0.012 C 
ATOM      2  C   UNL     1      34.382 -22.878   7.658  1.00  0.00     0.012 C 
ENDROOT
BRANCH   1   3
ATOM      3  C   UNL     1      36.342 -23.888   6.489  1.00  0.00    -0.028 C 
ATOM      4  C   UNL     1      37.160 -22.828   6.368  1.00  0.00    -0.028 C 
BRANCH   4   5
ATOM      5  C   UNL     1      38.668 -22.951   6.439  1.00  0.00     0.011 C 
ATOM      6  C   UNL     1      39.108 -22.637   7.882  1.00  0.00     0.012 C 
BRANCH   5   7
ATOM      7  C   UNL     1      39.125 -24.356   5.901  1.00  0.00    -0.011 C 
ATOM      8  C   UNL     1      38.377 -25.489   6.630  1.00  0.00     0.008 C 
ATOM      9  C   UNL     1      38.954 -24.546   4.378  1.00  0.00     0.008 C 
ENDBRANCH   5   7
ENDBRANCH   4   5
ENDBRANCH   1   3
BRANCH   1  10
ATOM     10  C   UNL     1      34.153 -25.136   6.308  1.00  0.00     0.002 C 
ATOM     11  C   UNL     1      34.226 -26.004   7.596  1.00  0.00     0.005 C 
ATOM     12  C   UNL     1      32.647 -25.186   5.907  1.00  0.00    -0.023 C 
ATOM     13  C   UNL     1      32.780 -26.223   8.080  1.00  0.00     0.009 C 
ATOM     14  C   UNL     1      31.947 -25.240   7.263  1.00  0.00     0.021 C 
ATOM     15  C   UNL     1      32.074 -23.991   5.106  1.00  0.00     0.008 C 
ATOM     16  C   UNL     1      32.415 -26.505   5.091  1.00  0.00     0.012 C 
ATOM     17  C   UNL     1      30.450 -25.414   7.122  1.00  0.00    -0.063 C 
ATOM     18  C   UNL     1      30.552 -24.147   4.887  1.00  0.00     0.009 C 
ATOM     19  C   UNL     1      29.745 -24.420   6.202  1.00  0.00     0.025 C 
ATOM     20  C   UNL     1      29.757 -26.076   8.051  1.00  0.00    -0.000 C 
ATOM     21  C   UNL     1      28.209 -24.743   5.958  1.00  0.00    -0.005 C 
ATOM     22  C   UNL     1      28.297 -25.998   8.124  1.00  0.00    -0.000 C 
ATOM     23  C   UNL     1      27.561 -25.347   7.210  1.00  0.00    -0.061 C 
ATOM     24  C   UNL     1      27.978 -25.782   4.813  1.00  0.00     0.014 C 
ATOM     25  C   UNL     1      27.508 -23.401   5.597  1.00  0.00     0.017 C 
ATOM     26  C   UNL     1      26.089 -25.674   7.134  1.00  0.00     0.063 C 
ATOM     27  C   UNL     1      26.503 -26.231   4.671  1.00  0.00     0.033 C 
ATOM     28  C   UNL     1      25.891 -26.710   6.010  1.00  0.00     0.118 C 
BRANCH  28  29
ATOM     29  O   UNL     1      24.527 -27.011   5.847  1.00  0.00    -0.393 OA
ATOM     30  H   UNL     1      24.004 -26.289   6.294  1.00  0.00     0.210 HD
ENDBRANCH  28  29
ENDBRANCH   1  10
TORSDOF 5
ENDMDL
