MODEL 1
REMARK VINA RESULT:    -6.643      0.000      0.000
REMARK INTER + INTRA:         -10.951
REMARK INTER:                  -9.943
REMARK INTRA:                  -1.008
REMARK UNBOUND:                -1.008
REMARK SMILES C=C(CC[C@H](C(=O)[O-])[C@@H]1[C@H](O)C[C@@]2(C)C3=C(CC[C@@]12C)[C@@]1(C)CC[C@@H](OC(C)=O)C(C)(C)[C@@H]1CC3)C(C)C
REMARK SMILES IDX 4 1 5 2 6 3 7 4 8 5 9 6 10 7 19 8 12 9 13 10 18 11 20 12
REMARK SMILES IDX 14 13 15 14 17 15 16 16 35 17 21 18 34 19 33 20 23 21 22 22
REMARK SMILES IDX 30 23 24 24 25 25 31 26 32 27 11 28 26 30 27 31 29 32 28 33
REMARK SMILES IDX 3 34 2 35 1 36 36 37 37 38 38 39
REMARK H PARENT 11 29
REMARK Flexibility Score: inf
ROOT
ATOM      1  C   UNL     1      10.349 -11.155 -44.613  1.00  0.00     0.014 C 
ENDROOT
BRANCH   1   2
ATOM      2  C   UNL     1      10.144 -12.694 -44.437  1.00  0.00     0.042 C 
BRANCH   2   3
ATOM      3  C   UNL     1      11.498 -13.331 -44.234  1.00  0.00     0.045 C 
ATOM      4  O   UNL     1      12.338 -13.335 -45.172  1.00  0.00    -0.550 OA
ATOM      5  O   UNL     1      11.794 -13.980 -43.032  1.00  0.00    -0.550 OA
ENDBRANCH   2   3
BRANCH   2   6
ATOM      6  C   UNL     1       9.407 -13.370 -45.651  1.00  0.00     0.033 C 
ATOM      7  C   UNL     1       8.408 -12.459 -46.369  1.00  0.00     0.119 C 
ATOM      8  C   UNL     1       8.616 -14.714 -45.387  1.00  0.00    -0.017 C 
ATOM      9  C   UNL     1       7.639 -13.416 -47.264  1.00  0.00     0.043 C 
ATOM     10  C   UNL     1       7.398 -14.699 -46.432  1.00  0.00    -0.003 C 
ATOM     11  C   UNL     1       9.554 -15.915 -45.666  1.00  0.00     0.012 C 
ATOM     12  C   UNL     1       8.131 -14.813 -43.904  1.00  0.00     0.013 C 
ATOM     13  C   UNL     1       5.992 -14.577 -45.757  1.00  0.00     0.017 C 
ATOM     14  C   UNL     1       7.317 -15.947 -47.365  1.00  0.00    -0.064 C 
ATOM     15  C   UNL     1       8.768 -17.211 -45.782  1.00  0.00     0.032 C 
ATOM     16  C   UNL     1       7.809 -17.161 -46.955  1.00  0.00    -0.064 C 
ATOM     17  C   UNL     1       6.474 -15.815 -48.640  1.00  0.00     0.032 C 
ATOM     18  C   UNL     1       7.481 -18.489 -47.684  1.00  0.00    -0.008 C 
ATOM     19  C   UNL     1       6.258 -17.101 -49.440  1.00  0.00     0.009 C 
ATOM     20  C   UNL     1       6.140 -18.301 -48.476  1.00  0.00     0.009 C 
ATOM     21  C   UNL     1       7.246 -19.608 -46.617  1.00  0.00     0.015 C 
ATOM     22  C   UNL     1       8.720 -18.867 -48.565  1.00  0.00     0.016 C 
ATOM     23  C   UNL     1       5.501 -19.605 -49.093  1.00  0.00     0.005 C 
ATOM     24  C   UNL     1       6.672 -20.908 -47.200  1.00  0.00     0.047 C 
ATOM     25  C   UNL     1       5.355 -20.676 -47.959  1.00  0.00     0.182 C 
ATOM     26  C   UNL     1       4.080 -19.298 -49.642  1.00  0.00     0.015 C 
ATOM     27  C   UNL     1       6.319 -20.181 -50.276  1.00  0.00     0.015 C 
BRANCH   7  28
ATOM     28  O   UNL     1       7.536 -11.853 -45.448  1.00  0.00    -0.393 OA
ATOM     29  H   UNL     1       6.920 -11.279 -45.973  1.00  0.00     0.210 HD
ENDBRANCH   7  28
BRANCH  25  30
ATOM     30  O   UNL     1       4.359 -20.271 -47.007  1.00  0.00    -0.462 OA
BRANCH  30  31
ATOM     31  C   UNL     1       3.349 -21.114 -46.524  1.00  0.00     0.302 C 
ATOM     32  O   UNL     1       2.399 -21.494 -47.268  1.00  0.00    -0.253 OA
ATOM     33  C   UNL     1       3.374 -21.523 -45.087  1.00  0.00     0.139 C 
ENDBRANCH  30  31
ENDBRANCH  25  30
ENDBRANCH   2   6
ENDBRANCH   1   2
BRANCH   1  34
ATOM     34  C   UNL     1      11.005 -10.513 -43.378  1.00  0.00     0.031 C 
BRANCH  34  35
ATOM     35  C   UNL     1      11.315  -9.051 -43.620  1.00  0.00    -0.075 C 
ATOM     36  C   UNL     1      12.105  -8.697 -44.652  1.00  0.00     0.008 C 
BRANCH  35  37
ATOM     37  C   UNL     1      10.731  -8.012 -42.682  1.00  0.00     0.008 C 
ATOM     38  C   UNL     1       9.508  -7.329 -43.318  1.00  0.00     0.012 C 
ATOM     39  C   UNL     1      10.387  -8.603 -41.304  1.00  0.00     0.012 C 
ENDBRANCH  35  37
ENDBRANCH  34  35
ENDBRANCH   1  34
TORSDOF 9
ENDMDL
MODEL 2
REMARK VINA RESULT:    -6.406      1.396      1.878
REMARK INTER + INTRA:         -10.597
REMARK INTER:                  -9.513
REMARK INTRA:                  -1.084
REMARK UNBOUND:                -1.008
REMARK SMILES C=C(CC[C@H](C(=O)[O-])[C@@H]1[C@H](O)C[C@@]2(C)C3=C(CC[C@@]12C)[C@@]1(C)CC[C@@H](OC(C)=O)C(C)(C)[C@@H]1CC3)C(C)C
REMARK SMILES IDX 4 1 5 2 6 3 7 4 8 5 9 6 10 7 19 8 12 9 13 10 18 11 20 12
REMARK SMILES IDX 14 13 15 14 17 15 16 16 35 17 21 18 34 19 33 20 23 21 22 22
REMARK SMILES IDX 30 23 24 24 25 25 31 26 32 27 11 28 26 30 27 31 29 32 28 33
REMARK SMILES IDX 3 34 2 35 1 36 36 37 37 38 38 39
REMARK H PARENT 11 29
REMARK Flexibility Score: inf
ROOT
ATOM      1  C   UNL     1      10.310 -12.393 -45.569  1.00  0.00     0.014 C 
ENDROOT
BRANCH   1   2
ATOM      2  C   UNL     1       9.673 -13.708 -45.012  1.00  0.00     0.042 C 
BRANCH   2   3
ATOM      3  C   UNL     1      10.782 -14.575 -44.467  1.00  0.00     0.045 C 
ATOM      4  O   UNL     1      11.640 -15.066 -45.248  1.00  0.00    -0.550 OA
ATOM      5  O   UNL     1      10.817 -14.896 -43.107  1.00  0.00    -0.550 OA
ENDBRANCH   2   3
BRANCH   2   6
ATOM      6  C   UNL     1       8.844 -14.504 -46.086  1.00  0.00     0.033 C 
ATOM      7  C   UNL     1       7.994 -13.625 -47.007  1.00  0.00     0.119 C 
ATOM      8  C   UNL     1       7.859 -15.633 -45.577  1.00  0.00    -0.017 C 
ATOM      9  C   UNL     1       7.091 -14.623 -47.711  1.00  0.00     0.043 C 
ATOM     10  C   UNL     1       6.658 -15.656 -46.642  1.00  0.00    -0.003 C 
ATOM     11  C   UNL     1       8.605 -16.990 -45.574  1.00  0.00     0.012 C 
ATOM     12  C   UNL     1       7.364 -15.350 -44.121  1.00  0.00     0.013 C 
ATOM     13  C   UNL     1       5.286 -15.190 -46.051  1.00  0.00     0.017 C 
ATOM     14  C   UNL     1       6.391 -17.044 -47.301  1.00  0.00    -0.064 C 
ATOM     15  C   UNL     1       7.633 -18.152 -45.447  1.00  0.00     0.032 C 
ATOM     16  C   UNL     1       6.694 -18.205 -46.635  1.00  0.00    -0.064 C 
ATOM     17  C   UNL     1       5.578 -17.057 -48.603  1.00  0.00     0.032 C 
ATOM     18  C   UNL     1       6.170 -19.593 -47.087  1.00  0.00    -0.008 C 
ATOM     19  C   UNL     1       5.172 -18.434 -49.129  1.00  0.00     0.009 C 
ATOM     20  C   UNL     1       4.873 -19.377 -47.944  1.00  0.00     0.009 C 
ATOM     21  C   UNL     1       5.768 -20.419 -45.822  1.00  0.00     0.015 C 
ATOM     22  C   UNL     1       7.339 -20.324 -47.832  1.00  0.00     0.016 C 
ATOM     23  C   UNL     1       4.045 -20.673 -48.300  1.00  0.00     0.005 C 
ATOM     24  C   UNL     1       5.004 -21.712 -46.144  1.00  0.00     0.047 C 
ATOM     25  C   UNL     1       3.738 -21.451 -46.977  1.00  0.00     0.182 C 
ATOM     26  C   UNL     1       2.688 -20.280 -48.946  1.00  0.00     0.015 C 
ATOM     27  C   UNL     1       4.768 -21.595 -49.314  1.00  0.00     0.015 C 
BRANCH   7  28
ATOM     28  O   UNL     1       7.223 -12.719 -46.258  1.00  0.00    -0.393 OA
ATOM     29  H   UNL     1       6.871 -13.221 -45.479  1.00  0.00     0.210 HD
ENDBRANCH   7  28
BRANCH  25  30
ATOM     30  O   UNL     1       2.814 -20.716 -46.161  1.00  0.00    -0.462 OA
BRANCH  30  31
ATOM     31  C   UNL     1       1.736 -21.297 -45.480  1.00  0.00     0.302 C 
ATOM     32  O   UNL     1       1.918 -22.033 -44.468  1.00  0.00    -0.253 OA
ATOM     33  C   UNL     1       0.351 -21.082 -46.000  1.00  0.00     0.139 C 
ENDBRANCH  30  31
ENDBRANCH  25  30
ENDBRANCH   2   6
ENDBRANCH   1   2
BRANCH   1  34
ATOM     34  C   UNL     1      10.841 -11.486 -44.446  1.00  0.00     0.031 C 
BRANCH  34  35
ATOM     35  C   UNL     1      10.177 -10.126 -44.480  1.00  0.00    -0.075 C 
ATOM     36  C   UNL     1       8.981  -9.980 -45.083  1.00  0.00     0.008 C 
BRANCH  35  37
ATOM     37  C   UNL     1      10.882  -8.948 -43.836  1.00  0.00     0.008 C 
ATOM     38  C   UNL     1      12.089  -8.506 -44.679  1.00  0.00     0.012 C 
ATOM     39  C   UNL     1       9.925  -7.773 -43.572  1.00  0.00     0.012 C 
ENDBRANCH  35  37
ENDBRANCH  34  35
ENDBRANCH   1  34
TORSDOF 9
ENDMDL
MODEL 3
REMARK VINA RESULT:    -6.393      8.517     11.146
REMARK INTER + INTRA:         -10.577
REMARK INTER:                  -9.492
REMARK INTRA:                  -1.086
REMARK UNBOUND:                -1.008
REMARK SMILES C=C(CC[C@H](C(=O)[O-])[C@@H]1[C@H](O)C[C@@]2(C)C3=C(CC[C@@]12C)[C@@]1(C)CC[C@@H](OC(C)=O)C(C)(C)[C@@H]1CC3)C(C)C
REMARK SMILES IDX 4 1 5 2 6 3 7 4 8 5 9 6 10 7 19 8 12 9 13 10 18 11 20 12
REMARK SMILES IDX 14 13 15 14 17 15 16 16 35 17 21 18 34 19 33 20 23 21 22 22
REMARK SMILES IDX 30 23 24 24 25 25 31 26 32 27 11 28 26 30 27 31 29 32 28 33
REMARK SMILES IDX 3 34 2 35 1 36 36 37 37 38 38 39
REMARK H PARENT 11 29
REMARK Flexibility Score: inf
ROOT
ATOM      1  C   UNL     1      15.369 -21.969 -40.357  1.00  0.00     0.014 C 
ENDROOT
BRANCH   1   2
ATOM      2  C   UNL     1      14.444 -21.355 -39.257  1.00  0.00     0.042 C 
BRANCH   2   3
ATOM      3  C   UNL     1      14.676 -22.110 -37.970  1.00  0.00     0.045 C 
ATOM      4  O   UNL     1      14.990 -21.485 -36.922  1.00  0.00    -0.550 OA
ATOM      5  O   UNL     1      14.616 -23.506 -37.955  1.00  0.00    -0.550 OA
ENDBRANCH   2   3
BRANCH   2   6
ATOM      6  C   UNL     1      12.917 -21.389 -39.635  1.00  0.00     0.033 C 
ATOM      7  C   UNL     1      12.633 -21.233 -41.131  1.00  0.00     0.119 C 
ATOM      8  C   UNL     1      11.953 -20.355 -38.926  1.00  0.00    -0.017 C 
ATOM      9  C   UNL     1      11.134 -20.993 -41.181  1.00  0.00     0.043 C 
ATOM     10  C   UNL     1      10.798 -20.050 -40.000  1.00  0.00    -0.003 C 
ATOM     11  C   UNL     1      11.353 -21.010 -37.658  1.00  0.00     0.012 C 
ATOM     12  C   UNL     1      12.718 -19.063 -38.488  1.00  0.00     0.013 C 
ATOM     13  C   UNL     1      10.812 -18.581 -40.538  1.00  0.00     0.017 C 
ATOM     14  C   UNL     1       9.346 -20.307 -39.493  1.00  0.00    -0.064 C 
ATOM     15  C   UNL     1      10.162 -20.219 -37.141  1.00  0.00     0.032 C 
ATOM     16  C   UNL     1       9.040 -20.199 -38.159  1.00  0.00    -0.064 C 
ATOM     17  C   UNL     1       8.248 -20.454 -40.556  1.00  0.00     0.032 C 
ATOM     18  C   UNL     1       7.583 -20.126 -37.636  1.00  0.00    -0.008 C 
ATOM     19  C   UNL     1       6.811 -20.519 -40.035  1.00  0.00     0.009 C 
ATOM     20  C   UNL     1       6.664 -19.609 -38.798  1.00  0.00     0.009 C 
ATOM     21  C   UNL     1       7.513 -19.078 -36.476  1.00  0.00     0.015 C 
ATOM     22  C   UNL     1       7.206 -21.541 -37.077  1.00  0.00     0.016 C 
ATOM     23  C   UNL     1       5.183 -19.232 -38.405  1.00  0.00     0.005 C 
ATOM     24  C   UNL     1       6.081 -18.732 -36.040  1.00  0.00     0.047 C 
ATOM     25  C   UNL     1       5.222 -18.222 -37.209  1.00  0.00     0.182 C 
ATOM     26  C   UNL     1       4.475 -18.529 -39.597  1.00  0.00     0.015 C 
ATOM     27  C   UNL     1       4.319 -20.465 -38.042  1.00  0.00     0.015 C 
BRANCH   7  28
ATOM     28  O   UNL     1      13.318 -20.122 -41.654  1.00  0.00    -0.393 OA
ATOM     29  H   UNL     1      13.823 -20.444 -42.444  1.00  0.00     0.210 HD
ENDBRANCH   7  28
BRANCH  25  30
ATOM     30  O   UNL     1       5.755 -16.958 -37.632  1.00  0.00    -0.462 OA
BRANCH  30  31
ATOM     31  C   UNL     1       5.536 -15.749 -36.956  1.00  0.00     0.302 C 
ATOM     32  O   UNL     1       6.451 -15.203 -36.275  1.00  0.00    -0.253 OA
ATOM     33  C   UNL     1       4.175 -15.132 -37.001  1.00  0.00     0.139 C 
ENDBRANCH  30  31
ENDBRANCH  25  30
ENDBRANCH   2   6
ENDBRANCH   1   2
BRANCH   1  34
ATOM     34  C   UNL     1      16.834 -21.529 -40.193  1.00  0.00     0.031 C 
BRANCH  34  35
ATOM     35  C   UNL     1      17.341 -20.833 -41.438  1.00  0.00    -0.075 C 
ATOM     36  C   UNL     1      16.512 -20.648 -42.484  1.00  0.00     0.008 C 
BRANCH  35  37
ATOM     37  C   UNL     1      18.782 -20.364 -41.482  1.00  0.00     0.008 C 
ATOM     38  C   UNL     1      19.115 -19.750 -42.852  1.00  0.00     0.012 C 
ATOM     39  C   UNL     1      19.109 -19.389 -40.338  1.00  0.00     0.012 C 
ENDBRANCH  35  37
ENDBRANCH  34  35
ENDBRANCH   1  34
TORSDOF 9
ENDMDL
MODEL 4
REMARK VINA RESULT:    -6.240      5.986     10.507
REMARK INTER + INTRA:         -10.349
REMARK INTER:                  -9.081
REMARK INTRA:                  -1.269
REMARK UNBOUND:                -1.008
REMARK SMILES C=C(CC[C@H](C(=O)[O-])[C@@H]1[C@H](O)C[C@@]2(C)C3=C(CC[C@@]12C)[C@@]1(C)CC[C@@H](OC(C)=O)C(C)(C)[C@@H]1CC3)C(C)C
REMARK SMILES IDX 4 1 5 2 6 3 7 4 8 5 9 6 10 7 19 8 12 9 13 10 18 11 20 12
REMARK SMILES IDX 14 13 15 14 17 15 16 16 35 17 21 18 34 19 33 20 23 21 22 22
REMARK SMILES IDX 30 23 24 24 25 25 31 26 32 27 11 28 26 30 27 31 29 32 28 33
REMARK SMILES IDX 3 34 2 35 1 36 36 37 37 38 38 39
REMARK H PARENT 11 29
REMARK Flexibility Score: inf
ROOT
ATOM      1  C   UNL     1       6.589 -20.980 -38.183  1.00  0.00     0.014 C 
ENDROOT
BRANCH   1   2
ATOM      2  C   UNL     1       7.335 -19.613 -38.322  1.00  0.00     0.042 C 
BRANCH   2   3
ATOM      3  C   UNL     1       6.416 -18.522 -37.829  1.00  0.00     0.045 C 
ATOM      4  O   UNL     1       6.696 -17.891 -36.775  1.00  0.00    -0.550 OA
ATOM      5  O   UNL     1       5.216 -18.260 -38.497  1.00  0.00    -0.550 OA
ENDBRANCH   2   3
BRANCH   2   6
ATOM      6  C   UNL     1       7.803 -19.303 -39.791  1.00  0.00     0.033 C 
ATOM      7  C   UNL     1       8.497 -20.473 -40.493  1.00  0.00     0.119 C 
ATOM      8  C   UNL     1       8.759 -18.064 -40.021  1.00  0.00    -0.017 C 
ATOM      9  C   UNL     1       9.102 -19.831 -41.730  1.00  0.00     0.043 C 
ATOM     10  C   UNL     1       9.667 -18.460 -41.284  1.00  0.00    -0.003 C 
ATOM     11  C   UNL     1       7.901 -16.816 -40.342  1.00  0.00     0.012 C 
ATOM     12  C   UNL     1       9.610 -17.751 -38.746  1.00  0.00     0.013 C 
ATOM     13  C   UNL     1      11.180 -18.655 -40.934  1.00  0.00     0.017 C 
ATOM     14  C   UNL     1       9.629 -17.444 -42.466  1.00  0.00    -0.064 C 
ATOM     15  C   UNL     1       8.752 -15.696 -40.921  1.00  0.00     0.032 C 
ATOM     16  C   UNL     1       9.375 -16.114 -42.238  1.00  0.00    -0.064 C 
ATOM     17  C   UNL     1      10.107 -17.943 -43.836  1.00  0.00     0.032 C 
ATOM     18  C   UNL     1       9.633 -15.016 -43.301  1.00  0.00    -0.008 C 
ATOM     19  C   UNL     1      10.236 -16.883 -44.931  1.00  0.00     0.009 C 
ATOM     20  C   UNL     1      10.707 -15.550 -44.313  1.00  0.00     0.009 C 
ATOM     21  C   UNL     1      10.235 -13.758 -42.593  1.00  0.00     0.015 C 
ATOM     22  C   UNL     1       8.254 -14.638 -43.941  1.00  0.00     0.016 C 
ATOM     23  C   UNL     1      11.291 -14.498 -45.335  1.00  0.00     0.005 C 
ATOM     24  C   UNL     1      10.766 -12.695 -43.568  1.00  0.00     0.047 C 
ATOM     25  C   UNL     1      11.820 -13.261 -44.533  1.00  0.00     0.182 C 
ATOM     26  C   UNL     1      12.491 -15.112 -46.108  1.00  0.00     0.015 C 
ATOM     27  C   UNL     1      10.260 -14.050 -46.400  1.00  0.00     0.015 C 
BRANCH   7  28
ATOM     28  O   UNL     1       9.511 -21.010 -39.682  1.00  0.00    -0.393 OA
ATOM     29  H   UNL     1       9.740 -21.897 -40.061  1.00  0.00     0.210 HD
ENDBRANCH   7  28
BRANCH  25  30
ATOM     30  O   UNL     1      12.980 -13.615 -43.765  1.00  0.00    -0.462 OA
BRANCH  30  31
ATOM     31  C   UNL     1      14.167 -12.869 -43.750  1.00  0.00     0.302 C 
ATOM     32  O   UNL     1      14.268 -11.812 -43.064  1.00  0.00    -0.253 OA
ATOM     33  C   UNL     1      15.310 -13.310 -44.607  1.00  0.00     0.139 C 
ENDBRANCH  30  31
ENDBRANCH  25  30
ENDBRANCH   2   6
ENDBRANCH   1   2
BRANCH   1  34
ATOM     34  C   UNL     1       6.577 -21.489 -36.732  1.00  0.00     0.031 C 
BRANCH  34  35
ATOM     35  C   UNL     1       7.768 -22.380 -36.453  1.00  0.00    -0.075 C 
ATOM     36  C   UNL     1       8.093 -23.354 -37.324  1.00  0.00     0.008 C 
BRANCH  35  37
ATOM     37  C   UNL     1       8.571 -22.158 -35.185  1.00  0.00     0.008 C 
ATOM     38  C   UNL     1       9.433 -23.389 -34.862  1.00  0.00     0.012 C 
ATOM     39  C   UNL     1       9.424 -20.880 -35.256  1.00  0.00     0.012 C 
ENDBRANCH  35  37
ENDBRANCH  34  35
ENDBRANCH   1  34
TORSDOF 9
ENDMDL
MODEL 5
REMARK VINA RESULT:    -6.164      7.817     10.265
REMARK INTER + INTRA:         -10.234
REMARK INTER:                  -8.900
REMARK INTRA:                  -1.334
REMARK UNBOUND:                -1.008
REMARK SMILES C=C(CC[C@H](C(=O)[O-])[C@@H]1[C@H](O)C[C@@]2(C)C3=C(CC[C@@]12C)[C@@]1(C)CC[C@@H](OC(C)=O)C(C)(C)[C@@H]1CC3)C(C)C
REMARK SMILES IDX 4 1 5 2 6 3 7 4 8 5 9 6 10 7 19 8 12 9 13 10 18 11 20 12
REMARK SMILES IDX 14 13 15 14 17 15 16 16 35 17 21 18 34 19 33 20 23 21 22 22
REMARK SMILES IDX 30 23 24 24 25 25 31 26 32 27 11 28 26 30 27 31 29 32 28 33
REMARK SMILES IDX 3 34 2 35 1 36 36 37 37 38 38 39
REMARK H PARENT 11 29
REMARK Flexibility Score: inf
ROOT
ATOM      1  C   UNL     1       2.608 -13.493 -40.849  1.00  0.00     0.014 C 
ENDROOT
BRANCH   1   2
ATOM      2  C   UNL     1       2.670 -15.008 -40.470  1.00  0.00     0.042 C 
BRANCH   2   3
ATOM      3  C   UNL     1       1.616 -15.276 -39.423  1.00  0.00     0.045 C 
ATOM      4  O   UNL     1       0.587 -15.940 -39.721  1.00  0.00    -0.550 OA
ATOM      5  O   UNL     1       1.742 -14.726 -38.144  1.00  0.00    -0.550 OA
ENDBRANCH   2   3
BRANCH   2   6
ATOM      6  C   UNL     1       4.081 -15.463 -39.945  1.00  0.00     0.033 C 
ATOM      7  C   UNL     1       5.260 -14.952 -40.777  1.00  0.00     0.119 C 
ATOM      8  C   UNL     1       4.345 -17.013 -39.772  1.00  0.00    -0.017 C 
ATOM      9  C   UNL     1       6.434 -15.764 -40.258  1.00  0.00     0.043 C 
ATOM     10  C   UNL     1       5.915 -17.207 -40.048  1.00  0.00    -0.003 C 
ATOM     11  C   UNL     1       3.997 -17.426 -38.320  1.00  0.00     0.012 C 
ATOM     12  C   UNL     1       3.457 -17.859 -40.742  1.00  0.00     0.013 C 
ATOM     13  C   UNL     1       6.228 -18.024 -41.345  1.00  0.00     0.017 C 
ATOM     14  C   UNL     1       6.703 -17.908 -38.900  1.00  0.00    -0.064 C 
ATOM     15  C   UNL     1       4.561 -18.798 -37.988  1.00  0.00     0.032 C 
ATOM     16  C   UNL     1       6.075 -18.793 -38.059  1.00  0.00    -0.064 C 
ATOM     17  C   UNL     1       8.229 -17.746 -38.895  1.00  0.00     0.032 C 
ATOM     18  C   UNL     1       6.851 -19.751 -37.118  1.00  0.00    -0.008 C 
ATOM     19  C   UNL     1       8.993 -18.591 -37.874  1.00  0.00     0.009 C 
ATOM     20  C   UNL     1       8.293 -19.955 -37.699  1.00  0.00     0.009 C 
ATOM     21  C   UNL     1       6.140 -21.144 -37.116  1.00  0.00     0.015 C 
ATOM     22  C   UNL     1       6.801 -19.143 -35.674  1.00  0.00     0.016 C 
ATOM     23  C   UNL     1       9.167 -21.083 -37.025  1.00  0.00     0.005 C 
ATOM     24  C   UNL     1       6.948 -22.250 -36.420  1.00  0.00     0.047 C 
ATOM     25  C   UNL     1       8.350 -22.419 -37.028  1.00  0.00     0.182 C 
ATOM     26  C   UNL     1      10.465 -21.318 -37.847  1.00  0.00     0.015 C 
ATOM     27  C   UNL     1       9.612 -20.727 -35.585  1.00  0.00     0.015 C 
BRANCH   7  28
ATOM     28  O   UNL     1       5.056 -15.216 -42.143  1.00  0.00    -0.393 OA
ATOM     29  H   UNL     1       4.847 -16.182 -42.219  1.00  0.00     0.210 HD
ENDBRANCH   7  28
BRANCH  25  30
ATOM     30  O   UNL     1       8.196 -22.914 -38.367  1.00  0.00    -0.462 OA
BRANCH  30  31
ATOM     31  C   UNL     1       8.143 -24.276 -38.698  1.00  0.00     0.302 C 
ATOM     32  O   UNL     1       7.499 -24.682 -39.707  1.00  0.00    -0.253 OA
ATOM     33  C   UNL     1       8.819 -25.264 -37.802  1.00  0.00     0.139 C 
ENDBRANCH  30  31
ENDBRANCH  25  30
ENDBRANCH   2   6
ENDBRANCH   1   2
BRANCH   1  34
ATOM     34  C   UNL     1       1.491 -13.195 -41.864  1.00  0.00     0.031 C 
BRANCH  34  35
ATOM     35  C   UNL     1       0.452 -12.261 -41.279  1.00  0.00    -0.075 C 
ATOM     36  C   UNL     1      -0.583 -11.854 -42.037  1.00  0.00     0.008 C 
BRANCH  35  37
ATOM     37  C   UNL     1       0.609 -11.797 -39.843  1.00  0.00     0.008 C 
ATOM     38  C   UNL     1       0.873 -10.283 -39.785  1.00  0.00     0.012 C 
ATOM     39  C   UNL     1      -0.599 -12.187 -38.974  1.00  0.00     0.012 C 
ENDBRANCH  35  37
ENDBRANCH  34  35
ENDBRANCH   1  34
TORSDOF 9
ENDMDL
MODEL 6
REMARK VINA RESULT:    -6.128      8.835     12.470
REMARK INTER + INTRA:         -10.182
REMARK INTER:                  -8.804
REMARK INTRA:                  -1.377
REMARK UNBOUND:                -1.008
REMARK SMILES C=C(CC[C@H](C(=O)[O-])[C@@H]1[C@H](O)C[C@@]2(C)C3=C(CC[C@@]12C)[C@@]1(C)CC[C@@H](OC(C)=O)C(C)(C)[C@@H]1CC3)C(C)C
REMARK SMILES IDX 4 1 5 2 6 3 7 4 8 5 9 6 10 7 19 8 12 9 13 10 18 11 20 12
REMARK SMILES IDX 14 13 15 14 17 15 16 16 35 17 21 18 34 19 33 20 23 21 22 22
REMARK SMILES IDX 30 23 24 24 25 25 31 26 32 27 11 28 26 30 27 31 29 32 28 33
REMARK SMILES IDX 3 34 2 35 1 36 36 37 37 38 38 39
REMARK H PARENT 11 29
REMARK Flexibility Score: inf
ROOT
ATOM      1  C   UNL     1       7.957 -23.145 -37.119  1.00  0.00     0.014 C 
ENDROOT
BRANCH   1   2
ATOM      2  C   UNL     1       7.952 -21.602 -36.869  1.00  0.00     0.042 C 
BRANCH   2   3
ATOM      3  C   UNL     1       8.605 -21.338 -35.534  1.00  0.00     0.045 C 
ATOM      4  O   UNL     1       8.268 -22.013 -34.524  1.00  0.00    -0.550 OA
ATOM      5  O   UNL     1       9.528 -20.298 -35.397  1.00  0.00    -0.550 OA
ENDBRANCH   2   3
BRANCH   2   6
ATOM      6  C   UNL     1       6.513 -20.968 -36.901  1.00  0.00     0.033 C 
ATOM      7  C   UNL     1       5.511 -21.720 -37.780  1.00  0.00     0.119 C 
ATOM      8  C   UNL     1       6.377 -19.452 -37.332  1.00  0.00    -0.017 C 
ATOM      9  C   UNL     1       4.339 -20.758 -37.878  1.00  0.00     0.043 C 
ATOM     10  C   UNL     1       4.942 -19.342 -38.043  1.00  0.00    -0.003 C 
ATOM     11  C   UNL     1       6.423 -18.560 -36.066  1.00  0.00     0.012 C 
ATOM     12  C   UNL     1       7.547 -19.016 -38.274  1.00  0.00     0.013 C 
ATOM     13  C   UNL     1       5.021 -19.028 -39.573  1.00  0.00     0.017 C 
ATOM     14  C   UNL     1       3.988 -18.269 -37.435  1.00  0.00    -0.064 C 
ATOM     15  C   UNL     1       5.942 -17.150 -36.368  1.00  0.00     0.032 C 
ATOM     16  C   UNL     1       4.493 -17.155 -36.812  1.00  0.00    -0.064 C 
ATOM     17  C   UNL     1       2.494 -18.394 -37.761  1.00  0.00     0.032 C 
ATOM     18  C   UNL     1       3.625 -15.915 -36.476  1.00  0.00    -0.008 C 
ATOM     19  C   UNL     1       1.607 -17.232 -37.310  1.00  0.00     0.009 C 
ATOM     20  C   UNL     1       2.384 -15.905 -37.435  1.00  0.00     0.009 C 
ATOM     21  C   UNL     1       4.457 -14.622 -36.764  1.00  0.00     0.015 C 
ATOM     22  C   UNL     1       3.279 -15.977 -34.949  1.00  0.00     0.016 C 
ATOM     23  C   UNL     1       1.500 -14.598 -37.423  1.00  0.00     0.005 C 
ATOM     24  C   UNL     1       3.628 -13.329 -36.708  1.00  0.00     0.047 C 
ATOM     25  C   UNL     1       2.429 -13.362 -37.670  1.00  0.00     0.182 C 
ATOM     26  C   UNL     1       0.457 -14.646 -38.574  1.00  0.00     0.015 C 
ATOM     27  C   UNL     1       0.701 -14.418 -36.108  1.00  0.00     0.015 C 
BRANCH   7  28
ATOM     28  O   UNL     1       6.049 -21.957 -39.057  1.00  0.00    -0.393 OA
ATOM     29  H   UNL     1       6.343 -21.078 -39.411  1.00  0.00     0.210 HD
ENDBRANCH   7  28
BRANCH  25  30
ATOM     30  O   UNL     1       2.937 -13.372 -39.013  1.00  0.00    -0.462 OA
BRANCH  30  31
ATOM     31  C   UNL     1       2.747 -12.329 -39.930  1.00  0.00     0.302 C 
ATOM     32  O   UNL     1       3.019 -11.132 -39.629  1.00  0.00    -0.253 OA
ATOM     33  C   UNL     1       2.158 -12.642 -41.268  1.00  0.00     0.139 C 
ENDBRANCH  30  31
ENDBRANCH  25  30
ENDBRANCH   2   6
ENDBRANCH   1   2
BRANCH   1  34
ATOM     34  C   UNL     1       8.940 -23.548 -38.231  1.00  0.00     0.031 C 
BRANCH  34  35
ATOM     35  C   UNL     1      10.376 -23.395 -37.775  1.00  0.00    -0.075 C 
ATOM     36  C   UNL     1      10.834 -24.140 -36.750  1.00  0.00     0.008 C 
BRANCH  35  37
ATOM     37  C   UNL     1      11.269 -22.395 -38.484  1.00  0.00     0.008 C 
ATOM     38  C   UNL     1      10.448 -21.504 -39.430  1.00  0.00     0.012 C 
ATOM     39  C   UNL     1      12.092 -21.551 -37.495  1.00  0.00     0.012 C 
ENDBRANCH  35  37
ENDBRANCH  34  35
ENDBRANCH   1  34
TORSDOF 9
ENDMDL
MODEL 7
REMARK VINA RESULT:    -6.113      8.809     11.830
REMARK INTER + INTRA:         -10.158
REMARK INTER:                  -8.928
REMARK INTRA:                  -1.230
REMARK UNBOUND:                -1.008
REMARK SMILES C=C(CC[C@H](C(=O)[O-])[C@@H]1[C@H](O)C[C@@]2(C)C3=C(CC[C@@]12C)[C@@]1(C)CC[C@@H](OC(C)=O)C(C)(C)[C@@H]1CC3)C(C)C
REMARK SMILES IDX 4 1 5 2 6 3 7 4 8 5 9 6 10 7 19 8 12 9 13 10 18 11 20 12
REMARK SMILES IDX 14 13 15 14 17 15 16 16 35 17 21 18 34 19 33 20 23 21 22 22
REMARK SMILES IDX 30 23 24 24 25 25 31 26 32 27 11 28 26 30 27 31 29 32 28 33
REMARK SMILES IDX 3 34 2 35 1 36 36 37 37 38 38 39
REMARK H PARENT 11 29
REMARK Flexibility Score: inf
ROOT
ATOM      1  C   UNL     1      12.277 -23.522 -38.267  1.00  0.00     0.014 C 
ENDROOT
BRANCH   1   2
ATOM      2  C   UNL     1      11.212 -22.742 -37.429  1.00  0.00     0.042 C 
BRANCH   2   3
ATOM      3  C   UNL     1      10.414 -23.744 -36.630  1.00  0.00     0.045 C 
ATOM      4  O   UNL     1       9.822 -24.688 -37.216  1.00  0.00    -0.550 OA
ATOM      5  O   UNL     1      10.270 -23.584 -35.249  1.00  0.00    -0.550 OA
ENDBRANCH   2   3
BRANCH   2   6
ATOM      6  C   UNL     1      10.248 -21.862 -38.308  1.00  0.00     0.033 C 
ATOM      7  C   UNL     1      10.938 -21.131 -39.462  1.00  0.00     0.119 C 
ATOM      8  C   UNL     1       9.384 -20.755 -37.581  1.00  0.00    -0.017 C 
ATOM      9  C   UNL     1       9.881 -20.148 -39.936  1.00  0.00     0.043 C 
ATOM     10  C   UNL     1       9.201 -19.584 -38.665  1.00  0.00    -0.003 C 
ATOM     11  C   UNL     1       8.009 -21.357 -37.199  1.00  0.00     0.012 C 
ATOM     12  C   UNL     1      10.074 -20.255 -36.271  1.00  0.00     0.013 C 
ATOM     13  C   UNL     1       9.928 -18.253 -38.281  1.00  0.00     0.017 C 
ATOM     14  C   UNL     1       7.722 -19.193 -38.966  1.00  0.00    -0.064 C 
ATOM     15  C   UNL     1       7.014 -20.268 -36.833  1.00  0.00     0.032 C 
ATOM     16  C   UNL     1       6.746 -19.358 -38.015  1.00  0.00    -0.064 C 
ATOM     17  C   UNL     1       7.452 -18.416 -40.262  1.00  0.00     0.032 C 
ATOM     18  C   UNL     1       5.344 -18.706 -38.129  1.00  0.00    -0.008 C 
ATOM     19  C   UNL     1       6.029 -17.883 -40.444  1.00  0.00     0.009 C 
ATOM     20  C   UNL     1       5.453 -17.460 -39.076  1.00  0.00     0.009 C 
ATOM     21  C   UNL     1       4.910 -18.190 -36.717  1.00  0.00     0.015 C 
ATOM     22  C   UNL     1       4.342 -19.812 -38.605  1.00  0.00     0.016 C 
ATOM     23  C   UNL     1       4.192 -16.513 -39.136  1.00  0.00     0.005 C 
ATOM     24  C   UNL     1       3.653 -17.306 -36.742  1.00  0.00     0.047 C 
ATOM     25  C   UNL     1       3.810 -16.095 -37.676  1.00  0.00     0.182 C 
ATOM     26  C   UNL     1       4.531 -15.219 -39.927  1.00  0.00     0.015 C 
ATOM     27  C   UNL     1       2.978 -17.163 -39.846  1.00  0.00     0.015 C 
BRANCH   7  28
ATOM     28  O   UNL     1      12.073 -20.438 -39.006  1.00  0.00    -0.393 OA
ATOM     29  H   UNL     1      11.742 -19.671 -38.472  1.00  0.00     0.210 HD
ENDBRANCH   7  28
BRANCH  25  30
ATOM     30  O   UNL     1       4.812 -15.231 -37.119  1.00  0.00    -0.462 OA
BRANCH  30  31
ATOM     31  C   UNL     1       4.648 -14.504 -35.931  1.00  0.00     0.302 C 
ATOM     32  O   UNL     1       5.531 -14.516 -35.027  1.00  0.00    -0.253 OA
ATOM     33  C   UNL     1       3.376 -13.747 -35.717  1.00  0.00     0.139 C 
ENDBRANCH  30  31
ENDBRANCH  25  30
ENDBRANCH   2   6
ENDBRANCH   1   2
BRANCH   1  34
ATOM     34  C   UNL     1      13.714 -23.124 -37.890  1.00  0.00     0.031 C 
BRANCH  34  35
ATOM     35  C   UNL     1      14.653 -23.278 -39.068  1.00  0.00    -0.075 C 
ATOM     36  C   UNL     1      15.150 -24.492 -39.372  1.00  0.00     0.008 C 
BRANCH  35  37
ATOM     37  C   UNL     1      15.019 -22.051 -39.881  1.00  0.00     0.008 C 
ATOM     38  C   UNL     1      16.535 -21.991 -40.126  1.00  0.00     0.012 C 
ATOM     39  C   UNL     1      14.236 -21.977 -41.203  1.00  0.00     0.012 C 
ENDBRANCH  35  37
ENDBRANCH  34  35
ENDBRANCH   1  34
TORSDOF 9
ENDMDL
MODEL 8
REMARK VINA RESULT:    -6.104      8.662     11.140
REMARK INTER + INTRA:         -10.145
REMARK INTER:                  -8.511
REMARK INTRA:                  -1.634
REMARK UNBOUND:                -1.008
REMARK SMILES C=C(CC[C@H](C(=O)[O-])[C@@H]1[C@H](O)C[C@@]2(C)C3=C(CC[C@@]12C)[C@@]1(C)CC[C@@H](OC(C)=O)C(C)(C)[C@@H]1CC3)C(C)C
REMARK SMILES IDX 4 1 5 2 6 3 7 4 8 5 9 6 10 7 19 8 12 9 13 10 18 11 20 12
REMARK SMILES IDX 14 13 15 14 17 15 16 16 35 17 21 18 34 19 33 20 23 21 22 22
REMARK SMILES IDX 30 23 24 24 25 25 31 26 32 27 11 28 26 30 27 31 29 32 28 33
REMARK SMILES IDX 3 34 2 35 1 36 36 37 37 38 38 39
REMARK H PARENT 11 29
REMARK Flexibility Score: inf
ROOT
ATOM      1  C   UNL     1       0.652 -13.955 -37.891  1.00  0.00     0.014 C 
ENDROOT
BRANCH   1   2
ATOM      2  C   UNL     1       1.508 -14.996 -38.682  1.00  0.00     0.042 C 
BRANCH   2   3
ATOM      3  C   UNL     1       0.568 -15.897 -39.446  1.00  0.00     0.045 C 
ATOM      4  O   UNL     1       0.715 -16.051 -40.688  1.00  0.00    -0.550 OA
ATOM      5  O   UNL     1      -0.509 -16.502 -38.793  1.00  0.00    -0.550 OA
ENDBRANCH   2   3
BRANCH   2   6
ATOM      6  C   UNL     1       2.452 -15.856 -37.763  1.00  0.00     0.033 C 
ATOM      7  C   UNL     1       2.959 -15.124 -36.518  1.00  0.00     0.119 C 
ATOM      8  C   UNL     1       3.744 -16.495 -38.415  1.00  0.00    -0.017 C 
ATOM      9  C   UNL     1       4.055 -16.037 -35.995  1.00  0.00     0.043 C 
ATOM     10  C   UNL     1       4.830 -16.550 -37.233  1.00  0.00    -0.003 C 
ATOM     11  C   UNL     1       3.408 -17.924 -38.907  1.00  0.00     0.012 C 
ATOM     12  C   UNL     1       4.239 -15.663 -39.644  1.00  0.00     0.013 C 
ATOM     13  C   UNL     1       6.054 -15.603 -37.460  1.00  0.00     0.017 C 
ATOM     14  C   UNL     1       5.428 -17.963 -36.956  1.00  0.00    -0.064 C 
ATOM     15  C   UNL     1       4.672 -18.714 -39.208  1.00  0.00     0.032 C 
ATOM     16  C   UNL     1       5.506 -18.899 -37.956  1.00  0.00    -0.064 C 
ATOM     17  C   UNL     1       6.122 -18.177 -35.604  1.00  0.00     0.032 C 
ATOM     18  C   UNL     1       6.364 -20.185 -37.837  1.00  0.00    -0.008 C 
ATOM     19  C   UNL     1       6.860 -19.506 -35.429  1.00  0.00     0.009 C 
ATOM     20  C   UNL     1       7.488 -19.934 -36.772  1.00  0.00     0.009 C 
ATOM     21  C   UNL     1       7.064 -20.455 -39.209  1.00  0.00     0.015 C 
ATOM     22  C   UNL     1       5.397 -21.373 -37.508  1.00  0.00     0.016 C 
ATOM     23  C   UNL     1       8.618 -21.031 -36.673  1.00  0.00     0.005 C 
ATOM     24  C   UNL     1       8.134 -21.556 -39.151  1.00  0.00     0.047 C 
ATOM     25  C   UNL     1       9.218 -21.262 -38.101  1.00  0.00     0.182 C 
ATOM     26  C   UNL     1       9.765 -20.536 -35.750  1.00  0.00     0.015 C 
ATOM     27  C   UNL     1       8.114 -22.368 -36.076  1.00  0.00     0.015 C 
BRANCH   7  28
ATOM     28  O   UNL     1       3.497 -13.871 -36.861  1.00  0.00    -0.393 OA
ATOM     29  H   UNL     1       4.250 -14.044 -37.482  1.00  0.00     0.210 HD
ENDBRANCH   7  28
BRANCH  25  30
ATOM     30  O   UNL     1       9.954 -20.108 -38.533  1.00  0.00    -0.462 OA
BRANCH  30  31
ATOM     31  C   UNL     1      11.283 -20.147 -38.977  1.00  0.00     0.302 C 
ATOM     32  O   UNL     1      11.711 -21.102 -39.686  1.00  0.00    -0.253 OA
ATOM     33  C   UNL     1      12.219 -19.062 -38.552  1.00  0.00     0.139 C 
ENDBRANCH  30  31
ENDBRANCH  25  30
ENDBRANCH   2   6
ENDBRANCH   1   2
BRANCH   1  34
ATOM     34  C   UNL     1       0.002 -12.915 -38.820  1.00  0.00     0.031 C 
BRANCH  34  35
ATOM     35  C   UNL     1       1.048 -12.149 -39.602  1.00  0.00    -0.075 C 
ATOM     36  C   UNL     1       1.992 -11.447 -38.947  1.00  0.00     0.008 C 
BRANCH  35  37
ATOM     37  C   UNL     1       1.001 -12.184 -41.118  1.00  0.00     0.008 C 
ATOM     38  C   UNL     1       2.229 -12.915 -41.685  1.00  0.00     0.012 C 
ATOM     39  C   UNL     1      -0.308 -12.798 -41.644  1.00  0.00     0.012 C 
ENDBRANCH  35  37
ENDBRANCH  34  35
ENDBRANCH   1  34
TORSDOF 9
ENDMDL
MODEL 9
REMARK VINA RESULT:    -5.930      5.193      9.921
REMARK INTER + INTRA:          -9.884
REMARK INTER:                  -8.576
REMARK INTRA:                  -1.308
REMARK UNBOUND:                -1.008
REMARK SMILES C=C(CC[C@H](C(=O)[O-])[C@@H]1[C@H](O)C[C@@]2(C)C3=C(CC[C@@]12C)[C@@]1(C)CC[C@@H](OC(C)=O)C(C)(C)[C@@H]1CC3)C(C)C
REMARK SMILES IDX 4 1 5 2 6 3 7 4 8 5 9 6 10 7 19 8 12 9 13 10 18 11 20 12
REMARK SMILES IDX 14 13 15 14 17 15 16 16 35 17 21 18 34 19 33 20 23 21 22 22
REMARK SMILES IDX 30 23 24 24 25 25 31 26 32 27 11 28 26 30 27 31 29 32 28 33
REMARK SMILES IDX 3 34 2 35 1 36 36 37 37 38 38 39
REMARK H PARENT 11 29
REMARK Flexibility Score: inf
ROOT
ATOM      1  C   UNL     1       5.449 -19.148 -39.036  1.00  0.00     0.014 C 
ENDROOT
BRANCH   1   2
ATOM      2  C   UNL     1       6.337 -17.871 -39.183  1.00  0.00     0.042 C 
BRANCH   2   3
ATOM      3  C   UNL     1       5.481 -16.664 -38.887  1.00  0.00     0.045 C 
ATOM      4  O   UNL     1       5.843 -15.834 -38.010  1.00  0.00    -0.550 OA
ATOM      5  O   UNL     1       4.250 -16.502 -39.530  1.00  0.00    -0.550 OA
ENDBRANCH   2   3
BRANCH   2   6
ATOM      6  C   UNL     1       6.998 -17.729 -40.604  1.00  0.00     0.033 C 
ATOM      7  C   UNL     1       7.459 -19.052 -41.221  1.00  0.00     0.119 C 
ATOM      8  C   UNL     1       8.235 -16.755 -40.755  1.00  0.00    -0.017 C 
ATOM      9  C   UNL     1       8.309 -18.612 -42.401  1.00  0.00     0.043 C 
ATOM     10  C   UNL     1       9.136 -17.395 -41.919  1.00  0.00    -0.003 C 
ATOM     11  C   UNL     1       7.726 -15.353 -41.174  1.00  0.00     0.012 C 
ATOM     12  C   UNL     1       9.015 -16.603 -39.408  1.00  0.00     0.013 C 
ATOM     13  C   UNL     1      10.523 -17.923 -41.421  1.00  0.00     0.017 C 
ATOM     14  C   UNL     1       9.446 -16.439 -43.111  1.00  0.00    -0.064 C 
ATOM     15  C   UNL     1       8.865 -14.483 -41.681  1.00  0.00     0.032 C 
ATOM     16  C   UNL     1       9.491 -15.080 -42.926  1.00  0.00    -0.064 C 
ATOM     17  C   UNL     1       9.917 -17.084 -44.422  1.00  0.00     0.032 C 
ATOM     18  C   UNL     1      10.096 -14.110 -43.973  1.00  0.00    -0.008 C 
ATOM     19  C   UNL     1      10.390 -16.122 -45.513  1.00  0.00     0.009 C 
ATOM     20  C   UNL     1      11.102 -14.913 -44.869  1.00  0.00     0.009 C 
ATOM     21  C   UNL     1      10.909 -13.002 -43.226  1.00  0.00     0.015 C 
ATOM     22  C   UNL     1       8.908 -13.445 -44.749  1.00  0.00     0.016 C 
ATOM     23  C   UNL     1      12.008 -14.063 -45.842  1.00  0.00     0.005 C 
ATOM     24  C   UNL     1      11.761 -12.126 -44.157  1.00  0.00     0.047 C 
ATOM     25  C   UNL     1      12.737 -12.955 -45.008  1.00  0.00     0.182 C 
ATOM     26  C   UNL     1      13.097 -14.965 -46.487  1.00  0.00     0.015 C 
ATOM     27  C   UNL     1      11.213 -13.425 -47.008  1.00  0.00     0.015 C 
BRANCH   7  28
ATOM     28  O   UNL     1       8.240 -19.781 -40.308  1.00  0.00    -0.393 OA
ATOM     29  H   UNL     1       9.009 -20.146 -40.817  1.00  0.00     0.210 HD
ENDBRANCH   7  28
BRANCH  25  30
ATOM     30  O   UNL     1      13.706 -13.542 -44.127  1.00  0.00    -0.462 OA
BRANCH  30  31
ATOM     31  C   UNL     1      15.043 -13.127 -44.045  1.00  0.00     0.302 C 
ATOM     32  O   UNL     1      15.954 -13.714 -44.696  1.00  0.00    -0.253 OA
ATOM     33  C   UNL     1      15.396 -12.003 -43.125  1.00  0.00     0.139 C 
ENDBRANCH  30  31
ENDBRANCH  25  30
ENDBRANCH   2   6
ENDBRANCH   1   2
BRANCH   1  34
ATOM     34  C   UNL     1       4.991 -19.371 -37.585  1.00  0.00     0.031 C 
BRANCH  34  35
ATOM     35  C   UNL     1       6.174 -19.475 -36.646  1.00  0.00    -0.075 C 
ATOM     36  C   UNL     1       6.373 -18.524 -35.713  1.00  0.00     0.008 C 
BRANCH  35  37
ATOM     37  C   UNL     1       7.119 -20.654 -36.785  1.00  0.00     0.008 C 
ATOM     38  C   UNL     1       8.210 -20.608 -35.702  1.00  0.00     0.012 C 
ATOM     39  C   UNL     1       6.373 -21.999 -36.770  1.00  0.00     0.012 C 
ENDBRANCH  35  37
ENDBRANCH  34  35
ENDBRANCH   1  34
TORSDOF 9
ENDMDL
