MODEL 1
REMARK VINA RESULT:    -4.955      0.000      0.000
REMARK INTER + INTRA:          -5.335
REMARK INTER:                  -5.245
REMARK INTRA:                  -0.090
REMARK UNBOUND:                -0.090
REMARK SMILES C=C(C)[C@@H]1CC=C(C)C(=O)C1
REMARK SMILES IDX 8 1 7 2 6 3 5 4 4 5 11 6 9 7 10 8 2 9 1 10 3 11
REMARK H PARENT
REMARK Flexibility Score: inf
ROOT
ATOM      1  C   UNL     1       6.363  -1.208  63.228  1.00  0.00     0.048 C 
ATOM      2  C   UNL     1       6.279   0.292  63.160  1.00  0.00    -0.012 C 
ATOM      3  C   UNL     1       6.538   0.931  62.006  1.00  0.00    -0.019 C 
ATOM      4  C   UNL     1       6.390   2.423  61.869  1.00  0.00     0.036 C 
ATOM      5  C   UNL     1       6.672   3.136  63.204  1.00  0.00     0.025 C 
ATOM      6  C   UNL     1       5.776   2.560  64.318  1.00  0.00     0.089 C 
ATOM      7  C   UNL     1       5.887   1.062  64.367  1.00  0.00     0.158 C 
ATOM      8  O   UNL     1       5.596   0.459  65.434  1.00  0.00    -0.295 OA
ENDROOT
BRANCH   5   9
ATOM      9  C   UNL     1       6.504   4.644  63.079  1.00  0.00    -0.077 C 
ATOM     10  C   UNL     1       7.464   5.383  62.503  1.00  0.00     0.008 C 
ATOM     11  C   UNL     1       5.269   5.342  63.593  1.00  0.00     0.039 C 
ENDBRANCH   5   9
TORSDOF 1
ENDMDL
MODEL 2
REMARK VINA RESULT:    -4.893     16.529     18.854
REMARK INTER + INTRA:          -5.269
REMARK INTER:                  -5.179
REMARK INTRA:                  -0.090
REMARK UNBOUND:                -0.090
REMARK SMILES C=C(C)[C@@H]1CC=C(C)C(=O)C1
REMARK SMILES IDX 8 1 7 2 6 3 5 4 4 5 11 6 9 7 10 8 2 9 1 10 3 11
REMARK H PARENT
REMARK Flexibility Score: inf
ROOT
ATOM      1  C   UNL     1      20.749 -12.647  69.539  1.00  0.00     0.048 C 
ATOM      2  C   UNL     1      19.643 -12.198  68.624  1.00  0.00    -0.012 C 
ATOM      3  C   UNL     1      19.119 -13.052  67.728  1.00  0.00    -0.019 C 
ATOM      4  C   UNL     1      17.958 -12.672  66.847  1.00  0.00     0.036 C 
ATOM      5  C   UNL     1      17.967 -11.163  66.534  1.00  0.00     0.025 C 
ATOM      6  C   UNL     1      18.001 -10.346  67.840  1.00  0.00     0.089 C 
ATOM      7  C   UNL     1      19.119 -10.813  68.730  1.00  0.00     0.158 C 
ATOM      8  O   UNL     1      19.578 -10.029  69.603  1.00  0.00    -0.295 OA
ENDROOT
BRANCH   5   9
ATOM      9  C   UNL     1      16.785 -10.767  65.661  1.00  0.00    -0.077 C 
ATOM     10  C   UNL     1      16.884  -9.719  64.828  1.00  0.00     0.008 C 
ATOM     11  C   UNL     1      15.484 -11.530  65.705  1.00  0.00     0.039 C 
ENDBRANCH   5   9
TORSDOF 1
ENDMDL
MODEL 3
REMARK VINA RESULT:    -4.861     16.805     18.171
REMARK INTER + INTRA:          -5.235
REMARK INTER:                  -5.139
REMARK INTRA:                  -0.096
REMARK UNBOUND:                -0.090
REMARK SMILES C=C(C)[C@@H]1CC=C(C)C(=O)C1
REMARK SMILES IDX 8 1 7 2 6 3 5 4 4 5 11 6 9 7 10 8 2 9 1 10 3 11
REMARK H PARENT
REMARK Flexibility Score: inf
ROOT
ATOM      1  C   UNL     1      19.468 -10.217  69.267  1.00  0.00     0.048 C 
ATOM      2  C   UNL     1      18.565 -10.602  68.127  1.00  0.00    -0.012 C 
ATOM      3  C   UNL     1      18.018  -9.653  67.348  1.00  0.00    -0.019 C 
ATOM      4  C   UNL     1      17.174  -9.993  66.149  1.00  0.00     0.036 C 
ATOM      5  C   UNL     1      16.424 -11.323  66.355  1.00  0.00     0.025 C 
ATOM      6  C   UNL     1      17.415 -12.448  66.708  1.00  0.00     0.089 C 
ATOM      7  C   UNL     1      18.298 -12.037  67.854  1.00  0.00     0.158 C 
ATOM      8  O   UNL     1      18.850 -12.927  68.554  1.00  0.00    -0.295 OA
ENDROOT
BRANCH   5   9
ATOM      9  C   UNL     1      15.583 -11.684  65.138  1.00  0.00    -0.077 C 
ATOM     10  C   UNL     1      16.170 -11.871  63.945  1.00  0.00     0.008 C 
ATOM     11  C   UNL     1      14.086 -11.839  65.235  1.00  0.00     0.039 C 
ENDBRANCH   5   9
TORSDOF 1
ENDMDL
MODEL 4
REMARK VINA RESULT:    -4.813      1.517      2.437
REMARK INTER + INTRA:          -5.184
REMARK INTER:                  -5.088
REMARK INTRA:                  -0.097
REMARK UNBOUND:                -0.090
REMARK SMILES C=C(C)[C@@H]1CC=C(C)C(=O)C1
REMARK SMILES IDX 8 1 7 2 6 3 5 4 4 5 11 6 9 7 10 8 2 9 1 10 3 11
REMARK H PARENT
REMARK Flexibility Score: inf
ROOT
ATOM      1  C   UNL     1       4.882  -0.061  66.747  1.00  0.00     0.048 C 
ATOM      2  C   UNL     1       5.262   0.815  65.584  1.00  0.00    -0.012 C 
ATOM      3  C   UNL     1       5.600   0.263  64.406  1.00  0.00    -0.019 C 
ATOM      4  C   UNL     1       5.910   1.100  63.193  1.00  0.00     0.036 C 
ATOM      5  C   UNL     1       6.519   2.457  63.592  1.00  0.00     0.025 C 
ATOM      6  C   UNL     1       5.595   3.188  64.585  1.00  0.00     0.089 C 
ATOM      7  C   UNL     1       5.239   2.291  65.738  1.00  0.00     0.158 C 
ATOM      8  O   UNL     1       4.875   2.808  66.828  1.00  0.00    -0.295 OA
ENDROOT
BRANCH   5   9
ATOM      9  C   UNL     1       6.816   3.317  62.372  1.00  0.00    -0.077 C 
ATOM     10  C   UNL     1       7.209   4.591  62.525  1.00  0.00     0.008 C 
ATOM     11  C   UNL     1       6.678   2.769  60.972  1.00  0.00     0.039 C 
ENDBRANCH   5   9
TORSDOF 1
ENDMDL
MODEL 5
REMARK VINA RESULT:    -4.793     16.596     17.586
REMARK INTER + INTRA:          -5.163
REMARK INTER:                  -5.076
REMARK INTRA:                  -0.087
REMARK UNBOUND:                -0.090
REMARK SMILES C=C(C)[C@@H]1CC=C(C)C(=O)C1
REMARK SMILES IDX 8 1 7 2 6 3 5 4 4 5 11 6 9 7 10 8 2 9 1 10 3 11
REMARK H PARENT
REMARK Flexibility Score: inf
ROOT
ATOM      1  C   UNL     1      14.536 -12.315  61.408  1.00  0.00     0.048 C 
ATOM      2  C   UNL     1      15.139 -12.122  62.773  1.00  0.00    -0.012 C 
ATOM      3  C   UNL     1      14.383 -11.662  63.785  1.00  0.00    -0.019 C 
ATOM      4  C   UNL     1      14.921 -11.528  65.186  1.00  0.00     0.036 C 
ATOM      5  C   UNL     1      16.432 -11.227  65.176  1.00  0.00     0.025 C 
ATOM      6  C   UNL     1      17.185 -12.296  64.361  1.00  0.00     0.089 C 
ATOM      7  C   UNL     1      16.565 -12.462  63.001  1.00  0.00     0.158 C 
ATOM      8  O   UNL     1      17.259 -12.939  62.064  1.00  0.00    -0.295 OA
ENDROOT
BRANCH   5   9
ATOM      9  C   UNL     1      16.987 -11.111  66.588  1.00  0.00    -0.077 C 
ATOM     10  C   UNL     1      17.217  -9.902  67.124  1.00  0.00     0.008 C 
ATOM     11  C   UNL     1      17.293 -12.335  67.416  1.00  0.00     0.039 C 
ENDBRANCH   5   9
TORSDOF 1
ENDMDL
MODEL 6
REMARK VINA RESULT:    -4.784     16.205     18.116
REMARK INTER + INTRA:          -5.154
REMARK INTER:                  -5.067
REMARK INTRA:                  -0.087
REMARK UNBOUND:                -0.090
REMARK SMILES C=C(C)[C@@H]1CC=C(C)C(=O)C1
REMARK SMILES IDX 8 1 7 2 6 3 5 4 4 5 11 6 9 7 10 8 2 9 1 10 3 11
REMARK H PARENT
REMARK Flexibility Score: inf
ROOT
ATOM      1  C   UNL     1      16.916  -9.361  62.896  1.00  0.00     0.048 C 
ATOM      2  C   UNL     1      17.430  -9.843  64.224  1.00  0.00    -0.012 C 
ATOM      3  C   UNL     1      16.593  -9.960  65.270  1.00  0.00    -0.019 C 
ATOM      4  C   UNL     1      17.045 -10.513  66.596  1.00  0.00     0.036 C 
ATOM      5  C   UNL     1      18.532 -10.203  66.851  1.00  0.00     0.025 C 
ATOM      6  C   UNL     1      19.394 -10.714  65.682  1.00  0.00     0.089 C 
ATOM      7  C   UNL     1      18.861 -10.210  64.369  1.00  0.00     0.158 C 
ATOM      8  O   UNL     1      19.633 -10.147  63.376  1.00  0.00    -0.295 OA
ENDROOT
BRANCH   5   9
ATOM      9  C   UNL     1      19.001 -10.777  68.181  1.00  0.00    -0.077 C 
ATOM     10  C   UNL     1      19.289  -9.958  69.205  1.00  0.00     0.008 C 
ATOM     11  C   UNL     1      19.157 -12.264  68.384  1.00  0.00     0.039 C 
ENDBRANCH   5   9
TORSDOF 1
ENDMDL
MODEL 7
REMARK VINA RESULT:    -4.771     17.557     19.105
REMARK INTER + INTRA:          -5.140
REMARK INTER:                  -5.042
REMARK INTRA:                  -0.098
REMARK UNBOUND:                -0.090
REMARK SMILES C=C(C)[C@@H]1CC=C(C)C(=O)C1
REMARK SMILES IDX 8 1 7 2 6 3 5 4 4 5 11 6 9 7 10 8 2 9 1 10 3 11
REMARK H PARENT
REMARK Flexibility Score: inf
ROOT
ATOM      1  C   UNL     1      22.116 -10.054  62.862  1.00  0.00     0.048 C 
ATOM      2  C   UNL     1      21.197 -10.088  64.052  1.00  0.00    -0.012 C 
ATOM      3  C   UNL     1      19.933  -9.644  63.942  1.00  0.00    -0.019 C 
ATOM      4  C   UNL     1      18.954  -9.731  65.083  1.00  0.00     0.036 C 
ATOM      5  C   UNL     1      19.672  -9.632  66.442  1.00  0.00     0.025 C 
ATOM      6  C   UNL     1      20.780 -10.698  66.541  1.00  0.00     0.089 C 
ATOM      7  C   UNL     1      21.686 -10.635  65.342  1.00  0.00     0.158 C 
ATOM      8  O   UNL     1      22.855 -11.096  65.431  1.00  0.00    -0.295 OA
ENDROOT
BRANCH   5   9
ATOM      9  C   UNL     1      18.691  -9.741  67.601  1.00  0.00    -0.077 C 
ATOM     10  C   UNL     1      17.371  -9.806  67.363  1.00  0.00     0.008 C 
ATOM     11  C   UNL     1      19.166  -9.776  69.032  1.00  0.00     0.039 C 
ENDBRANCH   5   9
TORSDOF 1
ENDMDL
MODEL 8
REMARK VINA RESULT:    -4.723     15.660     17.503
REMARK INTER + INTRA:          -5.089
REMARK INTER:                  -4.991
REMARK INTRA:                  -0.098
REMARK UNBOUND:                -0.090
REMARK SMILES C=C(C)[C@@H]1CC=C(C)C(=O)C1
REMARK SMILES IDX 8 1 7 2 6 3 5 4 4 5 11 6 9 7 10 8 2 9 1 10 3 11
REMARK H PARENT
REMARK Flexibility Score: inf
ROOT
ATOM      1  C   UNL     1      20.752 -10.086  65.988  1.00  0.00     0.048 C 
ATOM      2  C   UNL     1      19.311 -10.188  65.570  1.00  0.00    -0.012 C 
ATOM      3  C   UNL     1      18.338 -10.212  66.497  1.00  0.00    -0.019 C 
ATOM      4  C   UNL     1      16.880 -10.233  66.124  1.00  0.00     0.036 C 
ATOM      5  C   UNL     1      16.658 -10.954  64.781  1.00  0.00     0.025 C 
ATOM      6  C   UNL     1      17.533 -10.320  63.682  1.00  0.00     0.089 C 
ATOM      7  C   UNL     1      18.967 -10.238  64.127  1.00  0.00     0.158 C 
ATOM      8  O   UNL     1      19.876 -10.166  63.257  1.00  0.00    -0.295 OA
ENDROOT
BRANCH   5   9
ATOM      9  C   UNL     1      15.188 -10.961  64.387  1.00  0.00    -0.077 C 
ATOM     10  C   UNL     1      14.765 -10.221  63.350  1.00  0.00     0.008 C 
ATOM     11  C   UNL     1      14.176 -11.788  65.141  1.00  0.00     0.039 C 
ENDBRANCH   5   9
TORSDOF 1
ENDMDL
MODEL 9
REMARK VINA RESULT:    -4.661      2.549      4.012
REMARK INTER + INTRA:          -5.024
REMARK INTER:                  -4.927
REMARK INTRA:                  -0.097
REMARK UNBOUND:                -0.090
REMARK SMILES C=C(C)[C@@H]1CC=C(C)C(=O)C1
REMARK SMILES IDX 8 1 7 2 6 3 5 4 4 5 11 6 9 7 10 8 2 9 1 10 3 11
REMARK H PARENT
REMARK Flexibility Score: inf
ROOT
ATOM      1  C   UNL     1       9.714   3.094  60.892  1.00  0.00     0.048 C 
ATOM      2  C   UNL     1       8.718   2.516  61.860  1.00  0.00    -0.012 C 
ATOM      3  C   UNL     1       7.401   2.690  61.658  1.00  0.00    -0.019 C 
ATOM      4  C   UNL     1       6.366   2.063  62.555  1.00  0.00     0.036 C 
ATOM      5  C   UNL     1       6.894   1.912  63.994  1.00  0.00     0.025 C 
ATOM      6  C   UNL     1       8.220   1.129  63.998  1.00  0.00     0.089 C 
ATOM      7  C   UNL     1       9.197   1.734  63.027  1.00  0.00     0.158 C 
ATOM      8  O   UNL     1      10.430   1.530  63.189  1.00  0.00    -0.295 OA
ENDROOT
BRANCH   5   9
ATOM      9  C   UNL     1       5.860   1.260  64.902  1.00  0.00    -0.077 C 
ATOM     10  C   UNL     1       5.094   0.259  64.441  1.00  0.00     0.008 C 
ATOM     11  C   UNL     1       5.669   1.715  66.328  1.00  0.00     0.039 C 
ENDBRANCH   5   9
TORSDOF 1
ENDMDL
