MODEL 1
REMARK VINA RESULT:    -1.950      0.000      0.000
REMARK INTER + INTRA:          -2.959
REMARK INTER:                  -2.748
REMARK INTRA:                  -0.212
REMARK UNBOUND:                -0.212
REMARK SMILES OC[C@@H]1O[C@@H](O[C@@H]2OC=C[C@H]3[C@H](O)[C@H]4O[C@@]4(CO)[C@@H]23)[C@H](O)[C@H](O)[C@@H]1O
REMARK SMILES IDX 6 1 7 2 10 3 9 4 11 5 8 6 19 7 12 8 16 9 14 10 15 11 13 12
REMARK SMILES IDX 17 14 18 15 5 17 20 18 4 19 22 20 3 21 24 22 21 23 23 25
REMARK SMILES IDX 2 27 1 28 25 30
REMARK H PARENT 13 13 18 16 21 24 23 26 1 29 25 31
REMARK Flexibility Score: inf
ROOT
ATOM      1  O   UNL     1      -8.350   3.235  -7.257  1.00  0.00    -0.310 OA
ENDROOT
BRANCH   1   2
ATOM      2  C   UNL     1      -8.886   4.546  -7.293  1.00  0.00     0.315 C 
ATOM      3  C   UNL     1      -8.737   4.855 -10.125  1.00  0.00     0.018 C 
ATOM      4  C   UNL     1      -9.893   4.543  -9.541  1.00  0.00     0.186 C 
ATOM      5  C   UNL     1      -7.534   5.341  -9.338  1.00  0.00     0.059 C 
ATOM      6  O   UNL     1     -10.024   4.572  -8.152  1.00  0.00    -0.472 OA
ATOM      7  C   UNL     1      -7.801   5.499  -7.823  1.00  0.00     0.105 C 
ATOM      8  C   UNL     1      -7.133   6.753  -9.814  1.00  0.00     0.154 C 
ATOM      9  C   UNL     1      -8.152   6.971  -7.608  1.00  0.00     0.130 C 
ATOM     10  C   UNL     1      -7.686   7.727  -8.781  1.00  0.00     0.183 C 
ATOM     11  O   UNL     1      -9.064   7.542  -8.522  1.00  0.00    -0.360 OA
BRANCH   8  12
ATOM     12  O   UNL     1      -5.737   6.877  -9.842  1.00  0.00    -0.390 OA
ATOM     13  H   UNL     1      -5.525   7.773  -9.469  1.00  0.00     0.211 HD
ENDBRANCH   8  12
BRANCH   9  14
ATOM     14  C   UNL     1      -7.986   7.671  -6.251  1.00  0.00     0.195 C 
BRANCH  14  15
ATOM     15  O   UNL     1      -7.886   6.747  -5.200  1.00  0.00    -0.393 OA
ATOM     16  H   UNL     1      -8.536   7.036  -4.508  1.00  0.00     0.210 HD
ENDBRANCH  14  15
ENDBRANCH   9  14
ENDBRANCH   1   2
BRANCH   1  17
ATOM     17  C   UNL     1      -9.383   2.269  -7.136  1.00  0.00     0.286 C 
ATOM     18  C   UNL     1      -8.783   0.852  -7.212  1.00  0.00     0.202 C 
ATOM     19  O   UNL     1     -10.125   2.446  -5.933  1.00  0.00    -0.341 OA
ATOM     20  C   UNL     1      -7.937   0.563  -5.954  1.00  0.00     0.179 C 
ATOM     21  C   UNL     1      -9.298   2.322  -4.786  1.00  0.00     0.178 C 
ATOM     22  C   UNL     1      -8.732   0.889  -4.675  1.00  0.00     0.177 C 
BRANCH  18  23
ATOM     23  O   UNL     1      -9.826  -0.082  -7.334  1.00  0.00    -0.385 OA
ATOM     24  H   UNL     1      -9.935  -0.512  -6.446  1.00  0.00     0.211 HD
ENDBRANCH  18  23
BRANCH  20  25
ATOM     25  O   UNL     1      -7.519  -0.778  -5.930  1.00  0.00    -0.387 OA
ATOM     26  H   UNL     1      -6.663  -0.801  -5.427  1.00  0.00     0.211 HD
ENDBRANCH  20  25
BRANCH  21  27
ATOM     27  C   UNL     1     -10.124   2.703  -3.547  1.00  0.00     0.191 C 
BRANCH  27  28
ATOM     28  O   UNL     1     -10.046   4.081  -3.293  1.00  0.00    -0.394 OA
ATOM     29  H   UNL     1      -9.115   4.356  -3.504  1.00  0.00     0.210 HD
ENDBRANCH  27  28
ENDBRANCH  21  27
BRANCH  22  30
ATOM     30  O   UNL     1      -9.783  -0.029  -4.504  1.00  0.00    -0.387 OA
ATOM     31  H   UNL     1      -9.405  -0.935  -4.654  1.00  0.00     0.211 HD
ENDBRANCH  22  30
ENDBRANCH   1  17
TORSDOF 10
ENDMDL
MODEL 2
REMARK VINA RESULT:    -1.413      1.894      3.694
REMARK INTER + INTRA:          -2.203
REMARK INTER:                  -2.770
REMARK INTRA:                   0.567
REMARK UNBOUND:                -0.212
REMARK SMILES OC[C@@H]1O[C@@H](O[C@@H]2OC=C[C@H]3[C@H](O)[C@H]4O[C@@]4(CO)[C@@H]23)[C@H](O)[C@H](O)[C@@H]1O
REMARK SMILES IDX 6 1 7 2 10 3 9 4 11 5 8 6 19 7 12 8 16 9 14 10 15 11 13 12
REMARK SMILES IDX 17 14 18 15 5 17 20 18 4 19 22 20 3 21 24 22 21 23 23 25
REMARK SMILES IDX 2 27 1 28 25 30
REMARK H PARENT 13 13 18 16 21 24 23 26 1 29 25 31
REMARK Flexibility Score: inf
ROOT
ATOM      1  O   UNL     1      -9.665   5.734  -7.571  1.00  0.00    -0.310 OA
ENDROOT
BRANCH   1   2
ATOM      2  C   UNL     1      -9.872   7.118  -7.793  1.00  0.00     0.315 C 
ATOM      3  C   UNL     1      -7.825   7.417  -9.757  1.00  0.00     0.018 C 
ATOM      4  C   UNL     1      -9.101   7.304 -10.125  1.00  0.00     0.186 C 
ATOM      5  C   UNL     1      -7.413   7.683  -8.321  1.00  0.00     0.059 C 
ATOM      6  O   UNL     1     -10.125   7.345  -9.178  1.00  0.00    -0.472 OA
ATOM      7  C   UNL     1      -8.606   7.874  -7.355  1.00  0.00     0.105 C 
ATOM      8  C   UNL     1      -6.628   9.008  -8.239  1.00  0.00     0.154 C 
ATOM      9  C   UNL     1      -8.826   9.382  -7.249  1.00  0.00     0.130 C 
ATOM     10  C   UNL     1      -7.605  10.055  -7.721  1.00  0.00     0.183 C 
ATOM     11  O   UNL     1      -8.809  10.109  -8.459  1.00  0.00    -0.360 OA
BRANCH   8  12
ATOM     12  O   UNL     1      -5.573   8.890  -7.324  1.00  0.00    -0.390 OA
ATOM     13  H   UNL     1      -5.142   8.012  -7.500  1.00  0.00     0.211 HD
ENDBRANCH   8  12
BRANCH   9  14
ATOM     14  C   UNL     1      -9.529  10.034  -6.049  1.00  0.00     0.195 C 
BRANCH  14  15
ATOM     15  O   UNL     1      -9.135   9.448  -4.837  1.00  0.00    -0.393 OA
ATOM     16  H   UNL     1      -8.785  10.184  -4.269  1.00  0.00     0.210 HD
ENDBRANCH  14  15
ENDBRANCH   9  14
ENDBRANCH   1   2
BRANCH   1  17
ATOM     17  C   UNL     1      -8.555   5.519  -6.713  1.00  0.00     0.286 C 
ATOM     18  C   UNL     1      -8.849   6.112  -5.322  1.00  0.00     0.202 C 
ATOM     19  O   UNL     1      -8.226   4.136  -6.621  1.00  0.00    -0.341 OA
ATOM     20  C   UNL     1      -9.951   5.293  -4.616  1.00  0.00     0.179 C 
ATOM     21  C   UNL     1      -9.308   3.375  -6.106  1.00  0.00     0.178 C 
ATOM     22  C   UNL     1      -9.620   3.789  -4.650  1.00  0.00     0.177 C 
BRANCH  18  23
ATOM     23  O   UNL     1      -7.667   6.109  -4.562  1.00  0.00    -0.385 OA
ATOM     24  H   UNL     1      -7.903   6.441  -3.657  1.00  0.00     0.211 HD
ENDBRANCH  18  23
BRANCH  20  25
ATOM     25  O   UNL     1     -10.116   5.718  -3.287  1.00  0.00    -0.387 OA
ATOM     26  H   UNL     1     -10.833   5.154  -2.894  1.00  0.00     0.211 HD
ENDBRANCH  20  25
BRANCH  21  27
ATOM     27  C   UNL     1      -8.946   1.885  -6.207  1.00  0.00     0.191 C 
BRANCH  27  28
ATOM     28  O   UNL     1      -9.503   1.157  -5.144  1.00  0.00    -0.394 OA
ATOM     29  H   UNL     1      -8.874   1.242  -4.381  1.00  0.00     0.210 HD
ENDBRANCH  27  28
ENDBRANCH  21  27
BRANCH  22  30
ATOM     30  O   UNL     1      -8.515   3.511  -3.826  1.00  0.00    -0.387 OA
ATOM     31  H   UNL     1      -7.774   3.224  -4.421  1.00  0.00     0.211 HD
ENDBRANCH  22  30
ENDBRANCH   1  17
TORSDOF 10
ENDMDL
MODEL 3
REMARK VINA RESULT:    -1.412      1.630      6.692
REMARK INTER + INTRA:          -2.202
REMARK INTER:                  -1.801
REMARK INTRA:                  -0.401
REMARK UNBOUND:                -0.212
REMARK SMILES OC[C@@H]1O[C@@H](O[C@@H]2OC=C[C@H]3[C@H](O)[C@H]4O[C@@]4(CO)[C@@H]23)[C@H](O)[C@H](O)[C@@H]1O
REMARK SMILES IDX 6 1 7 2 10 3 9 4 11 5 8 6 19 7 12 8 16 9 14 10 15 11 13 12
REMARK SMILES IDX 17 14 18 15 5 17 20 18 4 19 22 20 3 21 24 22 21 23 23 25
REMARK SMILES IDX 2 27 1 28 25 30
REMARK H PARENT 13 13 18 16 21 24 23 26 1 29 25 31
REMARK Flexibility Score: inf
ROOT
ATOM      1  O   UNL     1      -8.240   5.139  -6.083  1.00  0.00    -0.310 OA
ENDROOT
BRANCH   1   2
ATOM      2  C   UNL     1      -9.093   4.008  -6.067  1.00  0.00     0.315 C 
ATOM      3  C   UNL     1      -8.800   3.450  -3.285  1.00  0.00     0.018 C 
ATOM      4  C   UNL     1      -9.879   4.090  -3.734  1.00  0.00     0.186 C 
ATOM      5  C   UNL     1      -7.832   2.739  -4.212  1.00  0.00     0.059 C 
ATOM      6  O   UNL     1     -10.125   4.204  -5.103  1.00  0.00    -0.472 OA
ATOM      7  C   UNL     1      -8.253   2.773  -5.700  1.00  0.00     0.105 C 
ATOM      8  C   UNL     1      -7.773   1.239  -3.856  1.00  0.00     0.154 C 
ATOM      9  C   UNL     1      -8.989   1.459  -5.960  1.00  0.00     0.130 C 
ATOM     10  C   UNL     1      -8.642   0.521  -4.882  1.00  0.00     0.183 C 
ATOM     11  O   UNL     1      -9.941   1.067  -4.994  1.00  0.00    -0.360 OA
BRANCH   8  12
ATOM     12  O   UNL     1      -6.460   0.764  -3.973  1.00  0.00    -0.390 OA
ATOM     13  H   UNL     1      -5.882   1.561  -4.112  1.00  0.00     0.211 HD
ENDBRANCH   8  12
BRANCH   9  14
ATOM     14  C   UNL     1      -9.121   0.849  -7.363  1.00  0.00     0.195 C 
BRANCH  14  15
ATOM     15  O   UNL     1      -7.877   0.746  -8.003  1.00  0.00    -0.393 OA
ATOM     16  H   UNL     1      -7.203   1.106  -7.369  1.00  0.00     0.210 HD
ENDBRANCH  14  15
ENDBRANCH   9  14
ENDBRANCH   1   2
BRANCH   1  17
ATOM     17  C   UNL     1      -8.979   6.326  -6.326  1.00  0.00     0.286 C 
ATOM     18  C   UNL     1      -8.043   7.547  -6.255  1.00  0.00     0.202 C 
ATOM     19  O   UNL     1      -9.656   6.274  -7.578  1.00  0.00    -0.341 OA
ATOM     20  C   UNL     1      -7.065   7.540  -7.450  1.00  0.00     0.179 C 
ATOM     21  C   UNL     1      -8.747   6.118  -8.658  1.00  0.00     0.178 C 
ATOM     22  C   UNL     1      -7.826   7.352  -8.776  1.00  0.00     0.177 C 
BRANCH  18  23
ATOM     23  O   UNL     1      -8.816   8.721  -6.255  1.00  0.00    -0.385 OA
ATOM     24  H   UNL     1      -9.684   8.496  -5.827  1.00  0.00     0.211 HD
ENDBRANCH  18  23
BRANCH  20  25
ATOM     25  O   UNL     1      -6.316   8.727  -7.490  1.00  0.00    -0.387 OA
ATOM     26  H   UNL     1      -6.949   9.471  -7.312  1.00  0.00     0.211 HD
ENDBRANCH  20  25
BRANCH  21  27
ATOM     27  C   UNL     1      -9.555   5.887  -9.945  1.00  0.00     0.191 C 
BRANCH  27  28
ATOM     28  O   UNL     1     -10.125   4.606  -9.960  1.00  0.00    -0.394 OA
ATOM     29  H   UNL     1     -10.687   4.554 -10.777  1.00  0.00     0.210 HD
ENDBRANCH  27  28
ENDBRANCH  21  27
BRANCH  22  30
ATOM     30  O   UNL     1      -8.591   8.495  -9.068  1.00  0.00    -0.387 OA
ATOM     31  H   UNL     1      -8.990   8.354  -9.967  1.00  0.00     0.211 HD
ENDBRANCH  22  30
ENDBRANCH   1  17
TORSDOF 10
ENDMDL
MODEL 4
REMARK VINA RESULT:    -1.297      1.583      2.127
REMARK INTER + INTRA:          -2.039
REMARK INTER:                  -1.649
REMARK INTRA:                  -0.390
REMARK UNBOUND:                -0.212
REMARK SMILES OC[C@@H]1O[C@@H](O[C@@H]2OC=C[C@H]3[C@H](O)[C@H]4O[C@@]4(CO)[C@@H]23)[C@H](O)[C@H](O)[C@@H]1O
REMARK SMILES IDX 6 1 7 2 10 3 9 4 11 5 8 6 19 7 12 8 16 9 14 10 15 11 13 12
REMARK SMILES IDX 17 14 18 15 5 17 20 18 4 19 22 20 3 21 24 22 21 23 23 25
REMARK SMILES IDX 2 27 1 28 25 30
REMARK H PARENT 13 13 18 16 21 24 23 26 1 29 25 31
REMARK Flexibility Score: inf
ROOT
ATOM      1  O   UNL     1      -8.457   2.751  -6.878  1.00  0.00    -0.310 OA
ENDROOT
BRANCH   1   2
ATOM      2  C   UNL     1      -9.009   3.845  -7.591  1.00  0.00     0.315 C 
ATOM      3  C   UNL     1      -7.893   3.147 -10.122  1.00  0.00     0.018 C 
ATOM      4  C   UNL     1      -9.164   2.859  -9.843  1.00  0.00     0.186 C 
ATOM      5  C   UNL     1      -7.067   4.089  -9.267  1.00  0.00     0.059 C 
ATOM      6  O   UNL     1      -9.774   3.357  -8.691  1.00  0.00    -0.472 OA
ATOM      7  C   UNL     1      -7.854   4.725  -8.098  1.00  0.00     0.105 C 
ATOM      8  C   UNL     1      -6.593   5.286 -10.117  1.00  0.00     0.154 C 
ATOM      9  C   UNL     1      -8.328   6.088  -8.601  1.00  0.00     0.130 C 
ATOM     10  C   UNL     1      -7.519   6.447  -9.776  1.00  0.00     0.183 C 
ATOM     11  O   UNL     1      -8.889   6.122  -9.896  1.00  0.00    -0.360 OA
BRANCH   8  12
ATOM     12  O   UNL     1      -5.283   5.641  -9.766  1.00  0.00    -0.390 OA
ATOM     13  H   UNL     1      -4.975   4.969  -9.103  1.00  0.00     0.211 HD
ENDBRANCH   8  12
BRANCH   9  14
ATOM     14  C   UNL     1      -8.682   7.243  -7.653  1.00  0.00     0.195 C 
BRANCH  14  15
ATOM     15  O   UNL     1      -7.653   7.491  -6.732  1.00  0.00    -0.393 OA
ATOM     16  H   UNL     1      -7.761   8.432  -6.436  1.00  0.00     0.210 HD
ENDBRANCH  14  15
ENDBRANCH   9  14
ENDBRANCH   1   2
BRANCH   1  17
ATOM     17  C   UNL     1      -9.383   2.248  -5.928  1.00  0.00     0.286 C 
ATOM     18  C   UNL     1      -8.641   1.404  -4.873  1.00  0.00     0.202 C 
ATOM     19  O   UNL     1     -10.125   3.297  -5.314  1.00  0.00    -0.341 OA
ATOM     20  C   UNL     1      -7.755   2.311  -3.993  1.00  0.00     0.179 C 
ATOM     21  C   UNL     1      -9.276   4.206  -4.630  1.00  0.00     0.178 C 
ATOM     22  C   UNL     1      -8.564   3.505  -3.452  1.00  0.00     0.177 C 
BRANCH  18  23
ATOM     23  O   UNL     1      -9.583   0.719  -4.087  1.00  0.00    -0.385 OA
ATOM     24  H   UNL     1      -9.357   0.902  -3.138  1.00  0.00     0.211 HD
ENDBRANCH  18  23
BRANCH  20  25
ATOM     25  O   UNL     1      -7.200   1.585  -2.926  1.00  0.00    -0.387 OA
ATOM     26  H   UNL     1      -7.633   0.691  -2.933  1.00  0.00     0.211 HD
ENDBRANCH  20  25
BRANCH  21  27
ATOM     27  C   UNL     1     -10.122   5.398  -4.154  1.00  0.00     0.191 C 
BRANCH  27  28
ATOM     28  O   UNL     1      -9.492   6.615  -4.452  1.00  0.00    -0.394 OA
ATOM     29  H   UNL     1      -8.736   6.707  -3.814  1.00  0.00     0.210 HD
ENDBRANCH  27  28
ENDBRANCH  21  27
BRANCH  22  30
ATOM     30  O   UNL     1      -9.512   3.069  -2.510  1.00  0.00    -0.387 OA
ATOM     31  H   UNL     1     -10.401   3.377  -2.830  1.00  0.00     0.211 HD
ENDBRANCH  22  30
ENDBRANCH   1  17
TORSDOF 10
ENDMDL
MODEL 5
REMARK VINA RESULT:    -0.624      1.576      3.042
REMARK INTER + INTRA:          -1.090
REMARK INTER:                  -1.007
REMARK INTRA:                  -0.084
REMARK UNBOUND:                -0.212
REMARK SMILES OC[C@@H]1O[C@@H](O[C@@H]2OC=C[C@H]3[C@H](O)[C@H]4O[C@@]4(CO)[C@@H]23)[C@H](O)[C@H](O)[C@@H]1O
REMARK SMILES IDX 6 1 7 2 10 3 9 4 11 5 8 6 19 7 12 8 16 9 14 10 15 11 13 12
REMARK SMILES IDX 17 14 18 15 5 17 20 18 4 19 22 20 3 21 24 22 21 23 23 25
REMARK SMILES IDX 2 27 1 28 25 30
REMARK H PARENT 13 13 18 16 21 24 23 26 1 29 25 31
REMARK Flexibility Score: inf
ROOT
ATOM      1  O   UNL     1      -9.643   5.609  -6.931  1.00  0.00    -0.310 OA
ENDROOT
BRANCH   1   2
ATOM      2  C   UNL     1      -9.229   6.895  -7.357  1.00  0.00     0.315 C 
ATOM      3  C   UNL     1      -9.006   6.238 -10.125  1.00  0.00     0.018 C 
ATOM      4  C   UNL     1     -10.081   6.882  -9.669  1.00  0.00     0.186 C 
ATOM      5  C   UNL     1      -7.744   6.078  -9.299  1.00  0.00     0.059 C 
ATOM      6  O   UNL     1     -10.120   7.373  -8.363  1.00  0.00    -0.472 OA
ATOM      7  C   UNL     1      -7.803   6.783  -7.923  1.00  0.00     0.105 C 
ATOM      8  C   UNL     1      -6.555   6.739 -10.026  1.00  0.00     0.154 C 
ATOM      9  C   UNL     1      -7.136   8.143  -8.118  1.00  0.00     0.130 C 
ATOM     10  C   UNL     1      -6.334   8.086  -9.350  1.00  0.00     0.183 C 
ATOM     11  O   UNL     1      -7.508   8.869  -9.270  1.00  0.00    -0.360 OA
BRANCH   8  12
ATOM     12  O   UNL     1      -5.398   5.964  -9.867  1.00  0.00    -0.390 OA
ATOM     13  H   UNL     1      -5.381   5.671  -8.918  1.00  0.00     0.211 HD
ENDBRANCH   8  12
BRANCH   9  14
ATOM     14  C   UNL     1      -6.522   8.938  -6.956  1.00  0.00     0.195 C 
BRANCH  14  15
ATOM     15  O   UNL     1      -7.483   9.722  -6.300  1.00  0.00    -0.393 OA
ATOM     16  H   UNL     1      -8.049   9.096  -5.777  1.00  0.00     0.210 HD
ENDBRANCH  14  15
ENDBRANCH   9  14
ENDBRANCH   1   2
BRANCH   1  17
ATOM     17  C   UNL     1      -8.550   4.873  -6.406  1.00  0.00     0.286 C 
ATOM     18  C   UNL     1      -8.827   4.504  -4.937  1.00  0.00     0.202 C 
ATOM     19  O   UNL     1      -8.281   3.710  -7.183  1.00  0.00    -0.341 OA
ATOM     20  C   UNL     1      -9.968   3.467  -4.853  1.00  0.00     0.179 C 
ATOM     21  C   UNL     1      -9.399   2.834  -7.217  1.00  0.00     0.178 C 
ATOM     22  C   UNL     1      -9.702   2.286  -5.804  1.00  0.00     0.177 C 
BRANCH  18  23
ATOM     23  O   UNL     1      -7.651   3.993  -4.361  1.00  0.00    -0.385 OA
ATOM     24  H   UNL     1      -6.922   4.632  -4.576  1.00  0.00     0.211 HD
ENDBRANCH  18  23
BRANCH  20  25
ATOM     25  O   UNL     1     -10.123   2.999  -3.538  1.00  0.00    -0.387 OA
ATOM     26  H   UNL     1      -9.952   3.772  -2.938  1.00  0.00     0.211 HD
ENDBRANCH  20  25
BRANCH  21  27
ATOM     27  C   UNL     1      -9.101   1.703  -8.213  1.00  0.00     0.191 C 
BRANCH  27  28
ATOM     28  O   UNL     1      -8.525   0.600  -7.566  1.00  0.00    -0.394 OA
ATOM     29  H   UNL     1      -8.721  -0.195  -8.129  1.00  0.00     0.210 HD
ENDBRANCH  27  28
ENDBRANCH  21  27
BRANCH  22  30
ATOM     30  O   UNL     1      -8.616   1.520  -5.344  1.00  0.00    -0.387 OA
ATOM     31  H   UNL     1      -7.943   2.157  -4.986  1.00  0.00     0.211 HD
ENDBRANCH  22  30
ENDBRANCH   1  17
TORSDOF 10
ENDMDL
MODEL 6
REMARK VINA RESULT:    -0.594     20.180     22.428
REMARK INTER + INTRA:          -1.049
REMARK INTER:                  -1.377
REMARK INTRA:                   0.328
REMARK UNBOUND:                -0.212
REMARK SMILES OC[C@@H]1O[C@@H](O[C@@H]2OC=C[C@H]3[C@H](O)[C@H]4O[C@@]4(CO)[C@@H]23)[C@H](O)[C@H](O)[C@@H]1O
REMARK SMILES IDX 6 1 7 2 10 3 9 4 11 5 8 6 19 7 12 8 16 9 14 10 15 11 13 12
REMARK SMILES IDX 17 14 18 15 5 17 20 18 4 19 22 20 3 21 24 22 21 23 23 25
REMARK SMILES IDX 2 27 1 28 25 30
REMARK H PARENT 13 13 18 16 21 24 23 26 1 29 25 31
REMARK Flexibility Score: inf
ROOT
ATOM      1  O   UNL     1       7.199   9.746   6.140  1.00  0.00    -0.310 OA
ENDROOT
BRANCH   1   2
ATOM      2  C   UNL     1       7.277   9.228   7.457  1.00  0.00     0.315 C 
ATOM      3  C   UNL     1      10.125   9.121   7.570  1.00  0.00     0.018 C 
ATOM      4  C   UNL     1       9.464  10.125   8.147  1.00  0.00     0.186 C 
ATOM      5  C   UNL     1       9.430   7.861   7.090  1.00  0.00     0.059 C 
ATOM      6  O   UNL     1       8.074  10.094   8.261  1.00  0.00    -0.472 OA
ATOM      7  C   UNL     1       7.913   7.830   7.392  1.00  0.00     0.105 C 
ATOM      8  C   UNL     1      10.002   6.634   7.829  1.00  0.00     0.154 C 
ATOM      9  C   UNL     1       7.759   7.049   8.696  1.00  0.00     0.130 C 
ATOM     10  C   UNL     1       8.995   6.281   8.917  1.00  0.00     0.183 C 
ATOM     11  O   UNL     1       8.653   7.380   9.738  1.00  0.00    -0.360 OA
BRANCH   8  12
ATOM     12  O   UNL     1      10.110   5.546   6.951  1.00  0.00    -0.390 OA
ATOM     13  H   UNL     1       9.558   5.768   6.155  1.00  0.00     0.211 HD
ENDBRANCH   8  12
BRANCH   9  14
ATOM     14  C   UNL     1       6.453   6.345   9.090  1.00  0.00     0.195 C 
BRANCH  14  15
ATOM     15  O   UNL     1       5.608   7.192   9.823  1.00  0.00    -0.393 OA
ATOM     16  H   UNL     1       5.990   7.248  10.738  1.00  0.00     0.210 HD
ENDBRANCH  14  15
ENDBRANCH   9  14
ENDBRANCH   1   2
BRANCH   1  17
ATOM     17  C   UNL     1       7.304   8.705   5.180  1.00  0.00     0.286 C 
ATOM     18  C   UNL     1       6.083   8.738   4.241  1.00  0.00     0.202 C 
ATOM     19  O   UNL     1       8.519   8.795   4.443  1.00  0.00    -0.341 OA
ATOM     20  C   UNL     1       6.134   9.994   3.344  1.00  0.00     0.179 C 
ATOM     21  C   UNL     1       8.615  10.025   3.740  1.00  0.00     0.178 C 
ATOM     22  C   UNL     1       7.510  10.124   2.665  1.00  0.00     0.177 C 
BRANCH  18  23
ATOM     23  O   UNL     1       6.075   7.571   3.458  1.00  0.00    -0.385 OA
ATOM     24  H   UNL     1       6.828   7.005   3.773  1.00  0.00     0.211 HD
ENDBRANCH  18  23
BRANCH  20  25
ATOM     25  O   UNL     1       5.120   9.956   2.373  1.00  0.00    -0.387 OA
ATOM     26  H   UNL     1       5.488   9.459   1.596  1.00  0.00     0.211 HD
ENDBRANCH  20  25
BRANCH  21  27
ATOM     27  C   UNL     1      10.019  10.125   3.123  1.00  0.00     0.191 C 
BRANCH  27  28
ATOM     28  O   UNL     1      10.106   9.370   1.944  1.00  0.00    -0.394 OA
ATOM     29  H   UNL     1      10.596   8.538   2.175  1.00  0.00     0.210 HD
ENDBRANCH  27  28
ENDBRANCH  21  27
BRANCH  22  30
ATOM     30  O   UNL     1       7.682   9.109   1.707  1.00  0.00    -0.387 OA
ATOM     31  H   UNL     1       6.775   8.836   1.408  1.00  0.00     0.211 HD
ENDBRANCH  22  30
ENDBRANCH   1  17
TORSDOF 10
ENDMDL
MODEL 7
REMARK VINA RESULT:    -0.211      1.748      6.449
REMARK INTER + INTRA:          -0.509
REMARK INTER:                   0.100
REMARK INTRA:                  -0.609
REMARK UNBOUND:                -0.212
REMARK SMILES OC[C@@H]1O[C@@H](O[C@@H]2OC=C[C@H]3[C@H](O)[C@H]4O[C@@]4(CO)[C@@H]23)[C@H](O)[C@H](O)[C@@H]1O
REMARK SMILES IDX 6 1 7 2 10 3 9 4 11 5 8 6 19 7 12 8 16 9 14 10 15 11 13 12
REMARK SMILES IDX 17 14 18 15 5 17 20 18 4 19 22 20 3 21 24 22 21 23 23 25
REMARK SMILES IDX 2 27 1 28 25 30
REMARK H PARENT 13 13 18 16 21 24 23 26 1 29 25 31
REMARK Flexibility Score: inf
ROOT
ATOM      1  O   UNL     1      -8.054   5.515  -6.254  1.00  0.00    -0.310 OA
ENDROOT
BRANCH   1   2
ATOM      2  C   UNL     1      -8.954   4.434  -6.427  1.00  0.00     0.315 C 
ATOM      3  C   UNL     1      -9.173   3.778  -3.660  1.00  0.00     0.018 C 
ATOM      4  C   UNL     1     -10.125   4.493  -4.261  1.00  0.00     0.186 C 
ATOM      5  C   UNL     1      -8.099   3.040  -4.435  1.00  0.00     0.059 C 
ATOM      6  O   UNL     1     -10.125   4.661  -5.646  1.00  0.00    -0.472 OA
ATOM      7  C   UNL     1      -8.255   3.143  -5.971  1.00  0.00     0.105 C 
ATOM      8  C   UNL     1      -8.180   1.530  -4.134  1.00  0.00     0.154 C 
ATOM      9  C   UNL     1      -9.002   1.882  -6.404  1.00  0.00     0.130 C 
ATOM     10  C   UNL     1      -8.895   0.894  -5.319  1.00  0.00     0.183 C 
ATOM     11  O   UNL     1     -10.125   1.517  -5.630  1.00  0.00    -0.360 OA
BRANCH   8  12
ATOM     12  O   UNL     1      -6.892   0.984  -4.044  1.00  0.00    -0.390 OA
ATOM     13  H   UNL     1      -7.008   0.013  -3.865  1.00  0.00     0.211 HD
ENDBRANCH   8  12
BRANCH   9  14
ATOM     14  C   UNL     1      -8.922   1.322  -7.831  1.00  0.00     0.195 C 
BRANCH  14  15
ATOM     15  O   UNL     1      -7.724   1.685  -8.464  1.00  0.00    -0.393 OA
ATOM     16  H   UNL     1      -7.394   2.497  -7.999  1.00  0.00     0.210 HD
ENDBRANCH  14  15
ENDBRANCH   9  14
ENDBRANCH   1   2
BRANCH   1  17
ATOM     17  C   UNL     1      -7.344   5.780  -7.453  1.00  0.00     0.286 C 
ATOM     18  C   UNL     1      -8.212   5.401  -8.668  1.00  0.00     0.202 C 
ATOM     19  O   UNL     1      -6.930   7.141  -7.526  1.00  0.00    -0.341 OA
ATOM     20  C   UNL     1      -9.407   6.371  -8.793  1.00  0.00     0.179 C 
ATOM     21  C   UNL     1      -8.039   8.027  -7.490  1.00  0.00     0.178 C 
ATOM     22  C   UNL     1      -8.929   7.835  -8.738  1.00  0.00     0.177 C 
BRANCH  18  23
ATOM     23  O   UNL     1      -7.421   5.438  -9.829  1.00  0.00    -0.385 OA
ATOM     24  H   UNL     1      -7.726   4.695 -10.412  1.00  0.00     0.211 HD
ENDBRANCH  18  23
BRANCH  20  25
ATOM     25  O   UNL     1     -10.115   6.142  -9.984  1.00  0.00    -0.387 OA
ATOM     26  H   UNL     1      -9.479   6.304 -10.730  1.00  0.00     0.211 HD
ENDBRANCH  20  25
BRANCH  21  27
ATOM     27  C   UNL     1      -7.509   9.466  -7.388  1.00  0.00     0.191 C 
BRANCH  27  28
ATOM     28  O   UNL     1      -6.334   9.625  -8.137  1.00  0.00    -0.394 OA
ATOM     29  H   UNL     1      -6.554  10.243  -8.883  1.00  0.00     0.210 HD
ENDBRANCH  27  28
ENDBRANCH  21  27
BRANCH  22  30
ATOM     30  O   UNL     1      -8.204   8.158  -9.899  1.00  0.00    -0.387 OA
ATOM     31  H   UNL     1      -7.450   7.514  -9.958  1.00  0.00     0.211 HD
ENDBRANCH  22  30
ENDBRANCH   1  17
TORSDOF 10
ENDMDL
MODEL 8
REMARK VINA RESULT:     0.682      1.838      3.034
REMARK INTER + INTRA:           0.749
REMARK INTER:                   1.597
REMARK INTRA:                  -0.848
REMARK UNBOUND:                -0.212
REMARK SMILES OC[C@@H]1O[C@@H](O[C@@H]2OC=C[C@H]3[C@H](O)[C@H]4O[C@@]4(CO)[C@@H]23)[C@H](O)[C@H](O)[C@@H]1O
REMARK SMILES IDX 6 1 7 2 10 3 9 4 11 5 8 6 19 7 12 8 16 9 14 10 15 11 13 12
REMARK SMILES IDX 17 14 18 15 5 17 20 18 4 19 22 20 3 21 24 22 21 23 23 25
REMARK SMILES IDX 2 27 1 28 25 30
REMARK H PARENT 13 13 18 16 21 24 23 26 1 29 25 31
REMARK Flexibility Score: inf
ROOT
ATOM      1  O   UNL     1      -8.667   5.376  -7.758  1.00  0.00    -0.310 OA
ENDROOT
BRANCH   1   2
ATOM      2  C   UNL     1      -9.212   6.674  -7.591  1.00  0.00     0.315 C 
ATOM      3  C   UNL     1      -7.795   7.876  -9.755  1.00  0.00     0.018 C 
ATOM      4  C   UNL     1      -9.067   7.506  -9.905  1.00  0.00     0.186 C 
ATOM      5  C   UNL     1      -7.126   7.955  -8.396  1.00  0.00     0.059 C 
ATOM      6  O   UNL     1      -9.825   7.092  -8.809  1.00  0.00    -0.472 OA
ATOM      7  C   UNL     1      -8.071   7.634  -7.215  1.00  0.00     0.105 C 
ATOM      8  C   UNL     1      -6.646   9.397  -8.133  1.00  0.00     0.154 C 
ATOM      9  C   UNL     1      -8.579   8.981  -6.703  1.00  0.00     0.130 C 
ATOM     10  C   UNL     1      -7.677  10.029  -7.205  1.00  0.00     0.183 C 
ATOM     11  O   UNL     1      -9.003   9.908  -7.680  1.00  0.00    -0.360 OA
BRANCH   8  12
ATOM     12  O   UNL     1      -5.406   9.384  -7.479  1.00  0.00    -0.390 OA
ATOM     13  H   UNL     1      -4.716   9.262  -8.183  1.00  0.00     0.211 HD
ENDBRANCH   8  12
BRANCH   9  14
ATOM     14  C   UNL     1      -9.105   9.179  -5.274  1.00  0.00     0.195 C 
BRANCH  14  15
ATOM     15  O   UNL     1      -8.634   8.182  -4.406  1.00  0.00    -0.393 OA
ATOM     16  H   UNL     1      -8.599   7.342  -4.933  1.00  0.00     0.210 HD
ENDBRANCH  14  15
ENDBRANCH   9  14
ENDBRANCH   1   2
BRANCH   1  17
ATOM     17  C   UNL     1      -9.643   4.478  -8.262  1.00  0.00     0.286 C 
ATOM     18  C   UNL     1      -9.081   3.730  -9.486  1.00  0.00     0.202 C 
ATOM     19  O   UNL     1     -10.079   3.565  -7.260  1.00  0.00    -0.341 OA
ATOM     20  C   UNL     1      -7.962   2.760  -9.050  1.00  0.00     0.179 C 
ATOM     21  C   UNL     1      -9.004   2.781  -6.764  1.00  0.00     0.178 C 
ATOM     22  C   UNL     1      -8.431   1.877  -7.878  1.00  0.00     0.177 C 
BRANCH  18  23
ATOM     23  O   UNL     1     -10.125   3.031 -10.116  1.00  0.00    -0.385 OA
ATOM     24  H   UNL     1     -10.084   3.257 -11.082  1.00  0.00     0.211 HD
ENDBRANCH  18  23
BRANCH  20  25
ATOM     25  O   UNL     1      -7.552   1.953 -10.125  1.00  0.00    -0.387 OA
ATOM     26  H   UNL     1      -6.946   1.263  -9.749  1.00  0.00     0.211 HD
ENDBRANCH  20  25
BRANCH  21  27
ATOM     27  C   UNL     1      -9.513   1.957  -5.570  1.00  0.00     0.191 C 
BRANCH  27  28
ATOM     28  O   UNL     1      -8.649   0.887  -5.292  1.00  0.00    -0.394 OA
ATOM     29  H   UNL     1      -7.837   1.026  -5.846  1.00  0.00     0.210 HD
ENDBRANCH  27  28
ENDBRANCH  21  27
BRANCH  22  30
ATOM     30  O   UNL     1      -9.413   0.968  -8.311  1.00  0.00    -0.387 OA
ATOM     31  H   UNL     1      -9.740   0.489  -7.505  1.00  0.00     0.211 HD
ENDBRANCH  22  30
ENDBRANCH   1  17
TORSDOF 10
ENDMDL
