MODEL 1
REMARK VINA RESULT:    -4.019      0.000      0.000
REMARK INTER + INTRA:          -4.460
REMARK INTER:                  -4.371
REMARK INTRA:                  -0.089
REMARK UNBOUND:                -0.089
REMARK SMILES C=C(C)[C@@H]1CC[C@@H](C)[C@@H](O)C1
REMARK SMILES IDX 8 1 7 2 6 3 5 4 4 5 11 6 9 7 10 8 2 10 1 11 3 12
REMARK H PARENT 10 9
REMARK Flexibility Score: inf
ROOT
ATOM      1  C   UNL     1      -3.168   4.565  -5.066  1.00  0.00     0.010 C 
ATOM      2  C   UNL     1      -1.865   3.982  -4.504  1.00  0.00     0.015 C 
ATOM      3  C   UNL     1      -0.657   4.841  -4.927  1.00  0.00     0.006 C 
ATOM      4  C   UNL     1       0.649   4.274  -4.352  1.00  0.00     0.008 C 
ATOM      5  C   UNL     1       0.848   2.806  -4.777  1.00  0.00     0.017 C 
ATOM      6  C   UNL     1      -0.362   1.944  -4.361  1.00  0.00     0.040 C 
ATOM      7  C   UNL     1      -1.678   2.507  -4.932  1.00  0.00     0.117 C 
ENDROOT
BRANCH   7   8
ATOM      8  O   UNL     1      -1.682   2.403  -6.334  1.00  0.00    -0.393 OA
ATOM      9  H   UNL     1      -0.917   1.821  -6.581  1.00  0.00     0.210 HD
ENDBRANCH   7   8
BRANCH   5  10
ATOM     10  C   UNL     1       2.149   2.239  -4.223  1.00  0.00    -0.077 C 
ATOM     11  C   UNL     1       3.326   2.853  -4.438  1.00  0.00     0.008 C 
ATOM     12  C   UNL     1       2.138   0.967  -3.417  1.00  0.00     0.039 C 
ENDBRANCH   5  10
TORSDOF 2
ENDMDL
MODEL 2
REMARK VINA RESULT:    -3.960      1.414      1.640
REMARK INTER + INTRA:          -4.396
REMARK INTER:                  -4.304
REMARK INTRA:                  -0.093
REMARK UNBOUND:                -0.089
REMARK SMILES C=C(C)[C@@H]1CC[C@@H](C)[C@@H](O)C1
REMARK SMILES IDX 8 1 7 2 6 3 5 4 4 5 11 6 9 7 10 8 2 10 1 11 3 12
REMARK H PARENT 10 9
REMARK Flexibility Score: inf
ROOT
ATOM      1  C   UNL     1      -2.917   3.517  -7.092  1.00  0.00     0.010 C 
ATOM      2  C   UNL     1      -1.576   3.493  -6.348  1.00  0.00     0.015 C 
ATOM      3  C   UNL     1      -0.503   2.765  -7.182  1.00  0.00     0.006 C 
ATOM      4  C   UNL     1       0.847   2.755  -6.451  1.00  0.00     0.008 C 
ATOM      5  C   UNL     1       0.714   2.114  -5.056  1.00  0.00     0.017 C 
ATOM      6  C   UNL     1      -0.363   2.835  -4.219  1.00  0.00     0.040 C 
ATOM      7  C   UNL     1      -1.722   2.853  -4.947  1.00  0.00     0.117 C 
ENDROOT
BRANCH   7   8
ATOM      8  O   UNL     1      -2.230   1.546  -5.059  1.00  0.00    -0.393 OA
ATOM      9  H   UNL     1      -3.218   1.618  -5.011  1.00  0.00     0.210 HD
ENDBRANCH   7   8
BRANCH   5  10
ATOM     10  C   UNL     1       2.053   2.085  -4.328  1.00  0.00    -0.077 C 
ATOM     11  C   UNL     1       2.979   3.038  -4.532  1.00  0.00     0.008 C 
ATOM     12  C   UNL     1       2.363   0.974  -3.359  1.00  0.00     0.039 C 
ENDBRANCH   5  10
TORSDOF 2
ENDMDL
MODEL 3
REMARK VINA RESULT:    -3.770      1.340      4.451
REMARK INTER + INTRA:          -4.189
REMARK INTER:                  -4.101
REMARK INTRA:                  -0.089
REMARK UNBOUND:                -0.089
REMARK SMILES C=C(C)[C@@H]1CC[C@@H](C)[C@@H](O)C1
REMARK SMILES IDX 8 1 7 2 6 3 5 4 4 5 11 6 9 7 10 8 2 10 1 11 3 12
REMARK H PARENT 10 9
REMARK Flexibility Score: inf
ROOT
ATOM      1  C   UNL     1       2.496   2.646  -4.538  1.00  0.00     0.010 C 
ATOM      2  C   UNL     1       1.099   3.115  -4.964  1.00  0.00     0.015 C 
ATOM      3  C   UNL     1       0.820   4.539  -4.443  1.00  0.00     0.006 C 
ATOM      4  C   UNL     1      -0.569   5.022  -4.883  1.00  0.00     0.008 C 
ATOM      5  C   UNL     1      -1.666   4.046  -4.415  1.00  0.00     0.017 C 
ATOM      6  C   UNL     1      -1.388   2.618  -4.929  1.00  0.00     0.040 C 
ATOM      7  C   UNL     1       0.006   2.126  -4.494  1.00  0.00     0.117 C 
ENDROOT
BRANCH   7   8
ATOM      8  O   UNL     1       0.054   1.974  -3.097  1.00  0.00    -0.393 OA
ATOM      9  H   UNL     1      -0.871   1.772  -2.799  1.00  0.00     0.210 HD
ENDBRANCH   7   8
BRANCH   5  10
ATOM     10  C   UNL     1      -3.051   4.526  -4.834  1.00  0.00    -0.077 C 
ATOM     11  C   UNL     1      -3.826   5.238  -3.997  1.00  0.00     0.008 C 
ATOM     12  C   UNL     1      -3.580   4.204  -6.207  1.00  0.00     0.039 C 
ENDBRANCH   5  10
TORSDOF 2
ENDMDL
MODEL 4
REMARK VINA RESULT:    -3.763      1.454      1.935
REMARK INTER + INTRA:          -4.182
REMARK INTER:                  -4.090
REMARK INTRA:                  -0.092
REMARK UNBOUND:                -0.089
REMARK SMILES C=C(C)[C@@H]1CC[C@@H](C)[C@@H](O)C1
REMARK SMILES IDX 8 1 7 2 6 3 5 4 4 5 11 6 9 7 10 8 2 10 1 11 3 12
REMARK H PARENT 10 9
REMARK Flexibility Score: inf
ROOT
ATOM      1  C   UNL     1      -3.134   3.365  -6.749  1.00  0.00     0.010 C 
ATOM      2  C   UNL     1      -1.712   3.473  -6.186  1.00  0.00     0.015 C 
ATOM      3  C   UNL     1      -0.688   2.881  -7.175  1.00  0.00     0.006 C 
ATOM      4  C   UNL     1       0.740   3.004  -6.627  1.00  0.00     0.008 C 
ATOM      5  C   UNL     1       0.862   2.327  -5.248  1.00  0.00     0.017 C 
ATOM      6  C   UNL     1      -0.165   2.912  -4.255  1.00  0.00     0.040 C 
ATOM      7  C   UNL     1      -1.603   2.796  -4.799  1.00  0.00     0.117 C 
ENDROOT
BRANCH   7   8
ATOM      8  O   UNL     1      -1.980   1.444  -4.886  1.00  0.00    -0.393 OA
ATOM      9  H   UNL     1      -2.910   1.427  -5.234  1.00  0.00     0.210 HD
ENDBRANCH   7   8
BRANCH   5  10
ATOM     10  C   UNL     1       2.281   2.430  -4.701  1.00  0.00    -0.077 C 
ATOM     11  C   UNL     1       2.698   1.650  -3.689  1.00  0.00     0.008 C 
ATOM     12  C   UNL     1       3.249   3.421  -5.293  1.00  0.00     0.039 C 
ENDBRANCH   5  10
TORSDOF 2
ENDMDL
MODEL 5
REMARK VINA RESULT:    -3.640      1.795      2.994
REMARK INTER + INTRA:          -4.048
REMARK INTER:                  -3.955
REMARK INTRA:                  -0.093
REMARK UNBOUND:                -0.089
REMARK SMILES C=C(C)[C@@H]1CC[C@@H](C)[C@@H](O)C1
REMARK SMILES IDX 8 1 7 2 6 3 5 4 4 5 11 6 9 7 10 8 2 10 1 11 3 12
REMARK H PARENT 10 9
REMARK Flexibility Score: inf
ROOT
ATOM      1  C   UNL     1      -1.329   2.761  -4.791  1.00  0.00     0.010 C 
ATOM      2  C   UNL     1       0.132   2.298  -4.851  1.00  0.00     0.015 C 
ATOM      3  C   UNL     1       0.497   1.483  -3.594  1.00  0.00     0.006 C 
ATOM      4  C   UNL     1       1.952   0.999  -3.656  1.00  0.00     0.008 C 
ATOM      5  C   UNL     1       2.920   2.184  -3.837  1.00  0.00     0.017 C 
ATOM      6  C   UNL     1       2.556   3.007  -5.090  1.00  0.00     0.040 C 
ATOM      7  C   UNL     1       1.094   3.495  -5.038  1.00  0.00     0.117 C 
ENDROOT
BRANCH   7   8
ATOM      8  O   UNL     1       0.929   4.420  -3.992  1.00  0.00    -0.393 OA
ATOM      9  H   UNL     1       0.025   4.814  -4.098  1.00  0.00     0.210 HD
ENDBRANCH   7   8
BRANCH   5  10
ATOM     10  C   UNL     1       4.370   1.716  -3.884  1.00  0.00    -0.077 C 
ATOM     11  C   UNL     1       5.285   2.353  -4.635  1.00  0.00     0.008 C 
ATOM     12  C   UNL     1       4.803   0.516  -3.083  1.00  0.00     0.039 C 
ENDBRANCH   5  10
TORSDOF 2
ENDMDL
MODEL 6
REMARK VINA RESULT:    -3.636      3.145      5.953
REMARK INTER + INTRA:          -4.045
REMARK INTER:                  -3.952
REMARK INTRA:                  -0.093
REMARK UNBOUND:                -0.089
REMARK SMILES C=C(C)[C@@H]1CC[C@@H](C)[C@@H](O)C1
REMARK SMILES IDX 8 1 7 2 6 3 5 4 4 5 11 6 9 7 10 8 2 10 1 11 3 12
REMARK H PARENT 10 9
REMARK Flexibility Score: inf
ROOT
ATOM      1  C   UNL     1       6.533  -0.025  -2.687  1.00  0.00     0.010 C 
ATOM      2  C   UNL     1       5.257   0.382  -3.434  1.00  0.00     0.015 C 
ATOM      3  C   UNL     1       5.261   1.894  -3.737  1.00  0.00     0.006 C 
ATOM      4  C   UNL     1       3.995   2.306  -4.501  1.00  0.00     0.008 C 
ATOM      5  C   UNL     1       2.727   1.911  -3.720  1.00  0.00     0.017 C 
ATOM      6  C   UNL     1       2.720   0.400  -3.408  1.00  0.00     0.040 C 
ATOM      7  C   UNL     1       3.990  -0.023  -2.644  1.00  0.00     0.117 C 
ENDROOT
BRANCH   7   8
ATOM      8  O   UNL     1       4.004   0.563  -1.366  1.00  0.00    -0.393 OA
ATOM      9  H   UNL     1       3.379   0.037  -0.802  1.00  0.00     0.210 HD
ENDBRANCH   7   8
BRANCH   5  10
ATOM     10  C   UNL     1       1.464   2.329  -4.463  1.00  0.00    -0.077 C 
ATOM     11  C   UNL     1       0.247   1.940  -4.046  1.00  0.00     0.008 C 
ATOM     12  C   UNL     1       1.562   3.193  -5.694  1.00  0.00     0.039 C 
ENDBRANCH   5  10
TORSDOF 2
ENDMDL
MODEL 7
REMARK VINA RESULT:    -3.542      2.061      4.716
REMARK INTER + INTRA:          -3.942
REMARK INTER:                  -3.849
REMARK INTRA:                  -0.093
REMARK UNBOUND:                -0.089
REMARK SMILES C=C(C)[C@@H]1CC[C@@H](C)[C@@H](O)C1
REMARK SMILES IDX 8 1 7 2 6 3 5 4 4 5 11 6 9 7 10 8 2 10 1 11 3 12
REMARK H PARENT 10 9
REMARK Flexibility Score: inf
ROOT
ATOM      1  C   UNL     1       1.852   2.184  -4.152  1.00  0.00     0.010 C 
ATOM      2  C   UNL     1       0.508   2.199  -4.891  1.00  0.00     0.015 C 
ATOM      3  C   UNL     1       0.686   2.714  -6.334  1.00  0.00     0.006 C 
ATOM      4  C   UNL     1      -0.652   2.713  -7.086  1.00  0.00     0.008 C 
ATOM      5  C   UNL     1      -1.707   3.549  -6.336  1.00  0.00     0.017 C 
ATOM      6  C   UNL     1      -1.884   3.042  -4.889  1.00  0.00     0.040 C 
ATOM      7  C   UNL     1      -0.545   3.036  -4.127  1.00  0.00     0.117 C 
ENDROOT
BRANCH   7   8
ATOM      8  O   UNL     1      -0.084   4.352  -3.946  1.00  0.00    -0.393 OA
ATOM      9  H   UNL     1       0.907   4.308  -3.924  1.00  0.00     0.210 HD
ENDBRANCH   7   8
BRANCH   5  10
ATOM     10  C   UNL     1      -3.035   3.567  -7.083  1.00  0.00    -0.077 C 
ATOM     11  C   UNL     1      -3.286   2.703  -8.082  1.00  0.00     0.008 C 
ATOM     12  C   UNL     1      -4.099   4.567  -6.711  1.00  0.00     0.039 C 
ENDBRANCH   5  10
TORSDOF 2
ENDMDL
MODEL 8
REMARK VINA RESULT:    -3.526      1.513      2.253
REMARK INTER + INTRA:          -3.925
REMARK INTER:                  -3.832
REMARK INTRA:                  -0.093
REMARK UNBOUND:                -0.089
REMARK SMILES C=C(C)[C@@H]1CC[C@@H](C)[C@@H](O)C1
REMARK SMILES IDX 8 1 7 2 6 3 5 4 4 5 11 6 9 7 10 8 2 10 1 11 3 12
REMARK H PARENT 10 9
REMARK Flexibility Score: inf
ROOT
ATOM      1  C   UNL     1      -2.471   3.485  -6.553  1.00  0.00     0.010 C 
ATOM      2  C   UNL     1      -1.180   2.801  -6.089  1.00  0.00     0.015 C 
ATOM      3  C   UNL     1      -1.190   2.597  -4.560  1.00  0.00     0.006 C 
ATOM      4  C   UNL     1       0.091   1.895  -4.091  1.00  0.00     0.008 C 
ATOM      5  C   UNL     1       1.343   2.682  -4.527  1.00  0.00     0.017 C 
ATOM      6  C   UNL     1       1.355   2.894  -6.055  1.00  0.00     0.040 C 
ATOM      7  C   UNL     1       0.070   3.596  -6.536  1.00  0.00     0.117 C 
ENDROOT
BRANCH   7   8
ATOM      8  O   UNL     1       0.018   4.908  -6.035  1.00  0.00    -0.393 OA
ATOM      9  H   UNL     1      -0.632   5.405  -6.597  1.00  0.00     0.210 HD
ENDBRANCH   7   8
BRANCH   5  10
ATOM     10  C   UNL     1       2.620   2.000  -4.051  1.00  0.00    -0.077 C 
ATOM     11  C   UNL     1       2.581   0.856  -3.346  1.00  0.00     0.008 C 
ATOM     12  C   UNL     1       3.963   2.606  -4.367  1.00  0.00     0.039 C 
ENDBRANCH   5  10
TORSDOF 2
ENDMDL
MODEL 9
REMARK VINA RESULT:    -3.361      2.262      3.712
REMARK INTER + INTRA:          -3.745
REMARK INTER:                  -3.655
REMARK INTRA:                  -0.089
REMARK UNBOUND:                -0.089
REMARK SMILES C=C(C)[C@@H]1CC[C@@H](C)[C@@H](O)C1
REMARK SMILES IDX 8 1 7 2 6 3 5 4 4 5 11 6 9 7 10 8 2 10 1 11 3 12
REMARK H PARENT 10 9
REMARK Flexibility Score: inf
ROOT
ATOM      1  C   UNL     1      -0.320   2.935  -5.433  1.00  0.00     0.010 C 
ATOM      2  C   UNL     1       1.040   2.306  -5.108  1.00  0.00     0.015 C 
ATOM      3  C   UNL     1       0.984   1.552  -3.764  1.00  0.00     0.006 C 
ATOM      4  C   UNL     1       2.338   0.903  -3.441  1.00  0.00     0.008 C 
ATOM      5  C   UNL     1       3.464   1.955  -3.429  1.00  0.00     0.017 C 
ATOM      6  C   UNL     1       3.520   2.717  -4.769  1.00  0.00     0.040 C 
ATOM      7  C   UNL     1       2.164   3.369  -5.103  1.00  0.00     0.117 C 
ENDROOT
BRANCH   7   8
ATOM      8  O   UNL     1       1.872   4.384  -4.174  1.00  0.00    -0.393 OA
ATOM      9  H   UNL     1       2.270   5.221  -4.528  1.00  0.00     0.210 HD
ENDBRANCH   7   8
BRANCH   5  10
ATOM     10  C   UNL     1       4.810   1.323  -3.094  1.00  0.00    -0.077 C 
ATOM     11  C   UNL     1       5.099   0.918  -1.845  1.00  0.00     0.008 C 
ATOM     12  C   UNL     1       5.850   1.143  -4.169  1.00  0.00     0.039 C 
ENDBRANCH   5  10
TORSDOF 2
ENDMDL
