MODEL 1
REMARK VINA RESULT:    -7.244      0.000      0.000
REMARK INTER + INTRA:         -15.030
REMARK INTER:                 -14.019
REMARK INTRA:                  -1.011
REMARK UNBOUND:                -1.011
REMARK SMILES CCCCCCCCCCCCCCCCCC(=O)[O-]
REMARK SMILES IDX 10 1 11 2 12 3 13 4 14 5 15 6 16 7 17 8 18 9 19 10 20 11
REMARK SMILES IDX 9 12 8 13 7 14 6 15 5 16 4 17 3 18 2 19 1 20
REMARK H PARENT
REMARK Flexibility Score: inf
ROOT
ATOM      1  C   UNL     1      -7.468  -1.617 -20.070  1.00  0.00     0.000 C 
ENDROOT
BRANCH   1   2
ATOM      2  C   UNL     1      -6.843  -2.499 -21.166  1.00  0.00     0.000 C 
BRANCH   2   3
ATOM      3  C   UNL     1      -7.296  -3.967 -21.081  1.00  0.00     0.000 C 
BRANCH   3   4
ATOM      4  C   UNL     1      -7.039  -4.584 -19.697  1.00  0.00     0.000 C 
BRANCH   4   5
ATOM      5  C   UNL     1      -8.334  -5.041 -19.003  1.00  0.00     0.000 C 
BRANCH   5   6
ATOM      6  C   UNL     1      -8.955  -6.281 -19.668  1.00  0.00     0.000 C 
BRANCH   6   7
ATOM      7  C   UNL     1      -7.932  -7.411 -19.880  1.00  0.00     0.006 C 
BRANCH   7   8
ATOM      8  C   UNL     1      -8.529  -8.795 -19.592  1.00  0.00     0.053 C 
BRANCH   8   9
ATOM      9  C   UNL     1      -8.122  -9.802 -20.624  1.00  0.00     0.041 C 
ATOM     10  O   UNL     1      -7.456 -10.818 -20.291  1.00  0.00    -0.550 OA
ATOM     11  O   UNL     1      -8.451  -9.603 -21.958  1.00  0.00    -0.550 OA
ENDBRANCH   8   9
ENDBRANCH   7   8
ENDBRANCH   6   7
ENDBRANCH   5   6
ENDBRANCH   4   5
ENDBRANCH   3   4
ENDBRANCH   2   3
ENDBRANCH   1   2
BRANCH   1  12
ATOM     12  C   UNL     1      -6.459  -0.866 -19.177  1.00  0.00     0.000 C 
BRANCH  12  13
ATOM     13  C   UNL     1      -4.984  -1.252 -19.392  1.00  0.00    -0.000 C 
BRANCH  13  14
ATOM     14  C   UNL     1      -4.255  -1.574 -18.079  1.00  0.00    -0.000 C 
BRANCH  14  15
ATOM     15  C   UNL     1      -3.558  -0.328 -17.516  1.00  0.00    -0.000 C 
BRANCH  15  16
ATOM     16  C   UNL     1      -2.537   0.283 -18.502  1.00  0.00    -0.000 C 
BRANCH  16  17
ATOM     17  C   UNL     1      -1.973   1.641 -18.047  1.00  0.00    -0.000 C 
BRANCH  17  18
ATOM     18  C   UNL     1      -3.032   2.736 -17.825  1.00  0.00    -0.000 C 
BRANCH  18  19
ATOM     19  C   UNL     1      -2.433   4.119 -17.485  1.00  0.00    -0.003 C 
ATOM     20  C   UNL     1      -3.481   5.123 -17.012  1.00  0.00     0.004 C 
ENDBRANCH  18  19
ENDBRANCH  17  18
ENDBRANCH  16  17
ENDBRANCH  15  16
ENDBRANCH  14  15
ENDBRANCH  13  14
ENDBRANCH  12  13
ENDBRANCH   1  12
TORSDOF 16
ENDMDL
MODEL 2
REMARK VINA RESULT:    -7.216      4.451      9.632
REMARK INTER + INTRA:         -14.977
REMARK INTER:                 -13.681
REMARK INTRA:                  -1.296
REMARK UNBOUND:                -1.011
REMARK SMILES CCCCCCCCCCCCCCCCCC(=O)[O-]
REMARK SMILES IDX 10 1 11 2 12 3 13 4 14 5 15 6 16 7 17 8 18 9 19 10 20 11
REMARK SMILES IDX 9 12 8 13 7 14 6 15 5 16 4 17 3 18 2 19 1 20
REMARK H PARENT
REMARK Flexibility Score: inf
ROOT
ATOM      1  C   UNL     1      -7.787  -2.720 -19.393  1.00  0.00     0.000 C 
ENDROOT
BRANCH   1   2
ATOM      2  C   UNL     1      -7.181  -2.165 -20.695  1.00  0.00     0.000 C 
BRANCH   2   3
ATOM      3  C   UNL     1      -6.316  -3.197 -21.438  1.00  0.00     0.000 C 
BRANCH   3   4
ATOM      4  C   UNL     1      -4.827  -2.815 -21.454  1.00  0.00     0.000 C 
BRANCH   4   5
ATOM      5  C   UNL     1      -4.474  -1.763 -20.388  1.00  0.00     0.000 C 
BRANCH   5   6
ATOM      6  C   UNL     1      -3.812  -2.380 -19.144  1.00  0.00     0.000 C 
BRANCH   6   7
ATOM      7  C   UNL     1      -2.992  -1.354 -18.342  1.00  0.00     0.006 C 
BRANCH   7   8
ATOM      8  C   UNL     1      -3.423   0.088 -18.635  1.00  0.00     0.053 C 
BRANCH   8   9
ATOM      9  C   UNL     1      -2.683   1.074 -17.783  1.00  0.00     0.041 C 
ATOM     10  O   UNL     1      -1.891   0.671 -16.890  1.00  0.00    -0.550 OA
ATOM     11  O   UNL     1      -2.890   2.436 -17.955  1.00  0.00    -0.550 OA
ENDBRANCH   8   9
ENDBRANCH   7   8
ENDBRANCH   6   7
ENDBRANCH   5   6
ENDBRANCH   4   5
ENDBRANCH   3   4
ENDBRANCH   2   3
ENDBRANCH   1   2
BRANCH   1  12
ATOM     12  C   UNL     1      -6.959  -3.823 -18.702  1.00  0.00     0.000 C 
BRANCH  12  13
ATOM     13  C   UNL     1      -7.761  -5.059 -18.258  1.00  0.00    -0.000 C 
BRANCH  13  14
ATOM     14  C   UNL     1      -9.159  -5.120 -18.889  1.00  0.00    -0.000 C 
BRANCH  14  15
ATOM     15  C   UNL     1      -9.175  -6.056 -20.106  1.00  0.00    -0.000 C 
BRANCH  15  16
ATOM     16  C   UNL     1      -8.109  -7.171 -20.015  1.00  0.00    -0.000 C 
BRANCH  16  17
ATOM     17  C   UNL     1      -8.475  -8.299 -19.033  1.00  0.00    -0.000 C 
BRANCH  17  18
ATOM     18  C   UNL     1      -8.585  -9.696 -19.670  1.00  0.00    -0.000 C 
BRANCH  18  19
ATOM     19  C   UNL     1      -7.632  -9.908 -20.868  1.00  0.00    -0.003 C 
ATOM     20  C   UNL     1      -8.372 -10.127 -22.187  1.00  0.00     0.004 C 
ENDBRANCH  18  19
ENDBRANCH  17  18
ENDBRANCH  16  17
ENDBRANCH  15  16
ENDBRANCH  14  15
ENDBRANCH  13  14
ENDBRANCH  12  13
ENDBRANCH   1  12
TORSDOF 16
ENDMDL
MODEL 3
REMARK VINA RESULT:    -7.203      5.730     11.120
REMARK INTER + INTRA:         -14.951
REMARK INTER:                 -14.173
REMARK INTRA:                  -0.779
REMARK UNBOUND:                -1.011
REMARK SMILES CCCCCCCCCCCCCCCCCC(=O)[O-]
REMARK SMILES IDX 10 1 11 2 12 3 13 4 14 5 15 6 16 7 17 8 18 9 19 10 20 11
REMARK SMILES IDX 9 12 8 13 7 14 6 15 5 16 4 17 3 18 2 19 1 20
REMARK H PARENT
REMARK Flexibility Score: inf
ROOT
ATOM      1  C   UNL     1      -6.366  -0.483 -18.949  1.00  0.00     0.000 C 
ENDROOT
BRANCH   1   2
ATOM      2  C   UNL     1      -5.013  -1.202 -18.806  1.00  0.00     0.000 C 
BRANCH   2   3
ATOM      3  C   UNL     1      -4.047  -0.472 -17.858  1.00  0.00     0.000 C 
BRANCH   3   4
ATOM      4  C   UNL     1      -2.689  -0.175 -18.514  1.00  0.00     0.000 C 
BRANCH   4   5
ATOM      5  C   UNL     1      -2.039   1.112 -17.975  1.00  0.00     0.000 C 
BRANCH   5   6
ATOM      6  C   UNL     1      -3.034   2.281 -17.880  1.00  0.00     0.000 C 
BRANCH   6   7
ATOM      7  C   UNL     1      -2.355   3.601 -17.475  1.00  0.00     0.006 C 
BRANCH   7   8
ATOM      8  C   UNL     1      -3.375   4.692 -17.123  1.00  0.00     0.053 C 
BRANCH   8   9
ATOM      9  C   UNL     1      -2.777   6.063 -17.219  1.00  0.00     0.041 C 
ATOM     10  O   UNL     1      -2.188   6.426 -18.272  1.00  0.00    -0.550 OA
ATOM     11  O   UNL     1      -2.846   6.930 -16.136  1.00  0.00    -0.550 OA
ENDBRANCH   8   9
ENDBRANCH   7   8
ENDBRANCH   6   7
ENDBRANCH   5   6
ENDBRANCH   4   5
ENDBRANCH   3   4
ENDBRANCH   2   3
ENDBRANCH   1   2
BRANCH   1  12
ATOM     12  C   UNL     1      -7.471  -1.296 -19.654  1.00  0.00     0.000 C 
BRANCH  12  13
ATOM     13  C   UNL     1      -6.992  -2.163 -20.833  1.00  0.00    -0.000 C 
BRANCH  13  14
ATOM     14  C   UNL     1      -7.317  -3.652 -20.647  1.00  0.00    -0.000 C 
BRANCH  14  15
ATOM     15  C   UNL     1      -8.036  -3.897 -19.314  1.00  0.00    -0.000 C 
BRANCH  15  16
ATOM     16  C   UNL     1      -8.888  -5.187 -19.323  1.00  0.00    -0.000 C 
BRANCH  16  17
ATOM     17  C   UNL     1      -8.052  -6.480 -19.342  1.00  0.00    -0.000 C 
BRANCH  17  18
ATOM     18  C   UNL     1      -8.702  -7.655 -20.096  1.00  0.00    -0.000 C 
BRANCH  18  19
ATOM     19  C   UNL     1      -8.435  -9.031 -19.447  1.00  0.00    -0.003 C 
ATOM     20  C   UNL     1      -8.058 -10.107 -20.465  1.00  0.00     0.004 C 
ENDBRANCH  18  19
ENDBRANCH  17  18
ENDBRANCH  16  17
ENDBRANCH  15  16
ENDBRANCH  14  15
ENDBRANCH  13  14
ENDBRANCH  12  13
ENDBRANCH   1  12
TORSDOF 16
ENDMDL
MODEL 4
REMARK VINA RESULT:    -7.000      0.995      2.015
REMARK INTER + INTRA:         -14.558
REMARK INTER:                 -13.475
REMARK INTRA:                  -1.083
REMARK UNBOUND:                -1.011
REMARK SMILES CCCCCCCCCCCCCCCCCC(=O)[O-]
REMARK SMILES IDX 10 1 11 2 12 3 13 4 14 5 15 6 16 7 17 8 18 9 19 10 20 11
REMARK SMILES IDX 9 12 8 13 7 14 6 15 5 16 4 17 3 18 2 19 1 20
REMARK H PARENT
REMARK Flexibility Score: inf
ROOT
ATOM      1  C   UNL     1      -7.499  -3.247 -20.819  1.00  0.00     0.000 C 
ENDROOT
BRANCH   1   2
ATOM      2  C   UNL     1      -6.756  -4.384 -20.095  1.00  0.00     0.000 C 
BRANCH   2   3
ATOM      3  C   UNL     1      -7.084  -4.449 -18.594  1.00  0.00     0.000 C 
BRANCH   3   4
ATOM      4  C   UNL     1      -8.158  -5.500 -18.269  1.00  0.00     0.000 C 
BRANCH   4   5
ATOM      5  C   UNL     1      -9.289  -5.532 -19.313  1.00  0.00     0.000 C 
BRANCH   5   6
ATOM      6  C   UNL     1      -9.143  -6.697 -20.307  1.00  0.00     0.000 C 
BRANCH   6   7
ATOM      7  C   UNL     1      -8.609  -7.977 -19.641  1.00  0.00     0.006 C 
BRANCH   7   8
ATOM      8  C   UNL     1      -7.489  -8.631 -20.460  1.00  0.00     0.053 C 
BRANCH   8   9
ATOM      9  C   UNL     1      -7.897  -9.974 -20.985  1.00  0.00     0.041 C 
ATOM     10  O   UNL     1      -8.552 -10.064 -22.058  1.00  0.00    -0.550 OA
ATOM     11  O   UNL     1      -7.580 -11.125 -20.276  1.00  0.00    -0.550 OA
ENDBRANCH   8   9
ENDBRANCH   7   8
ENDBRANCH   6   7
ENDBRANCH   5   6
ENDBRANCH   4   5
ENDBRANCH   3   4
ENDBRANCH   2   3
ENDBRANCH   1   2
BRANCH   1  12
ATOM     12  C   UNL     1      -6.771  -1.888 -20.829  1.00  0.00     0.000 C 
BRANCH  12  13
ATOM     13  C   UNL     1      -7.290  -0.861 -19.806  1.00  0.00    -0.000 C 
BRANCH  13  14
ATOM     14  C   UNL     1      -6.307  -0.622 -18.652  1.00  0.00    -0.000 C 
BRANCH  14  15
ATOM     15  C   UNL     1      -5.001  -1.399 -18.869  1.00  0.00    -0.000 C 
BRANCH  15  16
ATOM     16  C   UNL     1      -3.783  -0.472 -19.084  1.00  0.00    -0.000 C 
BRANCH  16  17
ATOM     17  C   UNL     1      -2.617  -0.748 -18.117  1.00  0.00    -0.000 C 
BRANCH  17  18
ATOM     18  C   UNL     1      -2.140   0.479 -17.318  1.00  0.00    -0.000 C 
BRANCH  18  19
ATOM     19  C   UNL     1      -3.014   1.735 -17.530  1.00  0.00    -0.003 C 
ATOM     20  C   UNL     1      -2.203   3.030 -17.550  1.00  0.00     0.004 C 
ENDBRANCH  18  19
ENDBRANCH  17  18
ENDBRANCH  16  17
ENDBRANCH  15  16
ENDBRANCH  14  15
ENDBRANCH  13  14
ENDBRANCH  12  13
ENDBRANCH   1  12
TORSDOF 16
ENDMDL
MODEL 5
REMARK VINA RESULT:    -6.959      5.764     11.045
REMARK INTER + INTRA:         -14.479
REMARK INTER:                 -13.594
REMARK INTRA:                  -0.885
REMARK UNBOUND:                -1.011
REMARK SMILES CCCCCCCCCCCCCCCCCC(=O)[O-]
REMARK SMILES IDX 10 1 11 2 12 3 13 4 14 5 15 6 16 7 17 8 18 9 19 10 20 11
REMARK SMILES IDX 9 12 8 13 7 14 6 15 5 16 4 17 3 18 2 19 1 20
REMARK H PARENT
REMARK Flexibility Score: inf
ROOT
ATOM      1  C   UNL     1      -4.140  -0.245 -17.832  1.00  0.00     0.000 C 
ENDROOT
BRANCH   1   2
ATOM      2  C   UNL     1      -2.630  -0.233 -18.131  1.00  0.00     0.000 C 
BRANCH   2   3
ATOM      3  C   UNL     1      -1.970   1.119 -17.813  1.00  0.00     0.000 C 
BRANCH   3   4
ATOM      4  C   UNL     1      -2.992   2.261 -17.693  1.00  0.00     0.000 C 
BRANCH   4   5
ATOM      5  C   UNL     1      -2.326   3.641 -17.559  1.00  0.00     0.000 C 
BRANCH   5   6
ATOM      6  C   UNL     1      -3.328   4.799 -17.700  1.00  0.00     0.000 C 
BRANCH   6   7
ATOM      7  C   UNL     1      -3.441   5.641 -16.417  1.00  0.00     0.006 C 
BRANCH   7   8
ATOM      8  C   UNL     1      -4.878   6.109 -16.156  1.00  0.00     0.053 C 
BRANCH   8   9
ATOM      9  C   UNL     1      -5.213   6.087 -14.695  1.00  0.00     0.041 C 
ATOM     10  O   UNL     1      -6.008   5.223 -14.239  1.00  0.00    -0.550 OA
ATOM     11  O   UNL     1      -4.669   7.039 -13.843  1.00  0.00    -0.550 OA
ENDBRANCH   8   9
ENDBRANCH   7   8
ENDBRANCH   6   7
ENDBRANCH   5   6
ENDBRANCH   4   5
ENDBRANCH   3   4
ENDBRANCH   2   3
ENDBRANCH   1   2
BRANCH   1  12
ATOM     12  C   UNL     1      -4.989  -1.123 -18.775  1.00  0.00     0.000 C 
BRANCH  12  13
ATOM     13  C   UNL     1      -4.184  -2.005 -19.747  1.00  0.00    -0.000 C 
BRANCH  13  14
ATOM     14  C   UNL     1      -5.028  -2.522 -20.920  1.00  0.00    -0.000 C 
BRANCH  14  15
ATOM     15  C   UNL     1      -6.528  -2.418 -20.609  1.00  0.00    -0.000 C 
BRANCH  15  16
ATOM     16  C   UNL     1      -7.235  -3.792 -20.612  1.00  0.00    -0.000 C 
BRANCH  16  17
ATOM     17  C   UNL     1      -7.002  -4.611 -19.329  1.00  0.00    -0.000 C 
BRANCH  17  18
ATOM     18  C   UNL     1      -8.261  -5.291 -18.762  1.00  0.00    -0.000 C 
BRANCH  18  19
ATOM     19  C   UNL     1      -8.955  -6.244 -19.762  1.00  0.00    -0.003 C 
ATOM     20  C   UNL     1      -8.327  -7.636 -19.792  1.00  0.00     0.004 C 
ENDBRANCH  18  19
ENDBRANCH  17  18
ENDBRANCH  16  17
ENDBRANCH  15  16
ENDBRANCH  14  15
ENDBRANCH  13  14
ENDBRANCH  12  13
ENDBRANCH   1  12
TORSDOF 16
ENDMDL
MODEL 6
REMARK VINA RESULT:    -6.839      2.363      4.074
REMARK INTER + INTRA:         -14.248
REMARK INTER:                 -13.264
REMARK INTRA:                  -0.984
REMARK UNBOUND:                -1.011
REMARK SMILES CCCCCCCCCCCCCCCCCC(=O)[O-]
REMARK SMILES IDX 10 1 11 2 12 3 13 4 14 5 15 6 16 7 17 8 18 9 19 10 20 11
REMARK SMILES IDX 9 12 8 13 7 14 6 15 5 16 4 17 3 18 2 19 1 20
REMARK H PARENT
REMARK Flexibility Score: inf
ROOT
ATOM      1  C   UNL     1      -4.158  -0.053 -18.970  1.00  0.00     0.000 C 
ENDROOT
BRANCH   1   2
ATOM      2  C   UNL     1      -5.096  -1.251 -19.204  1.00  0.00     0.000 C 
BRANCH   2   3
ATOM      3  C   UNL     1      -6.559  -0.943 -18.840  1.00  0.00     0.000 C 
BRANCH   3   4
ATOM      4  C   UNL     1      -7.553  -1.863 -19.566  1.00  0.00     0.000 C 
BRANCH   4   5
ATOM      5  C   UNL     1      -7.181  -2.092 -21.041  1.00  0.00     0.000 C 
BRANCH   5   6
ATOM      6  C   UNL     1      -7.125  -3.583 -21.413  1.00  0.00     0.000 C 
BRANCH   6   7
ATOM      7  C   UNL     1      -6.616  -4.461 -20.257  1.00  0.00     0.006 C 
BRANCH   7   8
ATOM      8  C   UNL     1      -7.573  -5.619 -19.944  1.00  0.00     0.053 C 
BRANCH   8   9
ATOM      9  C   UNL     1      -8.424  -5.329 -18.746  1.00  0.00     0.041 C 
ATOM     10  O   UNL     1      -9.658  -5.114 -18.882  1.00  0.00    -0.550 OA
ATOM     11  O   UNL     1      -7.851  -5.267 -17.483  1.00  0.00    -0.550 OA
ENDBRANCH   8   9
ENDBRANCH   7   8
ENDBRANCH   6   7
ENDBRANCH   5   6
ENDBRANCH   4   5
ENDBRANCH   3   4
ENDBRANCH   2   3
ENDBRANCH   1   2
BRANCH   1  12
ATOM     12  C   UNL     1      -2.863  -0.375 -18.197  1.00  0.00     0.000 C 
BRANCH  12  13
ATOM     13  C   UNL     1      -2.464   0.661 -17.130  1.00  0.00    -0.000 C 
BRANCH  13  14
ATOM     14  C   UNL     1      -1.883   1.946 -17.736  1.00  0.00    -0.000 C 
BRANCH  14  15
ATOM     15  C   UNL     1      -2.791   3.150 -17.451  1.00  0.00    -0.000 C 
BRANCH  15  16
ATOM     16  C   UNL     1      -2.017   4.488 -17.424  1.00  0.00    -0.000 C 
BRANCH  16  17
ATOM     17  C   UNL     1      -2.864   5.683 -16.950  1.00  0.00    -0.000 C 
BRANCH  17  18
ATOM     18  C   UNL     1      -4.277   5.317 -16.461  1.00  0.00    -0.000 C 
BRANCH  18  19
ATOM     19  C   UNL     1      -4.874   6.339 -15.468  1.00  0.00    -0.003 C 
ATOM     20  C   UNL     1      -5.507   5.681 -14.243  1.00  0.00     0.004 C 
ENDBRANCH  18  19
ENDBRANCH  17  18
ENDBRANCH  16  17
ENDBRANCH  15  16
ENDBRANCH  14  15
ENDBRANCH  13  14
ENDBRANCH  12  13
ENDBRANCH   1  12
TORSDOF 16
ENDMDL
MODEL 7
REMARK VINA RESULT:    -6.761      0.774      1.718
REMARK INTER + INTRA:         -14.097
REMARK INTER:                 -13.071
REMARK INTRA:                  -1.026
REMARK UNBOUND:                -1.011
REMARK SMILES CCCCCCCCCCCCCCCCCC(=O)[O-]
REMARK SMILES IDX 10 1 11 2 12 3 13 4 14 5 15 6 16 7 17 8 18 9 19 10 20 11
REMARK SMILES IDX 9 12 8 13 7 14 6 15 5 16 4 17 3 18 2 19 1 20
REMARK H PARENT
REMARK Flexibility Score: inf
ROOT
ATOM      1  C   UNL     1      -6.664  -0.504 -18.988  1.00  0.00     0.000 C 
ENDROOT
BRANCH   1   2
ATOM      2  C   UNL     1      -7.491  -1.514 -19.805  1.00  0.00     0.000 C 
BRANCH   2   3
ATOM      3  C   UNL     1      -6.630  -2.347 -20.770  1.00  0.00     0.000 C 
BRANCH   3   4
ATOM      4  C   UNL     1      -6.991  -3.842 -20.740  1.00  0.00     0.000 C 
BRANCH   4   5
ATOM      5  C   UNL     1      -7.108  -4.394 -19.309  1.00  0.00     0.000 C 
BRANCH   5   6
ATOM      6  C   UNL     1      -8.518  -4.918 -18.991  1.00  0.00     0.000 C 
BRANCH   6   7
ATOM      7  C   UNL     1      -8.868  -6.190 -19.782  1.00  0.00     0.006 C 
BRANCH   7   8
ATOM      8  C   UNL     1      -7.752  -7.241 -19.713  1.00  0.00     0.053 C 
BRANCH   8   9
ATOM      9  C   UNL     1      -8.273  -8.623 -19.964  1.00  0.00     0.041 C 
ATOM     10  O   UNL     1      -8.400  -9.048 -21.143  1.00  0.00    -0.550 OA
ATOM     11  O   UNL     1      -8.646  -9.431 -18.898  1.00  0.00    -0.550 OA
ENDBRANCH   8   9
ENDBRANCH   7   8
ENDBRANCH   6   7
ENDBRANCH   5   6
ENDBRANCH   4   5
ENDBRANCH   3   4
ENDBRANCH   2   3
ENDBRANCH   1   2
BRANCH   1  12
ATOM     12  C   UNL     1      -5.136  -0.620 -19.155  1.00  0.00     0.000 C 
BRANCH  12  13
ATOM     13  C   UNL     1      -4.376  -1.097 -17.904  1.00  0.00    -0.000 C 
BRANCH  13  14
ATOM     14  C   UNL     1      -2.857  -0.909 -18.022  1.00  0.00    -0.000 C 
BRANCH  14  15
ATOM     15  C   UNL     1      -2.514   0.481 -18.574  1.00  0.00    -0.000 C 
BRANCH  15  16
ATOM     16  C   UNL     1      -2.522   1.575 -17.482  1.00  0.00    -0.000 C 
BRANCH  16  17
ATOM     17  C   UNL     1      -3.081   2.927 -17.964  1.00  0.00    -0.000 C 
BRANCH  17  18
ATOM     18  C   UNL     1      -2.458   4.160 -17.285  1.00  0.00    -0.000 C 
BRANCH  18  19
ATOM     19  C   UNL     1      -3.332   5.430 -17.386  1.00  0.00    -0.003 C 
ATOM     20  C   UNL     1      -4.312   5.574 -16.222  1.00  0.00     0.004 C 
ENDBRANCH  18  19
ENDBRANCH  17  18
ENDBRANCH  16  17
ENDBRANCH  15  16
ENDBRANCH  14  15
ENDBRANCH  13  14
ENDBRANCH  12  13
ENDBRANCH   1  12
TORSDOF 16
ENDMDL
MODEL 8
REMARK VINA RESULT:    -6.444      6.458     11.559
REMARK INTER + INTRA:         -13.483
REMARK INTER:                 -12.741
REMARK INTRA:                  -0.742
REMARK UNBOUND:                -1.011
REMARK SMILES CCCCCCCCCCCCCCCCCC(=O)[O-]
REMARK SMILES IDX 10 1 11 2 12 3 13 4 14 5 15 6 16 7 17 8 18 9 19 10 20 11
REMARK SMILES IDX 9 12 8 13 7 14 6 15 5 16 4 17 3 18 2 19 1 20
REMARK H PARENT
REMARK Flexibility Score: inf
ROOT
ATOM      1  C   UNL     1      -2.899   2.787 -17.398  1.00  0.00     0.000 C 
ENDROOT
BRANCH   1   2
ATOM      2  C   UNL     1      -2.176   4.141 -17.502  1.00  0.00     0.000 C 
BRANCH   2   3
ATOM      3  C   UNL     1      -3.145   5.336 -17.509  1.00  0.00     0.000 C 
BRANCH   3   4
ATOM      4  C   UNL     1      -2.783   6.396 -16.457  1.00  0.00     0.000 C 
BRANCH   4   5
ATOM      5  C   UNL     1      -4.023   6.999 -15.773  1.00  0.00     0.000 C 
BRANCH   5   6
ATOM      6  C   UNL     1      -5.258   6.089 -15.879  1.00  0.00     0.000 C 
BRANCH   6   7
ATOM      7  C   UNL     1      -5.642   5.457 -14.530  1.00  0.00     0.006 C 
BRANCH   7   8
ATOM      8  C   UNL     1      -6.964   6.012 -13.986  1.00  0.00     0.053 C 
BRANCH   8   9
ATOM      9  C   UNL     1      -6.825   6.496 -12.574  1.00  0.00     0.041 C 
ATOM     10  O   UNL     1      -7.684   6.183 -11.708  1.00  0.00    -0.550 OA
ATOM     11  O   UNL     1      -5.762   7.317 -12.222  1.00  0.00    -0.550 OA
ENDBRANCH   8   9
ENDBRANCH   7   8
ENDBRANCH   6   7
ENDBRANCH   5   6
ENDBRANCH   4   5
ENDBRANCH   3   4
ENDBRANCH   2   3
ENDBRANCH   1   2
BRANCH   1  12
ATOM     12  C   UNL     1      -2.012   1.549 -17.642  1.00  0.00     0.000 C 
BRANCH  12  13
ATOM     13  C   UNL     1      -2.600   0.506 -18.610  1.00  0.00    -0.000 C 
BRANCH  13  14
ATOM     14  C   UNL     1      -3.670  -0.379 -17.954  1.00  0.00    -0.000 C 
BRANCH  14  15
ATOM     15  C   UNL     1      -4.636  -0.945 -19.003  1.00  0.00    -0.000 C 
BRANCH  15  16
ATOM     16  C   UNL     1      -4.406  -2.449 -19.278  1.00  0.00    -0.000 C 
BRANCH  16  17
ATOM     17  C   UNL     1      -5.598  -3.340 -18.884  1.00  0.00    -0.000 C 
BRANCH  17  18
ATOM     18  C   UNL     1      -6.863  -3.136 -19.736  1.00  0.00    -0.000 C 
BRANCH  18  19
ATOM     19  C   UNL     1      -7.972  -4.175 -19.458  1.00  0.00    -0.003 C 
ATOM     20  C   UNL     1      -7.562  -5.599 -19.832  1.00  0.00     0.004 C 
ENDBRANCH  18  19
ENDBRANCH  17  18
ENDBRANCH  16  17
ENDBRANCH  15  16
ENDBRANCH  14  15
ENDBRANCH  13  14
ENDBRANCH  12  13
ENDBRANCH   1  12
TORSDOF 16
ENDMDL
