MODEL 1
REMARK VINA RESULT:    -5.218      0.000      0.000
REMARK INTER + INTRA:          -5.218
REMARK INTER:                  -5.218
REMARK INTRA:                   0.000
REMARK UNBOUND:                 0.000
REMARK SMILES C=C1CC[C@@H]2C[C@H]1C2(C)C
REMARK SMILES IDX 9 1 8 2 5 3 4 4 3 5 2 6 1 7 7 8 6 9 10 10
REMARK H PARENT
REMARK Flexibility Score: inf
ROOT
ATOM      1  C   UNL     1     147.356 143.846 132.647  1.00  0.00     0.012 C 
ATOM      2  C   UNL     1     146.211 144.832 132.306  1.00  0.00    -0.026 C 
ATOM      3  C   UNL     1     145.574 144.526 130.927  1.00  0.00    -0.004 C 
ATOM      4  C   UNL     1     144.724 145.735 130.420  1.00  0.00     0.008 C 
ATOM      5  C   UNL     1     143.690 146.242 131.496  1.00  0.00     0.031 C 
ATOM      6  C   UNL     1     143.870 145.543 132.853  1.00  0.00    -0.074 C 
ATOM      7  C   UNL     1     143.184 145.933 133.932  1.00  0.00     0.008 C 
ATOM      8  C   UNL     1     144.860 144.385 132.913  1.00  0.00     0.021 C 
ATOM      9  C   UNL     1     144.597 143.571 131.634  1.00  0.00     0.012 C 
ATOM     10  C   UNL     1     146.707 146.276 132.594  1.00  0.00     0.012 C 
ENDROOT
TORSDOF 0
ENDMDL
MODEL 2
REMARK VINA RESULT:    -5.208      1.137      3.305
REMARK INTER + INTRA:          -5.208
REMARK INTER:                  -5.208
REMARK INTRA:                   0.000
REMARK UNBOUND:                 0.000
REMARK SMILES C=C1CC[C@@H]2C[C@H]1C2(C)C
REMARK SMILES IDX 9 1 8 2 5 3 4 4 3 5 2 6 1 7 7 8 6 9 10 10
REMARK H PARENT
REMARK Flexibility Score: inf
ROOT
ATOM      1  C   UNL     1     143.393 146.928 132.633  1.00  0.00     0.012 C 
ATOM      2  C   UNL     1     144.540 145.938 132.307  1.00  0.00    -0.026 C 
ATOM      3  C   UNL     1     145.177 146.226 130.924  1.00  0.00    -0.004 C 
ATOM      4  C   UNL     1     146.028 145.011 130.434  1.00  0.00     0.008 C 
ATOM      5  C   UNL     1     147.062 144.521 131.517  1.00  0.00     0.031 C 
ATOM      6  C   UNL     1     146.881 145.238 132.864  1.00  0.00    -0.074 C 
ATOM      7  C   UNL     1     147.568 144.866 133.949  1.00  0.00     0.008 C 
ATOM      8  C   UNL     1     145.890 146.397 132.907  1.00  0.00     0.021 C 
ATOM      9  C   UNL     1     146.152 147.192 131.617  1.00  0.00     0.012 C 
ATOM     10  C   UNL     1     144.045 144.499 132.615  1.00  0.00     0.012 C 
ENDROOT
TORSDOF 0
ENDMDL
MODEL 3
REMARK VINA RESULT:    -5.105      1.137      2.399
REMARK INTER + INTRA:          -5.105
REMARK INTER:                  -5.105
REMARK INTRA:                   0.000
REMARK UNBOUND:                 0.000
REMARK SMILES C=C1CC[C@@H]2C[C@H]1C2(C)C
REMARK SMILES IDX 9 1 8 2 5 3 4 4 3 5 2 6 1 7 7 8 6 9 10 10
REMARK H PARENT
REMARK Flexibility Score: inf
ROOT
ATOM      1  C   UNL     1     146.834 147.404 132.433  1.00  0.00     0.012 C 
ATOM      2  C   UNL     1     145.892 146.192 132.225  1.00  0.00    -0.026 C 
ATOM      3  C   UNL     1     146.141 145.492 130.864  1.00  0.00    -0.004 C 
ATOM      4  C   UNL     1     144.950 144.553 130.489  1.00  0.00     0.008 C 
ATOM      5  C   UNL     1     144.574 143.559 131.652  1.00  0.00     0.031 C 
ATOM      6  C   UNL     1     145.350 143.853 132.946  1.00  0.00    -0.074 C 
ATOM      7  C   UNL     1     145.072 143.212 134.085  1.00  0.00     0.008 C 
ATOM      8  C   UNL     1     146.453 144.904 132.871  1.00  0.00     0.021 C 
ATOM      9  C   UNL     1     147.193 144.609 131.555  1.00  0.00     0.012 C 
ATOM     10  C   UNL     1     144.445 146.628 132.585  1.00  0.00     0.012 C 
ENDROOT
TORSDOF 0
ENDMDL
MODEL 4
REMARK VINA RESULT:    -5.031      1.376      3.264
REMARK INTER + INTRA:          -5.031
REMARK INTER:                  -5.031
REMARK INTRA:                   0.000
REMARK UNBOUND:                 0.000
REMARK SMILES C=C1CC[C@@H]2C[C@H]1C2(C)C
REMARK SMILES IDX 9 1 8 2 5 3 4 4 3 5 2 6 1 7 7 8 6 9 10 10
REMARK H PARENT
REMARK Flexibility Score: inf
ROOT
ATOM      1  C   UNL     1     143.199 146.599 130.836  1.00  0.00     0.012 C 
ATOM      2  C   UNL     1     144.326 146.139 131.793  1.00  0.00    -0.026 C 
ATOM      3  C   UNL     1     144.393 147.013 133.072  1.00  0.00    -0.004 C 
ATOM      4  C   UNL     1     145.750 146.813 133.819  1.00  0.00     0.008 C 
ATOM      5  C   UNL     1     146.083 145.294 134.073  1.00  0.00     0.031 C 
ATOM      6  C   UNL     1     145.083 144.354 133.382  1.00  0.00    -0.074 C 
ATOM      7  C   UNL     1     145.272 143.031 133.361  1.00  0.00     0.008 C 
ATOM      8  C   UNL     1     143.864 144.996 132.726  1.00  0.00     0.021 C 
ATOM      9  C   UNL     1     143.386 146.057 133.731  1.00  0.00     0.012 C 
ATOM     10  C   UNL     1     145.622 145.936 130.962  1.00  0.00     0.012 C 
ENDROOT
TORSDOF 0
ENDMDL
MODEL 5
REMARK VINA RESULT:    -5.023      1.292      2.687
REMARK INTER + INTRA:          -5.023
REMARK INTER:                  -5.023
REMARK INTRA:                   0.000
REMARK UNBOUND:                 0.000
REMARK SMILES C=C1CC[C@@H]2C[C@H]1C2(C)C
REMARK SMILES IDX 9 1 8 2 5 3 4 4 3 5 2 6 1 7 7 8 6 9 10 10
REMARK H PARENT
REMARK Flexibility Score: inf
ROOT
ATOM      1  C   UNL     1     147.523 144.192 130.805  1.00  0.00     0.012 C 
ATOM      2  C   UNL     1     146.404 144.656 131.771  1.00  0.00    -0.026 C 
ATOM      3  C   UNL     1     146.345 143.785 133.052  1.00  0.00    -0.004 C 
ATOM      4  C   UNL     1     144.994 143.990 133.809  1.00  0.00     0.008 C 
ATOM      5  C   UNL     1     144.667 145.510 134.063  1.00  0.00     0.031 C 
ATOM      6  C   UNL     1     145.663 146.447 133.361  1.00  0.00    -0.074 C 
ATOM      7  C   UNL     1     145.476 147.770 133.339  1.00  0.00     0.008 C 
ATOM      8  C   UNL     1     146.875 145.801 132.698  1.00  0.00     0.021 C 
ATOM      9  C   UNL     1     147.360 144.742 133.701  1.00  0.00     0.012 C 
ATOM     10  C   UNL     1     145.102 144.860 130.949  1.00  0.00     0.012 C 
ENDROOT
TORSDOF 0
ENDMDL
MODEL 6
REMARK VINA RESULT:    -5.009      1.151      2.244
REMARK INTER + INTRA:          -5.009
REMARK INTER:                  -5.009
REMARK INTRA:                   0.000
REMARK UNBOUND:                 0.000
REMARK SMILES C=C1CC[C@@H]2C[C@H]1C2(C)C
REMARK SMILES IDX 9 1 8 2 5 3 4 4 3 5 2 6 1 7 7 8 6 9 10 10
REMARK H PARENT
REMARK Flexibility Score: inf
ROOT
ATOM      1  C   UNL     1     144.014 143.290 132.251  1.00  0.00     0.012 C 
ATOM      2  C   UNL     1     144.912 144.544 132.105  1.00  0.00    -0.026 C 
ATOM      3  C   UNL     1     144.629 145.309 130.787  1.00  0.00    -0.004 C 
ATOM      4  C   UNL     1     145.785 146.308 130.459  1.00  0.00     0.008 C 
ATOM      5  C   UNL     1     146.135 147.249 131.674  1.00  0.00     0.031 C 
ATOM      6  C   UNL     1     145.379 146.856 132.953  1.00  0.00    -0.074 C 
ATOM      7  C   UNL     1     145.643 147.442 134.125  1.00  0.00     0.008 C 
ATOM      8  C   UNL     1     144.312 145.774 132.825  1.00  0.00     0.021 C 
ATOM      9  C   UNL     1     143.553 146.115 131.532  1.00  0.00     0.012 C 
ATOM     10  C   UNL     1     146.375 144.138 132.432  1.00  0.00     0.012 C 
ENDROOT
TORSDOF 0
ENDMDL
MODEL 7
REMARK VINA RESULT:    -4.987      1.150      3.088
REMARK INTER + INTRA:          -4.987
REMARK INTER:                  -4.987
REMARK INTRA:                   0.000
REMARK UNBOUND:                 0.000
REMARK SMILES C=C1CC[C@@H]2C[C@H]1C2(C)C
REMARK SMILES IDX 9 1 8 2 5 3 4 4 3 5 2 6 1 7 7 8 6 9 10 10
REMARK H PARENT
REMARK Flexibility Score: inf
ROOT
ATOM      1  C   UNL     1     144.276 143.225 131.199  1.00  0.00     0.012 C 
ATOM      2  C   UNL     1     144.921 144.274 132.139  1.00  0.00    -0.026 C 
ATOM      3  C   UNL     1     146.133 143.693 132.911  1.00  0.00    -0.004 C 
ATOM      4  C   UNL     1     146.514 144.600 134.125  1.00  0.00     0.008 C 
ATOM      5  C   UNL     1     146.689 146.112 133.719  1.00  0.00     0.031 C 
ATOM      6  C   UNL     1     146.282 146.376 132.261  1.00  0.00    -0.074 C 
ATOM      7  C   UNL     1     146.225 147.617 131.768  1.00  0.00     0.008 C 
ATOM      8  C   UNL     1     145.951 145.161 131.400  1.00  0.00     0.021 C 
ATOM      9  C   UNL     1     147.035 144.125 131.743  1.00  0.00     0.012 C 
ATOM     10  C   UNL     1     143.790 144.970 132.944  1.00  0.00     0.012 C 
ENDROOT
TORSDOF 0
ENDMDL
MODEL 8
REMARK VINA RESULT:    -4.981      1.092      3.135
REMARK INTER + INTRA:          -4.981
REMARK INTER:                  -4.981
REMARK INTRA:                   0.000
REMARK UNBOUND:                 0.000
REMARK SMILES C=C1CC[C@@H]2C[C@H]1C2(C)C
REMARK SMILES IDX 9 1 8 2 5 3 4 4 3 5 2 6 1 7 7 8 6 9 10 10
REMARK H PARENT
REMARK Flexibility Score: inf
ROOT
ATOM      1  C   UNL     1     143.324 145.760 134.108  1.00  0.00     0.012 C 
ATOM      2  C   UNL     1     144.644 145.514 133.335  1.00  0.00    -0.026 C 
ATOM      3  C   UNL     1     145.363 144.226 133.812  1.00  0.00    -0.004 C 
ATOM      4  C   UNL     1     146.850 144.203 133.334  1.00  0.00     0.008 C 
ATOM      5  C   UNL     1     146.993 144.472 131.788  1.00  0.00     0.031 C 
ATOM      6  C   UNL     1     145.656 144.861 131.137  1.00  0.00    -0.074 C 
ATOM      7  C   UNL     1     145.593 145.264 129.864  1.00  0.00     0.008 C 
ATOM      8  C   UNL     1     144.406 144.762 132.005  1.00  0.00     0.021 C 
ATOM      9  C   UNL     1     144.556 143.436 132.768  1.00  0.00     0.012 C 
ATOM     10  C   UNL     1     145.445 146.844 133.299  1.00  0.00     0.012 C 
ENDROOT
TORSDOF 0
ENDMDL
MODEL 9
REMARK VINA RESULT:    -4.979      1.160      2.865
REMARK INTER + INTRA:          -4.979
REMARK INTER:                  -4.979
REMARK INTRA:                   0.000
REMARK UNBOUND:                 0.000
REMARK SMILES C=C1CC[C@@H]2C[C@H]1C2(C)C
REMARK SMILES IDX 9 1 8 2 5 3 4 4 3 5 2 6 1 7 7 8 6 9 10 10
REMARK H PARENT
REMARK Flexibility Score: inf
ROOT
ATOM      1  C   UNL     1     146.384 147.405 131.033  1.00  0.00     0.012 C 
ATOM      2  C   UNL     1     145.755 146.394 132.024  1.00  0.00    -0.026 C 
ATOM      3  C   UNL     1     144.637 147.041 132.881  1.00  0.00    -0.004 C 
ATOM      4  C   UNL     1     144.300 146.158 134.125  1.00  0.00     0.008 C 
ATOM      5  C   UNL     1     144.014 144.657 133.741  1.00  0.00     0.031 C 
ATOM      6  C   UNL     1     144.296 144.369 132.258  1.00  0.00    -0.074 C 
ATOM      7  C   UNL     1     144.248 143.126 131.769  1.00  0.00     0.008 C 
ATOM      8  C   UNL     1     144.627 145.563 131.369  1.00  0.00     0.021 C 
ATOM      9  C   UNL     1     143.629 146.657 131.785  1.00  0.00     0.012 C 
ATOM     10  C   UNL     1     146.904 145.638 132.746  1.00  0.00     0.012 C 
ENDROOT
TORSDOF 0
ENDMDL
