MODEL 1
REMARK VINA RESULT:    -4.269      0.000      0.000
REMARK INTER + INTRA:          -6.717
REMARK INTER:                  -5.767
REMARK INTRA:                  -0.950
REMARK UNBOUND:                -0.950
REMARK SMILES O=C[C@@H](O)[C@H](O)[C@H](O)CO
REMARK SMILES IDX 7 1 9 2 10 3 5 5 3 6 2 7 1 8 4 9 6 11 8 13
REMARK H PARENT 10 4 4 10 6 12 8 14
REMARK Flexibility Score: inf
ROOT
ATOM      1  C   UNL     1     -13.928 -19.410 -15.729  1.00  0.00     0.171 C 
ENDROOT
BRANCH   1   2
ATOM      2  C   UNL     1     -13.233 -19.818 -17.046  1.00  0.00     0.190 C 
BRANCH   2   3
ATOM      3  O   UNL     1     -12.324 -18.842 -17.479  1.00  0.00    -0.394 OA
ATOM      4  H   UNL     1     -12.855 -18.127 -17.919  1.00  0.00     0.210 HD
ENDBRANCH   2   3
ENDBRANCH   1   2
BRANCH   1   5
ATOM      5  C   UNL     1     -12.971 -19.217 -14.517  1.00  0.00     0.181 C 
BRANCH   5   6
ATOM      6  C   UNL     1     -12.490 -17.753 -14.331  1.00  0.00     0.209 C 
BRANCH   6   7
ATOM      7  C   UNL     1     -10.996 -17.630 -14.486  1.00  0.00     0.258 C 
ATOM      8  O   UNL     1     -10.495 -17.528 -15.595  1.00  0.00    -0.300 OA
ENDBRANCH   6   7
BRANCH   6   9
ATOM      9  O   UNL     1     -13.128 -16.902 -15.251  1.00  0.00    -0.383 OA
ATOM     10  H   UNL     1     -12.531 -16.123 -15.407  1.00  0.00     0.211 HD
ENDBRANCH   6   9
ENDBRANCH   5   6
BRANCH   5  11
ATOM     11  O   UNL     1     -11.857 -20.064 -14.651  1.00  0.00    -0.387 OA
ATOM     12  H   UNL     1     -11.880 -20.701 -13.890  1.00  0.00     0.211 HD
ENDBRANCH   5  11
ENDBRANCH   1   5
BRANCH   1  13
ATOM     13  O   UNL     1     -14.953 -20.319 -15.409  1.00  0.00    -0.388 OA
ATOM     14  H   UNL     1     -14.857 -21.109 -16.000  1.00  0.00     0.211 HD
ENDBRANCH   1  13
TORSDOF 8
ENDMDL
MODEL 2
REMARK VINA RESULT:    -4.178      1.662      2.588
REMARK INTER + INTRA:          -6.593
REMARK INTER:                  -5.978
REMARK INTRA:                  -0.615
REMARK UNBOUND:                -0.950
REMARK SMILES O=C[C@@H](O)[C@H](O)[C@H](O)CO
REMARK SMILES IDX 7 1 9 2 10 3 5 5 3 6 2 7 1 8 4 9 6 11 8 13
REMARK H PARENT 10 4 4 10 6 12 8 14
REMARK Flexibility Score: inf
ROOT
ATOM      1  C   UNL     1     -14.165 -20.559 -16.429  1.00  0.00     0.171 C 
ENDROOT
BRANCH   1   2
ATOM      2  C   UNL     1     -14.973 -21.671 -15.725  1.00  0.00     0.190 C 
BRANCH   2   3
ATOM      3  O   UNL     1     -16.348 -21.396 -15.726  1.00  0.00    -0.394 OA
ATOM      4  H   UNL     1     -16.510 -20.734 -16.448  1.00  0.00     0.210 HD
ENDBRANCH   2   3
ENDBRANCH   1   2
BRANCH   1   5
ATOM      5  C   UNL     1     -13.966 -19.264 -15.589  1.00  0.00     0.181 C 
BRANCH   5   6
ATOM      6  C   UNL     1     -12.607 -18.559 -15.846  1.00  0.00     0.209 C 
BRANCH   6   7
ATOM      7  C   UNL     1     -11.560 -18.978 -14.847  1.00  0.00     0.258 C 
ATOM      8  O   UNL     1     -11.430 -18.371 -13.795  1.00  0.00    -0.300 OA
ENDBRANCH   6   7
BRANCH   6   9
ATOM      9  O   UNL     1     -12.148 -18.829 -17.147  1.00  0.00    -0.383 OA
ATOM     10  H   UNL     1     -12.816 -19.420 -17.587  1.00  0.00     0.211 HD
ENDBRANCH   6   9
ENDBRANCH   5   6
BRANCH   5  11
ATOM     11  O   UNL     1     -14.090 -19.561 -14.220  1.00  0.00    -0.387 OA
ATOM     12  H   UNL     1     -14.355 -18.722 -13.761  1.00  0.00     0.211 HD
ENDBRANCH   5  11
ENDBRANCH   1   5
BRANCH   1  13
ATOM     13  O   UNL     1     -14.731 -20.254 -17.680  1.00  0.00    -0.388 OA
ATOM     14  H   UNL     1     -14.022 -19.856 -18.248  1.00  0.00     0.211 HD
ENDBRANCH   1  13
TORSDOF 8
ENDMDL
MODEL 3
REMARK VINA RESULT:    -4.154      1.607      4.021
REMARK INTER + INTRA:          -6.561
REMARK INTER:                  -5.878
REMARK INTRA:                  -0.684
REMARK UNBOUND:                -0.950
REMARK SMILES O=C[C@@H](O)[C@H](O)[C@H](O)CO
REMARK SMILES IDX 7 1 9 2 10 3 5 5 3 6 2 7 1 8 4 9 6 11 8 13
REMARK H PARENT 10 4 4 10 6 12 8 14
REMARK Flexibility Score: inf
ROOT
ATOM      1  C   UNL     1     -13.107 -18.388 -15.953  1.00  0.00     0.171 C 
ENDROOT
BRANCH   1   2
ATOM      2  C   UNL     1     -12.566 -17.323 -14.974  1.00  0.00     0.190 C 
BRANCH   2   3
ATOM      3  O   UNL     1     -11.936 -17.907 -13.865  1.00  0.00    -0.394 OA
ATOM      4  H   UNL     1     -12.551 -18.605 -13.518  1.00  0.00     0.210 HD
ENDBRANCH   2   3
ENDBRANCH   1   2
BRANCH   1   5
ATOM      5  C   UNL     1     -13.334 -19.795 -15.328  1.00  0.00     0.181 C 
BRANCH   5   6
ATOM      6  C   UNL     1     -13.917 -20.832 -16.325  1.00  0.00     0.209 C 
BRANCH   6   7
ATOM      7  C   UNL     1     -14.813 -21.829 -15.638  1.00  0.00     0.258 C 
ATOM      8  O   UNL     1     -16.027 -21.717 -15.701  1.00  0.00    -0.300 OA
ENDBRANCH   6   7
BRANCH   6   9
ATOM      9  O   UNL     1     -14.634 -20.185 -17.348  1.00  0.00    -0.383 OA
ATOM     10  H   UNL     1     -13.997 -19.603 -17.842  1.00  0.00     0.211 HD
ENDBRANCH   6   9
ENDBRANCH   5   6
BRANCH   5  11
ATOM     11  O   UNL     1     -14.182 -19.689 -14.211  1.00  0.00    -0.387 OA
ATOM     12  H   UNL     1     -14.295 -20.603 -13.841  1.00  0.00     0.211 HD
ENDBRANCH   5  11
ENDBRANCH   1   5
BRANCH   1  13
ATOM     13  O   UNL     1     -12.282 -18.479 -17.088  1.00  0.00    -0.388 OA
ATOM     14  H   UNL     1     -11.645 -19.226 -16.946  1.00  0.00     0.211 HD
ENDBRANCH   1  13
TORSDOF 8
ENDMDL
MODEL 4
REMARK VINA RESULT:    -4.027      1.131      1.628
REMARK INTER + INTRA:          -6.389
REMARK INTER:                  -5.948
REMARK INTRA:                  -0.442
REMARK UNBOUND:                -0.950
REMARK SMILES O=C[C@@H](O)[C@H](O)[C@H](O)CO
REMARK SMILES IDX 7 1 9 2 10 3 5 5 3 6 2 7 1 8 4 9 6 11 8 13
REMARK H PARENT 10 4 4 10 6 12 8 14
REMARK Flexibility Score: inf
ROOT
ATOM      1  C   UNL     1     -14.028 -19.755 -15.657  1.00  0.00     0.171 C 
ENDROOT
BRANCH   1   2
ATOM      2  C   UNL     1     -14.370 -20.900 -16.637  1.00  0.00     0.190 C 
BRANCH   2   3
ATOM      3  O   UNL     1     -15.089 -20.437 -17.748  1.00  0.00    -0.394 OA
ATOM      4  H   UNL     1     -14.548 -19.715 -18.162  1.00  0.00     0.210 HD
ENDBRANCH   2   3
ENDBRANCH   1   2
BRANCH   1   5
ATOM      5  C   UNL     1     -12.633 -19.101 -15.877  1.00  0.00     0.181 C 
BRANCH   5   6
ATOM      6  C   UNL     1     -12.359 -17.892 -14.944  1.00  0.00     0.209 C 
BRANCH   6   7
ATOM      7  C   UNL     1     -10.885 -17.616 -14.802  1.00  0.00     0.258 C 
ATOM      8  O   UNL     1     -10.246 -17.164 -15.740  1.00  0.00    -0.300 OA
ENDBRANCH   6   7
BRANCH   6   9
ATOM      9  O   UNL     1     -13.008 -16.740 -15.423  1.00  0.00    -0.383 OA
ATOM     10  H   UNL     1     -12.332 -16.189 -15.899  1.00  0.00     0.211 HD
ENDBRANCH   6   9
ENDBRANCH   5   6
BRANCH   5  11
ATOM     11  O   UNL     1     -12.502 -18.699 -17.218  1.00  0.00    -0.387 OA
ATOM     12  H   UNL     1     -13.356 -18.919 -17.675  1.00  0.00     0.211 HD
ENDBRANCH   5  11
ENDBRANCH   1   5
BRANCH   1  13
ATOM     13  O   UNL     1     -14.167 -20.186 -14.326  1.00  0.00    -0.388 OA
ATOM     14  H   UNL     1     -14.489 -19.419 -13.787  1.00  0.00     0.211 HD
ENDBRANCH   1  13
TORSDOF 8
ENDMDL
MODEL 5
REMARK VINA RESULT:    -3.800      1.389      3.404
REMARK INTER + INTRA:          -6.083
REMARK INTER:                  -5.446
REMARK INTRA:                  -0.636
REMARK UNBOUND:                -0.950
REMARK SMILES O=C[C@@H](O)[C@H](O)[C@H](O)CO
REMARK SMILES IDX 7 1 9 2 10 3 5 5 3 6 2 7 1 8 4 9 6 11 8 13
REMARK H PARENT 10 4 4 10 6 12 8 14
REMARK Flexibility Score: inf
ROOT
ATOM      1  C   UNL     1     -12.546 -17.622 -15.327  1.00  0.00     0.171 C 
ENDROOT
BRANCH   1   2
ATOM      2  C   UNL     1     -11.167 -17.939 -14.708  1.00  0.00     0.190 C 
BRANCH   2   3
ATOM      3  O   UNL     1     -11.262 -18.210 -13.335  1.00  0.00    -0.394 OA
ATOM      4  H   UNL     1     -11.306 -19.197 -13.237  1.00  0.00     0.210 HD
ENDBRANCH   2   3
ENDBRANCH   1   2
BRANCH   1   5
ATOM      5  C   UNL     1     -13.197 -18.800 -16.110  1.00  0.00     0.181 C 
BRANCH   5   6
ATOM      6  C   UNL     1     -13.825 -19.884 -15.194  1.00  0.00     0.209 C 
BRANCH   6   7
ATOM      7  C   UNL     1     -12.956 -21.110 -15.099  1.00  0.00     0.258 C 
ATOM      8  O   UNL     1     -11.950 -21.104 -14.407  1.00  0.00    -0.300 OA
ENDBRANCH   6   7
BRANCH   6   9
ATOM      9  O   UNL     1     -14.054 -19.371 -13.905  1.00  0.00    -0.383 OA
ATOM     10  H   UNL     1     -14.547 -20.061 -13.387  1.00  0.00     0.211 HD
ENDBRANCH   6   9
ENDBRANCH   5   6
BRANCH   5  11
ATOM     11  O   UNL     1     -12.244 -19.393 -16.956  1.00  0.00    -0.387 OA
ATOM     12  H   UNL     1     -12.039 -18.738 -17.673  1.00  0.00     0.211 HD
ENDBRANCH   5  11
ENDBRANCH   1   5
BRANCH   1  13
ATOM     13  O   UNL     1     -12.473 -16.473 -16.133  1.00  0.00    -0.388 OA
ATOM     14  H   UNL     1     -13.198 -15.855 -15.854  1.00  0.00     0.211 HD
ENDBRANCH   1  13
TORSDOF 8
ENDMDL
MODEL 6
REMARK VINA RESULT:    -3.781      1.593      3.551
REMARK INTER + INTRA:          -6.058
REMARK INTER:                  -5.192
REMARK INTRA:                  -0.866
REMARK UNBOUND:                -0.950
REMARK SMILES O=C[C@@H](O)[C@H](O)[C@H](O)CO
REMARK SMILES IDX 7 1 9 2 10 3 5 5 3 6 2 7 1 8 4 9 6 11 8 13
REMARK H PARENT 10 4 4 10 6 12 8 14
REMARK Flexibility Score: inf
ROOT
ATOM      1  C   UNL     1     -12.287 -18.657 -14.859  1.00  0.00     0.171 C 
ENDROOT
BRANCH   1   2
ATOM      2  C   UNL     1     -12.026 -18.131 -16.287  1.00  0.00     0.190 C 
BRANCH   2   3
ATOM      3  O   UNL     1     -12.221 -19.128 -17.254  1.00  0.00    -0.394 OA
ATOM      4  H   UNL     1     -12.931 -18.803 -17.866  1.00  0.00     0.210 HD
ENDBRANCH   2   3
ENDBRANCH   1   2
BRANCH   1   5
ATOM      5  C   UNL     1     -13.619 -19.444 -14.685  1.00  0.00     0.181 C 
BRANCH   5   6
ATOM      6  C   UNL     1     -13.428 -20.983 -14.626  1.00  0.00     0.209 C 
BRANCH   6   7
ATOM      7  C   UNL     1     -14.234 -21.689 -15.685  1.00  0.00     0.258 C 
ATOM      8  O   UNL     1     -13.983 -21.521 -16.869  1.00  0.00    -0.300 OA
ENDBRANCH   6   7
BRANCH   6   9
ATOM      9  O   UNL     1     -12.071 -21.320 -14.768  1.00  0.00    -0.383 OA
ATOM     10  H   UNL     1     -11.906 -21.512 -15.729  1.00  0.00     0.211 HD
ENDBRANCH   6   9
ENDBRANCH   5   6
BRANCH   5  11
ATOM     11  O   UNL     1     -14.503 -19.120 -15.730  1.00  0.00    -0.387 OA
ATOM     12  H   UNL     1     -14.389 -18.152 -15.920  1.00  0.00     0.211 HD
ENDBRANCH   5  11
ENDBRANCH   1   5
BRANCH   1  13
ATOM     13  O   UNL     1     -12.207 -17.610 -13.924  1.00  0.00    -0.388 OA
ATOM     14  H   UNL     1     -12.270 -16.752 -14.418  1.00  0.00     0.211 HD
ENDBRANCH   1  13
TORSDOF 8
ENDMDL
MODEL 7
REMARK VINA RESULT:    -3.601     15.114     16.215
REMARK INTER + INTRA:          -5.815
REMARK INTER:                  -4.846
REMARK INTRA:                  -0.969
REMARK UNBOUND:                -0.950
REMARK SMILES O=C[C@@H](O)[C@H](O)[C@H](O)CO
REMARK SMILES IDX 7 1 9 2 10 3 5 5 3 6 2 7 1 8 4 9 6 11 8 13
REMARK H PARENT 10 4 4 10 6 12 8 14
REMARK Flexibility Score: inf
ROOT
ATOM      1  C   UNL     1      -5.305  -4.756 -11.248  1.00  0.00     0.171 C 
ENDROOT
BRANCH   1   2
ATOM      2  C   UNL     1      -4.604  -3.727 -12.162  1.00  0.00     0.190 C 
BRANCH   2   3
ATOM      3  O   UNL     1      -3.237  -4.002 -12.304  1.00  0.00    -0.394 OA
ATOM      4  H   UNL     1      -2.766  -3.511 -11.581  1.00  0.00     0.210 HD
ENDBRANCH   2   3
ENDBRANCH   1   2
BRANCH   1   5
ATOM      5  C   UNL     1      -5.093  -6.243 -11.657  1.00  0.00     0.181 C 
BRANCH   5   6
ATOM      6  C   UNL     1      -3.990  -6.963 -10.834  1.00  0.00     0.209 C 
BRANCH   6   7
ATOM      7  C   UNL     1      -2.893  -7.499 -11.716  1.00  0.00     0.258 C 
ATOM      8  O   UNL     1      -2.073  -6.742 -12.214  1.00  0.00    -0.300 OA
ENDBRANCH   6   7
BRANCH   6   9
ATOM      9  O   UNL     1      -3.439  -6.092  -9.878  1.00  0.00    -0.383 OA
ATOM     10  H   UNL     1      -2.951  -6.645  -9.211  1.00  0.00     0.211 HD
ENDBRANCH   6   9
ENDBRANCH   5   6
BRANCH   5  11
ATOM     11  O   UNL     1      -4.784  -6.321 -13.026  1.00  0.00    -0.387 OA
ATOM     12  H   UNL     1      -5.635  -6.484 -13.510  1.00  0.00     0.211 HD
ENDBRANCH   5  11
ENDBRANCH   1   5
BRANCH   1  13
ATOM     13  O   UNL     1      -6.676  -4.465 -11.137  1.00  0.00    -0.388 OA
ATOM     14  H   UNL     1      -7.104  -5.195 -10.619  1.00  0.00     0.211 HD
ENDBRANCH   1  13
TORSDOF 8
ENDMDL
MODEL 8
REMARK VINA RESULT:    -3.506      1.599      2.424
REMARK INTER + INTRA:          -5.686
REMARK INTER:                  -5.244
REMARK INTRA:                  -0.442
REMARK UNBOUND:                -0.950
REMARK SMILES O=C[C@@H](O)[C@H](O)[C@H](O)CO
REMARK SMILES IDX 7 1 9 2 10 3 5 5 3 6 2 7 1 8 4 9 6 11 8 13
REMARK H PARENT 10 4 4 10 6 12 8 14
REMARK Flexibility Score: inf
ROOT
ATOM      1  C   UNL     1     -13.782 -20.823 -16.194  1.00  0.00     0.171 C 
ENDROOT
BRANCH   1   2
ATOM      2  C   UNL     1     -13.683 -22.124 -15.367  1.00  0.00     0.190 C 
BRANCH   2   3
ATOM      3  O   UNL     1     -14.571 -22.120 -14.282  1.00  0.00    -0.394 OA
ATOM      4  H   UNL     1     -14.957 -23.033 -14.220  1.00  0.00     0.210 HD
ENDBRANCH   2   3
ENDBRANCH   1   2
BRANCH   1   5
ATOM      5  C   UNL     1     -12.717 -19.743 -15.842  1.00  0.00     0.181 C 
BRANCH   5   6
ATOM      6  C   UNL     1     -12.596 -19.462 -14.320  1.00  0.00     0.209 C 
BRANCH   6   7
ATOM      7  C   UNL     1     -11.573 -18.396 -14.027  1.00  0.00     0.258 C 
ATOM      8  O   UNL     1     -11.182 -17.652 -14.913  1.00  0.00    -0.300 OA
ENDBRANCH   6   7
BRANCH   6   9
ATOM      9  O   UNL     1     -13.840 -19.078 -13.788  1.00  0.00    -0.383 OA
ATOM     10  H   UNL     1     -13.669 -18.618 -12.923  1.00  0.00     0.211 HD
ENDBRANCH   6   9
ENDBRANCH   5   6
BRANCH   5  11
ATOM     11  O   UNL     1     -13.011 -18.547 -16.519  1.00  0.00    -0.387 OA
ATOM     12  H   UNL     1     -13.999 -18.444 -16.518  1.00  0.00     0.211 HD
ENDBRANCH   5  11
ENDBRANCH   1   5
BRANCH   1  13
ATOM     13  O   UNL     1     -15.078 -20.284 -16.113  1.00  0.00    -0.388 OA
ATOM     14  H   UNL     1     -15.725 -21.007 -16.319  1.00  0.00     0.211 HD
ENDBRANCH   1  13
TORSDOF 8
ENDMDL
MODEL 9
REMARK VINA RESULT:    -3.441      1.281      3.786
REMARK INTER + INTRA:          -5.598
REMARK INTER:                  -5.252
REMARK INTRA:                  -0.346
REMARK UNBOUND:                -0.950
REMARK SMILES O=C[C@@H](O)[C@H](O)[C@H](O)CO
REMARK SMILES IDX 7 1 9 2 10 3 5 5 3 6 2 7 1 8 4 9 6 11 8 13
REMARK H PARENT 10 4 4 10 6 12 8 14
REMARK Flexibility Score: inf
ROOT
ATOM      1  C   UNL     1     -13.071 -18.214 -14.802  1.00  0.00     0.171 C 
ENDROOT
BRANCH   1   2
ATOM      2  C   UNL     1     -12.145 -19.175 -14.025  1.00  0.00     0.190 C 
BRANCH   2   3
ATOM      3  O   UNL     1     -10.801 -19.015 -14.392  1.00  0.00    -0.394 OA
ATOM      4  H   UNL     1     -10.508 -19.871 -14.800  1.00  0.00     0.210 HD
ENDBRANCH   2   3
ENDBRANCH   1   2
BRANCH   1   5
ATOM      5  C   UNL     1     -13.128 -18.460 -16.338  1.00  0.00     0.181 C 
BRANCH   5   6
ATOM      6  C   UNL     1     -13.268 -19.957 -16.722  1.00  0.00     0.209 C 
BRANCH   6   7
ATOM      7  C   UNL     1     -14.609 -20.516 -16.324  1.00  0.00     0.258 C 
ATOM      8  O   UNL     1     -14.704 -21.286 -15.380  1.00  0.00    -0.300 OA
ENDBRANCH   6   7
BRANCH   6   9
ATOM      9  O   UNL     1     -13.080 -20.133 -18.105  1.00  0.00    -0.383 OA
ATOM     10  H   UNL     1     -12.154 -20.467 -18.244  1.00  0.00     0.211 HD
ENDBRANCH   6   9
ENDBRANCH   5   6
BRANCH   5  11
ATOM     11  O   UNL     1     -11.982 -17.923 -16.949  1.00  0.00    -0.387 OA
ATOM     12  H   UNL     1     -11.256 -18.593 -16.851  1.00  0.00     0.211 HD
ENDBRANCH   5  11
ENDBRANCH   1   5
BRANCH   1  13
ATOM     13  O   UNL     1     -12.736 -16.876 -14.528  1.00  0.00    -0.388 OA
ATOM     14  H   UNL     1     -13.543 -16.424 -14.172  1.00  0.00     0.211 HD
ENDBRANCH   1  13
TORSDOF 8
ENDMDL
