MODEL 1
REMARK VINA RESULT:    -7.957      0.000      0.000
REMARK INTER + INTRA:         -12.368
REMARK INTER:                 -10.980
REMARK INTRA:                  -1.387
REMARK UNBOUND:                -1.387
REMARK SMILES O=C([O-])[C@H]1O[C@@H](Oc2cc3oc(-c4ccccc4)cc(=O)c3c(O)c2O)[C@H](O)[C@@H](O)[C@@H]1O
REMARK SMILES IDX 7 1 6 2 4 3 31 4 5 5 29 6 27 7 2 8 1 9 3 10 32 11 30 13
REMARK SMILES IDX 28 15 8 17 25 18 9 19 23 20 10 21 22 22 11 23 20 24 12 25
REMARK SMILES IDX 19 26 21 27 26 28 24 30 13 32 14 33 18 34 15 35 17 36 16 37
REMARK H PARENT 32 12 30 14 28 16 26 29 24 31
REMARK Flexibility Score: inf
ROOT
ATOM      1  O   UNL     1      -6.727  -8.975  34.240  1.00  0.00    -0.458 OA
ENDROOT
BRANCH   1   2
ATOM      2  C   UNL     1      -7.231  -9.137  32.909  1.00  0.00     0.339 C 
ATOM      3  C   UNL     1      -5.072  -9.221  31.901  1.00  0.00     0.199 C 
ATOM      4  C   UNL     1      -5.240  -7.816  31.259  1.00  0.00     0.180 C 
ATOM      5  O   UNL     1      -6.317  -9.880  32.112  1.00  0.00    -0.328 OA
ATOM      6  C   UNL     1      -6.295  -6.962  31.984  1.00  0.00     0.181 C 
ATOM      7  C   UNL     1      -7.572  -7.774  32.281  1.00  0.00     0.214 C 
BRANCH   3   8
ATOM      8  C   UNL     1      -4.196  -9.253  33.134  1.00  0.00     0.073 C 
ATOM      9  O   UNL     1      -4.020 -10.342  33.743  1.00  0.00    -0.547 OA
ATOM     10  O   UNL     1      -3.501  -8.125  33.554  1.00  0.00    -0.547 OA
ENDBRANCH   3   8
BRANCH   4  11
ATOM     11  O   UNL     1      -5.551  -7.924  29.890  1.00  0.00    -0.387 OA
ATOM     12  H   UNL     1      -4.819  -7.499  29.368  1.00  0.00     0.211 HD
ENDBRANCH   4  11
BRANCH   6  13
ATOM     13  O   UNL     1      -5.752  -6.465  33.181  1.00  0.00    -0.387 OA
ATOM     14  H   UNL     1      -6.229  -5.617  33.381  1.00  0.00     0.211 HD
ENDBRANCH   6  13
BRANCH   7  15
ATOM     15  O   UNL     1      -8.312  -7.979  31.106  1.00  0.00    -0.384 OA
ATOM     16  H   UNL     1      -8.559  -7.080  30.764  1.00  0.00     0.211 HD
ENDBRANCH   7  15
ENDBRANCH   1   2
BRANCH   1  17
ATOM     17  C   UNL     1      -7.406  -9.243  35.442  1.00  0.00     0.172 A 
ATOM     18  C   UNL     1      -6.938 -10.133  36.435  1.00  0.00     0.201 A 
ATOM     19  C   UNL     1      -8.616  -8.580  35.638  1.00  0.00     0.098 A 
ATOM     20  C   UNL     1      -7.660 -10.305  37.636  1.00  0.00     0.176 A 
ATOM     21  C   UNL     1      -9.364  -8.767  36.797  1.00  0.00     0.146 A 
ATOM     22  C   UNL     1      -8.916  -9.651  37.808  1.00  0.00     0.111 A 
ATOM     23  O   UNL     1     -10.506  -8.099  36.928  1.00  0.00    -0.456 OA
ATOM     24  C   UNL     1      -9.784  -9.851  38.910  1.00  0.00     0.197 A 
ATOM     25  C   UNL     1     -11.301  -8.214  37.986  1.00  0.00     0.138 A 
ATOM     26  C   UNL     1     -10.964  -9.112  39.004  1.00  0.00     0.100 A 
ATOM     27  O   UNL     1      -9.548 -10.707  39.800  1.00  0.00    -0.289 OA
BRANCH  18  28
ATOM     28  O   UNL     1      -5.763 -10.856  36.230  1.00  0.00    -0.502 OA
ATOM     29  H   UNL     1      -4.981 -10.830  36.871  1.00  0.00     0.293 HD
ENDBRANCH  18  28
BRANCH  20  30
ATOM     30  O   UNL     1      -7.075 -11.106  38.625  1.00  0.00    -0.504 OA
ATOM     31  H   UNL     1      -6.118 -11.429  38.614  1.00  0.00     0.293 HD
ENDBRANCH  20  30
BRANCH  25  32
ATOM     32  C   UNL     1     -12.535  -7.396  38.045  1.00  0.00     0.017 A 
ATOM     33  C   UNL     1     -13.277  -7.172  36.872  1.00  0.00     0.012 A 
ATOM     34  C   UNL     1     -12.963  -6.798  39.247  1.00  0.00     0.012 A 
ATOM     35  C   UNL     1     -14.430  -6.382  36.904  1.00  0.00     0.001 A 
ATOM     36  C   UNL     1     -14.116  -6.009  39.272  1.00  0.00     0.001 A 
ATOM     37  C   UNL     1     -14.850  -5.802  38.103  1.00  0.00     0.000 A 
ENDBRANCH  25  32
ENDBRANCH   1  17
TORSDOF 9
ENDMDL
MODEL 2
REMARK VINA RESULT:    -7.805      1.062      1.857
REMARK INTER + INTRA:         -12.159
REMARK INTER:                 -10.763
REMARK INTRA:                  -1.396
REMARK UNBOUND:                -1.387
REMARK SMILES O=C([O-])[C@H]1O[C@@H](Oc2cc3oc(-c4ccccc4)cc(=O)c3c(O)c2O)[C@H](O)[C@@H](O)[C@@H]1O
REMARK SMILES IDX 7 1 6 2 4 3 31 4 5 5 29 6 27 7 2 8 1 9 3 10 32 11 30 13
REMARK SMILES IDX 28 15 8 17 25 18 9 19 23 20 10 21 22 22 11 23 20 24 12 25
REMARK SMILES IDX 19 26 21 27 26 28 24 30 13 32 14 33 18 34 15 35 17 36 16 37
REMARK H PARENT 32 12 30 14 28 16 26 29 24 31
REMARK Flexibility Score: inf
ROOT
ATOM      1  O   UNL     1      -7.243  -8.558  34.017  1.00  0.00    -0.458 OA
ENDROOT
BRANCH   1   2
ATOM      2  C   UNL     1      -6.876  -7.248  33.571  1.00  0.00     0.339 C 
ATOM      3  C   UNL     1      -5.767  -8.023  31.608  1.00  0.00     0.199 C 
ATOM      4  C   UNL     1      -4.364  -7.679  32.180  1.00  0.00     0.180 C 
ATOM      5  O   UNL     1      -6.797  -7.204  32.151  1.00  0.00    -0.328 OA
ATOM      6  C   UNL     1      -4.362  -7.594  33.716  1.00  0.00     0.181 C 
ATOM      7  C   UNL     1      -5.568  -6.787  34.238  1.00  0.00     0.214 C 
BRANCH   3   8
ATOM      8  C   UNL     1      -6.127  -9.492  31.653  1.00  0.00     0.073 C 
ATOM      9  O   UNL     1      -7.296  -9.856  31.353  1.00  0.00    -0.547 OA
ATOM     10  O   UNL     1      -5.167 -10.461  31.925  1.00  0.00    -0.547 OA
ENDBRANCH   3   8
BRANCH   4  11
ATOM     11  O   UNL     1      -3.873  -6.485  31.619  1.00  0.00    -0.387 OA
ATOM     12  H   UNL     1      -3.824  -6.599  30.633  1.00  0.00     0.211 HD
ENDBRANCH   4  11
BRANCH   6  13
ATOM     13  O   UNL     1      -4.379  -8.890  34.257  1.00  0.00    -0.387 OA
ATOM     14  H   UNL     1      -4.167  -9.513  33.513  1.00  0.00     0.211 HD
ENDBRANCH   6  13
BRANCH   7  15
ATOM     15  O   UNL     1      -5.387  -5.415  34.001  1.00  0.00    -0.384 OA
ATOM     16  H   UNL     1      -5.023  -5.027  34.840  1.00  0.00     0.211 HD
ENDBRANCH   7  15
ENDBRANCH   1   2
BRANCH   1  17
ATOM     17  C   UNL     1      -7.882  -8.895  35.224  1.00  0.00     0.172 A 
ATOM     18  C   UNL     1      -7.391  -9.851  36.141  1.00  0.00     0.201 A 
ATOM     19  C   UNL     1      -9.074  -8.231  35.506  1.00  0.00     0.098 A 
ATOM     20  C   UNL     1      -8.072 -10.091  37.354  1.00  0.00     0.176 A 
ATOM     21  C   UNL     1      -9.783  -8.483  36.678  1.00  0.00     0.146 A 
ATOM     22  C   UNL     1      -9.311  -9.435  37.614  1.00  0.00     0.111 A 
ATOM     23  O   UNL     1     -10.909  -7.811  36.894  1.00  0.00    -0.456 OA
ATOM     24  C   UNL     1     -10.142  -9.694  38.733  1.00  0.00     0.197 A 
ATOM     25  C   UNL     1     -11.667  -7.984  37.970  1.00  0.00     0.138 A 
ATOM     26  C   UNL     1     -11.307  -8.949  38.917  1.00  0.00     0.100 A 
ATOM     27  O   UNL     1      -9.885 -10.607  39.557  1.00  0.00    -0.289 OA
BRANCH  18  28
ATOM     28  O   UNL     1      -6.234 -10.574  35.847  1.00  0.00    -0.502 OA
ATOM     29  H   UNL     1      -5.344 -10.134  35.653  1.00  0.00     0.293 HD
ENDBRANCH  18  28
BRANCH  20  30
ATOM     30  O   UNL     1      -7.462 -10.961  38.268  1.00  0.00    -0.504 OA
ATOM     31  H   UNL     1      -6.786 -10.684  38.964  1.00  0.00     0.293 HD
ENDBRANCH  20  30
BRANCH  25  32
ATOM     32  C   UNL     1     -12.887  -7.156  38.127  1.00  0.00     0.017 A 
ATOM     33  C   UNL     1     -13.677  -6.863  37.002  1.00  0.00     0.012 A 
ATOM     34  C   UNL     1     -13.253  -6.617  39.376  1.00  0.00     0.012 A 
ATOM     35  C   UNL     1     -14.816  -6.063  37.126  1.00  0.00     0.001 A 
ATOM     36  C   UNL     1     -14.393  -5.818  39.494  1.00  0.00     0.001 A 
ATOM     37  C   UNL     1     -15.175  -5.542  38.371  1.00  0.00     0.000 A 
ENDBRANCH  25  32
ENDBRANCH   1  17
TORSDOF 9
ENDMDL
MODEL 3
REMARK VINA RESULT:    -7.751      8.106     12.903
REMARK INTER + INTRA:         -12.083
REMARK INTER:                 -10.858
REMARK INTRA:                  -1.225
REMARK UNBOUND:                -1.387
REMARK SMILES O=C([O-])[C@H]1O[C@@H](Oc2cc3oc(-c4ccccc4)cc(=O)c3c(O)c2O)[C@H](O)[C@@H](O)[C@@H]1O
REMARK SMILES IDX 7 1 6 2 4 3 31 4 5 5 29 6 27 7 2 8 1 9 3 10 32 11 30 13
REMARK SMILES IDX 28 15 8 17 25 18 9 19 23 20 10 21 22 22 11 23 20 24 12 25
REMARK SMILES IDX 19 26 21 27 26 28 24 30 13 32 14 33 18 34 15 35 17 36 16 37
REMARK H PARENT 32 12 30 14 28 16 26 29 24 31
REMARK Flexibility Score: inf
ROOT
ATOM      1  O   UNL     1     -14.530  -7.835  46.122  1.00  0.00    -0.458 OA
ENDROOT
BRANCH   1   2
ATOM      2  C   UNL     1     -13.796  -9.026  46.426  1.00  0.00     0.339 C 
ATOM      3  C   UNL     1     -15.648 -10.484  46.068  1.00  0.00     0.199 C 
ATOM      4  C   UNL     1     -15.796 -10.784  47.585  1.00  0.00     0.180 C 
ATOM      5  O   UNL     1     -14.316 -10.136  45.705  1.00  0.00    -0.328 OA
ATOM      6  C   UNL     1     -15.164  -9.689  48.463  1.00  0.00     0.181 C 
ATOM      7  C   UNL     1     -13.771  -9.283  47.943  1.00  0.00     0.214 C 
BRANCH   3   8
ATOM      8  C   UNL     1     -16.662  -9.507  45.514  1.00  0.00     0.073 C 
ATOM      9  O   UNL     1     -16.713  -9.301  44.272  1.00  0.00    -0.547 OA
ATOM     10  O   UNL     1     -17.605  -8.902  46.337  1.00  0.00    -0.547 OA
ENDBRANCH   3   8
BRANCH   4  11
ATOM     11  O   UNL     1     -15.254 -12.044  47.903  1.00  0.00    -0.387 OA
ATOM     12  H   UNL     1     -15.084 -12.534  47.055  1.00  0.00     0.211 HD
ENDBRANCH   4  11
BRANCH   6  13
ATOM     13  O   UNL     1     -16.012  -8.569  48.496  1.00  0.00    -0.387 OA
ATOM     14  H   UNL     1     -15.612  -7.927  49.140  1.00  0.00     0.211 HD
ENDBRANCH   6  13
BRANCH   7  15
ATOM     15  O   UNL     1     -12.826 -10.281  48.227  1.00  0.00    -0.384 OA
ATOM     16  H   UNL     1     -13.253 -11.150  48.006  1.00  0.00     0.211 HD
ENDBRANCH   7  15
ENDBRANCH   1   2
BRANCH   1  17
ATOM     17  C   UNL     1     -14.138  -6.794  45.261  1.00  0.00     0.172 A 
ATOM     18  C   UNL     1     -13.664  -5.538  45.701  1.00  0.00     0.201 A 
ATOM     19  C   UNL     1     -14.238  -7.043  43.893  1.00  0.00     0.098 A 
ATOM     20  C   UNL     1     -13.244  -4.567  44.766  1.00  0.00     0.176 A 
ATOM     21  C   UNL     1     -13.868  -6.084  42.954  1.00  0.00     0.146 A 
ATOM     22  C   UNL     1     -13.388  -4.818  43.369  1.00  0.00     0.111 A 
ATOM     23  O   UNL     1     -13.978  -6.385  41.664  1.00  0.00    -0.456 OA
ATOM     24  C   UNL     1     -13.122  -3.872  42.348  1.00  0.00     0.197 A 
ATOM     25  C   UNL     1     -13.666  -5.540  40.689  1.00  0.00     0.138 A 
ATOM     26  C   UNL     1     -13.241  -4.247  41.009  1.00  0.00     0.100 A 
ATOM     27  O   UNL     1     -12.815  -2.681  42.606  1.00  0.00    -0.289 OA
BRANCH  18  28
ATOM     28  O   UNL     1     -13.618  -5.245  47.064  1.00  0.00    -0.502 OA
ATOM     29  H   UNL     1     -12.966  -5.683  47.700  1.00  0.00     0.293 HD
ENDBRANCH  18  28
BRANCH  20  30
ATOM     30  O   UNL     1     -12.671  -3.394  45.275  1.00  0.00    -0.504 OA
ATOM     31  H   UNL     1     -11.756  -3.046  45.031  1.00  0.00     0.293 HD
ENDBRANCH  20  30
BRANCH  25  32
ATOM     32  C   UNL     1     -13.795  -5.992  39.283  1.00  0.00     0.017 A 
ATOM     33  C   UNL     1     -12.891  -6.939  38.772  1.00  0.00     0.012 A 
ATOM     34  C   UNL     1     -14.781  -5.461  38.428  1.00  0.00     0.012 A 
ATOM     35  C   UNL     1     -12.981  -7.358  37.441  1.00  0.00     0.001 A 
ATOM     36  C   UNL     1     -14.866  -5.883  37.099  1.00  0.00     0.001 A 
ATOM     37  C   UNL     1     -13.969  -6.831  36.606  1.00  0.00     0.000 A 
ENDBRANCH  25  32
ENDBRANCH   1  17
TORSDOF 9
ENDMDL
MODEL 4
REMARK VINA RESULT:    -7.638      0.997      2.418
REMARK INTER + INTRA:         -11.927
REMARK INTER:                 -11.004
REMARK INTRA:                  -0.923
REMARK UNBOUND:                -1.387
REMARK SMILES O=C([O-])[C@H]1O[C@@H](Oc2cc3oc(-c4ccccc4)cc(=O)c3c(O)c2O)[C@H](O)[C@@H](O)[C@@H]1O
REMARK SMILES IDX 7 1 6 2 4 3 31 4 5 5 29 6 27 7 2 8 1 9 3 10 32 11 30 13
REMARK SMILES IDX 28 15 8 17 25 18 9 19 23 20 10 21 22 22 11 23 20 24 12 25
REMARK SMILES IDX 19 26 21 27 26 28 24 30 13 32 14 33 18 34 15 35 17 36 16 37
REMARK H PARENT 32 12 30 14 28 16 26 29 24 31
REMARK Flexibility Score: inf
ROOT
ATOM      1  O   UNL     1      -6.719  -9.727  34.578  1.00  0.00    -0.458 OA
ENDROOT
BRANCH   1   2
ATOM      2  C   UNL     1      -5.293  -9.730  34.450  1.00  0.00     0.339 C 
ATOM      3  C   UNL     1      -5.216  -7.708  33.188  1.00  0.00     0.199 C 
ATOM      4  C   UNL     1      -4.837  -8.456  31.880  1.00  0.00     0.180 C 
ATOM      5  O   UNL     1      -4.794  -8.401  34.358  1.00  0.00    -0.328 OA
ATOM      6  C   UNL     1      -5.237  -9.942  31.917  1.00  0.00     0.181 C 
ATOM      7  C   UNL     1      -4.851 -10.597  33.258  1.00  0.00     0.214 C 
BRANCH   3   8
ATOM      8  C   UNL     1      -6.664  -7.277  33.274  1.00  0.00     0.073 C 
ATOM      9  O   UNL     1      -7.044  -6.567  34.243  1.00  0.00    -0.547 OA
ATOM     10  O   UNL     1      -7.563  -7.566  32.255  1.00  0.00    -0.547 OA
ENDBRANCH   3   8
BRANCH   4  11
ATOM     11  O   UNL     1      -3.462  -8.323  31.607  1.00  0.00    -0.387 OA
ATOM     12  H   UNL     1      -3.267  -8.786  30.750  1.00  0.00     0.211 HD
ENDBRANCH   4  11
BRANCH   6  13
ATOM     13  O   UNL     1      -6.621 -10.058  31.706  1.00  0.00    -0.387 OA
ATOM     14  H   UNL     1      -6.850  -9.440  30.963  1.00  0.00     0.211 HD
ENDBRANCH   6  13
BRANCH   7  15
ATOM     15  O   UNL     1      -3.464 -10.804  33.326  1.00  0.00    -0.384 OA
ATOM     16  H   UNL     1      -3.274 -11.170  34.230  1.00  0.00     0.211 HD
ENDBRANCH   7  15
ENDBRANCH   1   2
BRANCH   1  17
ATOM     17  C   UNL     1      -7.463  -9.836  35.767  1.00  0.00     0.172 A 
ATOM     18  C   UNL     1      -7.092 -10.647  36.863  1.00  0.00     0.201 A 
ATOM     19  C   UNL     1      -8.637  -9.088  35.840  1.00  0.00     0.098 A 
ATOM     20  C   UNL     1      -7.874 -10.658  38.038  1.00  0.00     0.176 A 
ATOM     21  C   UNL     1      -9.443  -9.116  36.975  1.00  0.00     0.146 A 
ATOM     22  C   UNL     1      -9.093  -9.920  38.087  1.00  0.00     0.111 A 
ATOM     23  O   UNL     1     -10.546  -8.375  36.986  1.00  0.00    -0.456 OA
ATOM     24  C   UNL     1     -10.018  -9.959  39.160  1.00  0.00     0.197 A 
ATOM     25  C   UNL     1     -11.391  -8.339  38.010  1.00  0.00     0.138 A 
ATOM     26  C   UNL     1     -11.153  -9.149  39.126  1.00  0.00     0.100 A 
ATOM     27  O   UNL     1      -9.872 -10.734  40.139  1.00  0.00    -0.289 OA
BRANCH  18  28
ATOM     28  O   UNL     1      -5.956 -11.453  36.785  1.00  0.00    -0.502 OA
ATOM     29  H   UNL     1      -5.632 -11.867  35.921  1.00  0.00     0.293 HD
ENDBRANCH  18  28
BRANCH  20  30
ATOM     30  O   UNL     1      -7.381 -11.389  39.128  1.00  0.00    -0.504 OA
ATOM     31  H   UNL     1      -6.824 -11.004  39.876  1.00  0.00     0.293 HD
ENDBRANCH  20  30
BRANCH  25  32
ATOM     32  C   UNL     1     -12.574  -7.450  37.931  1.00  0.00     0.017 A 
ATOM     33  C   UNL     1     -13.065  -6.841  39.099  1.00  0.00     0.012 A 
ATOM     34  C   UNL     1     -13.249  -7.232  36.714  1.00  0.00     0.012 A 
ATOM     35  C   UNL     1     -14.194  -6.019  39.048  1.00  0.00     0.001 A 
ATOM     36  C   UNL     1     -14.379  -6.411  36.669  1.00  0.00     0.001 A 
ATOM     37  C   UNL     1     -14.850  -5.803  37.834  1.00  0.00     0.000 A 
ENDBRANCH  25  32
ENDBRANCH   1  17
TORSDOF 9
ENDMDL
MODEL 5
REMARK VINA RESULT:    -7.525      6.503     11.395
REMARK INTER + INTRA:         -11.772
REMARK INTER:                 -10.300
REMARK INTRA:                  -1.472
REMARK UNBOUND:                -1.387
REMARK SMILES O=C([O-])[C@H]1O[C@@H](Oc2cc3oc(-c4ccccc4)cc(=O)c3c(O)c2O)[C@H](O)[C@@H](O)[C@@H]1O
REMARK SMILES IDX 7 1 6 2 4 3 31 4 5 5 29 6 27 7 2 8 1 9 3 10 32 11 30 13
REMARK SMILES IDX 28 15 8 17 25 18 9 19 23 20 10 21 22 22 11 23 20 24 12 25
REMARK SMILES IDX 19 26 21 27 26 28 24 30 13 32 14 33 18 34 15 35 17 36 16 37
REMARK H PARENT 32 12 30 14 28 16 26 29 24 31
REMARK Flexibility Score: inf
ROOT
ATOM      1  O   UNL     1     -10.831  -6.353  45.720  1.00  0.00    -0.458 OA
ENDROOT
BRANCH   1   2
ATOM      2  C   UNL     1     -11.983  -6.348  46.569  1.00  0.00     0.339 C 
ATOM      3  C   UNL     1     -11.169  -4.604  47.977  1.00  0.00     0.199 C 
ATOM      4  C   UNL     1     -10.918  -5.579  49.160  1.00  0.00     0.180 C 
ATOM      5  O   UNL     1     -12.205  -5.050  47.108  1.00  0.00    -0.328 OA
ATOM      6  C   UNL     1     -10.770  -7.039  48.694  1.00  0.00     0.181 C 
ATOM      7  C   UNL     1     -11.859  -7.417  47.670  1.00  0.00     0.214 C 
BRANCH   3   8
ATOM      8  C   UNL     1      -9.927  -4.197  47.216  1.00  0.00     0.073 C 
ATOM      9  O   UNL     1     -10.019  -3.365  46.273  1.00  0.00    -0.547 OA
ATOM     10  O   UNL     1      -8.668  -4.647  47.598  1.00  0.00    -0.547 OA
ENDBRANCH   3   8
BRANCH   4  11
ATOM     11  O   UNL     1     -11.937  -5.470  50.125  1.00  0.00    -0.387 OA
ATOM     12  H   UNL     1     -12.795  -5.296  49.656  1.00  0.00     0.211 HD
ENDBRANCH   4  11
BRANCH   6  13
ATOM     13  O   UNL     1      -9.496  -7.224  48.133  1.00  0.00    -0.387 OA
ATOM     14  H   UNL     1      -9.619  -7.787  47.324  1.00  0.00     0.211 HD
ENDBRANCH   6  13
BRANCH   7  15
ATOM     15  O   UNL     1     -13.101  -7.576  48.303  1.00  0.00    -0.384 OA
ATOM     16  H   UNL     1     -13.084  -7.001  49.113  1.00  0.00     0.211 HD
ENDBRANCH   7  15
ENDBRANCH   1   2
BRANCH   1  17
ATOM     17  C   UNL     1     -10.656  -7.087  44.533  1.00  0.00     0.172 A 
ATOM     18  C   UNL     1      -9.770  -8.180  44.400  1.00  0.00     0.201 A 
ATOM     19  C   UNL     1     -11.413  -6.688  43.433  1.00  0.00     0.098 A 
ATOM     20  C   UNL     1      -9.695  -8.893  43.184  1.00  0.00     0.176 A 
ATOM     21  C   UNL     1     -11.323  -7.351  42.213  1.00  0.00     0.146 A 
ATOM     22  C   UNL     1     -10.445  -8.451  42.054  1.00  0.00     0.111 A 
ATOM     23  O   UNL     1     -12.078  -6.927  41.204  1.00  0.00    -0.456 OA
ATOM     24  C   UNL     1     -10.349  -9.007  40.754  1.00  0.00     0.197 A 
ATOM     25  C   UNL     1     -12.060  -7.479  39.997  1.00  0.00     0.138 A 
ATOM     26  C   UNL     1     -11.176  -8.532  39.736  1.00  0.00     0.100 A 
ATOM     27  O   UNL     1      -9.511  -9.899  40.470  1.00  0.00    -0.289 OA
BRANCH  18  28
ATOM     28  O   UNL     1      -8.956  -8.556  45.468  1.00  0.00    -0.502 OA
ATOM     29  H   UNL     1      -8.563  -7.891  46.122  1.00  0.00     0.293 HD
ENDBRANCH  18  28
BRANCH  20  30
ATOM     30  O   UNL     1      -8.888 -10.039  43.163  1.00  0.00    -0.504 OA
ATOM     31  H   UNL     1      -9.209 -10.966  42.926  1.00  0.00     0.293 HD
ENDBRANCH  20  30
BRANCH  25  32
ATOM     32  C   UNL     1     -12.968  -6.948  38.953  1.00  0.00     0.017 A 
ATOM     33  C   UNL     1     -13.971  -6.029  39.308  1.00  0.00     0.012 A 
ATOM     34  C   UNL     1     -12.880  -7.377  37.614  1.00  0.00     0.012 A 
ATOM     35  C   UNL     1     -14.853  -5.536  38.342  1.00  0.00     0.001 A 
ATOM     36  C   UNL     1     -13.765  -6.882  36.653  1.00  0.00     0.001 A 
ATOM     37  C   UNL     1     -14.750  -5.961  37.015  1.00  0.00     0.000 A 
ENDBRANCH  25  32
ENDBRANCH   1  17
TORSDOF 9
ENDMDL
MODEL 6
REMARK VINA RESULT:    -7.399      8.058     13.209
REMARK INTER + INTRA:         -11.598
REMARK INTER:                 -10.073
REMARK INTRA:                  -1.525
REMARK UNBOUND:                -1.387
REMARK SMILES O=C([O-])[C@H]1O[C@@H](Oc2cc3oc(-c4ccccc4)cc(=O)c3c(O)c2O)[C@H](O)[C@@H](O)[C@@H]1O
REMARK SMILES IDX 7 1 6 2 4 3 31 4 5 5 29 6 27 7 2 8 1 9 3 10 32 11 30 13
REMARK SMILES IDX 28 15 8 17 25 18 9 19 23 20 10 21 22 22 11 23 20 24 12 25
REMARK SMILES IDX 19 26 21 27 26 28 24 30 13 32 14 33 18 34 15 35 17 36 16 37
REMARK H PARENT 32 12 30 14 28 16 26 29 24 31
REMARK Flexibility Score: inf
ROOT
ATOM      1  O   UNL     1     -14.507  -7.445  46.154  1.00  0.00    -0.458 OA
ENDROOT
BRANCH   1   2
ATOM      2  C   UNL     1     -15.742  -7.470  46.879  1.00  0.00     0.339 C 
ATOM      3  C   UNL     1     -14.731  -8.090  48.947  1.00  0.00     0.199 C 
ATOM      4  C   UNL     1     -15.315  -9.528  48.883  1.00  0.00     0.180 C 
ATOM      5  O   UNL     1     -15.529  -7.142  48.247  1.00  0.00    -0.328 OA
ATOM      6  C   UNL     1     -15.685  -9.947  47.449  1.00  0.00     0.181 C 
ATOM      7  C   UNL     1     -16.448  -8.827  46.713  1.00  0.00     0.214 C 
BRANCH   3   8
ATOM      8  C   UNL     1     -13.267  -7.983  48.578  1.00  0.00     0.073 C 
ATOM      9  O   UNL     1     -12.679  -6.874  48.683  1.00  0.00    -0.547 OA
ATOM     10  O   UNL     1     -12.531  -9.107  48.219  1.00  0.00    -0.547 OA
ENDBRANCH   3   8
BRANCH   4  11
ATOM     11  O   UNL     1     -16.428  -9.656  49.736  1.00  0.00    -0.387 OA
ATOM     12  H   UNL     1     -16.190  -9.269  50.620  1.00  0.00     0.211 HD
ENDBRANCH   4  11
BRANCH   6  13
ATOM     13  O   UNL     1     -14.516 -10.277  46.742  1.00  0.00    -0.387 OA
ATOM     14  H   UNL     1     -14.793 -10.471  45.808  1.00  0.00     0.211 HD
ENDBRANCH   6  13
BRANCH   7  15
ATOM     15  O   UNL     1     -17.763  -8.725  47.195  1.00  0.00    -0.384 OA
ATOM     16  H   UNL     1     -17.757  -8.021  47.894  1.00  0.00     0.211 HD
ENDBRANCH   7  15
ENDBRANCH   1   2
BRANCH   1  17
ATOM     17  C   UNL     1     -14.081  -6.464  45.240  1.00  0.00     0.172 A 
ATOM     18  C   UNL     1     -13.568  -5.201  45.615  1.00  0.00     0.201 A 
ATOM     19  C   UNL     1     -14.186  -6.782  43.888  1.00  0.00     0.098 A 
ATOM     20  C   UNL     1     -13.116  -4.296  44.631  1.00  0.00     0.176 A 
ATOM     21  C   UNL     1     -13.784  -5.886  42.900  1.00  0.00     0.146 A 
ATOM     22  C   UNL     1     -13.265  -4.615  43.249  1.00  0.00     0.111 A 
ATOM     23  O   UNL     1     -13.902  -6.252  41.628  1.00  0.00    -0.456 OA
ATOM     24  C   UNL     1     -12.968  -3.734  42.181  1.00  0.00     0.197 A 
ATOM     25  C   UNL     1     -13.562  -5.470  40.610  1.00  0.00     0.138 A 
ATOM     26  C   UNL     1     -13.097  -4.175  40.863  1.00  0.00     0.100 A 
ATOM     27  O   UNL     1     -12.624  -2.541  42.376  1.00  0.00    -0.289 OA
BRANCH  18  28
ATOM     28  O   UNL     1     -13.515  -4.838  46.961  1.00  0.00    -0.502 OA
ATOM     29  H   UNL     1     -14.056  -5.302  47.678  1.00  0.00     0.293 HD
ENDBRANCH  18  28
BRANCH  20  30
ATOM     30  O   UNL     1     -12.507  -3.116  45.080  1.00  0.00    -0.504 OA
ATOM     31  H   UNL     1     -11.921  -2.519  44.515  1.00  0.00     0.293 HD
ENDBRANCH  20  30
BRANCH  25  32
ATOM     32  C   UNL     1     -13.703  -5.991  39.230  1.00  0.00     0.017 A 
ATOM     33  C   UNL     1     -12.804  -6.964  38.759  1.00  0.00     0.012 A 
ATOM     34  C   UNL     1     -14.695  -5.502  38.357  1.00  0.00     0.012 A 
ATOM     35  C   UNL     1     -12.905  -7.449  37.452  1.00  0.00     0.001 A 
ATOM     36  C   UNL     1     -14.791  -5.989  37.052  1.00  0.00     0.001 A 
ATOM     37  C   UNL     1     -13.899  -6.963  36.599  1.00  0.00     0.000 A 
ENDBRANCH  25  32
ENDBRANCH   1  17
TORSDOF 9
ENDMDL
MODEL 7
REMARK VINA RESULT:    -7.399      9.373     12.626
REMARK INTER + INTRA:         -11.598
REMARK INTER:                 -10.440
REMARK INTRA:                  -1.158
REMARK UNBOUND:                -1.387
REMARK SMILES O=C([O-])[C@H]1O[C@@H](Oc2cc3oc(-c4ccccc4)cc(=O)c3c(O)c2O)[C@H](O)[C@@H](O)[C@@H]1O
REMARK SMILES IDX 7 1 6 2 4 3 31 4 5 5 29 6 27 7 2 8 1 9 3 10 32 11 30 13
REMARK SMILES IDX 28 15 8 17 25 18 9 19 23 20 10 21 22 22 11 23 20 24 12 25
REMARK SMILES IDX 19 26 21 27 26 28 24 30 13 32 14 33 18 34 15 35 17 36 16 37
REMARK H PARENT 32 12 30 14 28 16 26 29 24 31
REMARK Flexibility Score: inf
ROOT
ATOM      1  O   UNL     1     -12.111  -6.106  46.801  1.00  0.00    -0.458 OA
ENDROOT
BRANCH   1   2
ATOM      2  C   UNL     1     -11.783  -5.153  47.818  1.00  0.00     0.339 C 
ATOM      3  C   UNL     1      -9.632  -4.653  46.919  1.00  0.00     0.199 C 
ATOM      4  C   UNL     1      -8.899  -5.391  48.073  1.00  0.00     0.180 C 
ATOM      5  O   UNL     1     -10.907  -4.154  47.309  1.00  0.00    -0.328 OA
ATOM      6  C   UNL     1      -9.799  -6.426  48.771  1.00  0.00     0.181 C 
ATOM      7  C   UNL     1     -11.201  -5.852  49.059  1.00  0.00     0.214 C 
BRANCH   3   8
ATOM      8  C   UNL     1      -9.696  -5.419  45.616  1.00  0.00     0.073 C 
ATOM      9  O   UNL     1     -10.218  -4.882  44.603  1.00  0.00    -0.547 OA
ATOM     10  O   UNL     1      -9.102  -6.670  45.486  1.00  0.00    -0.547 OA
ENDBRANCH   3   8
BRANCH   4  11
ATOM     11  O   UNL     1      -8.387  -4.473  49.010  1.00  0.00    -0.387 OA
ATOM     12  H   UNL     1      -9.005  -4.441  49.787  1.00  0.00     0.211 HD
ENDBRANCH   4  11
BRANCH   6  13
ATOM     13  O   UNL     1      -9.905  -7.572  47.965  1.00  0.00    -0.387 OA
ATOM     14  H   UNL     1      -9.722  -8.352  48.552  1.00  0.00     0.211 HD
ENDBRANCH   6  13
BRANCH   7  15
ATOM     15  O   UNL     1     -11.152  -4.939  50.125  1.00  0.00    -0.384 OA
ATOM     16  H   UNL     1     -10.258  -4.509  50.091  1.00  0.00     0.211 HD
ENDBRANCH   7  15
ENDBRANCH   1   2
BRANCH   1  17
ATOM     17  C   UNL     1     -13.380  -6.351  46.247  1.00  0.00     0.172 A 
ATOM     18  C   UNL     1     -14.512  -6.735  47.001  1.00  0.00     0.201 A 
ATOM     19  C   UNL     1     -13.499  -6.203  44.867  1.00  0.00     0.098 A 
ATOM     20  C   UNL     1     -15.762  -6.913  46.368  1.00  0.00     0.176 A 
ATOM     21  C   UNL     1     -14.713  -6.414  44.218  1.00  0.00     0.146 A 
ATOM     22  C   UNL     1     -15.863  -6.798  44.950  1.00  0.00     0.111 A 
ATOM     23  O   UNL     1     -14.764  -6.249  42.901  1.00  0.00    -0.456 OA
ATOM     24  C   UNL     1     -17.031  -7.080  44.199  1.00  0.00     0.197 A 
ATOM     25  C   UNL     1     -15.866  -6.437  42.184  1.00  0.00     0.138 A 
ATOM     26  C   UNL     1     -17.032  -6.875  42.819  1.00  0.00     0.100 A 
ATOM     27  O   UNL     1     -18.069  -7.549  44.730  1.00  0.00    -0.289 OA
BRANCH  18  28
ATOM     28  O   UNL     1     -14.400  -6.952  48.374  1.00  0.00    -0.502 OA
ATOM     29  H   UNL     1     -14.633  -6.251  49.064  1.00  0.00     0.293 HD
ENDBRANCH  18  28
BRANCH  20  30
ATOM     30  O   UNL     1     -16.865  -7.173  47.193  1.00  0.00    -0.504 OA
ATOM     31  H   UNL     1     -16.859  -7.110  48.200  1.00  0.00     0.293 HD
ENDBRANCH  20  30
BRANCH  25  32
ATOM     32  C   UNL     1     -15.819  -6.191  40.723  1.00  0.00     0.017 A 
ATOM     33  C   UNL     1     -16.971  -6.404  39.946  1.00  0.00     0.012 A 
ATOM     34  C   UNL     1     -14.631  -5.787  40.083  1.00  0.00     0.012 A 
ATOM     35  C   UNL     1     -16.940  -6.202  38.563  1.00  0.00     0.001 A 
ATOM     36  C   UNL     1     -14.605  -5.587  38.701  1.00  0.00     0.001 A 
ATOM     37  C   UNL     1     -15.758  -5.792  37.941  1.00  0.00     0.000 A 
ENDBRANCH  25  32
ENDBRANCH   1  17
TORSDOF 9
ENDMDL
MODEL 8
REMARK VINA RESULT:    -7.292      7.334     12.964
REMARK INTER + INTRA:         -11.450
REMARK INTER:                  -9.993
REMARK INTRA:                  -1.457
REMARK UNBOUND:                -1.387
REMARK SMILES O=C([O-])[C@H]1O[C@@H](Oc2cc3oc(-c4ccccc4)cc(=O)c3c(O)c2O)[C@H](O)[C@@H](O)[C@@H]1O
REMARK SMILES IDX 7 1 6 2 4 3 31 4 5 5 29 6 27 7 2 8 1 9 3 10 32 11 30 13
REMARK SMILES IDX 28 15 8 17 25 18 9 19 23 20 10 21 22 22 11 23 20 24 12 25
REMARK SMILES IDX 19 26 21 27 26 28 24 30 13 32 14 33 18 34 15 35 17 36 16 37
REMARK H PARENT 32 12 30 14 28 16 26 29 24 31
REMARK Flexibility Score: inf
ROOT
ATOM      1  O   UNL     1     -13.575  -8.059  46.520  1.00  0.00    -0.458 OA
ENDROOT
BRANCH   1   2
ATOM      2  C   UNL     1     -14.166  -9.271  47.001  1.00  0.00     0.339 C 
ATOM      3  C   UNL     1     -16.026  -8.180  48.021  1.00  0.00     0.199 C 
ATOM      4  C   UNL     1     -15.493  -8.457  49.454  1.00  0.00     0.180 C 
ATOM      5  O   UNL     1     -15.582  -9.146  47.073  1.00  0.00    -0.328 OA
ATOM      6  C   UNL     1     -13.976  -8.716  49.475  1.00  0.00     0.181 C 
ATOM      7  C   UNL     1     -13.553  -9.683  48.351  1.00  0.00     0.214 C 
BRANCH   3   8
ATOM      8  C   UNL     1     -15.814  -6.764  47.529  1.00  0.00     0.073 C 
ATOM      9  O   UNL     1     -16.267  -6.423  46.403  1.00  0.00    -0.547 OA
ATOM     10  O   UNL     1     -15.216  -5.803  48.336  1.00  0.00    -0.547 OA
ENDBRANCH   3   8
BRANCH   4  11
ATOM     11  O   UNL     1     -16.185  -9.530  50.047  1.00  0.00    -0.387 OA
ATOM     12  H   UNL     1     -15.549 -10.284  50.167  1.00  0.00     0.211 HD
ENDBRANCH   4  11
BRANCH   6  13
ATOM     13  O   UNL     1     -13.292  -7.496  49.344  1.00  0.00    -0.387 OA
ATOM     14  H   UNL     1     -13.982  -6.782  49.321  1.00  0.00     0.211 HD
ENDBRANCH   6  13
BRANCH   7  15
ATOM     15  O   UNL     1     -13.944 -10.997  48.655  1.00  0.00    -0.384 OA
ATOM     16  H   UNL     1     -13.774 -11.128  49.624  1.00  0.00     0.211 HD
ENDBRANCH   7  15
ENDBRANCH   1   2
BRANCH   1  17
ATOM     17  C   UNL     1     -12.426  -7.936  45.719  1.00  0.00     0.172 A 
ATOM     18  C   UNL     1     -11.128  -7.701  46.225  1.00  0.00     0.201 A 
ATOM     19  C   UNL     1     -12.609  -8.054  44.342  1.00  0.00     0.098 A 
ATOM     20  C   UNL     1     -10.022  -7.642  45.350  1.00  0.00     0.176 A 
ATOM     21  C   UNL     1     -11.537  -7.957  43.459  1.00  0.00     0.146 A 
ATOM     22  C   UNL     1     -10.226  -7.724  43.941  1.00  0.00     0.111 A 
ATOM     23  O   UNL     1     -11.775  -8.087  42.158  1.00  0.00    -0.456 OA
ATOM     24  C   UNL     1      -9.211  -7.548  42.968  1.00  0.00     0.197 A 
ATOM     25  C   UNL     1     -10.828  -7.998  41.231  1.00  0.00     0.138 A 
ATOM     26  C   UNL     1      -9.515  -7.709  41.615  1.00  0.00     0.100 A 
ATOM     27  O   UNL     1      -8.041  -7.211  43.277  1.00  0.00    -0.289 OA
BRANCH  18  28
ATOM     28  O   UNL     1     -10.933  -7.515  47.594  1.00  0.00    -0.502 OA
ATOM     29  H   UNL     1     -11.507  -6.899  48.154  1.00  0.00     0.293 HD
ENDBRANCH  18  28
BRANCH  20  30
ATOM     30  O   UNL     1      -8.752  -7.529  45.932  1.00  0.00    -0.504 OA
ATOM     31  H   UNL     1      -7.889  -7.816  45.493  1.00  0.00     0.293 HD
ENDBRANCH  20  30
BRANCH  25  32
ATOM     32  C   UNL     1     -11.199  -8.193  39.809  1.00  0.00     0.017 A 
ATOM     33  C   UNL     1     -12.167  -7.359  39.223  1.00  0.00     0.012 A 
ATOM     34  C   UNL     1     -10.633  -9.227  39.037  1.00  0.00     0.012 A 
ATOM     35  C   UNL     1     -12.548  -7.543  37.891  1.00  0.00     0.001 A 
ATOM     36  C   UNL     1     -11.019  -9.407  37.706  1.00  0.00     0.001 A 
ATOM     37  C   UNL     1     -11.973  -8.566  37.132  1.00  0.00     0.000 A 
ENDBRANCH  25  32
ENDBRANCH   1  17
TORSDOF 9
ENDMDL
MODEL 9
REMARK VINA RESULT:    -7.246      7.093     12.405
REMARK INTER + INTRA:         -11.387
REMARK INTER:                  -9.892
REMARK INTRA:                  -1.494
REMARK UNBOUND:                -1.387
REMARK SMILES O=C([O-])[C@H]1O[C@@H](Oc2cc3oc(-c4ccccc4)cc(=O)c3c(O)c2O)[C@H](O)[C@@H](O)[C@@H]1O
REMARK SMILES IDX 7 1 6 2 4 3 31 4 5 5 29 6 27 7 2 8 1 9 3 10 32 11 30 13
REMARK SMILES IDX 28 15 8 17 25 18 9 19 23 20 10 21 22 22 11 23 20 24 12 25
REMARK SMILES IDX 19 26 21 27 26 28 24 30 13 32 14 33 18 34 15 35 17 36 16 37
REMARK H PARENT 32 12 30 14 28 16 26 29 24 31
REMARK Flexibility Score: inf
ROOT
ATOM      1  O   UNL     1     -12.730  -6.244  46.422  1.00  0.00    -0.458 OA
ENDROOT
BRANCH   1   2
ATOM      2  C   UNL     1     -13.373  -4.967  46.498  1.00  0.00     0.339 C 
ATOM      3  C   UNL     1     -12.858  -4.635  48.802  1.00  0.00     0.199 C 
ATOM      4  C   UNL     1     -14.335  -4.849  49.236  1.00  0.00     0.180 C 
ATOM      5  O   UNL     1     -12.743  -4.143  47.471  1.00  0.00    -0.328 OA
ATOM      6  C   UNL     1     -15.142  -5.643  48.194  1.00  0.00     0.181 C 
ATOM      7  C   UNL     1     -14.881  -5.127  46.764  1.00  0.00     0.214 C 
BRANCH   3   8
ATOM      8  C   UNL     1     -11.947  -5.818  49.051  1.00  0.00     0.073 C 
ATOM      9  O   UNL     1     -10.722  -5.728  48.771  1.00  0.00    -0.547 OA
ATOM     10  O   UNL     1     -12.415  -6.969  49.674  1.00  0.00    -0.547 OA
ENDBRANCH   3   8
BRANCH   4  11
ATOM     11  O   UNL     1     -14.960  -3.618  49.510  1.00  0.00    -0.387 OA
ATOM     12  H   UNL     1     -15.818  -3.585  49.011  1.00  0.00     0.211 HD
ENDBRANCH   4  11
BRANCH   6  13
ATOM     13  O   UNL     1     -14.810  -7.005  48.283  1.00  0.00    -0.387 OA
ATOM     14  H   UNL     1     -14.243  -7.212  47.494  1.00  0.00     0.211 HD
ENDBRANCH   6  13
BRANCH   7  15
ATOM     15  O   UNL     1     -15.520  -3.895  46.558  1.00  0.00    -0.384 OA
ATOM     16  H   UNL     1     -15.708  -3.830  45.585  1.00  0.00     0.211 HD
ENDBRANCH   7  15
ENDBRANCH   1   2
BRANCH   1  17
ATOM     17  C   UNL     1     -12.047  -6.785  45.317  1.00  0.00     0.172 A 
ATOM     18  C   UNL     1     -10.852  -7.533  45.412  1.00  0.00     0.201 A 
ATOM     19  C   UNL     1     -12.605  -6.549  44.062  1.00  0.00     0.098 A 
ATOM     20  C   UNL     1     -10.261  -8.081  44.253  1.00  0.00     0.176 A 
ATOM     21  C   UNL     1     -12.015  -7.047  42.903  1.00  0.00     0.146 A 
ATOM     22  C   UNL     1     -10.818  -7.800  42.971  1.00  0.00     0.111 A 
ATOM     23  O   UNL     1     -12.600  -6.795  41.736  1.00  0.00    -0.456 OA
ATOM     24  C   UNL     1     -10.238  -8.188  41.737  1.00  0.00     0.197 A 
ATOM     25  C   UNL     1     -12.114  -7.210  40.572  1.00  0.00     0.138 A 
ATOM     26  C   UNL     1     -10.903  -7.909  40.543  1.00  0.00     0.100 A 
ATOM     27  O   UNL     1      -9.114  -8.748  41.675  1.00  0.00    -0.289 OA
BRANCH  18  28
ATOM     28  O   UNL     1     -10.242  -7.724  46.652  1.00  0.00    -0.502 OA
ATOM     29  H   UNL     1     -10.686  -7.482  47.528  1.00  0.00     0.293 HD
ENDBRANCH  18  28
BRANCH  20  30
ATOM     30  O   UNL     1      -9.147  -8.913  44.436  1.00  0.00    -0.504 OA
ATOM     31  H   UNL     1      -8.225  -8.730  44.069  1.00  0.00     0.293 HD
ENDBRANCH  20  30
BRANCH  25  32
ATOM     32  C   UNL     1     -12.866  -6.902  39.332  1.00  0.00     0.017 A 
ATOM     33  C   UNL     1     -13.963  -6.025  39.386  1.00  0.00     0.012 A 
ATOM     34  C   UNL     1     -12.533  -7.503  38.103  1.00  0.00     0.012 A 
ATOM     35  C   UNL     1     -14.700  -5.742  38.232  1.00  0.00     0.001 A 
ATOM     36  C   UNL     1     -13.273  -7.217  36.953  1.00  0.00     0.001 A 
ATOM     37  C   UNL     1     -14.355  -6.337  37.016  1.00  0.00     0.000 A 
ENDBRANCH  25  32
ENDBRANCH   1  17
TORSDOF 9
ENDMDL
