MODEL 1
REMARK VINA RESULT:    -3.553      0.000      0.000
REMARK INTER + INTRA:          -6.083
REMARK INTER:                  -5.423
REMARK INTRA:                  -0.660
REMARK UNBOUND:                -0.660
REMARK SMILES O=C([O-])CCCCCCCCC(=O)[O-]
REMARK SMILES IDX 7 1 6 2 5 3 4 4 2 5 1 6 3 7 8 8 9 9 10 10 11 11 12 12 13 13
REMARK SMILES IDX 14 14
REMARK H PARENT
REMARK Flexibility Score: inf
ROOT
ATOM      1  C   UNL     1     -19.170  21.770  46.169  1.00  0.00     0.000 C 
ENDROOT
BRANCH   1   2
ATOM      2  C   UNL     1     -20.556  22.369  45.877  1.00  0.00     0.000 C 
BRANCH   2   3
ATOM      3  C   UNL     1     -20.478  23.784  45.271  1.00  0.00     0.006 C 
BRANCH   3   4
ATOM      4  C   UNL     1     -21.678  24.685  45.605  1.00  0.00     0.053 C 
BRANCH   4   5
ATOM      5  C   UNL     1     -22.422  25.111  44.376  1.00  0.00     0.041 C 
ATOM      6  O   UNL     1     -21.947  26.004  43.626  1.00  0.00    -0.550 OA
ATOM      7  O   UNL     1     -23.622  24.496  44.041  1.00  0.00    -0.550 OA
ENDBRANCH   4   5
ENDBRANCH   3   4
ENDBRANCH   2   3
ENDBRANCH   1   2
BRANCH   1   8
ATOM      8  C   UNL     1     -18.958  20.411  45.483  1.00  0.00     0.000 C 
BRANCH   8   9
ATOM      9  C   UNL     1     -17.843  20.449  44.422  1.00  0.00     0.000 C 
BRANCH   9  10
ATOM     10  C   UNL     1     -17.447  21.883  44.036  1.00  0.00     0.006 C 
BRANCH  10  11
ATOM     11  C   UNL     1     -18.001  22.299  42.667  1.00  0.00     0.053 C 
BRANCH  11  12
ATOM     12  C   UNL     1     -17.876  23.779  42.482  1.00  0.00     0.041 C 
ATOM     13  O   UNL     1     -16.757  24.341  42.613  1.00  0.00    -0.550 OA
ATOM     14  O   UNL     1     -18.985  24.530  42.118  1.00  0.00    -0.550 OA
ENDBRANCH  11  12
ENDBRANCH  10  11
ENDBRANCH   9  10
ENDBRANCH   8   9
ENDBRANCH   1   8
TORSDOF 9
ENDMDL
MODEL 2
REMARK VINA RESULT:    -3.502      1.180      5.081
REMARK INTER + INTRA:          -6.005
REMARK INTER:                  -5.569
REMARK INTRA:                  -0.437
REMARK UNBOUND:                -0.660
REMARK SMILES O=C([O-])CCCCCCCCC(=O)[O-]
REMARK SMILES IDX 7 1 6 2 5 3 4 4 2 5 1 6 3 7 8 8 9 9 10 10 11 11 12 12 13 13
REMARK SMILES IDX 14 14
REMARK H PARENT
REMARK Flexibility Score: inf
ROOT
ATOM      1  C   UNL     1     -19.071  21.741  45.149  1.00  0.00     0.000 C 
ENDROOT
BRANCH   1   2
ATOM      2  C   UNL     1     -17.925  20.937  44.512  1.00  0.00     0.000 C 
BRANCH   2   3
ATOM      3  C   UNL     1     -17.185  21.723  43.413  1.00  0.00     0.006 C 
BRANCH   3   4
ATOM      4  C   UNL     1     -18.107  22.427  42.404  1.00  0.00     0.053 C 
BRANCH   4   5
ATOM      5  C   UNL     1     -17.871  23.906  42.362  1.00  0.00     0.041 C 
ATOM      6  O   UNL     1     -18.821  24.692  42.106  1.00  0.00    -0.550 OA
ATOM      7  O   UNL     1     -16.610  24.417  42.638  1.00  0.00    -0.550 OA
ENDBRANCH   4   5
ENDBRANCH   3   4
ENDBRANCH   2   3
ENDBRANCH   1   2
BRANCH   1   8
ATOM      8  C   UNL     1     -19.844  20.933  46.203  1.00  0.00     0.000 C 
BRANCH   8   9
ATOM      9  C   UNL     1     -21.185  21.585  46.586  1.00  0.00     0.000 C 
BRANCH   9  10
ATOM     10  C   UNL     1     -21.402  22.937  45.889  1.00  0.00     0.006 C 
BRANCH  10  11
ATOM     11  C   UNL     1     -22.753  23.572  46.244  1.00  0.00     0.053 C 
BRANCH  11  12
ATOM     12  C   UNL     1     -23.688  23.494  45.078  1.00  0.00     0.041 C 
ATOM     13  O   UNL     1     -24.568  22.594  45.032  1.00  0.00    -0.550 OA
ATOM     14  O   UNL     1     -23.620  24.443  44.067  1.00  0.00    -0.550 OA
ENDBRANCH  11  12
ENDBRANCH  10  11
ENDBRANCH   9  10
ENDBRANCH   8   9
ENDBRANCH   1   8
TORSDOF 9
ENDMDL
MODEL 3
REMARK VINA RESULT:    -3.495      0.717      1.429
REMARK INTER + INTRA:          -5.994
REMARK INTER:                  -5.172
REMARK INTRA:                  -0.822
REMARK UNBOUND:                -0.660
REMARK SMILES O=C([O-])CCCCCCCCC(=O)[O-]
REMARK SMILES IDX 7 1 6 2 5 3 4 4 2 5 1 6 3 7 8 8 9 9 10 10 11 11 12 12 13 13
REMARK SMILES IDX 14 14
REMARK H PARENT
REMARK Flexibility Score: inf
ROOT
ATOM      1  C   UNL     1     -19.796  21.185  45.892  1.00  0.00     0.000 C 
ENDROOT
BRANCH   1   2
ATOM      2  C   UNL     1     -19.748  22.719  45.991  1.00  0.00     0.000 C 
BRANCH   2   3
ATOM      3  C   UNL     1     -20.953  23.398  45.312  1.00  0.00     0.006 C 
BRANCH   3   4
ATOM      4  C   UNL     1     -20.730  24.875  44.950  1.00  0.00     0.053 C 
BRANCH   4   5
ATOM      5  C   UNL     1     -21.809  25.405  44.055  1.00  0.00     0.041 C 
ATOM      6  O   UNL     1     -22.959  24.893  44.078  1.00  0.00    -0.550 OA
ATOM      7  O   UNL     1     -21.552  26.485  43.221  1.00  0.00    -0.550 OA
ENDBRANCH   4   5
ENDBRANCH   3   4
ENDBRANCH   2   3
ENDBRANCH   1   2
BRANCH   1   8
ATOM      8  C   UNL     1     -18.596  20.605  45.126  1.00  0.00     0.000 C 
BRANCH   8   9
ATOM      9  C   UNL     1     -17.458  21.626  44.943  1.00  0.00     0.000 C 
BRANCH   9  10
ATOM     10  C   UNL     1     -17.030  21.774  43.475  1.00  0.00     0.006 C 
BRANCH  10  11
ATOM     11  C   UNL     1     -18.116  22.424  42.608  1.00  0.00     0.053 C 
BRANCH  11  12
ATOM     12  C   UNL     1     -17.790  23.863  42.356  1.00  0.00     0.041 C 
ATOM     13  O   UNL     1     -18.701  24.673  42.041  1.00  0.00    -0.550 OA
ATOM     14  O   UNL     1     -16.488  24.319  42.517  1.00  0.00    -0.550 OA
ENDBRANCH  11  12
ENDBRANCH  10  11
ENDBRANCH   9  10
ENDBRANCH   8   9
ENDBRANCH   1   8
TORSDOF 9
ENDMDL
MODEL 4
REMARK VINA RESULT:    -3.449      1.657      5.796
REMARK INTER + INTRA:          -5.924
REMARK INTER:                  -5.609
REMARK INTRA:                  -0.315
REMARK UNBOUND:                -0.660
REMARK SMILES O=C([O-])CCCCCCCCC(=O)[O-]
REMARK SMILES IDX 7 1 6 2 5 3 4 4 2 5 1 6 3 7 8 8 9 9 10 10 11 11 12 12 13 13
REMARK SMILES IDX 14 14
REMARK H PARENT
REMARK Flexibility Score: inf
ROOT
ATOM      1  C   UNL     1     -19.492  21.850  45.478  1.00  0.00     0.000 C 
ENDROOT
BRANCH   1   2
ATOM      2  C   UNL     1     -18.837  20.463  45.363  1.00  0.00     0.000 C 
BRANCH   2   3
ATOM      3  C   UNL     1     -17.622  20.454  44.416  1.00  0.00     0.006 C 
BRANCH   3   4
ATOM      4  C   UNL     1     -17.624  21.579  43.368  1.00  0.00     0.053 C 
BRANCH   4   5
ATOM      5  C   UNL     1     -16.286  22.242  43.250  1.00  0.00     0.041 C 
ATOM      6  O   UNL     1     -15.232  21.580  43.442  1.00  0.00    -0.550 OA
ATOM      7  O   UNL     1     -16.202  23.582  42.894  1.00  0.00    -0.550 OA
ENDBRANCH   4   5
ENDBRANCH   3   4
ENDBRANCH   2   3
ENDBRANCH   1   2
BRANCH   1   8
ATOM      8  C   UNL     1     -20.740  21.841  46.375  1.00  0.00     0.000 C 
BRANCH   8   9
ATOM      9  C   UNL     1     -21.687  23.020  46.087  1.00  0.00     0.000 C 
BRANCH   9  10
ATOM     10  C   UNL     1     -23.167  22.640  46.250  1.00  0.00     0.006 C 
BRANCH  10  11
ATOM     11  C   UNL     1     -24.023  23.082  45.055  1.00  0.00     0.053 C 
BRANCH  11  12
ATOM     12  C   UNL     1     -23.894  24.557  44.840  1.00  0.00     0.041 C 
ATOM     13  O   UNL     1     -24.444  25.364  45.635  1.00  0.00    -0.550 OA
ATOM     14  O   UNL     1     -23.128  25.042  43.788  1.00  0.00    -0.550 OA
ENDBRANCH  11  12
ENDBRANCH  10  11
ENDBRANCH   9  10
ENDBRANCH   8   9
ENDBRANCH   1   8
TORSDOF 9
ENDMDL
MODEL 5
REMARK VINA RESULT:    -3.427      1.951      4.748
REMARK INTER + INTRA:          -5.891
REMARK INTER:                  -5.291
REMARK INTRA:                  -0.600
REMARK UNBOUND:                -0.660
REMARK SMILES O=C([O-])CCCCCCCCC(=O)[O-]
REMARK SMILES IDX 7 1 6 2 5 3 4 4 2 5 1 6 3 7 8 8 9 9 10 10 11 11 12 12 13 13
REMARK SMILES IDX 14 14
REMARK H PARENT
REMARK Flexibility Score: inf
ROOT
ATOM      1  C   UNL     1     -19.218  22.302  45.326  1.00  0.00     0.000 C 
ENDROOT
BRANCH   1   2
ATOM      2  C   UNL     1     -18.835  20.813  45.288  1.00  0.00     0.000 C 
BRANCH   2   3
ATOM      3  C   UNL     1     -17.702  20.515  44.287  1.00  0.00     0.006 C 
BRANCH   3   4
ATOM      4  C   UNL     1     -17.493  21.603  43.221  1.00  0.00     0.053 C 
BRANCH   4   5
ATOM      5  C   UNL     1     -16.149  22.254  43.337  1.00  0.00     0.041 C 
ATOM      6  O   UNL     1     -15.105  21.551  43.371  1.00  0.00    -0.550 OA
ATOM      7  O   UNL     1     -16.047  23.639  43.373  1.00  0.00    -0.550 OA
ENDBRANCH   4   5
ENDBRANCH   3   4
ENDBRANCH   2   3
ENDBRANCH   1   2
BRANCH   1   8
ATOM      8  C   UNL     1     -20.658  22.529  45.813  1.00  0.00     0.000 C 
BRANCH   8   9
ATOM      9  C   UNL     1     -21.213  23.906  45.406  1.00  0.00     0.000 C 
BRANCH   9  10
ATOM     10  C   UNL     1     -20.125  24.840  44.855  1.00  0.00     0.006 C 
BRANCH  10  11
ATOM     11  C   UNL     1     -20.558  25.555  43.569  1.00  0.00     0.053 C 
BRANCH  11  12
ATOM     12  C   UNL     1     -19.408  25.659  42.617  1.00  0.00     0.041 C 
ATOM     13  O   UNL     1     -18.939  24.624  42.074  1.00  0.00    -0.550 OA
ATOM     14  O   UNL     1     -18.884  26.903  42.293  1.00  0.00    -0.550 OA
ENDBRANCH  11  12
ENDBRANCH  10  11
ENDBRANCH   9  10
ENDBRANCH   8   9
ENDBRANCH   1   8
TORSDOF 9
ENDMDL
MODEL 6
REMARK VINA RESULT:    -3.423      1.674      2.448
REMARK INTER + INTRA:          -5.885
REMARK INTER:                  -5.336
REMARK INTRA:                  -0.549
REMARK UNBOUND:                -0.660
REMARK SMILES O=C([O-])CCCCCCCCC(=O)[O-]
REMARK SMILES IDX 7 1 6 2 5 3 4 4 2 5 1 6 3 7 8 8 9 9 10 10 11 11 12 12 13 13
REMARK SMILES IDX 14 14
REMARK H PARENT
REMARK Flexibility Score: inf
ROOT
ATOM      1  C   UNL     1     -18.909  21.383  45.038  1.00  0.00     0.000 C 
ENDROOT
BRANCH   1   2
ATOM      2  C   UNL     1     -19.549  20.451  46.082  1.00  0.00     0.000 C 
BRANCH   2   3
ATOM      3  C   UNL     1     -20.843  21.031  46.683  1.00  0.00     0.006 C 
BRANCH   3   4
ATOM      4  C   UNL     1     -21.058  22.528  46.408  1.00  0.00     0.053 C 
BRANCH   4   5
ATOM      5  C   UNL     1     -22.485  22.842  46.080  1.00  0.00     0.041 C 
ATOM      6  O   UNL     1     -23.414  22.134  46.551  1.00  0.00    -0.550 OA
ATOM      7  O   UNL     1     -22.791  23.937  45.282  1.00  0.00    -0.550 OA
ENDBRANCH   4   5
ENDBRANCH   3   4
ENDBRANCH   2   3
ENDBRANCH   1   2
BRANCH   1   8
ATOM      8  C   UNL     1     -17.687  20.750  44.353  1.00  0.00     0.000 C 
BRANCH   8   9
ATOM      9  C   UNL     1     -17.051  21.676  43.299  1.00  0.00     0.000 C 
BRANCH   9  10
ATOM     10  C   UNL     1     -18.100  22.451  42.487  1.00  0.00     0.006 C 
BRANCH  10  11
ATOM     11  C   UNL     1     -17.718  23.923  42.284  1.00  0.00     0.053 C 
BRANCH  11  12
ATOM     12  C   UNL     1     -18.883  24.811  42.587  1.00  0.00     0.041 C 
ATOM     13  O   UNL     1     -19.174  25.760  41.813  1.00  0.00    -0.550 OA
ATOM     14  O   UNL     1     -19.678  24.561  43.698  1.00  0.00    -0.550 OA
ENDBRANCH  11  12
ENDBRANCH  10  11
ENDBRANCH   9  10
ENDBRANCH   8   9
ENDBRANCH   1   8
TORSDOF 9
ENDMDL
MODEL 7
REMARK VINA RESULT:    -3.355      2.361      3.398
REMARK INTER + INTRA:          -5.781
REMARK INTER:                  -5.001
REMARK INTRA:                  -0.780
REMARK UNBOUND:                -0.660
REMARK SMILES O=C([O-])CCCCCCCCC(=O)[O-]
REMARK SMILES IDX 7 1 6 2 5 3 4 4 2 5 1 6 3 7 8 8 9 9 10 10 11 11 12 12 13 13
REMARK SMILES IDX 14 14
REMARK H PARENT
REMARK Flexibility Score: inf
ROOT
ATOM      1  C   UNL     1     -18.818  20.555  45.344  1.00  0.00     0.000 C 
ENDROOT
BRANCH   1   2
ATOM      2  C   UNL     1     -19.478  21.938  45.473  1.00  0.00     0.000 C 
BRANCH   2   3
ATOM      3  C   UNL     1     -18.607  23.071  44.900  1.00  0.00     0.006 C 
BRANCH   3   4
ATOM      4  C   UNL     1     -19.353  24.036  43.964  1.00  0.00     0.053 C 
BRANCH   4   5
ATOM      5  C   UNL     1     -18.653  24.201  42.650  1.00  0.00     0.041 C 
ATOM      6  O   UNL     1     -18.039  23.231  42.133  1.00  0.00    -0.550 OA
ATOM      7  O   UNL     1     -18.708  25.417  41.980  1.00  0.00    -0.550 OA
ENDBRANCH   4   5
ENDBRANCH   3   4
ENDBRANCH   2   3
ENDBRANCH   1   2
BRANCH   1   8
ATOM      8  C   UNL     1     -17.586  20.573  44.424  1.00  0.00     0.000 C 
BRANCH   8   9
ATOM      9  C   UNL     1     -16.268  20.364  45.192  1.00  0.00     0.000 C 
BRANCH   9  10
ATOM     10  C   UNL     1     -15.187  21.381  44.794  1.00  0.00     0.006 C 
BRANCH  10  11
ATOM     11  C   UNL     1     -15.189  21.685  43.290  1.00  0.00     0.053 C 
BRANCH  11  12
ATOM     12  C   UNL     1     -14.487  22.978  43.019  1.00  0.00     0.041 C 
ATOM     13  O   UNL     1     -15.054  24.073  43.274  1.00  0.00    -0.550 OA
ATOM     14  O   UNL     1     -13.187  22.973  42.529  1.00  0.00    -0.550 OA
ENDBRANCH  11  12
ENDBRANCH  10  11
ENDBRANCH   9  10
ENDBRANCH   8   9
ENDBRANCH   1   8
TORSDOF 9
ENDMDL
MODEL 8
REMARK VINA RESULT:    -3.353      2.961      4.367
REMARK INTER + INTRA:          -5.777
REMARK INTER:                  -4.997
REMARK INTRA:                  -0.780
REMARK UNBOUND:                -0.660
REMARK SMILES O=C([O-])CCCCCCCCC(=O)[O-]
REMARK SMILES IDX 7 1 6 2 5 3 4 4 2 5 1 6 3 7 8 8 9 9 10 10 11 11 12 12 13 13
REMARK SMILES IDX 14 14
REMARK H PARENT
REMARK Flexibility Score: inf
ROOT
ATOM      1  C   UNL     1     -16.522  22.396  44.499  1.00  0.00     0.000 C 
ENDROOT
BRANCH   1   2
ATOM      2  C   UNL     1     -17.448  21.550  43.609  1.00  0.00     0.000 C 
BRANCH   2   3
ATOM      3  C   UNL     1     -18.039  22.351  42.434  1.00  0.00     0.006 C 
BRANCH   3   4
ATOM      4  C   UNL     1     -17.669  23.843  42.432  1.00  0.00     0.053 C 
BRANCH   4   5
ATOM      5  C   UNL     1     -18.866  24.720  42.640  1.00  0.00     0.041 C 
ATOM      6  O   UNL     1     -19.199  25.557  41.760  1.00  0.00    -0.550 OA
ATOM      7  O   UNL     1     -19.634  24.588  43.790  1.00  0.00    -0.550 OA
ENDBRANCH   4   5
ENDBRANCH   3   4
ENDBRANCH   2   3
ENDBRANCH   1   2
BRANCH   1   8
ATOM      8  C   UNL     1     -15.069  21.893  44.487  1.00  0.00     0.000 C 
BRANCH   8   9
ATOM      9  C   UNL     1     -14.470  21.843  43.070  1.00  0.00     0.000 C 
BRANCH   9  10
ATOM     10  C   UNL     1     -13.354  22.879  42.865  1.00  0.00     0.006 C 
BRANCH  10  11
ATOM     11  C   UNL     1     -13.896  24.262  42.482  1.00  0.00     0.053 C 
BRANCH  11  12
ATOM     12  C   UNL     1     -13.245  24.748  41.226  1.00  0.00     0.041 C 
ATOM     13  O   UNL     1     -12.603  25.831  41.223  1.00  0.00    -0.550 OA
ATOM     14  O   UNL     1     -13.306  23.981  40.070  1.00  0.00    -0.550 OA
ENDBRANCH  11  12
ENDBRANCH  10  11
ENDBRANCH   9  10
ENDBRANCH   8   9
ENDBRANCH   1   8
TORSDOF 9
ENDMDL
MODEL 9
REMARK VINA RESULT:    -3.329      2.089      3.025
REMARK INTER + INTRA:          -5.741
REMARK INTER:                  -4.928
REMARK INTRA:                  -0.813
REMARK UNBOUND:                -0.660
REMARK SMILES O=C([O-])CCCCCCCCC(=O)[O-]
REMARK SMILES IDX 7 1 6 2 5 3 4 4 2 5 1 6 3 7 8 8 9 9 10 10 11 11 12 12 13 13
REMARK SMILES IDX 14 14
REMARK H PARENT
REMARK Flexibility Score: inf
ROOT
ATOM      1  C   UNL     1     -19.002  23.553  45.860  1.00  0.00     0.000 C 
ENDROOT
BRANCH   1   2
ATOM      2  C   UNL     1     -18.783  24.749  44.918  1.00  0.00     0.000 C 
BRANCH   2   3
ATOM      3  C   UNL     1     -19.553  24.610  43.591  1.00  0.00     0.006 C 
BRANCH   3   4
ATOM      4  C   UNL     1     -18.867  25.275  42.386  1.00  0.00     0.053 C 
BRANCH   4   5
ATOM      5  C   UNL     1     -19.364  26.669  42.153  1.00  0.00     0.041 C 
ATOM      6  O   UNL     1     -18.617  27.526  41.613  1.00  0.00    -0.550 OA
ATOM      7  O   UNL     1     -20.664  27.011  42.502  1.00  0.00    -0.550 OA
ENDBRANCH   4   5
ENDBRANCH   3   4
ENDBRANCH   2   3
ENDBRANCH   1   2
BRANCH   1   8
ATOM      8  C   UNL     1     -19.443  22.285  45.111  1.00  0.00     0.000 C 
BRANCH   8   9
ATOM      9  C   UNL     1     -18.665  21.032  45.554  1.00  0.00     0.000 C 
BRANCH   9  10
ATOM     10  C   UNL     1     -17.728  20.504  44.457  1.00  0.00     0.006 C 
BRANCH  10  11
ATOM     11  C   UNL     1     -17.532  21.508  43.315  1.00  0.00     0.053 C 
BRANCH  11  12
ATOM     12  C   UNL     1     -16.142  22.060  43.338  1.00  0.00     0.041 C 
ATOM     13  O   UNL     1     -15.177  21.334  43.695  1.00  0.00    -0.550 OA
ATOM     14  O   UNL     1     -15.904  23.363  42.921  1.00  0.00    -0.550 OA
ENDBRANCH  11  12
ENDBRANCH  10  11
ENDBRANCH   9  10
ENDBRANCH   8   9
ENDBRANCH   1   8
TORSDOF 9
ENDMDL
