MODEL 1
REMARK VINA RESULT:    -4.648      0.000      0.000
REMARK INTER + INTRA:          -7.922
REMARK INTER:                  -7.093
REMARK INTRA:                  -0.829
REMARK UNBOUND:                -0.829
REMARK SMILES O=C([O-])CCCCCCCCC(=O)[O-]
REMARK SMILES IDX 7 1 6 2 5 3 4 4 2 5 1 6 3 7 8 8 9 9 10 10 11 11 12 12 13 13
REMARK SMILES IDX 14 14
REMARK H PARENT
REMARK Flexibility Score: inf
ROOT
ATOM      1  C   UNL     1      14.843  20.952  29.036  1.00  0.00     0.000 C 
ENDROOT
BRANCH   1   2
ATOM      2  C   UNL     1      14.025  21.124  27.745  1.00  0.00     0.000 C 
BRANCH   2   3
ATOM      3  C   UNL     1      14.779  21.766  26.564  1.00  0.00     0.006 C 
BRANCH   3   4
ATOM      4  C   UNL     1      16.258  22.077  26.856  1.00  0.00     0.053 C 
BRANCH   4   5
ATOM      5  C   UNL     1      16.536  23.550  26.922  1.00  0.00     0.041 C 
ATOM      6  O   UNL     1      17.374  24.002  27.745  1.00  0.00    -0.550 OA
ATOM      7  O   UNL     1      15.901  24.418  26.043  1.00  0.00    -0.550 OA
ENDBRANCH   4   5
ENDBRANCH   3   4
ENDBRANCH   2   3
ENDBRANCH   1   2
BRANCH   1   8
ATOM      8  C   UNL     1      14.322  21.818  30.196  1.00  0.00     0.000 C 
BRANCH   8   9
ATOM      9  C   UNL     1      14.802  23.275  30.107  1.00  0.00     0.000 C 
BRANCH   9  10
ATOM     10  C   UNL     1      13.662  24.259  29.803  1.00  0.00     0.006 C 
BRANCH  10  11
ATOM     11  C   UNL     1      12.661  24.312  30.962  1.00  0.00     0.053 C 
BRANCH  11  12
ATOM     12  C   UNL     1      11.282  23.997  30.477  1.00  0.00     0.041 C 
ATOM     13  O   UNL     1      11.110  23.150  29.561  1.00  0.00    -0.550 OA
ATOM     14  O   UNL     1      10.188  24.674  31.003  1.00  0.00    -0.550 OA
ENDBRANCH  11  12
ENDBRANCH  10  11
ENDBRANCH   9  10
ENDBRANCH   8   9
ENDBRANCH   1   8
TORSDOF 9
ENDMDL
MODEL 2
REMARK VINA RESULT:    -4.535      1.994      2.665
REMARK INTER + INTRA:          -7.750
REMARK INTER:                  -7.402
REMARK INTRA:                  -0.348
REMARK UNBOUND:                -0.829
REMARK SMILES O=C([O-])CCCCCCCCC(=O)[O-]
REMARK SMILES IDX 7 1 6 2 5 3 4 4 2 5 1 6 3 7 8 8 9 9 10 10 11 11 12 12 13 13
REMARK SMILES IDX 14 14
REMARK H PARENT
REMARK Flexibility Score: inf
ROOT
ATOM      1  C   UNL     1      14.549  24.019  29.270  1.00  0.00     0.000 C 
ENDROOT
BRANCH   1   2
ATOM      2  C   UNL     1      15.931  23.345  29.216  1.00  0.00     0.000 C 
BRANCH   2   3
ATOM      3  C   UNL     1      16.872  23.854  28.107  1.00  0.00     0.006 C 
BRANCH   3   4
ATOM      4  C   UNL     1      16.299  23.720  26.684  1.00  0.00     0.053 C 
BRANCH   4   5
ATOM      5  C   UNL     1      16.122  22.290  26.265  1.00  0.00     0.041 C 
ATOM      6  O   UNL     1      17.124  21.542  26.119  1.00  0.00    -0.550 OA
ATOM      7  O   UNL     1      14.847  21.772  26.080  1.00  0.00    -0.550 OA
ENDBRANCH   4   5
ENDBRANCH   3   4
ENDBRANCH   2   3
ENDBRANCH   1   2
BRANCH   1   8
ATOM      8  C   UNL     1      13.584  23.330  30.249  1.00  0.00     0.000 C 
BRANCH   8   9
ATOM      9  C   UNL     1      12.587  24.312  30.884  1.00  0.00     0.000 C 
BRANCH   9  10
ATOM     10  C   UNL     1      11.169  24.177  30.307  1.00  0.00     0.006 C 
BRANCH  10  11
ATOM     11  C   UNL     1      10.142  23.969  31.424  1.00  0.00     0.053 C 
BRANCH  11  12
ATOM     12  C   UNL     1       9.401  22.686  31.221  1.00  0.00     0.041 C 
ATOM     13  O   UNL     1       9.675  21.677  31.924  1.00  0.00    -0.550 OA
ATOM     14  O   UNL     1       8.441  22.587  30.222  1.00  0.00    -0.550 OA
ENDBRANCH  11  12
ENDBRANCH  10  11
ENDBRANCH   9  10
ENDBRANCH   8   9
ENDBRANCH   1   8
TORSDOF 9
ENDMDL
MODEL 3
REMARK VINA RESULT:    -4.472      2.015      5.837
REMARK INTER + INTRA:          -7.653
REMARK INTER:                  -7.125
REMARK INTRA:                  -0.528
REMARK UNBOUND:                -0.829
REMARK SMILES O=C([O-])CCCCCCCCC(=O)[O-]
REMARK SMILES IDX 7 1 6 2 5 3 4 4 2 5 1 6 3 7 8 8 9 9 10 10 11 11 12 12 13 13
REMARK SMILES IDX 14 14
REMARK H PARENT
REMARK Flexibility Score: inf
ROOT
ATOM      1  C   UNL     1      14.434  23.389  29.151  1.00  0.00     0.000 C 
ENDROOT
BRANCH   1   2
ATOM      2  C   UNL     1      13.671  24.531  29.843  1.00  0.00     0.000 C 
BRANCH   2   3
ATOM      3  C   UNL     1      12.613  24.091  30.873  1.00  0.00     0.006 C 
BRANCH   3   4
ATOM      4  C   UNL     1      11.185  23.991  30.305  1.00  0.00     0.053 C 
BRANCH   4   5
ATOM      5  C   UNL     1      10.791  22.581  29.980  1.00  0.00     0.041 C 
ATOM      6  O   UNL     1      10.611  22.231  28.784  1.00  0.00    -0.550 OA
ATOM      7  O   UNL     1      10.666  21.641  30.996  1.00  0.00    -0.550 OA
ENDBRANCH   4   5
ENDBRANCH   3   4
ENDBRANCH   2   3
ENDBRANCH   1   2
BRANCH   1   8
ATOM      8  C   UNL     1      15.882  23.765  28.795  1.00  0.00     0.000 C 
BRANCH   8   9
ATOM      9  C   UNL     1      16.840  22.565  28.873  1.00  0.00     0.000 C 
BRANCH   9  10
ATOM     10  C   UNL     1      16.494  21.461  27.861  1.00  0.00     0.006 C 
BRANCH  10  11
ATOM     11  C   UNL     1      16.949  21.850  26.451  1.00  0.00     0.053 C 
BRANCH  11  12
ATOM     12  C   UNL     1      15.777  21.931  25.526  1.00  0.00     0.041 C 
ATOM     13  O   UNL     1      15.939  22.279  24.327  1.00  0.00    -0.550 OA
ATOM     14  O   UNL     1      14.498  21.669  25.999  1.00  0.00    -0.550 OA
ENDBRANCH  11  12
ENDBRANCH  10  11
ENDBRANCH   9  10
ENDBRANCH   8   9
ENDBRANCH   1   8
TORSDOF 9
ENDMDL
MODEL 4
REMARK VINA RESULT:    -4.441      2.264      3.162
REMARK INTER + INTRA:          -7.607
REMARK INTER:                  -6.919
REMARK INTRA:                  -0.687
REMARK UNBOUND:                -0.829
REMARK SMILES O=C([O-])CCCCCCCCC(=O)[O-]
REMARK SMILES IDX 7 1 6 2 5 3 4 4 2 5 1 6 3 7 8 8 9 9 10 10 11 11 12 12 13 13
REMARK SMILES IDX 14 14
REMARK H PARENT
REMARK Flexibility Score: inf
ROOT
ATOM      1  C   UNL     1      14.773  23.111  28.784  1.00  0.00     0.000 C 
ENDROOT
BRANCH   1   2
ATOM      2  C   UNL     1      16.184  23.723  28.820  1.00  0.00     0.000 C 
BRANCH   2   3
ATOM      3  C   UNL     1      16.872  23.882  27.451  1.00  0.00     0.006 C 
BRANCH   3   4
ATOM      4  C   UNL     1      15.949  23.616  26.247  1.00  0.00     0.053 C 
BRANCH   4   5
ATOM      5  C   UNL     1      16.297  22.349  25.523  1.00  0.00     0.041 C 
ATOM      6  O   UNL     1      17.025  21.481  26.074  1.00  0.00    -0.550 OA
ATOM      7  O   UNL     1      15.779  22.106  24.257  1.00  0.00    -0.550 OA
ENDBRANCH   4   5
ENDBRANCH   3   4
ENDBRANCH   2   3
ENDBRANCH   1   2
BRANCH   1   8
ATOM      8  C   UNL     1      14.761  21.610  29.118  1.00  0.00     0.000 C 
BRANCH   8   9
ATOM      9  C   UNL     1      13.979  20.782  28.086  1.00  0.00     0.000 C 
BRANCH   9  10
ATOM     10  C   UNL     1      13.051  19.745  28.736  1.00  0.00     0.006 C 
BRANCH  10  11
ATOM     11  C   UNL     1      12.201  20.386  29.838  1.00  0.00     0.053 C 
BRANCH  11  12
ATOM     12  C   UNL     1      10.854  20.763  29.307  1.00  0.00     0.041 C 
ATOM     13  O   UNL     1       9.843  20.069  29.590  1.00  0.00    -0.550 OA
ATOM     14  O   UNL     1      10.723  21.855  28.458  1.00  0.00    -0.550 OA
ENDBRANCH  11  12
ENDBRANCH  10  11
ENDBRANCH   9  10
ENDBRANCH   8   9
ENDBRANCH   1   8
TORSDOF 9
ENDMDL
MODEL 5
REMARK VINA RESULT:    -4.320     21.673     22.751
REMARK INTER + INTRA:          -7.422
REMARK INTER:                  -6.414
REMARK INTRA:                  -1.008
REMARK UNBOUND:                -0.829
REMARK SMILES O=C([O-])CCCCCCCCC(=O)[O-]
REMARK SMILES IDX 7 1 6 2 5 3 4 4 2 5 1 6 3 7 8 8 9 9 10 10 11 11 12 12 13 13
REMARK SMILES IDX 14 14
REMARK H PARENT
REMARK Flexibility Score: inf
ROOT
ATOM      1  C   UNL     1       1.563  37.819  13.401  1.00  0.00     0.000 C 
ENDROOT
BRANCH   1   2
ATOM      2  C   UNL     1       2.879  37.939  14.188  1.00  0.00     0.000 C 
BRANCH   2   3
ATOM      3  C   UNL     1       2.929  37.160  15.517  1.00  0.00     0.006 C 
BRANCH   3   4
ATOM      4  C   UNL     1       3.662  35.808  15.427  1.00  0.00     0.053 C 
BRANCH   4   5
ATOM      5  C   UNL     1       5.034  35.855  16.032  1.00  0.00     0.041 C 
ATOM      6  O   UNL     1       5.891  36.671  15.602  1.00  0.00    -0.550 OA
ATOM      7  O   UNL     1       5.352  35.027  17.102  1.00  0.00    -0.550 OA
ENDBRANCH   4   5
ENDBRANCH   3   4
ENDBRANCH   2   3
ENDBRANCH   1   2
BRANCH   1   8
ATOM      8  C   UNL     1       1.628  36.768  12.280  1.00  0.00     0.000 C 
BRANCH   8   9
ATOM      9  C   UNL     1       0.854  35.487  12.628  1.00  0.00     0.000 C 
BRANCH   9  10
ATOM     10  C   UNL     1      -0.189  35.704  13.736  1.00  0.00     0.006 C 
BRANCH  10  11
ATOM     11  C   UNL     1       0.086  34.787  14.933  1.00  0.00     0.053 C 
BRANCH  11  12
ATOM     12  C   UNL     1      -0.345  35.444  16.205  1.00  0.00     0.041 C 
ATOM     13  O   UNL     1      -0.523  36.690  16.247  1.00  0.00    -0.550 OA
ATOM     14  O   UNL     1      -0.503  34.688  17.360  1.00  0.00    -0.550 OA
ENDBRANCH  11  12
ENDBRANCH  10  11
ENDBRANCH   9  10
ENDBRANCH   8   9
ENDBRANCH   1   8
TORSDOF 9
ENDMDL
MODEL 6
REMARK VINA RESULT:    -4.319      2.056      6.632
REMARK INTER + INTRA:          -7.419
REMARK INTER:                  -7.037
REMARK INTRA:                  -0.383
REMARK UNBOUND:                -0.829
REMARK SMILES O=C([O-])CCCCCCCCC(=O)[O-]
REMARK SMILES IDX 7 1 6 2 5 3 4 4 2 5 1 6 3 7 8 8 9 9 10 10 11 11 12 12 13 13
REMARK SMILES IDX 14 14
REMARK H PARENT
REMARK Flexibility Score: inf
ROOT
ATOM      1  C   UNL     1      11.517  24.281  30.241  1.00  0.00     0.000 C 
ENDROOT
BRANCH   1   2
ATOM      2  C   UNL     1      10.492  24.291  31.389  1.00  0.00     0.000 C 
BRANCH   2   3
ATOM      3  C   UNL     1      10.179  22.916  32.009  1.00  0.00     0.006 C 
BRANCH   3   4
ATOM      4  C   UNL     1       8.708  22.482  31.871  1.00  0.00     0.053 C 
BRANCH   4   5
ATOM      5  C   UNL     1       8.454  21.696  30.618  1.00  0.00     0.041 C 
ATOM      6  O   UNL     1       7.282  21.566  30.176  1.00  0.00    -0.550 OA
ATOM      7  O   UNL     1       9.517  21.145  29.915  1.00  0.00    -0.550 OA
ENDBRANCH   4   5
ENDBRANCH   3   4
ENDBRANCH   2   3
ENDBRANCH   1   2
BRANCH   1   8
ATOM      8  C   UNL     1      12.970  24.204  30.737  1.00  0.00     0.000 C 
BRANCH   8   9
ATOM      9  C   UNL     1      13.989  24.286  29.589  1.00  0.00     0.000 C 
BRANCH   9  10
ATOM     10  C   UNL     1      14.984  23.114  29.592  1.00  0.00     0.006 C 
BRANCH  10  11
ATOM     11  C   UNL     1      15.348  22.702  28.163  1.00  0.00     0.053 C 
BRANCH  11  12
ATOM     12  C   UNL     1      16.238  23.726  27.533  1.00  0.00     0.041 C 
ATOM     13  O   UNL     1      17.286  24.101  28.121  1.00  0.00    -0.550 OA
ATOM     14  O   UNL     1      15.885  24.303  26.320  1.00  0.00    -0.550 OA
ENDBRANCH  11  12
ENDBRANCH  10  11
ENDBRANCH   9  10
ENDBRANCH   8   9
ENDBRANCH   1   8
TORSDOF 9
ENDMDL
MODEL 7
REMARK VINA RESULT:    -4.288      1.065      5.787
REMARK INTER + INTRA:          -7.372
REMARK INTER:                  -6.661
REMARK INTRA:                  -0.711
REMARK UNBOUND:                -0.829
REMARK SMILES O=C([O-])CCCCCCCCC(=O)[O-]
REMARK SMILES IDX 7 1 6 2 5 3 4 4 2 5 1 6 3 7 8 8 9 9 10 10 11 11 12 12 13 13
REMARK SMILES IDX 14 14
REMARK H PARENT
REMARK Flexibility Score: inf
ROOT
ATOM      1  C   UNL     1      14.727  22.773  30.063  1.00  0.00     0.000 C 
ENDROOT
BRANCH   1   2
ATOM      2  C   UNL     1      14.051  24.133  29.816  1.00  0.00     0.000 C 
BRANCH   2   3
ATOM      3  C   UNL     1      12.916  24.495  30.794  1.00  0.00     0.006 C 
BRANCH   3   4
ATOM      4  C   UNL     1      11.501  24.274  30.227  1.00  0.00     0.053 C 
BRANCH   4   5
ATOM      5  C   UNL     1      10.715  23.269  31.016  1.00  0.00     0.041 C 
ATOM      6  O   UNL     1       9.466  23.386  31.128  1.00  0.00    -0.550 OA
ATOM      7  O   UNL     1      11.356  22.179  31.590  1.00  0.00    -0.550 OA
ENDBRANCH   4   5
ENDBRANCH   3   4
ENDBRANCH   2   3
ENDBRANCH   1   2
BRANCH   1   8
ATOM      8  C   UNL     1      14.110  21.637  29.230  1.00  0.00     0.000 C 
BRANCH   8   9
ATOM      9  C   UNL     1      15.172  20.706  28.625  1.00  0.00     0.000 C 
BRANCH   9  10
ATOM     10  C   UNL     1      16.531  21.399  28.433  1.00  0.00     0.006 C 
BRANCH  10  11
ATOM     11  C   UNL     1      16.646  21.997  27.027  1.00  0.00     0.053 C 
BRANCH  11  12
ATOM     12  C   UNL     1      16.634  23.492  27.092  1.00  0.00     0.041 C 
ATOM     13  O   UNL     1      15.936  24.156  26.281  1.00  0.00    -0.550 OA
ATOM     14  O   UNL     1      17.431  24.154  28.017  1.00  0.00    -0.550 OA
ENDBRANCH  11  12
ENDBRANCH  10  11
ENDBRANCH   9  10
ENDBRANCH   8   9
ENDBRANCH   1   8
TORSDOF 9
ENDMDL
MODEL 8
REMARK VINA RESULT:    -4.265     22.078     23.411
REMARK INTER + INTRA:          -7.338
REMARK INTER:                  -6.255
REMARK INTRA:                  -1.083
REMARK UNBOUND:                -0.829
REMARK SMILES O=C([O-])CCCCCCCCC(=O)[O-]
REMARK SMILES IDX 7 1 6 2 5 3 4 4 2 5 1 6 3 7 8 8 9 9 10 10 11 11 12 12 13 13
REMARK SMILES IDX 14 14
REMARK H PARENT
REMARK Flexibility Score: inf
ROOT
ATOM      1  C   UNL     1       0.909  37.278  12.375  1.00  0.00     0.000 C 
ENDROOT
BRANCH   1   2
ATOM      2  C   UNL     1       0.760  35.766  12.137  1.00  0.00     0.000 C 
BRANCH   2   3
ATOM      3  C   UNL     1       0.372  34.936  13.376  1.00  0.00     0.006 C 
BRANCH   3   4
ATOM      4  C   UNL     1      -0.717  35.583  14.252  1.00  0.00     0.053 C 
BRANCH   4   5
ATOM      5  C   UNL     1      -0.318  35.673  15.695  1.00  0.00     0.041 C 
ATOM      6  O   UNL     1      -0.595  36.701  16.368  1.00  0.00    -0.550 OA
ATOM      7  O   UNL     1       0.321  34.604  16.309  1.00  0.00    -0.550 OA
ENDBRANCH   4   5
ENDBRANCH   3   4
ENDBRANCH   2   3
ENDBRANCH   1   2
BRANCH   1   8
ATOM      8  C   UNL     1       2.227  37.647  13.078  1.00  0.00     0.000 C 
BRANCH   8   9
ATOM      9  C   UNL     1       1.999  38.353  14.424  1.00  0.00     0.000 C 
BRANCH   9  10
ATOM     10  C   UNL     1       2.763  37.689  15.581  1.00  0.00     0.006 C 
BRANCH  10  11
ATOM     11  C   UNL     1       3.352  36.343  15.146  1.00  0.00     0.053 C 
BRANCH  11  12
ATOM     12  C   UNL     1       4.770  36.219  15.605  1.00  0.00     0.041 C 
ATOM     13  O   UNL     1       5.117  35.256  16.337  1.00  0.00    -0.550 OA
ATOM     14  O   UNL     1       5.699  37.195  15.265  1.00  0.00    -0.550 OA
ENDBRANCH  11  12
ENDBRANCH  10  11
ENDBRANCH   9  10
ENDBRANCH   8   9
ENDBRANCH   1   8
TORSDOF 9
ENDMDL
