MODEL 1
REMARK VINA RESULT:    -3.921      0.000      0.000
REMARK INTER + INTRA:          -6.741
REMARK INTER:                  -5.984
REMARK INTRA:                  -0.757
REMARK UNBOUND:                -0.757
REMARK SMILES CCCCCCCCCCC(=O)[O-]
REMARK SMILES IDX 7 1 8 2 9 3 10 4 11 5 12 6 13 7 6 8 5 9 4 10 3 11 2 12 1 13
REMARK H PARENT
REMARK Flexibility Score: inf
ROOT
ATOM      1  C   UNL     1       6.479  27.076 111.646  1.00  0.00     0.000 C 
ENDROOT
BRANCH   1   2
ATOM      2  C   UNL     1       4.968  26.904 111.860  1.00  0.00     0.000 C 
BRANCH   2   3
ATOM      3  C   UNL     1       4.266  26.271 110.649  1.00  0.00     0.006 C 
BRANCH   3   4
ATOM      4  C   UNL     1       2.738  26.383 110.726  1.00  0.00     0.053 C 
BRANCH   4   5
ATOM      5  C   UNL     1       2.306  27.797 110.499  1.00  0.00     0.041 C 
ATOM      6  O   UNL     1       3.004  28.567 109.788  1.00  0.00    -0.550 OA
ATOM      7  O   UNL     1       1.156  28.279 111.113  1.00  0.00    -0.550 OA
ENDBRANCH   4   5
ENDBRANCH   3   4
ENDBRANCH   2   3
ENDBRANCH   1   2
BRANCH   1   8
ATOM      8  C   UNL     1       7.260  25.927 112.295  1.00  0.00     0.000 C 
BRANCH   8   9
ATOM      9  C   UNL     1       8.208  25.267 111.282  1.00  0.00    -0.000 C 
BRANCH   9  10
ATOM     10  C   UNL     1       8.284  26.034 109.951  1.00  0.00    -0.000 C 
BRANCH  10  11
ATOM     11  C   UNL     1       7.871  25.169 108.747  1.00  0.00    -0.000 C 
BRANCH  11  12
ATOM     12  C   UNL     1       7.616  26.004 107.482  1.00  0.00    -0.003 C 
ATOM     13  C   UNL     1       6.243  26.676 107.481  1.00  0.00     0.004 C 
ENDBRANCH  11  12
ENDBRANCH  10  11
ENDBRANCH   9  10
ENDBRANCH   8   9
ENDBRANCH   1   8
TORSDOF 9
ENDMDL
MODEL 2
REMARK VINA RESULT:    -3.919      2.665      4.926
REMARK INTER + INTRA:          -6.738
REMARK INTER:                  -5.903
REMARK INTRA:                  -0.835
REMARK UNBOUND:                -0.757
REMARK SMILES CCCCCCCCCCC(=O)[O-]
REMARK SMILES IDX 7 1 8 2 9 3 10 4 11 5 12 6 13 7 6 8 5 9 4 10 3 11 2 12 1 13
REMARK H PARENT
REMARK Flexibility Score: inf
ROOT
ATOM      1  C   UNL     1       5.074  23.803 112.220  1.00  0.00     0.000 C 
ENDROOT
BRANCH   1   2
ATOM      2  C   UNL     1       6.391  23.878 111.433  1.00  0.00     0.000 C 
BRANCH   2   3
ATOM      3  C   UNL     1       7.448  24.750 112.128  1.00  0.00     0.006 C 
BRANCH   3   4
ATOM      4  C   UNL     1       8.191  25.671 111.150  1.00  0.00     0.053 C 
BRANCH   4   5
ATOM      5  C   UNL     1       7.315  26.813 110.742  1.00  0.00     0.041 C 
ATOM      6  O   UNL     1       7.023  27.716 111.569  1.00  0.00    -0.550 OA
ATOM      7  O   UNL     1       6.782  26.855 109.460  1.00  0.00    -0.550 OA
ENDBRANCH   4   5
ENDBRANCH   3   4
ENDBRANCH   2   3
ENDBRANCH   1   2
BRANCH   1   8
ATOM      8  C   UNL     1       4.714  25.168 112.820  1.00  0.00     0.000 C 
BRANCH   8   9
ATOM      9  C   UNL     1       3.398  25.697 112.230  1.00  0.00    -0.000 C 
BRANCH   9  10
ATOM     10  C   UNL     1       3.444  25.834 110.699  1.00  0.00    -0.000 C 
BRANCH  10  11
ATOM     11  C   UNL     1       3.331  27.296 110.233  1.00  0.00    -0.000 C 
BRANCH  11  12
ATOM     12  C   UNL     1       2.221  28.063 110.970  1.00  0.00    -0.003 C 
ATOM     13  C   UNL     1       1.459  29.025 110.058  1.00  0.00     0.004 C 
ENDBRANCH  11  12
ENDBRANCH  10  11
ENDBRANCH   9  10
ENDBRANCH   8   9
ENDBRANCH   1   8
TORSDOF 9
ENDMDL
MODEL 3
REMARK VINA RESULT:    -3.881      2.728      5.181
REMARK INTER + INTRA:          -6.680
REMARK INTER:                  -5.755
REMARK INTRA:                  -0.925
REMARK UNBOUND:                -0.757
REMARK SMILES CCCCCCCCCCC(=O)[O-]
REMARK SMILES IDX 7 1 8 2 9 3 10 4 11 5 12 6 13 7 6 8 5 9 4 10 3 11 2 12 1 13
REMARK H PARENT
REMARK Flexibility Score: inf
ROOT
ATOM      1  C   UNL     1       5.430  24.371 113.114  1.00  0.00     0.000 C 
ENDROOT
BRANCH   1   2
ATOM      2  C   UNL     1       6.365  24.217 111.905  1.00  0.00     0.000 C 
BRANCH   2   3
ATOM      3  C   UNL     1       7.751  24.836 112.146  1.00  0.00     0.006 C 
BRANCH   3   4
ATOM      4  C   UNL     1       8.285  25.584 110.918  1.00  0.00     0.053 C 
BRANCH   4   5
ATOM      5  C   UNL     1       7.392  26.735 110.579  1.00  0.00     0.041 C 
ATOM      6  O   UNL     1       6.897  26.837 109.426  1.00  0.00    -0.550 OA
ATOM      7  O   UNL     1       7.144  27.724 111.524  1.00  0.00    -0.550 OA
ENDBRANCH   4   5
ENDBRANCH   3   4
ENDBRANCH   2   3
ENDBRANCH   1   2
BRANCH   1   8
ATOM      8  C   UNL     1       4.341  23.291 113.107  1.00  0.00     0.000 C 
BRANCH   8   9
ATOM      9  C   UNL     1       3.029  23.830 113.697  1.00  0.00    -0.000 C 
BRANCH   9  10
ATOM     10  C   UNL     1       2.873  25.349 113.512  1.00  0.00    -0.000 C 
BRANCH  10  11
ATOM     11  C   UNL     1       1.923  25.708 112.357  1.00  0.00    -0.000 C 
BRANCH  11  12
ATOM     12  C   UNL     1       2.541  26.721 111.379  1.00  0.00    -0.003 C 
ATOM     13  C   UNL     1       3.521  26.077 110.399  1.00  0.00     0.004 C 
ENDBRANCH  11  12
ENDBRANCH  10  11
ENDBRANCH   9  10
ENDBRANCH   8   9
ENDBRANCH   1   8
TORSDOF 9
ENDMDL
MODEL 4
REMARK VINA RESULT:    -3.756      2.521      4.715
REMARK INTER + INTRA:          -6.489
REMARK INTER:                  -5.586
REMARK INTRA:                  -0.903
REMARK UNBOUND:                -0.757
REMARK SMILES CCCCCCCCCCC(=O)[O-]
REMARK SMILES IDX 7 1 8 2 9 3 10 4 11 5 12 6 13 7 6 8 5 9 4 10 3 11 2 12 1 13
REMARK H PARENT
REMARK Flexibility Score: inf
ROOT
ATOM      1  C   UNL     1       7.186  25.593 112.317  1.00  0.00     0.000 C 
ENDROOT
BRANCH   1   2
ATOM      2  C   UNL     1       7.324  26.627 111.190  1.00  0.00     0.000 C 
BRANCH   2   3
ATOM      3  C   UNL     1       6.571  26.217 109.915  1.00  0.00     0.006 C 
BRANCH   3   4
ATOM      4  C   UNL     1       7.513  25.926 108.739  1.00  0.00     0.053 C 
BRANCH   4   5
ATOM      5  C   UNL     1       6.871  26.317 107.446  1.00  0.00     0.041 C 
ATOM      6  O   UNL     1       5.835  27.032 107.443  1.00  0.00    -0.550 OA
ATOM      7  O   UNL     1       7.389  25.850 106.244  1.00  0.00    -0.550 OA
ENDBRANCH   4   5
ENDBRANCH   3   4
ENDBRANCH   2   3
ENDBRANCH   1   2
BRANCH   1   8
ATOM      8  C   UNL     1       5.989  25.920 113.218  1.00  0.00     0.000 C 
BRANCH   8   9
ATOM      9  C   UNL     1       5.220  24.644 113.594  1.00  0.00    -0.000 C 
BRANCH   9  10
ATOM     10  C   UNL     1       4.042  24.359 112.647  1.00  0.00    -0.000 C 
BRANCH  10  11
ATOM     11  C   UNL     1       3.237  25.625 112.309  1.00  0.00    -0.000 C 
BRANCH  11  12
ATOM     12  C   UNL     1       3.111  25.856 110.794  1.00  0.00    -0.003 C 
ATOM     13  C   UNL     1       3.022  27.336 110.425  1.00  0.00     0.004 C 
ENDBRANCH  11  12
ENDBRANCH  10  11
ENDBRANCH   9  10
ENDBRANCH   8   9
ENDBRANCH   1   8
TORSDOF 9
ENDMDL
MODEL 5
REMARK VINA RESULT:    -3.683      3.225      5.774
REMARK INTER + INTRA:          -6.378
REMARK INTER:                  -5.517
REMARK INTRA:                  -0.861
REMARK UNBOUND:                -0.757
REMARK SMILES CCCCCCCCCCC(=O)[O-]
REMARK SMILES IDX 7 1 8 2 9 3 10 4 11 5 12 6 13 7 6 8 5 9 4 10 3 11 2 12 1 13
REMARK H PARENT
REMARK Flexibility Score: inf
ROOT
ATOM      1  C   UNL     1       4.634  27.200 112.370  1.00  0.00     0.000 C 
ENDROOT
BRANCH   1   2
ATOM      2  C   UNL     1       6.059  27.484 111.869  1.00  0.00     0.000 C 
BRANCH   2   3
ATOM      3  C   UNL     1       6.555  26.431 110.866  1.00  0.00     0.006 C 
BRANCH   3   4
ATOM      4  C   UNL     1       8.014  26.024 111.111  1.00  0.00     0.053 C 
BRANCH   4   5
ATOM      5  C   UNL     1       8.080  24.856 112.043  1.00  0.00     0.041 C 
ATOM      6  O   UNL     1       7.147  24.011 112.070  1.00  0.00    -0.550 OA
ATOM      7  O   UNL     1       9.151  24.726 112.918  1.00  0.00    -0.550 OA
ENDBRANCH   4   5
ENDBRANCH   3   4
ENDBRANCH   2   3
ENDBRANCH   1   2
BRANCH   1   8
ATOM      8  C   UNL     1       4.031  25.987 111.652  1.00  0.00     0.000 C 
BRANCH   8   9
ATOM      9  C   UNL     1       2.966  26.424 110.636  1.00  0.00    -0.000 C 
BRANCH   9  10
ATOM     10  C   UNL     1       2.216  27.695 111.069  1.00  0.00    -0.000 C 
BRANCH  10  11
ATOM     11  C   UNL     1       2.247  28.794 109.992  1.00  0.00    -0.000 C 
BRANCH  11  12
ATOM     12  C   UNL     1       2.650  30.163 110.562  1.00  0.00    -0.003 C 
ATOM     13  C   UNL     1       2.430  30.267 112.071  1.00  0.00     0.004 C 
ENDBRANCH  11  12
ENDBRANCH  10  11
ENDBRANCH   9  10
ENDBRANCH   8   9
ENDBRANCH   1   8
TORSDOF 9
ENDMDL
MODEL 6
REMARK VINA RESULT:    -3.653      1.772      2.091
REMARK INTER + INTRA:          -6.332
REMARK INTER:                  -5.607
REMARK INTRA:                  -0.725
REMARK UNBOUND:                -0.757
REMARK SMILES CCCCCCCCCCC(=O)[O-]
REMARK SMILES IDX 7 1 8 2 9 3 10 4 11 5 12 6 13 7 6 8 5 9 4 10 3 11 2 12 1 13
REMARK H PARENT
REMARK Flexibility Score: inf
ROOT
ATOM      1  C   UNL     1       5.415  25.712 111.467  1.00  0.00     0.000 C 
ENDROOT
BRANCH   1   2
ATOM      2  C   UNL     1       4.535  26.268 110.338  1.00  0.00     0.000 C 
BRANCH   2   3
ATOM      3  C   UNL     1       3.039  25.997 110.564  1.00  0.00     0.006 C 
BRANCH   3   4
ATOM      4  C   UNL     1       2.403  26.982 111.552  1.00  0.00     0.053 C 
BRANCH   4   5
ATOM      5  C   UNL     1       1.909  26.259 112.765  1.00  0.00     0.041 C 
ATOM      6  O   UNL     1       1.610  25.037 112.698  1.00  0.00    -0.550 OA
ATOM      7  O   UNL     1       1.731  26.946 113.959  1.00  0.00    -0.550 OA
ENDBRANCH   4   5
ENDBRANCH   3   4
ENDBRANCH   2   3
ENDBRANCH   1   2
BRANCH   1   8
ATOM      8  C   UNL     1       6.435  26.758 111.934  1.00  0.00     0.000 C 
BRANCH   8   9
ATOM      9  C   UNL     1       7.496  27.011 110.851  1.00  0.00    -0.000 C 
BRANCH   9  10
ATOM     10  C   UNL     1       8.078  25.711 110.273  1.00  0.00    -0.000 C 
BRANCH  10  11
ATOM     11  C   UNL     1       8.679  25.905 108.870  1.00  0.00    -0.000 C 
BRANCH  11  12
ATOM     12  C   UNL     1       7.744  25.409 107.755  1.00  0.00    -0.003 C 
ATOM     13  C   UNL     1       6.714  26.457 107.334  1.00  0.00     0.004 C 
ENDBRANCH  11  12
ENDBRANCH  10  11
ENDBRANCH   9  10
ENDBRANCH   8   9
ENDBRANCH   1   8
TORSDOF 9
ENDMDL
MODEL 7
REMARK VINA RESULT:    -3.627      3.833      6.120
REMARK INTER + INTRA:          -6.293
REMARK INTER:                  -5.565
REMARK INTRA:                  -0.727
REMARK UNBOUND:                -0.757
REMARK SMILES CCCCCCCCCCC(=O)[O-]
REMARK SMILES IDX 7 1 8 2 9 3 10 4 11 5 12 6 13 7 6 8 5 9 4 10 3 11 2 12 1 13
REMARK H PARENT
REMARK Flexibility Score: inf
ROOT
ATOM      1  C   UNL     1       4.571  23.634 112.467  1.00  0.00     0.000 C 
ENDROOT
BRANCH   1   2
ATOM      2  C   UNL     1       5.360  24.833 111.920  1.00  0.00     0.000 C 
BRANCH   2   3
ATOM      3  C   UNL     1       6.877  24.590 111.913  1.00  0.00     0.006 C 
BRANCH   3   4
ATOM      4  C   UNL     1       7.543  25.048 110.609  1.00  0.00     0.053 C 
BRANCH   4   5
ATOM      5  C   UNL     1       7.142  26.452 110.283  1.00  0.00     0.041 C 
ATOM      6  O   UNL     1       6.492  26.699 109.234  1.00  0.00    -0.550 OA
ATOM      7  O   UNL     1       7.530  27.495 111.115  1.00  0.00    -0.550 OA
ENDBRANCH   4   5
ENDBRANCH   3   4
ENDBRANCH   2   3
ENDBRANCH   1   2
BRANCH   1   8
ATOM      8  C   UNL     1       4.558  23.638 114.000  1.00  0.00     0.000 C 
BRANCH   8   9
ATOM      9  C   UNL     1       3.955  22.335 114.548  1.00  0.00    -0.000 C 
BRANCH   9  10
ATOM     10  C   UNL     1       2.622  21.968 113.875  1.00  0.00    -0.000 C 
BRANCH  10  11
ATOM     11  C   UNL     1       1.438  22.781 114.427  1.00  0.00    -0.000 C 
BRANCH  11  12
ATOM     12  C   UNL     1       0.718  23.587 113.334  1.00  0.00    -0.003 C 
ATOM     13  C   UNL     1       1.070  25.074 113.364  1.00  0.00     0.004 C 
ENDBRANCH  11  12
ENDBRANCH  10  11
ENDBRANCH   9  10
ENDBRANCH   8   9
ENDBRANCH   1   8
TORSDOF 9
ENDMDL
MODEL 8
REMARK VINA RESULT:    -3.574      3.985      6.221
REMARK INTER + INTRA:          -6.212
REMARK INTER:                  -4.888
REMARK INTRA:                  -1.324
REMARK UNBOUND:                -0.757
REMARK SMILES CCCCCCCCCCC(=O)[O-]
REMARK SMILES IDX 7 1 8 2 9 3 10 4 11 5 12 6 13 7 6 8 5 9 4 10 3 11 2 12 1 13
REMARK H PARENT
REMARK Flexibility Score: inf
ROOT
ATOM      1  C   UNL     1       4.098  22.780 114.597  1.00  0.00     0.000 C 
ENDROOT
BRANCH   1   2
ATOM      2  C   UNL     1       4.859  23.937 113.932  1.00  0.00     0.000 C 
BRANCH   2   3
ATOM      3  C   UNL     1       4.322  24.271 112.532  1.00  0.00     0.006 C 
BRANCH   3   4
ATOM      4  C   UNL     1       4.319  25.778 112.245  1.00  0.00     0.053 C 
BRANCH   4   5
ATOM      5  C   UNL     1       3.959  26.037 110.816  1.00  0.00     0.041 C 
ATOM      6  O   UNL     1       2.880  25.592 110.343  1.00  0.00    -0.550 OA
ATOM      7  O   UNL     1       4.839  26.728 109.993  1.00  0.00    -0.550 OA
ENDBRANCH   4   5
ENDBRANCH   3   4
ENDBRANCH   2   3
ENDBRANCH   1   2
BRANCH   1   8
ATOM      8  C   UNL     1       3.367  21.929 113.551  1.00  0.00     0.000 C 
BRANCH   8   9
ATOM      9  C   UNL     1       1.957  21.557 114.033  1.00  0.00    -0.000 C 
BRANCH   9  10
ATOM     10  C   UNL     1       1.128  22.784 114.450  1.00  0.00    -0.000 C 
BRANCH  10  11
ATOM     11  C   UNL     1       0.776  23.691 113.258  1.00  0.00    -0.000 C 
BRANCH  11  12
ATOM     12  C   UNL     1       0.729  25.178 113.644  1.00  0.00    -0.003 C 
ATOM     13  C   UNL     1       1.565  25.496 114.883  1.00  0.00     0.004 C 
ENDBRANCH  11  12
ENDBRANCH  10  11
ENDBRANCH   9  10
ENDBRANCH   8   9
ENDBRANCH   1   8
TORSDOF 9
ENDMDL
MODEL 9
REMARK VINA RESULT:    -3.558      4.141      6.739
REMARK INTER + INTRA:          -6.186
REMARK INTER:                  -5.376
REMARK INTRA:                  -0.810
REMARK UNBOUND:                -0.757
REMARK SMILES CCCCCCCCCCC(=O)[O-]
REMARK SMILES IDX 7 1 8 2 9 3 10 4 11 5 12 6 13 7 6 8 5 9 4 10 3 11 2 12 1 13
REMARK H PARENT
REMARK Flexibility Score: inf
ROOT
ATOM      1  C   UNL     1       3.975  25.547 113.224  1.00  0.00     0.000 C 
ENDROOT
BRANCH   1   2
ATOM      2  C   UNL     1       4.397  24.920 111.887  1.00  0.00     0.000 C 
BRANCH   2   3
ATOM      3  C   UNL     1       5.670  24.069 112.007  1.00  0.00     0.006 C 
BRANCH   3   4
ATOM      4  C   UNL     1       6.785  24.537 111.063  1.00  0.00     0.053 C 
BRANCH   4   5
ATOM      5  C   UNL     1       8.049  24.778 111.826  1.00  0.00     0.041 C 
ATOM      6  O   UNL     1       8.879  25.636 111.426  1.00  0.00    -0.550 OA
ATOM      7  O   UNL     1       8.333  24.019 112.956  1.00  0.00    -0.550 OA
ENDBRANCH   4   5
ENDBRANCH   3   4
ENDBRANCH   2   3
ENDBRANCH   1   2
BRANCH   1   8
ATOM      8  C   UNL     1       2.890  26.610 113.015  1.00  0.00     0.000 C 
BRANCH   8   9
ATOM      9  C   UNL     1       1.547  25.961 112.650  1.00  0.00    -0.000 C 
BRANCH   9  10
ATOM     10  C   UNL     1       0.950  25.140 113.805  1.00  0.00    -0.000 C 
BRANCH  10  11
ATOM     11  C   UNL     1       0.703  23.671 113.420  1.00  0.00    -0.000 C 
BRANCH  11  12
ATOM     12  C   UNL     1       1.371  22.687 114.392  1.00  0.00    -0.003 C 
ATOM     13  C   UNL     1       2.655  22.077 113.830  1.00  0.00     0.004 C 
ENDBRANCH  11  12
ENDBRANCH  10  11
ENDBRANCH   9  10
ENDBRANCH   8   9
ENDBRANCH   1   8
TORSDOF 9
ENDMDL
