MODEL 1
REMARK VINA RESULT:    -3.510      0.000      0.000
REMARK INTER + INTRA:          -5.315
REMARK INTER:                  -5.357
REMARK INTRA:                   0.042
REMARK UNBOUND:                 0.042
REMARK SMILES CC1=CCC[C@H](C)C(=O)C[C@@H](C(C)C)C(=O)C1
REMARK SMILES IDX 8 1 9 2 6 3 7 4 5 5 4 6 3 7 2 8 1 9 10 11 11 12 15 13 16 14
REMARK SMILES IDX 17 15 12 17 13 18 14 19
REMARK H PARENT
REMARK Flexibility Score: 70.00
ROOT
ATOM      1  C   UNL     1      15.531  10.240  50.298  1.00  0.00     0.136 C 
ATOM      2  O   UNL     1      14.760  10.558  51.193  1.00  0.00    -0.299 OA
ENDROOT
BRANCH   1   3
ATOM      3  C   UNL     1      14.967   9.470  49.117  1.00  0.00     0.053 C 
ATOM      4  C   UNL     1      13.451   9.295  49.293  1.00  0.00     0.016 C 
BRANCH   3   5
ATOM      5  C   UNL     1      15.293  10.192  47.776  1.00  0.00     0.015 C 
BRANCH   5   6
ATOM      6  C   UNL     1      14.666  11.601  47.675  1.00  0.00     0.028 C 
BRANCH   6   7
ATOM      7  C   UNL     1      15.547  12.604  46.969  1.00  0.00    -0.028 C 
ATOM      8  C   UNL     1      16.357  13.508  47.573  1.00  0.00    -0.070 CG0
ATOM      9  C   UNL     1      17.242  14.354  46.692  1.00  0.00     0.039 C 
ATOM     10  G   UNL     1      16.371  13.750  49.076  1.00  0.00     0.000 G0
ENDBRANCH   6   7
ENDBRANCH   5   6
ENDBRANCH   3   5
ENDBRANCH   1   3
BRANCH   1  11
ATOM     11  C   UNL     1      16.990  10.634  50.471  1.00  0.00     0.087 C 
BRANCH  11  12
ATOM     12  C   UNL     1      17.354  12.081  50.937  1.00  0.00     0.066 C 
BRANCH  12  13
ATOM     13  C   UNL     1      17.532  13.090  49.793  1.00  0.00     0.140 C 
ATOM     14  O   UNL     1      18.659  13.483  49.526  1.00  0.00    -0.299 OA
BRANCH  13  15
ATOM     15  C   UNL     1      16.373  13.760  49.080  1.00  0.00     0.106 CG0
ATOM     16  G   UNL     1      16.359  13.502  47.580  1.00  0.00     0.000 G0
ENDBRANCH  13  15
ENDBRANCH  12  13
BRANCH  12  17
ATOM     17  C   UNL     1      18.494  12.197  52.023  1.00  0.00    -0.006 C 
ATOM     18  C   UNL     1      18.394  13.526  52.799  1.00  0.00     0.008 C 
ATOM     19  C   UNL     1      18.515  11.050  53.052  1.00  0.00     0.008 C 
ENDBRANCH  12  17
ENDBRANCH  11  12
ENDBRANCH   1  11
TORSDOF 1
ENDMDL
MODEL 2
REMARK VINA RESULT:    -3.489     12.648     16.203
REMARK INTER + INTRA:          -5.283
REMARK INTER:                  -5.235
REMARK INTRA:                  -0.048
REMARK UNBOUND:                 0.042
REMARK SMILES CC1=CCC[C@H](C)C(=O)C[C@@H](C(C)C)C(=O)C1
REMARK SMILES IDX 8 1 9 2 6 3 7 4 5 5 4 6 3 7 2 8 1 9 10 11 11 12 15 13 16 14
REMARK SMILES IDX 17 15 12 17 13 18 14 19
REMARK H PARENT
REMARK Flexibility Score: 70.00
ROOT
ATOM      1  C   UNL     1      15.746  23.581  37.086  1.00  0.00     0.136 C 
ATOM      2  O   UNL     1      16.525  24.136  37.848  1.00  0.00    -0.299 OA
ENDROOT
BRANCH   1   3
ATOM      3  C   UNL     1      16.277  22.443  36.233  1.00  0.00     0.053 C 
ATOM      4  C   UNL     1      17.076  23.013  35.052  1.00  0.00     0.016 C 
BRANCH   3   5
ATOM      5  C   UNL     1      17.152  21.473  37.082  1.00  0.00     0.015 C 
BRANCH   5   6
ATOM      6  C   UNL     1      16.367  20.250  37.608  1.00  0.00     0.028 C 
BRANCH   6   7
ATOM      7  C   UNL     1      16.155  20.267  39.104  1.00  0.00    -0.028 C 
ATOM      8  C   UNL     1      14.981  20.516  39.733  1.00  0.00    -0.070 CG0
ATOM      9  C   UNL     1      14.948  20.382  41.235  1.00  0.00     0.039 C 
ATOM     10  G   UNL     1      13.723  20.978  39.011  1.00  0.00     0.000 G0
ENDBRANCH   6   7
ENDBRANCH   5   6
ENDBRANCH   3   5
ENDBRANCH   1   3
BRANCH   1  11
ATOM     11  C   UNL     1      14.319  24.107  37.054  1.00  0.00     0.087 C 
BRANCH  11  12
ATOM     12  C   UNL     1      13.166  23.264  37.691  1.00  0.00     0.066 C 
BRANCH  12  13
ATOM     13  C   UNL     1      13.567  22.503  38.963  1.00  0.00     0.140 C 
ATOM     14  O   UNL     1      13.909  23.142  39.947  1.00  0.00    -0.299 OA
BRANCH  13  15
ATOM     15  C   UNL     1      13.726  20.996  39.022  1.00  0.00     0.106 CG0
ATOM     16  G   UNL     1      14.989  20.551  39.746  1.00  0.00     0.000 G0
ENDBRANCH  13  15
ENDBRANCH  12  13
BRANCH  12  17
ATOM     17  C   UNL     1      12.326  22.371  36.696  1.00  0.00    -0.006 C 
ATOM     18  C   UNL     1      10.838  22.333  37.102  1.00  0.00     0.008 C 
ATOM     19  C   UNL     1      12.401  22.812  35.222  1.00  0.00     0.008 C 
ENDBRANCH  12  17
ENDBRANCH  11  12
ENDBRANCH   1  11
TORSDOF 1
ENDMDL
MODEL 3
REMARK VINA RESULT:    -3.385      1.732      4.611
REMARK INTER + INTRA:          -5.123
REMARK INTER:                  -5.205
REMARK INTRA:                   0.081
REMARK UNBOUND:                 0.042
REMARK SMILES CC1=CCC[C@H](C)C(=O)C[C@@H](C(C)C)C(=O)C1
REMARK SMILES IDX 8 1 9 2 6 3 7 4 5 5 4 6 3 7 2 8 1 9 10 11 11 12 15 13 16 14
REMARK SMILES IDX 17 15 12 17 13 18 14 19
REMARK H PARENT
REMARK Flexibility Score: 70.00
ROOT
ATOM      1  C   UNL     1      18.359  12.926  50.760  1.00  0.00     0.136 C 
ATOM      2  O   UNL     1      18.952  13.934  51.119  1.00  0.00    -0.299 OA
ENDROOT
BRANCH   1   3
ATOM      3  C   UNL     1      18.290  11.760  51.729  1.00  0.00     0.053 C 
ATOM      4  C   UNL     1      18.761  12.217  53.118  1.00  0.00     0.016 C 
BRANCH   3   5
ATOM      5  C   UNL     1      16.848  11.175  51.793  1.00  0.00     0.015 C 
BRANCH   5   6
ATOM      6  C   UNL     1      16.625  10.001  50.811  1.00  0.00     0.028 C 
BRANCH   6   7
ATOM      7  C   UNL     1      15.187   9.845  50.375  1.00  0.00    -0.028 C 
ATOM      8  C   UNL     1      14.640  10.376  49.255  1.00  0.00    -0.070 CG0
ATOM      9  C   UNL     1      13.209  10.017  48.937  1.00  0.00     0.039 C 
ATOM     10  G   UNL     1      15.370  11.354  48.346  1.00  0.00     0.000 G0
ENDBRANCH   6   7
ENDBRANCH   5   6
ENDBRANCH   3   5
ENDBRANCH   1   3
BRANCH   1  11
ATOM     11  C   UNL     1      17.765  12.937  49.359  1.00  0.00     0.087 C 
BRANCH  11  12
ATOM     12  C   UNL     1      16.438  13.717  49.084  1.00  0.00     0.066 C 
BRANCH  12  13
ATOM     13  C   UNL     1      15.234  12.821  48.756  1.00  0.00     0.140 C 
ATOM     14  O   UNL     1      14.109  13.241  48.984  1.00  0.00    -0.299 OA
BRANCH  13  15
ATOM     15  C   UNL     1      15.362  11.374  48.320  1.00  0.00     0.106 CG0
ATOM     16  G   UNL     1      14.645  10.400  49.245  1.00  0.00     0.000 G0
ENDBRANCH  13  15
ENDBRANCH  12  13
BRANCH  12  17
ATOM     17  C   UNL     1      16.547  14.957  48.114  1.00  0.00    -0.006 C 
ATOM     18  C   UNL     1      16.338  16.282  48.876  1.00  0.00     0.008 C 
ATOM     19  C   UNL     1      17.881  15.057  47.351  1.00  0.00     0.008 C 
ENDBRANCH  12  17
ENDBRANCH  11  12
ENDBRANCH   1  11
TORSDOF 1
ENDMDL
MODEL 4
REMARK VINA RESULT:    -3.155      1.994      2.854
REMARK INTER + INTRA:          -4.774
REMARK INTER:                  -4.525
REMARK INTRA:                  -0.249
REMARK UNBOUND:                 0.042
REMARK SMILES CC1=CCC[C@H](C)C(=O)C[C@@H](C(C)C)C(=O)C1
REMARK SMILES IDX 8 1 9 2 6 3 7 4 5 5 4 6 3 7 2 8 1 9 10 11 11 12 15 13 16 14
REMARK SMILES IDX 17 15 12 17 13 18 14 19
REMARK H PARENT
REMARK Flexibility Score: 70.00
ROOT
ATOM      1  C   UNL     1      13.335  10.013  49.772  1.00  0.00     0.136 C 
ATOM      2  O   UNL     1      13.133   9.612  50.910  1.00  0.00    -0.299 OA
ENDROOT
BRANCH   1   3
ATOM      3  C   UNL     1      12.130  10.382  48.925  1.00  0.00     0.053 C 
ATOM      4  C   UNL     1      11.077   9.267  49.015  1.00  0.00     0.016 C 
BRANCH   3   5
ATOM      5  C   UNL     1      11.534  11.749  49.372  1.00  0.00     0.015 C 
BRANCH   5   6
ATOM      6  C   UNL     1      11.962  12.925  48.464  1.00  0.00     0.028 C 
BRANCH   6   7
ATOM      7  C   UNL     1      12.440  12.488  47.099  1.00  0.00    -0.028 C 
ATOM      8  C   UNL     1      13.723  12.517  46.665  1.00  0.00    -0.070 CG0
ATOM      9  C   UNL     1      14.016  11.937  45.303  1.00  0.00     0.039 C 
ATOM     10  G   UNL     1      14.861  13.153  47.451  1.00  0.00     0.000 G0
ENDBRANCH   6   7
ENDBRANCH   5   6
ENDBRANCH   3   5
ENDBRANCH   1   3
BRANCH   1  11
ATOM     11  C   UNL     1      14.783  10.082  49.311  1.00  0.00     0.087 C 
BRANCH  11  12
ATOM     12  C   UNL     1      15.567  11.432  49.412  1.00  0.00     0.066 C 
BRANCH  12  13
ATOM     13  C   UNL     1      15.807  12.127  48.064  1.00  0.00     0.140 C 
ATOM     14  O   UNL     1      16.876  11.956  47.496  1.00  0.00    -0.299 OA
BRANCH  13  15
ATOM     15  C   UNL     1      14.860  13.153  47.471  1.00  0.00     0.106 CG0
ATOM     16  G   UNL     1      13.719  12.532  46.678  1.00  0.00     0.000 G0
ENDBRANCH  13  15
ENDBRANCH  12  13
BRANCH  12  17
ATOM     17  C   UNL     1      16.857  11.420  50.321  1.00  0.00    -0.006 C 
ATOM     18  C   UNL     1      17.278  12.852  50.709  1.00  0.00     0.008 C 
ATOM     19  C   UNL     1      16.719  10.601  51.618  1.00  0.00     0.008 C 
ENDBRANCH  12  17
ENDBRANCH  11  12
ENDBRANCH   1  11
TORSDOF 1
ENDMDL
MODEL 5
REMARK VINA RESULT:    -3.153      2.176      4.624
REMARK INTER + INTRA:          -4.770
REMARK INTER:                  -4.698
REMARK INTRA:                  -0.072
REMARK UNBOUND:                 0.042
REMARK SMILES CC1=CCC[C@H](C)C(=O)C[C@@H](C(C)C)C(=O)C1
REMARK SMILES IDX 8 1 9 2 6 3 7 4 5 5 4 6 3 7 2 8 1 9 10 11 11 12 15 13 16 14
REMARK SMILES IDX 17 15 12 17 13 18 14 19
REMARK H PARENT
REMARK Flexibility Score: 70.00
ROOT
ATOM      1  C   UNL     1      13.514   9.741  50.013  1.00  0.00     0.136 C 
ATOM      2  O   UNL     1      12.787   8.764  50.121  1.00  0.00    -0.299 OA
ENDROOT
BRANCH   1   3
ATOM      3  C   UNL     1      15.014   9.523  50.099  1.00  0.00     0.053 C 
ATOM      4  C   UNL     1      15.591   9.349  48.685  1.00  0.00     0.016 C 
BRANCH   3   5
ATOM      5  C   UNL     1      15.706  10.704  50.842  1.00  0.00     0.015 C 
BRANCH   5   6
ATOM      6  C   UNL     1      16.929  11.267  50.082  1.00  0.00     0.028 C 
BRANCH   6   7
ATOM      7  C   UNL     1      16.987  12.777  50.070  1.00  0.00    -0.028 C 
ATOM      8  C   UNL     1      16.240  13.589  49.283  1.00  0.00    -0.070 CG0
ATOM      9  C   UNL     1      16.367  15.078  49.494  1.00  0.00     0.039 C 
ATOM     10  G   UNL     1      15.337  13.081  48.168  1.00  0.00     0.000 G0
ENDBRANCH   6   7
ENDBRANCH   5   6
ENDBRANCH   3   5
ENDBRANCH   1   3
BRANCH   1  11
ATOM     11  C   UNL     1      12.835  11.090  49.823  1.00  0.00     0.087 C 
BRANCH  11  12
ATOM     12  C   UNL     1      12.975  11.845  48.461  1.00  0.00     0.066 C 
BRANCH  12  13
ATOM     13  C   UNL     1      13.864  13.096  48.519  1.00  0.00     0.140 C 
ATOM     14  O   UNL     1      13.341  14.179  48.737  1.00  0.00    -0.299 OA
BRANCH  13  15
ATOM     15  C   UNL     1      15.336  13.093  48.155  1.00  0.00     0.106 CG0
ATOM     16  G   UNL     1      16.236  13.591  49.277  1.00  0.00     0.000 G0
ENDBRANCH  13  15
ENDBRANCH  12  13
BRANCH  12  17
ATOM     17  C   UNL     1      11.636  12.096  47.664  1.00  0.00    -0.006 C 
ATOM     18  C   UNL     1      11.351  10.946  46.676  1.00  0.00     0.008 C 
ATOM     19  C   UNL     1      10.388  12.277  48.549  1.00  0.00     0.008 C 
ENDBRANCH  12  17
ENDBRANCH  11  12
ENDBRANCH   1  11
TORSDOF 1
ENDMDL
MODEL 6
REMARK VINA RESULT:    -3.134     13.107     15.991
REMARK INTER + INTRA:          -4.740
REMARK INTER:                  -4.674
REMARK INTRA:                  -0.066
REMARK UNBOUND:                 0.042
REMARK SMILES CC1=CCC[C@H](C)C(=O)C[C@@H](C(C)C)C(=O)C1
REMARK SMILES IDX 8 1 9 2 6 3 7 4 5 5 4 6 3 7 2 8 1 9 10 11 11 12 15 13 16 14
REMARK SMILES IDX 17 15 12 17 13 18 14 19
REMARK H PARENT
REMARK Flexibility Score: 70.00
ROOT
ATOM      1  C   UNL     1      13.969  20.784  39.088  1.00  0.00     0.136 C 
ATOM      2  O   UNL     1      14.499  21.392  40.008  1.00  0.00    -0.299 OA
ENDROOT
BRANCH   1   3
ATOM      3  C   UNL     1      13.142  19.558  39.432  1.00  0.00     0.053 C 
ATOM      4  C   UNL     1      13.883  18.714  40.480  1.00  0.00     0.016 C 
BRANCH   3   5
ATOM      5  C   UNL     1      11.728  19.966  39.942  1.00  0.00     0.015 C 
BRANCH   5   6
ATOM      6  C   UNL     1      10.814  20.514  38.822  1.00  0.00     0.028 C 
BRANCH   6   7
ATOM      7  C   UNL     1      10.486  21.981  38.976  1.00  0.00    -0.028 C 
ATOM      8  C   UNL     1      10.791  22.955  38.084  1.00  0.00    -0.070 CG0
ATOM      9  C   UNL     1      10.283  24.348  38.367  1.00  0.00     0.039 C 
ATOM     10  G   UNL     1      11.663  22.728  36.857  1.00  0.00     0.000 G0
ENDBRANCH   6   7
ENDBRANCH   5   6
ENDBRANCH   3   5
ENDBRANCH   1   3
BRANCH   1  11
ATOM     11  C   UNL     1      14.213  21.310  37.681  1.00  0.00     0.087 C 
BRANCH  11  12
ATOM     12  C   UNL     1      14.288  22.851  37.431  1.00  0.00     0.066 C 
BRANCH  12  13
ATOM     13  C   UNL     1      12.995  23.467  36.875  1.00  0.00     0.140 C 
ATOM     14  O   UNL     1      12.990  24.651  36.575  1.00  0.00    -0.299 OA
BRANCH  13  15
ATOM     15  C   UNL     1      11.670  22.732  36.833  1.00  0.00     0.106 CG0
ATOM     16  G   UNL     1      10.819  22.953  38.076  1.00  0.00     0.000 G0
ENDBRANCH  13  15
ENDBRANCH  12  13
BRANCH  12  17
ATOM     17  C   UNL     1      15.574  23.372  36.678  1.00  0.00    -0.006 C 
ATOM     18  C   UNL     1      16.448  24.244  37.603  1.00  0.00     0.008 C 
ATOM     19  C   UNL     1      16.468  22.260  36.095  1.00  0.00     0.008 C 
ENDBRANCH  12  17
ENDBRANCH  11  12
ENDBRANCH   1  11
TORSDOF 1
ENDMDL
MODEL 7
REMARK VINA RESULT:    -3.069     12.949     15.893
REMARK INTER + INTRA:          -4.641
REMARK INTER:                  -4.462
REMARK INTRA:                  -0.179
REMARK UNBOUND:                 0.042
REMARK SMILES CC1=CCC[C@H](C)C(=O)C[C@@H](C(C)C)C(=O)C1
REMARK SMILES IDX 8 1 9 2 6 3 7 4 5 5 4 6 3 7 2 8 1 9 10 11 11 12 15 13 16 14
REMARK SMILES IDX 17 15 12 17 13 18 14 19
REMARK H PARENT
REMARK Flexibility Score: 70.00
ROOT
ATOM      1  C   UNL     1      15.831  23.707  37.951  1.00  0.00     0.136 C 
ATOM      2  O   UNL     1      16.152  24.875  38.125  1.00  0.00    -0.299 OA
ENDROOT
BRANCH   1   3
ATOM      3  C   UNL     1      15.505  23.264  36.537  1.00  0.00     0.053 C 
ATOM      4  C   UNL     1      16.478  22.156  36.106  1.00  0.00     0.016 C 
BRANCH   3   5
ATOM      5  C   UNL     1      14.028  22.781  36.432  1.00  0.00     0.015 C 
BRANCH   5   6
ATOM      6  C   UNL     1      13.000  23.907  36.689  1.00  0.00     0.028 C 
BRANCH   6   7
ATOM      7  C   UNL     1      11.760  23.437  37.412  1.00  0.00    -0.028 C 
ATOM      8  C   UNL     1      11.542  23.527  38.747  1.00  0.00    -0.070 CG0
ATOM      9  C   UNL     1      10.192  23.098  39.266  1.00  0.00     0.039 C 
ATOM     10  G   UNL     1      12.602  23.976  39.743  1.00  0.00     0.000 G0
ENDBRANCH   6   7
ENDBRANCH   5   6
ENDBRANCH   3   5
ENDBRANCH   1   3
BRANCH   1  11
ATOM     11  C   UNL     1      15.771  22.817  39.184  1.00  0.00     0.087 C 
BRANCH  11  12
ATOM     12  C   UNL     1      14.455  22.042  39.520  1.00  0.00     0.066 C 
BRANCH  12  13
ATOM     13  C   UNL     1      13.435  22.851  40.335  1.00  0.00     0.140 C 
ATOM     14  O   UNL     1      13.167  22.484  41.470  1.00  0.00    -0.299 OA
BRANCH  13  15
ATOM     15  C   UNL     1      12.611  23.985  39.756  1.00  0.00     0.106 CG0
ATOM     16  G   UNL     1      11.551  23.516  38.770  1.00  0.00     0.000 G0
ENDBRANCH  13  15
ENDBRANCH  12  13
BRANCH  12  17
ATOM     17  C   UNL     1      14.633  20.572  40.067  1.00  0.00    -0.006 C 
ATOM     18  C   UNL     1      14.414  19.531  38.951  1.00  0.00     0.008 C 
ATOM     19  C   UNL     1      16.003  20.291  40.713  1.00  0.00     0.008 C 
ENDBRANCH  12  17
ENDBRANCH  11  12
ENDBRANCH   1  11
TORSDOF 1
ENDMDL
MODEL 8
REMARK VINA RESULT:    -3.016      1.629      4.246
REMARK INTER + INTRA:          -4.561
REMARK INTER:                  -4.742
REMARK INTRA:                   0.180
REMARK UNBOUND:                 0.042
REMARK SMILES CC1=CCC[C@H](C)C(=O)C[C@@H](C(C)C)C(=O)C1
REMARK SMILES IDX 8 1 9 2 6 3 7 4 5 5 4 6 3 7 2 8 1 9 10 11 11 12 15 13 16 14
REMARK SMILES IDX 17 15 12 17 13 18 14 19
REMARK H PARENT
REMARK Flexibility Score: 70.00
ROOT
ATOM      1  C   UNL     1      16.849  11.439  51.005  1.00  0.00     0.136 C 
ATOM      2  O   UNL     1      17.114  10.640  51.893  1.00  0.00    -0.299 OA
ENDROOT
BRANCH   1   3
ATOM      3  C   UNL     1      17.664  12.718  50.934  1.00  0.00     0.053 C 
ATOM      4  C   UNL     1      18.111  13.122  52.347  1.00  0.00     0.016 C 
BRANCH   3   5
ATOM      5  C   UNL     1      18.890  12.544  49.989  1.00  0.00     0.015 C 
BRANCH   5   6
ATOM      6  C   UNL     1      18.701  13.230  48.617  1.00  0.00     0.028 C 
BRANCH   6   7
ATOM      7  C   UNL     1      18.037  14.585  48.706  1.00  0.00    -0.028 C 
ATOM      8  C   UNL     1      16.796  14.887  48.254  1.00  0.00    -0.070 CG0
ATOM      9  C   UNL     1      16.267  16.272  48.533  1.00  0.00     0.039 C 
ATOM     10  G   UNL     1      15.943  13.928  47.435  1.00  0.00     0.000 G0
ENDBRANCH   6   7
ENDBRANCH   5   6
ENDBRANCH   3   5
ENDBRANCH   1   3
BRANCH   1  11
ATOM     11  C   UNL     1      15.707  11.075  50.068  1.00  0.00     0.087 C 
BRANCH  11  12
ATOM     12  C   UNL     1      15.774  11.493  48.562  1.00  0.00     0.066 C 
BRANCH  12  13
ATOM     13  C   UNL     1      15.212  12.892  48.268  1.00  0.00     0.140 C 
ATOM     14  O   UNL     1      14.065  13.147  48.605  1.00  0.00    -0.299 OA
BRANCH  13  15
ATOM     15  C   UNL     1      15.939  13.926  47.430  1.00  0.00     0.106 CG0
ATOM     16  G   UNL     1      16.796  14.875  48.254  1.00  0.00     0.000 G0
ENDBRANCH  13  15
ENDBRANCH  12  13
BRANCH  12  17
ATOM     17  C   UNL     1      15.283  10.415  47.518  1.00  0.00    -0.006 C 
ATOM     18  C   UNL     1      14.238   9.469  48.143  1.00  0.00     0.008 C 
ATOM     19  C   UNL     1      14.678  11.003  46.230  1.00  0.00     0.008 C 
ENDBRANCH  12  17
ENDBRANCH  11  12
ENDBRANCH   1  11
TORSDOF 1
ENDMDL
MODEL 9
REMARK VINA RESULT:    -3.015      4.967      7.869
REMARK INTER + INTRA:          -4.559
REMARK INTER:                  -4.299
REMARK INTRA:                  -0.260
REMARK UNBOUND:                 0.042
REMARK SMILES CC1=CCC[C@H](C)C(=O)C[C@@H](C(C)C)C(=O)C1
REMARK SMILES IDX 8 1 9 2 6 3 7 4 5 5 4 6 3 7 2 8 1 9 10 11 11 12 15 13 16 14
REMARK SMILES IDX 17 15 12 17 13 18 14 19
REMARK H PARENT
REMARK Flexibility Score: 70.00
ROOT
ATOM      1  C   UNL     1       9.010  12.294  46.487  1.00  0.00     0.136 C 
ATOM      2  O   UNL     1       8.067  12.706  45.826  1.00  0.00    -0.299 OA
ENDROOT
BRANCH   1   3
ATOM      3  C   UNL     1       9.478  13.137  47.659  1.00  0.00     0.053 C 
ATOM      4  C   UNL     1       9.010  12.497  48.974  1.00  0.00     0.016 C 
BRANCH   3   5
ATOM      5  C   UNL     1      11.026  13.305  47.640  1.00  0.00     0.015 C 
BRANCH   5   6
ATOM      6  C   UNL     1      11.738  12.509  48.758  1.00  0.00     0.028 C 
BRANCH   6   7
ATOM      7  C   UNL     1      13.011  11.836  48.303  1.00  0.00    -0.028 C 
ATOM      8  C   UNL     1      13.158  10.514  48.046  1.00  0.00    -0.070 CG0
ATOM      9  C   UNL     1      14.484  10.050  47.496  1.00  0.00     0.039 C 
ATOM     10  G   UNL     1      12.083   9.477  48.340  1.00  0.00     0.000 G0
ENDBRANCH   6   7
ENDBRANCH   5   6
ENDBRANCH   3   5
ENDBRANCH   1   3
BRANCH   1  11
ATOM     11  C   UNL     1       9.635  10.977  46.051  1.00  0.00     0.087 C 
BRANCH  11  12
ATOM     12  C   UNL     1       9.748   9.795  47.069  1.00  0.00     0.066 C 
BRANCH  12  13
ATOM     13  C   UNL     1      11.158   9.197  47.190  1.00  0.00     0.140 C 
ATOM     14  O   UNL     1      11.509   8.353  46.379  1.00  0.00    -0.299 OA
BRANCH  13  15
ATOM     15  C   UNL     1      12.083   9.467  48.361  1.00  0.00     0.106 CG0
ATOM     16  G   UNL     1      13.151  10.509  48.057  1.00  0.00     0.000 G0
ENDBRANCH  13  15
ENDBRANCH  12  13
BRANCH  12  17
ATOM     17  C   UNL     1       8.630   8.686  46.974  1.00  0.00    -0.006 C 
ATOM     18  C   UNL     1       7.341   9.129  47.696  1.00  0.00     0.008 C 
ATOM     19  C   UNL     1       8.250   8.282  45.537  1.00  0.00     0.008 C 
ENDBRANCH  12  17
ENDBRANCH  11  12
ENDBRANCH   1  11
TORSDOF 1
ENDMDL
