MODEL 1
REMARK VINA RESULT:    -4.288      0.000      0.000
REMARK INTER + INTRA:          -5.411
REMARK INTER:                  -5.165
REMARK INTRA:                  -0.246
REMARK UNBOUND:                -0.246
REMARK SMILES NC(=O)C[C@H]([NH3+])C(=O)[O-]
REMARK SMILES IDX 4 1 5 2 6 3 7 7 8 8 9 9 2 10 3 11 1 12
REMARK H PARENT 6 4 6 5 6 6 1 13 1 14
REMARK Flexibility Score: inf
ROOT
ATOM      1  C   UNL     1      35.810 106.516  75.389  1.00  0.00     0.171 C 
ENDROOT
BRANCH   1   2
ATOM      2  C   UNL     1      34.300 106.806  75.271  1.00  0.00     0.237 C 
BRANCH   2   3
ATOM      3  N   UNL     1      33.737 107.143  76.584  1.00  0.00    -0.350 N 
ATOM      4  H   UNL     1      33.570 108.174  76.644  1.00  0.00     0.345 HD
ATOM      5  H   UNL     1      34.390 106.858  77.351  1.00  0.00     0.345 HD
ATOM      6  H   UNL     1      32.820 106.655  76.713  1.00  0.00     0.345 HD
ENDBRANCH   2   3
BRANCH   2   7
ATOM      7  C   UNL     1      33.567 105.631  74.676  1.00  0.00     0.100 C 
ATOM      8  O   UNL     1      32.392 105.764  74.242  1.00  0.00    -0.544 OA
ATOM      9  O   UNL     1      34.184 104.387  74.616  1.00  0.00    -0.544 OA
ENDBRANCH   2   7
ENDBRANCH   1   2
BRANCH   1  10
ATOM     10  C   UNL     1      36.604 107.778  75.568  1.00  0.00     0.223 C 
ATOM     11  O   UNL     1      36.670 108.322  76.702  1.00  0.00    -0.275 OA
ATOM     12  N   UNL     1      37.315 108.346  74.468  1.00  0.00    -0.369 N 
ATOM     13  H   UNL     1      37.283 107.897  73.525  1.00  0.00     0.159 HD
ATOM     14  H   UNL     1      37.878 109.215  74.597  1.00  0.00     0.159 HD
ENDBRANCH   1  10
TORSDOF 4
ENDMDL
MODEL 2
REMARK VINA RESULT:    -4.189      2.378      3.464
REMARK INTER + INTRA:          -5.291
REMARK INTER:                  -5.017
REMARK INTRA:                  -0.274
REMARK UNBOUND:                -0.246
REMARK SMILES NC(=O)C[C@H]([NH3+])C(=O)[O-]
REMARK SMILES IDX 4 1 5 2 6 3 7 7 8 8 9 9 2 10 3 11 1 12
REMARK H PARENT 6 4 6 5 6 6 1 13 1 14
REMARK Flexibility Score: inf
ROOT
ATOM      1  C   UNL     1      35.336 106.516  74.728  1.00  0.00     0.171 C 
ENDROOT
BRANCH   1   2
ATOM      2  C   UNL     1      36.762 106.839  74.237  1.00  0.00     0.237 C 
BRANCH   2   3
ATOM      3  N   UNL     1      37.088 108.247  74.494  1.00  0.00    -0.350 N 
ATOM      4  H   UNL     1      36.206 108.801  74.599  1.00  0.00     0.345 HD
ATOM      5  H   UNL     1      37.650 108.647  73.708  1.00  0.00     0.345 HD
ATOM      6  H   UNL     1      37.632 108.328  75.384  1.00  0.00     0.345 HD
ENDBRANCH   2   3
BRANCH   2   7
ATOM      7  C   UNL     1      36.913 106.529  72.770  1.00  0.00     0.100 C 
ATOM      8  O   UNL     1      37.259 107.429  71.959  1.00  0.00    -0.544 OA
ATOM      9  O   UNL     1      36.655 105.247  72.302  1.00  0.00    -0.544 OA
ENDBRANCH   2   7
ENDBRANCH   1   2
BRANCH   1  10
ATOM     10  C   UNL     1      35.166 106.839  76.185  1.00  0.00     0.223 C 
ATOM     11  O   UNL     1      36.157 106.780  76.960  1.00  0.00    -0.275 OA
ATOM     12  N   UNL     1      33.896 107.247  76.691  1.00  0.00    -0.369 N 
ATOM     13  H   UNL     1      33.068 107.317  76.057  1.00  0.00     0.159 HD
ATOM     14  H   UNL     1      33.781 107.485  77.700  1.00  0.00     0.159 HD
ENDBRANCH   1  10
TORSDOF 4
ENDMDL
MODEL 3
REMARK VINA RESULT:    -4.160      2.418      3.492
REMARK INTER + INTRA:          -5.256
REMARK INTER:                  -5.038
REMARK INTRA:                  -0.219
REMARK UNBOUND:                -0.246
REMARK SMILES NC(=O)C[C@H]([NH3+])C(=O)[O-]
REMARK SMILES IDX 4 1 5 2 6 3 7 7 8 8 9 9 2 10 3 11 1 12
REMARK H PARENT 6 4 6 5 6 6 1 13 1 14
REMARK Flexibility Score: inf
ROOT
ATOM      1  C   UNL     1      36.913 107.920  75.767  1.00  0.00     0.171 C 
ENDROOT
BRANCH   1   2
ATOM      2  C   UNL     1      36.054 106.919  76.567  1.00  0.00     0.237 C 
BRANCH   2   3
ATOM      3  N   UNL     1      34.659 107.371  76.626  1.00  0.00    -0.350 N 
ATOM      4  H   UNL     1      34.420 107.656  77.604  1.00  0.00     0.345 HD
ATOM      5  H   UNL     1      34.009 106.608  76.325  1.00  0.00     0.345 HD
ATOM      6  H   UNL     1      34.528 108.201  76.003  1.00  0.00     0.345 HD
ENDBRANCH   2   3
BRANCH   2   7
ATOM      7  C   UNL     1      36.600 106.729  77.959  1.00  0.00     0.100 C 
ATOM      8  O   UNL     1      35.997 107.213  78.954  1.00  0.00    -0.544 OA
ATOM      9  O   UNL     1      37.784 106.028  78.150  1.00  0.00    -0.544 OA
ENDBRANCH   2   7
ENDBRANCH   1   2
BRANCH   1  10
ATOM     10  C   UNL     1      36.827 107.665  74.289  1.00  0.00     0.223 C 
ATOM     11  O   UNL     1      36.259 106.624  73.864  1.00  0.00    -0.275 OA
ATOM     12  N   UNL     1      37.351 108.614  73.361  1.00  0.00    -0.369 N 
ATOM     13  H   UNL     1      37.810 109.490  73.698  1.00  0.00     0.159 HD
ATOM     14  H   UNL     1      37.278 108.443  72.335  1.00  0.00     0.159 HD
ENDBRANCH   1  10
TORSDOF 4
ENDMDL
MODEL 4
REMARK VINA RESULT:    -4.114      2.000      3.033
REMARK INTER + INTRA:          -5.201
REMARK INTER:                  -4.940
REMARK INTRA:                  -0.262
REMARK UNBOUND:                -0.246
REMARK SMILES NC(=O)C[C@H]([NH3+])C(=O)[O-]
REMARK SMILES IDX 4 1 5 2 6 3 7 7 8 8 9 9 2 10 3 11 1 12
REMARK H PARENT 6 4 6 5 6 6 1 13 1 14
REMARK Flexibility Score: inf
ROOT
ATOM      1  C   UNL     1      35.540 107.163  76.017  1.00  0.00     0.171 C 
ENDROOT
BRANCH   1   2
ATOM      2  C   UNL     1      36.721 107.010  75.037  1.00  0.00     0.237 C 
BRANCH   2   3
ATOM      3  N   UNL     1      37.216 108.327  74.619  1.00  0.00    -0.350 N 
ATOM      4  H   UNL     1      37.969 108.212  73.903  1.00  0.00     0.345 HD
ATOM      5  H   UNL     1      37.600 108.855  75.437  1.00  0.00     0.345 HD
ATOM      6  H   UNL     1      36.438 108.878  74.189  1.00  0.00     0.345 HD
ENDBRANCH   2   3
BRANCH   2   7
ATOM      7  C   UNL     1      36.325 106.196  73.833  1.00  0.00     0.100 C 
ATOM      8  O   UNL     1      35.293 105.474  73.860  1.00  0.00    -0.544 OA
ATOM      9  O   UNL     1      37.109 106.227  72.686  1.00  0.00    -0.544 OA
ENDBRANCH   2   7
ENDBRANCH   1   2
BRANCH   1  10
ATOM     10  C   UNL     1      36.000 107.606  77.375  1.00  0.00     0.223 C 
ATOM     11  O   UNL     1      36.516 108.746  77.521  1.00  0.00    -0.275 OA
ATOM     12  N   UNL     1      35.824 106.759  78.510  1.00  0.00    -0.369 N 
ATOM     13  H   UNL     1      35.383 105.817  78.408  1.00  0.00     0.159 HD
ATOM     14  H   UNL     1      36.132 107.074  79.456  1.00  0.00     0.159 HD
ENDBRANCH   1  10
TORSDOF 4
ENDMDL
MODEL 5
REMARK VINA RESULT:    -4.076      2.276      3.631
REMARK INTER + INTRA:          -5.155
REMARK INTER:                  -4.891
REMARK INTRA:                  -0.265
REMARK UNBOUND:                -0.246
REMARK SMILES NC(=O)C[C@H]([NH3+])C(=O)[O-]
REMARK SMILES IDX 4 1 5 2 6 3 7 7 8 8 9 9 2 10 3 11 1 12
REMARK H PARENT 6 4 6 5 6 6 1 13 1 14
REMARK Flexibility Score: inf
ROOT
ATOM      1  C   UNL     1      35.496 106.902  75.440  1.00  0.00     0.171 C 
ENDROOT
BRANCH   1   2
ATOM      2  C   UNL     1      36.048 106.276  76.737  1.00  0.00     0.237 C 
BRANCH   2   3
ATOM      3  N   UNL     1      35.125 105.257  77.250  1.00  0.00    -0.350 N 
ATOM      4  H   UNL     1      35.483 104.880  78.158  1.00  0.00     0.345 HD
ATOM      5  H   UNL     1      35.027 104.469  76.568  1.00  0.00     0.345 HD
ATOM      6  H   UNL     1      34.185 105.684  77.421  1.00  0.00     0.345 HD
ENDBRANCH   2   3
BRANCH   2   7
ATOM      7  C   UNL     1      36.295 107.331  77.785  1.00  0.00     0.100 C 
ATOM      8  O   UNL     1      36.190 107.052  79.010  1.00  0.00    -0.544 OA
ATOM      9  O   UNL     1      36.625 108.625  77.403  1.00  0.00    -0.544 OA
ENDBRANCH   2   7
ENDBRANCH   1   2
BRANCH   1  10
ATOM     10  C   UNL     1      36.572 107.071  74.406  1.00  0.00     0.223 C 
ATOM     11  O   UNL     1      36.745 106.182  73.530  1.00  0.00    -0.275 OA
ATOM     12  N   UNL     1      37.375 108.250  74.385  1.00  0.00    -0.369 N 
ATOM     13  H   UNL     1      37.232 109.004  75.095  1.00  0.00     0.159 HD
ATOM     14  H   UNL     1      38.112 108.373  73.658  1.00  0.00     0.159 HD
ENDBRANCH   1  10
TORSDOF 4
ENDMDL
MODEL 6
REMARK VINA RESULT:    -4.031      1.692      4.038
REMARK INTER + INTRA:          -5.101
REMARK INTER:                  -4.839
REMARK INTRA:                  -0.262
REMARK UNBOUND:                -0.246
REMARK SMILES NC(=O)C[C@H]([NH3+])C(=O)[O-]
REMARK SMILES IDX 4 1 5 2 6 3 7 7 8 8 9 9 2 10 3 11 1 12
REMARK H PARENT 6 4 6 5 6 6 1 13 1 14
REMARK Flexibility Score: inf
ROOT
ATOM      1  C   UNL     1      35.122 106.313  74.781  1.00  0.00     0.171 C 
ENDROOT
BRANCH   1   2
ATOM      2  C   UNL     1      35.261 106.784  76.243  1.00  0.00     0.237 C 
BRANCH   2   3
ATOM      3  N   UNL     1      33.984 107.314  76.735  1.00  0.00    -0.350 N 
ATOM      4  H   UNL     1      34.139 108.242  77.195  1.00  0.00     0.345 HD
ATOM      5  H   UNL     1      33.553 106.658  77.428  1.00  0.00     0.345 HD
ATOM      6  H   UNL     1      33.324 107.452  75.935  1.00  0.00     0.345 HD
ENDBRANCH   2   3
BRANCH   2   7
ATOM      7  C   UNL     1      36.343 107.825  76.377  1.00  0.00     0.100 C 
ATOM      8  O   UNL     1      37.076 108.114  75.394  1.00  0.00    -0.544 OA
ATOM      9  O   UNL     1      36.547 108.460  77.595  1.00  0.00    -0.544 OA
ENDBRANCH   2   7
ENDBRANCH   1   2
BRANCH   1  10
ATOM     10  C   UNL     1      33.932 105.415  74.599  1.00  0.00     0.223 C 
ATOM     11  O   UNL     1      32.779 105.914  74.504  1.00  0.00    -0.275 OA
ATOM     12  N   UNL     1      34.103 104.002  74.495  1.00  0.00    -0.369 N 
ATOM     13  H   UNL     1      35.055 103.575  74.555  1.00  0.00     0.159 HD
ATOM     14  H   UNL     1      33.277 103.380  74.355  1.00  0.00     0.159 HD
ENDBRANCH   1  10
TORSDOF 4
ENDMDL
MODEL 7
REMARK VINA RESULT:    -4.002      2.038      3.792
REMARK INTER + INTRA:          -5.067
REMARK INTER:                  -4.821
REMARK INTRA:                  -0.246
REMARK UNBOUND:                -0.246
REMARK SMILES NC(=O)C[C@H]([NH3+])C(=O)[O-]
REMARK SMILES IDX 4 1 5 2 6 3 7 7 8 8 9 9 2 10 3 11 1 12
REMARK H PARENT 6 4 6 5 6 6 1 13 1 14
REMARK Flexibility Score: inf
ROOT
ATOM      1  C   UNL     1      33.013 106.305  74.971  1.00  0.00     0.171 C 
ENDROOT
BRANCH   1   2
ATOM      2  C   UNL     1      34.299 106.347  75.821  1.00  0.00     0.237 C 
BRANCH   2   3
ATOM      3  N   UNL     1      34.168 107.329  76.904  1.00  0.00    -0.350 N 
ATOM      4  H   UNL     1      34.652 108.217  76.638  1.00  0.00     0.345 HD
ATOM      5  H   UNL     1      34.589 106.962  77.789  1.00  0.00     0.345 HD
ATOM      6  H   UNL     1      33.157 107.544  77.067  1.00  0.00     0.345 HD
ENDBRANCH   2   3
BRANCH   2   7
ATOM      7  C   UNL     1      35.501 106.668  74.970  1.00  0.00     0.100 C 
ATOM      8  O   UNL     1      35.775 105.965  73.961  1.00  0.00    -0.544 OA
ATOM      9  O   UNL     1      36.323 107.736  75.305  1.00  0.00    -0.544 OA
ENDBRANCH   2   7
ENDBRANCH   1   2
BRANCH   1  10
ATOM     10  C   UNL     1      31.903 107.092  75.607  1.00  0.00     0.223 C 
ATOM     11  O   UNL     1      31.400 106.701  76.694  1.00  0.00    -0.275 OA
ATOM     12  N   UNL     1      31.438 108.300  75.007  1.00  0.00    -0.369 N 
ATOM     13  H   UNL     1      31.857 108.646  74.114  1.00  0.00     0.159 HD
ATOM     14  H   UNL     1      30.677 108.854  75.457  1.00  0.00     0.159 HD
ENDBRANCH   1  10
TORSDOF 4
ENDMDL
MODEL 8
REMARK VINA RESULT:    -3.982      2.443      2.768
REMARK INTER + INTRA:          -5.043
REMARK INTER:                  -4.941
REMARK INTRA:                  -0.102
REMARK UNBOUND:                -0.246
REMARK SMILES NC(=O)C[C@H]([NH3+])C(=O)[O-]
REMARK SMILES IDX 4 1 5 2 6 3 7 7 8 8 9 9 2 10 3 11 1 12
REMARK H PARENT 6 4 6 5 6 6 1 13 1 14
REMARK Flexibility Score: inf
ROOT
ATOM      1  C   UNL     1      36.561 106.412  73.878  1.00  0.00     0.171 C 
ENDROOT
BRANCH   1   2
ATOM      2  C   UNL     1      36.012 107.186  75.094  1.00  0.00     0.237 C 
BRANCH   2   3
ATOM      3  N   UNL     1      36.879 106.991  76.262  1.00  0.00    -0.350 N 
ATOM      4  H   UNL     1      37.700 107.637  76.205  1.00  0.00     0.345 HD
ATOM      5  H   UNL     1      37.224 106.004  76.306  1.00  0.00     0.345 HD
ATOM      6  H   UNL     1      36.351 107.211  77.137  1.00  0.00     0.345 HD
ENDBRANCH   2   3
BRANCH   2   7
ATOM      7  C   UNL     1      34.602 106.762  75.415  1.00  0.00     0.100 C 
ATOM      8  O   UNL     1      34.073 107.080  76.512  1.00  0.00    -0.544 OA
ATOM      9  O   UNL     1      33.883 106.000  74.502  1.00  0.00    -0.544 OA
ENDBRANCH   2   7
ENDBRANCH   1   2
BRANCH   1  10
ATOM     10  C   UNL     1      37.093 107.341  72.825  1.00  0.00     0.223 C 
ATOM     11  O   UNL     1      37.174 106.953  71.629  1.00  0.00    -0.275 OA
ATOM     12  N   UNL     1      37.474 108.674  73.162  1.00  0.00    -0.369 N 
ATOM     13  H   UNL     1      37.398 109.016  74.147  1.00  0.00     0.159 HD
ATOM     14  H   UNL     1      37.831 109.323  72.427  1.00  0.00     0.159 HD
ENDBRANCH   1  10
TORSDOF 4
ENDMDL
MODEL 9
REMARK VINA RESULT:    -3.971      1.022      4.187
REMARK INTER + INTRA:          -5.029
REMARK INTER:                  -4.996
REMARK INTRA:                  -0.033
REMARK UNBOUND:                -0.246
REMARK SMILES NC(=O)C[C@H]([NH3+])C(=O)[O-]
REMARK SMILES IDX 4 1 5 2 6 3 7 7 8 8 9 9 2 10 3 11 1 12
REMARK H PARENT 6 4 6 5 6 6 1 13 1 14
REMARK Flexibility Score: inf
ROOT
ATOM      1  C   UNL     1      35.674 106.518  75.269  1.00  0.00     0.171 C 
ENDROOT
BRANCH   1   2
ATOM      2  C   UNL     1      36.284 107.880  75.658  1.00  0.00     0.237 C 
BRANCH   2   3
ATOM      3  N   UNL     1      37.343 108.257  74.714  1.00  0.00    -0.350 N 
ATOM      4  H   UNL     1      36.972 108.230  73.736  1.00  0.00     0.345 HD
ATOM      5  H   UNL     1      38.156 107.601  74.789  1.00  0.00     0.345 HD
ATOM      6  H   UNL     1      37.668 109.231  74.915  1.00  0.00     0.345 HD
ENDBRANCH   2   3
BRANCH   2   7
ATOM      7  C   UNL     1      36.825 107.850  77.064  1.00  0.00     0.100 C 
ATOM      8  O   UNL     1      36.730 108.862  77.807  1.00  0.00    -0.544 OA
ATOM      9  O   UNL     1      37.447 106.704  77.543  1.00  0.00    -0.544 OA
ENDBRANCH   2   7
ENDBRANCH   1   2
BRANCH   1  10
ATOM     10  C   UNL     1      34.177 106.525  75.396  1.00  0.00     0.223 C 
ATOM     11  O   UNL     1      33.473 105.919  74.546  1.00  0.00    -0.275 OA
ATOM     12  N   UNL     1      33.549 107.184  76.495  1.00  0.00    -0.369 N 
ATOM     13  H   UNL     1      34.121 107.678  77.217  1.00  0.00     0.159 HD
ATOM     14  H   UNL     1      32.510 107.177  76.590  1.00  0.00     0.159 HD
ENDBRANCH   1  10
TORSDOF 4
ENDMDL
