MODEL 1
REMARK VINA RESULT:    -4.938      0.000      0.000
REMARK INTER + INTRA:          -5.724
REMARK INTER:                  -5.515
REMARK INTRA:                  -0.209
REMARK UNBOUND:                -0.209
REMARK SMILES CC(C)c1ccc(C(=O)[O-])cc1
REMARK SMILES IDX 7 1 6 2 11 3 5 4 12 5 4 6 8 7 9 8 10 9 2 10 1 11 3 12
REMARK H PARENT
REMARK Flexibility Score: inf
ROOT
ATOM      1  C   UNL     1      -6.374 -10.171 -14.927  1.00  0.00    -0.003 A 
ATOM      2  C   UNL     1      -6.105  -8.904 -14.382  1.00  0.00     0.010 A 
ATOM      3  C   UNL     1      -5.860 -10.489 -16.195  1.00  0.00     0.010 A 
ATOM      4  C   UNL     1      -5.338  -7.974 -15.090  1.00  0.00     0.004 A 
ATOM      5  C   UNL     1      -5.093  -9.559 -16.904  1.00  0.00     0.004 A 
ATOM      6  C   UNL     1      -4.824  -8.290 -16.358  1.00  0.00    -0.045 A 
ENDROOT
BRANCH   1   7
ATOM      7  C   UNL     1      -7.185 -11.158 -14.180  1.00  0.00     0.071 C 
ATOM      8  O   UNL     1      -7.727 -12.125 -14.779  1.00  0.00    -0.545 OA
ATOM      9  O   UNL     1      -7.357 -11.034 -12.806  1.00  0.00    -0.545 OA
ENDBRANCH   1   7
BRANCH   6  10
ATOM     10  C   UNL     1      -3.992  -7.272 -17.116  1.00  0.00     0.013 C 
ATOM     11  C   UNL     1      -2.494  -7.490 -16.871  1.00  0.00     0.012 C 
ATOM     12  C   UNL     1      -4.317  -7.299 -18.614  1.00  0.00     0.012 C 
ENDBRANCH   6  10
TORSDOF 2
ENDMDL
MODEL 2
REMARK VINA RESULT:    -4.828     16.066     16.843
REMARK INTER + INTRA:          -5.601
REMARK INTER:                  -5.396
REMARK INTRA:                  -0.206
REMARK UNBOUND:                -0.209
REMARK SMILES CC(C)c1ccc(C(=O)[O-])cc1
REMARK SMILES IDX 7 1 6 2 11 3 5 4 12 5 4 6 8 7 9 8 10 9 2 10 1 11 3 12
REMARK H PARENT
REMARK Flexibility Score: inf
ROOT
ATOM      1  C   UNL     1     -18.973  -1.007 -23.130  1.00  0.00    -0.003 A 
ATOM      2  C   UNL     1     -17.570  -0.992 -23.046  1.00  0.00     0.010 A 
ATOM      3  C   UNL     1     -19.719  -1.348 -21.989  1.00  0.00     0.010 A 
ATOM      4  C   UNL     1     -16.926  -1.311 -21.847  1.00  0.00     0.004 A 
ATOM      5  C   UNL     1     -19.075  -1.667 -20.789  1.00  0.00     0.004 A 
ATOM      6  C   UNL     1     -17.670  -1.652 -20.705  1.00  0.00    -0.045 A 
ENDROOT
BRANCH   1   7
ATOM      7  C   UNL     1     -19.658  -0.669 -24.397  1.00  0.00     0.071 C 
ATOM      8  O   UNL     1     -20.125   0.485 -24.584  1.00  0.00    -0.545 OA
ATOM      9  O   UNL     1     -19.796  -1.623 -25.399  1.00  0.00    -0.545 OA
ENDBRANCH   1   7
BRANCH   6  10
ATOM     10  C   UNL     1     -16.959  -1.995 -19.410  1.00  0.00     0.013 C 
ATOM     11  C   UNL     1     -15.477  -2.302 -19.658  1.00  0.00     0.012 C 
ATOM     12  C   UNL     1     -17.126  -0.875 -18.375  1.00  0.00     0.012 C 
ENDBRANCH   6  10
TORSDOF 2
ENDMDL
MODEL 3
REMARK VINA RESULT:    -4.800     16.115     16.878
REMARK INTER + INTRA:          -5.570
REMARK INTER:                  -5.365
REMARK INTRA:                  -0.205
REMARK UNBOUND:                -0.209
REMARK SMILES CC(C)c1ccc(C(=O)[O-])cc1
REMARK SMILES IDX 7 1 6 2 11 3 5 4 12 5 4 6 8 7 9 8 10 9 2 10 1 11 3 12
REMARK H PARENT
REMARK Flexibility Score: inf
ROOT
ATOM      1  C   UNL     1     -19.021  -0.957 -23.172  1.00  0.00    -0.003 A 
ATOM      2  C   UNL     1     -19.744  -1.306 -22.019  1.00  0.00     0.010 A 
ATOM      3  C   UNL     1     -17.617  -0.965 -23.123  1.00  0.00     0.010 A 
ATOM      4  C   UNL     1     -19.078  -1.656 -20.841  1.00  0.00     0.004 A 
ATOM      5  C   UNL     1     -16.950  -1.315 -21.944  1.00  0.00     0.004 A 
ATOM      6  C   UNL     1     -17.674  -1.664 -20.790  1.00  0.00    -0.045 A 
ENDROOT
BRANCH   1   7
ATOM      7  C   UNL     1     -19.722  -0.588 -24.421  1.00  0.00     0.071 C 
ATOM      8  O   UNL     1     -20.125   0.592 -24.604  1.00  0.00    -0.545 OA
ATOM      9  O   UNL     1     -19.945  -1.537 -25.412  1.00  0.00    -0.545 OA
ENDBRANCH   1   7
BRANCH   6  10
ATOM     10  C   UNL     1     -16.964  -2.047 -19.504  1.00  0.00     0.013 C 
ATOM     11  C   UNL     1     -15.487  -2.367 -19.764  1.00  0.00     0.012 C 
ATOM     12  C   UNL     1     -17.113  -0.949 -18.443  1.00  0.00     0.012 C 
ENDBRANCH   6  10
TORSDOF 2
ENDMDL
MODEL 4
REMARK VINA RESULT:    -4.650      3.360      5.093
REMARK INTER + INTRA:          -5.403
REMARK INTER:                  -5.186
REMARK INTRA:                  -0.217
REMARK UNBOUND:                -0.209
REMARK SMILES CC(C)c1ccc(C(=O)[O-])cc1
REMARK SMILES IDX 7 1 6 2 11 3 5 4 12 5 4 6 8 7 9 8 10 9 2 10 1 11 3 12
REMARK H PARENT
REMARK Flexibility Score: inf
ROOT
ATOM      1  C   UNL     1      -4.346  -8.168 -17.212  1.00  0.00    -0.003 A 
ATOM      2  C   UNL     1      -4.902  -7.671 -16.020  1.00  0.00     0.010 A 
ATOM      3  C   UNL     1      -4.650  -9.481 -17.609  1.00  0.00     0.010 A 
ATOM      4  C   UNL     1      -5.744  -8.471 -15.242  1.00  0.00     0.004 A 
ATOM      5  C   UNL     1      -5.493 -10.280 -16.831  1.00  0.00     0.004 A 
ATOM      6  C   UNL     1      -6.050  -9.783 -15.638  1.00  0.00    -0.045 A 
ENDROOT
BRANCH   1   7
ATOM      7  C   UNL     1      -3.454  -7.325 -18.038  1.00  0.00     0.071 C 
ATOM      8  O   UNL     1      -3.544  -7.338 -19.295  1.00  0.00    -0.545 OA
ATOM      9  O   UNL     1      -2.505  -6.504 -17.439  1.00  0.00    -0.545 OA
ENDBRANCH   1   7
BRANCH   6  10
ATOM     10  C   UNL     1      -6.967 -10.640 -14.785  1.00  0.00     0.013 C 
ATOM     11  C   UNL     1      -6.821 -12.125 -15.136  1.00  0.00     0.012 C 
ATOM     12  C   UNL     1      -6.716 -10.398 -13.291  1.00  0.00     0.012 C 
ENDBRANCH   6  10
TORSDOF 2
ENDMDL
MODEL 5
REMARK VINA RESULT:    -4.610      1.415      2.168
REMARK INTER + INTRA:          -5.358
REMARK INTER:                  -5.148
REMARK INTRA:                  -0.210
REMARK UNBOUND:                -0.209
REMARK SMILES CC(C)c1ccc(C(=O)[O-])cc1
REMARK SMILES IDX 7 1 6 2 11 3 5 4 12 5 4 6 8 7 9 8 10 9 2 10 1 11 3 12
REMARK H PARENT
REMARK Flexibility Score: inf
ROOT
ATOM      1  C   UNL     1      -5.747  -9.840 -14.363  1.00  0.00    -0.003 A 
ATOM      2  C   UNL     1      -4.520 -10.522 -14.433  1.00  0.00     0.010 A 
ATOM      3  C   UNL     1      -5.845  -8.557 -14.926  1.00  0.00     0.010 A 
ATOM      4  C   UNL     1      -3.414  -9.933 -15.053  1.00  0.00     0.004 A 
ATOM      5  C   UNL     1      -4.739  -7.968 -15.546  1.00  0.00     0.004 A 
ATOM      6  C   UNL     1      -3.511  -8.650 -15.617  1.00  0.00    -0.045 A 
ENDROOT
BRANCH   1   7
ATOM      7  C   UNL     1      -6.920 -10.460 -13.708  1.00  0.00     0.071 C 
ATOM      8  O   UNL     1      -8.081 -10.262 -14.154  1.00  0.00    -0.545 OA
ATOM      9  O   UNL     1      -6.756 -11.272 -12.591  1.00  0.00    -0.545 OA
ENDBRANCH   1   7
BRANCH   6  10
ATOM     10  C   UNL     1      -2.303  -8.023 -16.288  1.00  0.00     0.013 C 
ATOM     11  C   UNL     1      -2.714  -6.844 -17.177  1.00  0.00     0.012 C 
ATOM     12  C   UNL     1      -1.255  -7.596 -15.252  1.00  0.00     0.012 C 
ENDBRANCH   6  10
TORSDOF 2
ENDMDL
MODEL 6
REMARK VINA RESULT:    -4.559      1.657      2.134
REMARK INTER + INTRA:          -5.301
REMARK INTER:                  -5.101
REMARK INTRA:                  -0.199
REMARK UNBOUND:                -0.209
REMARK SMILES CC(C)c1ccc(C(=O)[O-])cc1
REMARK SMILES IDX 7 1 6 2 11 3 5 4 12 5 4 6 8 7 9 8 10 9 2 10 1 11 3 12
REMARK H PARENT
REMARK Flexibility Score: inf
ROOT
ATOM      1  C   UNL     1      -6.009 -10.395 -14.165  1.00  0.00    -0.003 A 
ATOM      2  C   UNL     1      -6.097  -9.025 -14.465  1.00  0.00     0.010 A 
ATOM      3  C   UNL     1      -4.759 -11.031 -14.253  1.00  0.00     0.010 A 
ATOM      4  C   UNL     1      -4.961  -8.306 -14.846  1.00  0.00     0.004 A 
ATOM      5  C   UNL     1      -3.622 -10.312 -14.633  1.00  0.00     0.004 A 
ATOM      6  C   UNL     1      -3.710  -8.940 -14.934  1.00  0.00    -0.045 A 
ENDROOT
BRANCH   1   7
ATOM      7  C   UNL     1      -7.209 -11.159 -13.761  1.00  0.00     0.071 C 
ATOM      8  O   UNL     1      -7.699 -11.021 -12.609  1.00  0.00    -0.545 OA
ATOM      9  O   UNL     1      -7.815 -12.041 -14.650  1.00  0.00    -0.545 OA
ENDBRANCH   1   7
BRANCH   6  10
ATOM     10  C   UNL     1      -2.484  -8.147 -15.347  1.00  0.00     0.013 C 
ATOM     11  C   UNL     1      -1.413  -8.175 -14.251  1.00  0.00     0.012 C 
ATOM     12  C   UNL     1      -1.923  -8.654 -16.682  1.00  0.00     0.012 C 
ENDBRANCH   6  10
TORSDOF 2
ENDMDL
MODEL 7
REMARK VINA RESULT:    -4.541     14.460     15.049
REMARK INTER + INTRA:          -5.280
REMARK INTER:                  -5.071
REMARK INTRA:                  -0.209
REMARK UNBOUND:                -0.209
REMARK SMILES CC(C)c1ccc(C(=O)[O-])cc1
REMARK SMILES IDX 7 1 6 2 11 3 5 4 12 5 4 6 8 7 9 8 10 9 2 10 1 11 3 12
REMARK H PARENT
REMARK Flexibility Score: inf
ROOT
ATOM      1  C   UNL     1     -16.717  -1.246 -18.611  1.00  0.00    -0.003 A 
ATOM      2  C   UNL     1     -17.573  -0.256 -19.123  1.00  0.00     0.010 A 
ATOM      3  C   UNL     1     -16.115  -2.152 -19.501  1.00  0.00     0.010 A 
ATOM      4  C   UNL     1     -17.822  -0.174 -20.496  1.00  0.00     0.004 A 
ATOM      5  C   UNL     1     -16.364  -2.070 -20.874  1.00  0.00     0.004 A 
ATOM      6  C   UNL     1     -17.221  -1.078 -21.387  1.00  0.00    -0.045 A 
ENDROOT
BRANCH   1   7
ATOM      7  C   UNL     1     -16.450  -1.337 -17.158  1.00  0.00     0.071 C 
ATOM      8  O   UNL     1     -15.353  -1.789 -16.736  1.00  0.00    -0.545 OA
ATOM      9  O   UNL     1     -17.407  -0.922 -16.239  1.00  0.00    -0.545 OA
ENDBRANCH   1   7
BRANCH   6  10
ATOM     10  C   UNL     1     -17.499  -0.977 -22.875  1.00  0.00     0.013 C 
ATOM     11  C   UNL     1     -18.890  -1.526 -23.216  1.00  0.00     0.012 C 
ATOM     12  C   UNL     1     -17.338   0.466 -23.370  1.00  0.00     0.012 C 
ENDBRANCH   6  10
TORSDOF 2
ENDMDL
MODEL 8
REMARK VINA RESULT:    -4.482      3.421      5.248
REMARK INTER + INTRA:          -5.214
REMARK INTER:                  -5.015
REMARK INTRA:                  -0.199
REMARK UNBOUND:                -0.209
REMARK SMILES CC(C)c1ccc(C(=O)[O-])cc1
REMARK SMILES IDX 7 1 6 2 11 3 5 4 12 5 4 6 8 7 9 8 10 9 2 10 1 11 3 12
REMARK H PARENT
REMARK Flexibility Score: inf
ROOT
ATOM      1  C   UNL     1      -3.406  -8.727 -15.117  1.00  0.00    -0.003 A 
ATOM      2  C   UNL     1      -4.622  -8.024 -15.148  1.00  0.00     0.010 A 
ATOM      3  C   UNL     1      -3.412 -10.080 -14.738  1.00  0.00     0.010 A 
ATOM      4  C   UNL     1      -5.819  -8.659 -14.806  1.00  0.00     0.004 A 
ATOM      5  C   UNL     1      -4.609 -10.716 -14.396  1.00  0.00     0.004 A 
ATOM      6  C   UNL     1      -5.827 -10.012 -14.427  1.00  0.00    -0.045 A 
ENDROOT
BRANCH   1   7
ATOM      7  C   UNL     1      -2.136  -8.058 -15.478  1.00  0.00     0.071 C 
ATOM      8  O   UNL     1      -1.311  -7.728 -14.587  1.00  0.00    -0.545 OA
ATOM      9  O   UNL     1      -1.837  -7.786 -16.809  1.00  0.00    -0.545 OA
ENDBRANCH   1   7
BRANCH   6  10
ATOM     10  C   UNL     1      -7.134 -10.690 -14.060  1.00  0.00     0.013 C 
ATOM     11  C   UNL     1      -7.314 -12.000 -14.835  1.00  0.00     0.012 C 
ATOM     12  C   UNL     1      -7.228 -10.924 -12.547  1.00  0.00     0.012 C 
ENDBRANCH   6  10
TORSDOF 2
ENDMDL
