MODEL 1
REMARK VINA RESULT:    -5.932      0.000      0.000
REMARK INTER + INTRA:          -6.487
REMARK INTER:                  -6.452
REMARK INTRA:                  -0.036
REMARK UNBOUND:                -0.036
REMARK SMILES O=C([O-])c1ccc(O)cc1
REMARK SMILES IDX 4 1 5 2 10 3 6 4 9 5 7 6 2 7 1 8 3 9 8 10
REMARK H PARENT 8 11
REMARK Flexibility Score: inf
ROOT
ATOM      1  C   UNL     1      76.711  20.563  30.908  1.00  0.00    -0.003 A 
ATOM      2  C   UNL     1      77.258  21.151  32.063  1.00  0.00     0.014 A 
ATOM      3  C   UNL     1      75.694  19.601  31.049  1.00  0.00     0.014 A 
ATOM      4  C   UNL     1      76.796  20.785  33.331  1.00  0.00     0.047 A 
ATOM      5  C   UNL     1      75.235  19.236  32.318  1.00  0.00     0.047 A 
ATOM      6  C   UNL     1      75.786  19.828  33.463  1.00  0.00     0.115 A 
ENDROOT
BRANCH   1   7
ATOM      7  C   UNL     1      77.201  20.953  29.568  1.00  0.00     0.071 C 
ATOM      8  O   UNL     1      76.846  20.311  28.544  1.00  0.00    -0.545 OA
ATOM      9  O   UNL     1      78.062  22.034  29.419  1.00  0.00    -0.545 OA
ENDBRANCH   1   7
BRANCH   6  10
ATOM     10  O   UNL     1      75.336  19.472  34.732  1.00  0.00    -0.508 OA
ATOM     11  H   UNL     1      75.982  19.242  35.478  1.00  0.00     0.293 HD
ENDBRANCH   6  10
TORSDOF 2
ENDMDL
MODEL 2
REMARK VINA RESULT:    -4.808     12.058     14.021
REMARK INTER + INTRA:          -5.265
REMARK INTER:                  -5.238
REMARK INTRA:                  -0.027
REMARK UNBOUND:                -0.036
REMARK SMILES O=C([O-])c1ccc(O)cc1
REMARK SMILES IDX 4 1 5 2 10 3 6 4 9 5 7 6 2 7 1 8 3 9 8 10
REMARK H PARENT 8 11
REMARK Flexibility Score: inf
ROOT
ATOM      1  C   UNL     1      68.908   8.597  33.321  1.00  0.00    -0.003 A 
ATOM      2  C   UNL     1      70.304   8.431  33.382  1.00  0.00     0.014 A 
ATOM      3  C   UNL     1      68.386   9.838  32.913  1.00  0.00     0.014 A 
ATOM      4  C   UNL     1      71.157   9.485  33.039  1.00  0.00     0.047 A 
ATOM      5  C   UNL     1      69.243  10.889  32.571  1.00  0.00     0.047 A 
ATOM      6  C   UNL     1      70.631  10.715  32.634  1.00  0.00     0.115 A 
ENDROOT
BRANCH   1   7
ATOM      7  C   UNL     1      68.008   7.481  33.684  1.00  0.00     0.071 C 
ATOM      8  O   UNL     1      67.456   7.444  34.816  1.00  0.00    -0.545 OA
ATOM      9  O   UNL     1      67.756   6.455  32.780  1.00  0.00    -0.545 OA
ENDBRANCH   1   7
BRANCH   6  10
ATOM     10  O   UNL     1      71.494  11.755  32.296  1.00  0.00    -0.508 OA
ATOM     11  H   UNL     1      72.483  11.714  32.512  1.00  0.00     0.293 HD
ENDBRANCH   6  10
TORSDOF 2
ENDMDL
MODEL 3
REMARK VINA RESULT:    -4.782     12.016     13.998
REMARK INTER + INTRA:          -5.237
REMARK INTER:                  -5.210
REMARK INTRA:                  -0.027
REMARK UNBOUND:                -0.036
REMARK SMILES O=C([O-])c1ccc(O)cc1
REMARK SMILES IDX 4 1 5 2 10 3 6 4 9 5 7 6 2 7 1 8 3 9 8 10
REMARK H PARENT 8 11
REMARK Flexibility Score: inf
ROOT
ATOM      1  C   UNL     1      68.915   8.643  33.297  1.00  0.00    -0.003 A 
ATOM      2  C   UNL     1      68.398   9.885  32.886  1.00  0.00     0.014 A 
ATOM      3  C   UNL     1      70.310   8.469  33.352  1.00  0.00     0.014 A 
ATOM      4  C   UNL     1      69.260  10.930  32.539  1.00  0.00     0.047 A 
ATOM      5  C   UNL     1      71.169   9.517  33.003  1.00  0.00     0.047 A 
ATOM      6  C   UNL     1      70.645  10.750  32.596  1.00  0.00     0.115 A 
ENDROOT
BRANCH   1   7
ATOM      7  C   UNL     1      68.002   7.539  33.663  1.00  0.00     0.071 C 
ATOM      8  O   UNL     1      67.447   7.514  34.795  1.00  0.00    -0.545 OA
ATOM      9  O   UNL     1      67.742   6.510  32.765  1.00  0.00    -0.545 OA
ENDBRANCH   1   7
BRANCH   6  10
ATOM     10  O   UNL     1      71.490  11.801  32.247  1.00  0.00    -0.508 OA
ATOM     11  H   UNL     1      72.428  11.874  32.623  1.00  0.00     0.293 HD
ENDBRANCH   6  10
TORSDOF 2
ENDMDL
MODEL 4
REMARK VINA RESULT:    -4.777     11.655     12.561
REMARK INTER + INTRA:          -5.231
REMARK INTER:                  -5.202
REMARK INTRA:                  -0.029
REMARK UNBOUND:                -0.036
REMARK SMILES O=C([O-])c1ccc(O)cc1
REMARK SMILES IDX 4 1 5 2 10 3 6 4 9 5 7 6 2 7 1 8 3 9 8 10
REMARK H PARENT 8 11
REMARK Flexibility Score: inf
ROOT
ATOM      1  C   UNL     1      71.865   9.082  32.361  1.00  0.00    -0.003 A 
ATOM      2  C   UNL     1      70.981   8.241  33.059  1.00  0.00     0.014 A 
ATOM      3  C   UNL     1      71.497  10.421  32.134  1.00  0.00     0.014 A 
ATOM      4  C   UNL     1      69.755   8.730  33.521  1.00  0.00     0.047 A 
ATOM      5  C   UNL     1      70.270  10.906  32.597  1.00  0.00     0.047 A 
ATOM      6  C   UNL     1      69.396  10.061  33.291  1.00  0.00     0.115 A 
ENDROOT
BRANCH   1   7
ATOM      7  C   UNL     1      73.162   8.563  31.873  1.00  0.00     0.071 C 
ATOM      8  O   UNL     1      74.007   8.091  32.680  1.00  0.00    -0.545 OA
ATOM      9  O   UNL     1      73.467   8.587  30.517  1.00  0.00    -0.545 OA
ENDBRANCH   1   7
BRANCH   6  10
ATOM     10  O   UNL     1      68.171  10.534  33.758  1.00  0.00    -0.508 OA
ATOM     11  H   UNL     1      68.072  10.920  34.689  1.00  0.00     0.293 HD
ENDBRANCH   6  10
TORSDOF 2
ENDMDL
MODEL 5
REMARK VINA RESULT:    -4.756     12.462     14.114
REMARK INTER + INTRA:          -5.209
REMARK INTER:                  -5.180
REMARK INTRA:                  -0.029
REMARK UNBOUND:                -0.036
REMARK SMILES O=C([O-])c1ccc(O)cc1
REMARK SMILES IDX 4 1 5 2 10 3 6 4 9 5 7 6 2 7 1 8 3 9 8 10
REMARK H PARENT 8 11
REMARK Flexibility Score: inf
ROOT
ATOM      1  C   UNL     1      70.502   8.709  33.352  1.00  0.00    -0.003 A 
ATOM      2  C   UNL     1      70.615   7.311  33.242  1.00  0.00     0.014 A 
ATOM      3  C   UNL     1      69.223   9.295  33.324  1.00  0.00     0.014 A 
ATOM      4  C   UNL     1      69.471   6.517  33.108  1.00  0.00     0.047 A 
ATOM      5  C   UNL     1      68.082   8.498  33.189  1.00  0.00     0.047 A 
ATOM      6  C   UNL     1      68.204   7.107  33.081  1.00  0.00     0.115 A 
ENDROOT
BRANCH   1   7
ATOM      7  C   UNL     1      71.713   9.546  33.493  1.00  0.00     0.071 C 
ATOM      8  O   UNL     1      72.521   9.350  34.440  1.00  0.00    -0.545 OA
ATOM      9  O   UNL     1      71.978  10.564  32.584  1.00  0.00    -0.545 OA
ENDBRANCH   1   7
BRANCH   6  10
ATOM     10  O   UNL     1      67.074   6.303  32.947  1.00  0.00    -0.508 OA
ATOM     11  H   UNL     1      66.790   5.662  33.678  1.00  0.00     0.293 HD
ENDBRANCH   6  10
TORSDOF 2
ENDMDL
MODEL 6
REMARK VINA RESULT:    -4.716     11.633     12.462
REMARK INTER + INTRA:          -5.166
REMARK INTER:                  -5.137
REMARK INTRA:                  -0.029
REMARK UNBOUND:                -0.036
REMARK SMILES O=C([O-])c1ccc(O)cc1
REMARK SMILES IDX 4 1 5 2 10 3 6 4 9 5 7 6 2 7 1 8 3 9 8 10
REMARK H PARENT 8 11
REMARK Flexibility Score: inf
ROOT
ATOM      1  C   UNL     1      71.925   9.081  32.438  1.00  0.00    -0.003 A 
ATOM      2  C   UNL     1      71.627  10.413  32.099  1.00  0.00     0.014 A 
ATOM      3  C   UNL     1      70.991   8.341  33.185  1.00  0.00     0.014 A 
ATOM      4  C   UNL     1      70.418  10.991  32.499  1.00  0.00     0.047 A 
ATOM      5  C   UNL     1      69.783   8.923  33.584  1.00  0.00     0.047 A 
ATOM      6  C   UNL     1      69.495  10.250  33.241  1.00  0.00     0.115 A 
ENDROOT
BRANCH   1   7
ATOM      7  C   UNL     1      73.205   8.471  32.013  1.00  0.00     0.071 C 
ATOM      8  O   UNL     1      74.012   8.015  32.866  1.00  0.00    -0.545 OA
ATOM      9  O   UNL     1      73.536   8.394  30.665  1.00  0.00    -0.545 OA
ENDBRANCH   1   7
BRANCH   6  10
ATOM     10  O   UNL     1      68.295  10.840  33.633  1.00  0.00    -0.508 OA
ATOM     11  H   UNL     1      68.268  11.575  34.330  1.00  0.00     0.293 HD
ENDBRANCH   6  10
TORSDOF 2
ENDMDL
MODEL 7
REMARK VINA RESULT:    -4.556     13.867     14.954
REMARK INTER + INTRA:          -4.992
REMARK INTER:                  -4.959
REMARK INTRA:                  -0.033
REMARK UNBOUND:                -0.036
REMARK SMILES O=C([O-])c1ccc(O)cc1
REMARK SMILES IDX 4 1 5 2 10 3 6 4 9 5 7 6 2 7 1 8 3 9 8 10
REMARK H PARENT 8 11
REMARK Flexibility Score: inf
ROOT
ATOM      1  C   UNL     1      64.228  15.386  37.684  1.00  0.00    -0.003 A 
ATOM      2  C   UNL     1      63.486  16.222  38.538  1.00  0.00     0.014 A 
ATOM      3  C   UNL     1      64.580  15.856  36.406  1.00  0.00     0.014 A 
ATOM      4  C   UNL     1      63.107  17.503  38.121  1.00  0.00     0.047 A 
ATOM      5  C   UNL     1      64.199  17.136  35.992  1.00  0.00     0.047 A 
ATOM      6  C   UNL     1      63.460  17.962  36.849  1.00  0.00     0.115 A 
ENDROOT
BRANCH   1   7
ATOM      7  C   UNL     1      64.628  14.033  38.128  1.00  0.00     0.071 C 
ATOM      8  O   UNL     1      65.702  13.516  37.721  1.00  0.00    -0.545 OA
ATOM      9  O   UNL     1      63.824  13.311  39.003  1.00  0.00    -0.545 OA
ENDBRANCH   1   7
BRANCH   6  10
ATOM     10  O   UNL     1      63.075  19.239  36.448  1.00  0.00    -0.508 OA
ATOM     11  H   UNL     1      63.758  19.941  36.185  1.00  0.00     0.293 HD
ENDBRANCH   6  10
TORSDOF 2
ENDMDL
MODEL 8
REMARK VINA RESULT:    -4.505     12.422     14.185
REMARK INTER + INTRA:          -4.936
REMARK INTER:                  -4.908
REMARK INTRA:                  -0.028
REMARK UNBOUND:                -0.036
REMARK SMILES O=C([O-])c1ccc(O)cc1
REMARK SMILES IDX 4 1 5 2 10 3 6 4 9 5 7 6 2 7 1 8 3 9 8 10
REMARK H PARENT 8 11
REMARK Flexibility Score: inf
ROOT
ATOM      1  C   UNL     1      70.371   7.826  33.303  1.00  0.00    -0.003 A 
ATOM      2  C   UNL     1      68.969   7.739  33.362  1.00  0.00     0.014 A 
ATOM      3  C   UNL     1      70.974   9.094  33.213  1.00  0.00     0.014 A 
ATOM      4  C   UNL     1      68.186   8.898  33.333  1.00  0.00     0.047 A 
ATOM      5  C   UNL     1      70.188  10.250  33.184  1.00  0.00     0.047 A 
ATOM      6  C   UNL     1      68.792  10.155  33.244  1.00  0.00     0.115 A 
ENDROOT
BRANCH   1   7
ATOM      7  C   UNL     1      71.196   6.599  33.334  1.00  0.00     0.071 C 
ATOM      8  O   UNL     1      71.873   6.255  32.327  1.00  0.00    -0.545 OA
ATOM      9  O   UNL     1      71.238   5.805  34.474  1.00  0.00    -0.545 OA
ENDBRANCH   1   7
BRANCH   6  10
ATOM     10  O   UNL     1      67.999  11.300  33.216  1.00  0.00    -0.508 OA
ATOM     11  H   UNL     1      67.023  11.263  32.945  1.00  0.00     0.293 HD
ENDBRANCH   6  10
TORSDOF 2
ENDMDL
MODEL 9
REMARK VINA RESULT:    -4.470     13.911     14.833
REMARK INTER + INTRA:          -4.897
REMARK INTER:                  -4.866
REMARK INTRA:                  -0.031
REMARK UNBOUND:                -0.036
REMARK SMILES O=C([O-])c1ccc(O)cc1
REMARK SMILES IDX 4 1 5 2 10 3 6 4 9 5 7 6 2 7 1 8 3 9 8 10
REMARK H PARENT 8 11
REMARK Flexibility Score: inf
ROOT
ATOM      1  C   UNL     1      64.161  16.203  37.694  1.00  0.00    -0.003 A 
ATOM      2  C   UNL     1      64.359  17.463  37.101  1.00  0.00     0.014 A 
ATOM      3  C   UNL     1      63.470  16.125  38.917  1.00  0.00     0.014 A 
ATOM      4  C   UNL     1      63.874  18.620  37.719  1.00  0.00     0.047 A 
ATOM      5  C   UNL     1      62.987  17.284  39.532  1.00  0.00     0.047 A 
ATOM      6  C   UNL     1      63.188  18.535  38.935  1.00  0.00     0.115 A 
ENDROOT
BRANCH   1   7
ATOM      7  C   UNL     1      64.675  14.981  37.038  1.00  0.00     0.071 C 
ATOM      8  O   UNL     1      64.484  14.785  35.808  1.00  0.00    -0.545 OA
ATOM      9  O   UNL     1      65.376  14.029  37.769  1.00  0.00    -0.545 OA
ENDBRANCH   1   7
BRANCH   6  10
ATOM     10  O   UNL     1      62.711  19.696  39.539  1.00  0.00    -0.508 OA
ATOM     11  H   UNL     1      61.787  19.738  39.952  1.00  0.00     0.293 HD
ENDBRANCH   6  10
TORSDOF 2
ENDMDL
