MODEL 1
REMARK VINA RESULT:    -2.481      0.000      0.000
REMARK INTER + INTRA:           0.347
REMARK INTER:                  -4.728
REMARK INTRA:                   5.075
REMARK UNBOUND:                 5.075
REMARK SMILES C[C@H]1O[C@@H](O[C@H]2[C@@H](O)[C@H](OCCc3ccc(O)c(O)c3)O[C@@H](CO)[C@H]2OC(=O)C=Cc2ccc(O)c(O)c2)[C@@H](O)[C@@H](O)[C@H]1O
REMARK SMILES IDX 6 1 7 2 9 3 21 4 22 5 25 6 5 7 4 8 1 9 2 10 43 11 3 12 41 13
REMARK SMILES IDX 39 14 44 15 42 17 40 19 8 21 26 23 27 24 28 25 29 26 30 27
REMARK SMILES IDX 31 28 38 29 32 30 36 31 33 32 34 33 37 34 35 36 10 38 11 39
REMARK SMILES IDX 12 40 13 41 20 42 14 43 18 44 15 45 16 46 19 47 17 49 23 51
REMARK SMILES IDX 24 52
REMARK H PARENT 44 16 42 18 40 20 8 22 37 35 35 37 19 48 17 50 24 53
REMARK Flexibility Score: inf
ROOT
ATOM      1  C   UNL     1      72.857  39.557  22.424  1.00  0.00     0.199 C 
ATOM      2  C   UNL     1      74.255  38.925  22.695  1.00  0.00     0.203 C 
ATOM      3  C   UNL     1      75.285  39.946  23.244  1.00  0.00     0.282 C 
ATOM      4  O   UNL     1      75.393  41.121  22.446  1.00  0.00    -0.340 OA
ATOM      5  C   UNL     1      74.170  41.681  21.966  1.00  0.00     0.190 C 
ATOM      6  C   UNL     1      72.897  41.082  22.618  1.00  0.00     0.240 C 
ENDROOT
BRANCH   1   7
ATOM      7  O   UNL     1      72.448  39.284  21.087  1.00  0.00    -0.340 OA
BRANCH   7   8
ATOM      8  C   UNL     1      72.018  37.948  20.882  1.00  0.00     0.282 C 
ATOM      9  C   UNL     1      72.483  35.842  17.914  1.00  0.00     0.041 C 
ATOM     10  C   UNL     1      71.948  36.254  19.286  1.00  0.00     0.150 C 
ATOM     11  C   UNL     1      70.418  36.021  19.405  1.00  0.00     0.174 C 
ATOM     12  O   UNL     1      72.264  37.617  19.528  1.00  0.00    -0.344 OA
ATOM     13  C   UNL     1      69.907  36.514  20.777  1.00  0.00     0.179 C 
ATOM     14  C   UNL     1      70.502  37.881  21.179  1.00  0.00     0.202 C 
BRANCH  11  15
ATOM     15  O   UNL     1      69.676  36.599  18.350  1.00  0.00    -0.388 OA
ATOM     16  H   UNL     1      68.710  36.420  18.490  1.00  0.00     0.211 HD
ENDBRANCH  11  15
BRANCH  13  17
ATOM     17  O   UNL     1      68.505  36.582  20.789  1.00  0.00    -0.387 OA
ATOM     18  H   UNL     1      68.213  36.400  21.721  1.00  0.00     0.211 HD
ENDBRANCH  13  17
BRANCH  14  19
ATOM     19  O   UNL     1      69.820  38.960  20.578  1.00  0.00    -0.385 OA
ATOM     20  H   UNL     1      69.863  39.734  21.188  1.00  0.00     0.211 HD
ENDBRANCH  14  19
ENDBRANCH   7   8
ENDBRANCH   1   7
BRANCH   2  21
ATOM     21  O   UNL     1      74.758  38.342  21.517  1.00  0.00    -0.385 OA
ATOM     22  H   UNL     1      74.975  37.400  21.730  1.00  0.00     0.211 HD
ENDBRANCH   2  21
BRANCH   6  23
ATOM     23  O   UNL     1      71.702  41.681  22.116  1.00  0.00    -0.453 OA
BRANCH  23  24
ATOM     24  C   UNL     1      71.489  41.918  20.747  1.00  0.00     0.331 C 
ATOM     25  O   UNL     1      72.468  42.125  19.971  1.00  0.00    -0.247 OA
BRANCH  24  26
ATOM     26  C   UNL     1      70.122  41.975  20.203  1.00  0.00     0.094 C 
ATOM     27  C   UNL     1      69.566  40.941  19.560  1.00  0.00     0.016 C 
BRANCH  27  28
ATOM     28  C   UNL     1      68.134  40.896  19.180  1.00  0.00    -0.021 A 
ATOM     29  C   UNL     1      67.413  39.693  19.050  1.00  0.00     0.058 A 
ATOM     30  C   UNL     1      67.480  42.109  18.916  1.00  0.00     0.012 A 
ATOM     31  C   UNL     1      66.076  39.707  18.629  1.00  0.00     0.157 A 
ATOM     32  C   UNL     1      66.148  42.125  18.503  1.00  0.00     0.051 A 
ATOM     33  C   UNL     1      65.444  40.931  18.348  1.00  0.00     0.157 A 
BRANCH  31  34
ATOM     34  O   UNL     1      65.373  38.510  18.487  1.00  0.00    -0.504 OA
ATOM     35  H   UNL     1      65.285  37.853  19.253  1.00  0.00     0.293 HD
ENDBRANCH  31  34
BRANCH  33  36
ATOM     36  O   UNL     1      64.123  40.978  17.914  1.00  0.00    -0.504 OA
ATOM     37  H   UNL     1      63.675  41.843  17.644  1.00  0.00     0.293 HD
ENDBRANCH  33  36
ENDBRANCH  27  28
ENDBRANCH  24  26
ENDBRANCH  23  24
ENDBRANCH   6  23
BRANCH   3  38
ATOM     38  O   UNL     1      74.938  40.299  24.579  1.00  0.00    -0.350 OA
BRANCH  38  39
ATOM     39  C   UNL     1      75.903  39.876  25.529  1.00  0.00     0.168 C 
BRANCH  39  40
ATOM     40  C   UNL     1      75.252  39.055  26.655  1.00  0.00     0.064 C 
BRANCH  40  41
ATOM     41  C   UNL     1      75.119  39.862  27.923  1.00  0.00    -0.042 A 
ATOM     42  C   UNL     1      76.264  40.267  28.631  1.00  0.00     0.054 A 
ATOM     43  C   UNL     1      73.850  40.188  28.430  1.00  0.00     0.008 A 
ATOM     44  C   UNL     1      76.146  41.000  29.818  1.00  0.00     0.157 A 
ATOM     45  C   UNL     1      73.729  40.914  29.620  1.00  0.00     0.050 A 
ATOM     46  C   UNL     1      74.875  41.324  30.320  1.00  0.00     0.157 A 
BRANCH  44  47
ATOM     47  O   UNL     1      77.307  41.398  30.486  1.00  0.00    -0.504 OA
ATOM     48  H   UNL     1      77.728  40.833  31.217  1.00  0.00     0.293 HD
ENDBRANCH  44  47
BRANCH  46  49
ATOM     49  O   UNL     1      74.753  42.052  31.506  1.00  0.00    -0.504 OA
ATOM     50  H   UNL     1      75.513  42.619  31.857  1.00  0.00     0.293 HD
ENDBRANCH  46  49
ENDBRANCH  40  41
ENDBRANCH  39  40
ENDBRANCH  38  39
ENDBRANCH   3  38
BRANCH   5  51
ATOM     51  C   UNL     1      74.182  41.615  20.424  1.00  0.00     0.192 C 
BRANCH  51  52
ATOM     52  O   UNL     1      75.259  40.847  19.956  1.00  0.00    -0.394 OA
ATOM     53  H   UNL     1      75.120  40.730  18.980  1.00  0.00     0.210 HD
ENDBRANCH  51  52
ENDBRANCH   5  51
TORSDOF 20
ENDMDL
MODEL 2
REMARK VINA RESULT:    -1.083      1.776      2.680
REMARK INTER + INTRA:           3.011
REMARK INTER:                   2.169
REMARK INTRA:                   0.843
REMARK UNBOUND:                 5.075
REMARK SMILES C[C@H]1O[C@@H](O[C@H]2[C@@H](O)[C@H](OCCc3ccc(O)c(O)c3)O[C@@H](CO)[C@H]2OC(=O)C=Cc2ccc(O)c(O)c2)[C@@H](O)[C@@H](O)[C@H]1O
REMARK SMILES IDX 6 1 7 2 9 3 21 4 22 5 25 6 5 7 4 8 1 9 2 10 43 11 3 12 41 13
REMARK SMILES IDX 39 14 44 15 42 17 40 19 8 21 26 23 27 24 28 25 29 26 30 27
REMARK SMILES IDX 31 28 38 29 32 30 36 31 33 32 34 33 37 34 35 36 10 38 11 39
REMARK SMILES IDX 12 40 13 41 20 42 14 43 18 44 15 45 16 46 19 47 17 49 23 51
REMARK SMILES IDX 24 52
REMARK H PARENT 44 16 42 18 40 20 8 22 37 35 35 37 19 48 17 50 24 53
REMARK Flexibility Score: inf
ROOT
ATOM      1  C   UNL     1      73.493  38.817  21.020  1.00  0.00     0.199 C 
ATOM      2  C   UNL     1      74.882  38.706  21.716  1.00  0.00     0.203 C 
ATOM      3  C   UNL     1      75.730  39.999  21.584  1.00  0.00     0.282 C 
ATOM      4  O   UNL     1      75.857  40.454  20.240  1.00  0.00    -0.340 OA
ATOM      5  C   UNL     1      74.677  40.409  19.437  1.00  0.00     0.190 C 
ATOM      6  C   UNL     1      73.376  40.133  20.234  1.00  0.00     0.240 C 
ENDROOT
BRANCH   1   7
ATOM      7  O   UNL     1      73.311  37.733  20.114  1.00  0.00    -0.340 OA
BRANCH   7   8
ATOM      8  C   UNL     1      72.025  37.694  19.519  1.00  0.00     0.282 C 
ATOM      9  C   UNL     1      68.812  38.680  20.991  1.00  0.00     0.041 C 
ATOM     10  C   UNL     1      69.772  38.077  19.965  1.00  0.00     0.150 C 
ATOM     11  C   UNL     1      69.301  36.677  19.485  1.00  0.00     0.174 C 
ATOM     12  O   UNL     1      71.074  37.999  20.524  1.00  0.00    -0.344 OA
ATOM     13  C   UNL     1      70.331  36.073  18.506  1.00  0.00     0.179 C 
ATOM     14  C   UNL     1      71.789  36.266  18.979  1.00  0.00     0.202 C 
BRANCH  11  15
ATOM     15  O   UNL     1      69.022  35.782  20.544  1.00  0.00    -0.388 OA
ATOM     16  H   UNL     1      69.573  34.965  20.436  1.00  0.00     0.211 HD
ENDBRANCH  11  15
BRANCH  13  17
ATOM     17  O   UNL     1      70.074  34.710  18.293  1.00  0.00    -0.387 OA
ATOM     18  H   UNL     1      70.945  34.279  18.083  1.00  0.00     0.211 HD
ENDBRANCH  13  17
BRANCH  14  19
ATOM     19  O   UNL     1      72.176  35.295  19.928  1.00  0.00    -0.385 OA
ATOM     20  H   UNL     1      71.938  34.405  19.575  1.00  0.00     0.211 HD
ENDBRANCH  14  19
ENDBRANCH   7   8
ENDBRANCH   1   7
BRANCH   2  21
ATOM     21  O   UNL     1      75.602  37.620  21.187  1.00  0.00    -0.385 OA
ATOM     22  H   UNL     1      76.102  37.959  20.402  1.00  0.00     0.211 HD
ENDBRANCH   2  21
BRANCH   6  23
ATOM     23  O   UNL     1      72.223  40.110  19.391  1.00  0.00    -0.453 OA
BRANCH  23  24
ATOM     24  C   UNL     1      71.772  41.243  18.690  1.00  0.00     0.331 C 
ATOM     25  O   UNL     1      72.593  42.125  18.299  1.00  0.00    -0.247 OA
BRANCH  24  26
ATOM     26  C   UNL     1      70.336  41.443  18.440  1.00  0.00     0.094 C 
ATOM     27  C   UNL     1      69.479  40.419  18.342  1.00  0.00     0.016 C 
BRANCH  27  28
ATOM     28  C   UNL     1      68.007  40.594  18.292  1.00  0.00    -0.021 A 
ATOM     29  C   UNL     1      67.113  39.516  18.143  1.00  0.00     0.058 A 
ATOM     30  C   UNL     1      67.492  41.895  18.373  1.00  0.00     0.012 A 
ATOM     31  C   UNL     1      65.733  39.745  18.040  1.00  0.00     0.157 A 
ATOM     32  C   UNL     1      66.119  42.125  18.278  1.00  0.00     0.051 A 
ATOM     33  C   UNL     1      65.237  41.059  18.102  1.00  0.00     0.157 A 
BRANCH  31  34
ATOM     34  O   UNL     1      64.855  38.674  17.876  1.00  0.00    -0.504 OA
ATOM     35  H   UNL     1      64.300  38.321  18.646  1.00  0.00     0.293 HD
ENDBRANCH  31  34
BRANCH  33  36
ATOM     36  O   UNL     1      63.875  41.322  17.988  1.00  0.00    -0.504 OA
ATOM     37  H   UNL     1      63.345  41.751  18.735  1.00  0.00     0.293 HD
ENDBRANCH  33  36
ENDBRANCH  27  28
ENDBRANCH  24  26
ENDBRANCH  23  24
ENDBRANCH   6  23
BRANCH   3  38
ATOM     38  O   UNL     1      75.159  41.025  22.389  1.00  0.00    -0.350 OA
BRANCH  38  39
ATOM     39  C   UNL     1      75.997  41.411  23.467  1.00  0.00     0.168 C 
BRANCH  39  40
ATOM     40  C   UNL     1      76.877  40.239  23.934  1.00  0.00     0.064 C 
BRANCH  40  41
ATOM     41  C   UNL     1      76.397  39.678  25.251  1.00  0.00    -0.042 A 
ATOM     42  C   UNL     1      75.625  40.468  26.121  1.00  0.00     0.054 A 
ATOM     43  C   UNL     1      76.746  38.374  25.638  1.00  0.00     0.008 A 
ATOM     44  C   UNL     1      75.192  39.959  27.351  1.00  0.00     0.157 A 
ATOM     45  C   UNL     1      76.322  37.865  26.871  1.00  0.00     0.050 A 
ATOM     46  C   UNL     1      75.543  38.653  27.733  1.00  0.00     0.157 A 
BRANCH  44  47
ATOM     47  O   UNL     1      74.414  40.768  28.183  1.00  0.00    -0.504 OA
ATOM     48  H   UNL     1      74.386  41.777  28.079  1.00  0.00     0.293 HD
ENDBRANCH  44  47
BRANCH  46  49
ATOM     49  O   UNL     1      75.117  38.144  28.962  1.00  0.00    -0.504 OA
ATOM     50  H   UNL     1      74.151  37.895  29.123  1.00  0.00     0.293 HD
ENDBRANCH  46  49
ENDBRANCH  40  41
ENDBRANCH  39  40
ENDBRANCH  38  39
ENDBRANCH   3  38
BRANCH   5  51
ATOM     51  C   UNL     1      74.925  39.430  18.270  1.00  0.00     0.192 C 
BRANCH  51  52
ATOM     52  O   UNL     1      75.874  38.456  18.616  1.00  0.00    -0.394 OA
ATOM     53  H   UNL     1      75.464  37.576  18.410  1.00  0.00     0.210 HD
ENDBRANCH  51  52
ENDBRANCH   5  51
TORSDOF 20
ENDMDL
MODEL 3
REMARK VINA RESULT:    -0.654      2.689      8.067
REMARK INTER + INTRA:           3.829
REMARK INTER:                   2.638
REMARK INTRA:                   1.191
REMARK UNBOUND:                 5.075
REMARK SMILES C[C@H]1O[C@@H](O[C@H]2[C@@H](O)[C@H](OCCc3ccc(O)c(O)c3)O[C@@H](CO)[C@H]2OC(=O)C=Cc2ccc(O)c(O)c2)[C@@H](O)[C@@H](O)[C@H]1O
REMARK SMILES IDX 6 1 7 2 9 3 21 4 22 5 25 6 5 7 4 8 1 9 2 10 43 11 3 12 41 13
REMARK SMILES IDX 39 14 44 15 42 17 40 19 8 21 26 23 27 24 28 25 29 26 30 27
REMARK SMILES IDX 31 28 38 29 32 30 36 31 33 32 34 33 37 34 35 36 10 38 11 39
REMARK SMILES IDX 12 40 13 41 20 42 14 43 18 44 15 45 16 46 19 47 17 49 23 51
REMARK SMILES IDX 24 52
REMARK H PARENT 44 16 42 18 40 20 8 22 37 35 35 37 19 48 17 50 24 53
REMARK Flexibility Score: inf
ROOT
ATOM      1  C   UNL     1      73.057  39.646  19.889  1.00  0.00     0.199 C 
ATOM      2  C   UNL     1      72.875  39.963  18.374  1.00  0.00     0.203 C 
ATOM      3  C   UNL     1      72.749  41.482  18.084  1.00  0.00     0.282 C 
ATOM      4  O   UNL     1      71.752  42.125  18.872  1.00  0.00    -0.340 OA
ATOM      5  C   UNL     1      71.693  41.756  20.251  1.00  0.00     0.190 C 
ATOM      6  C   UNL     1      72.904  40.919  20.738  1.00  0.00     0.240 C 
ENDROOT
BRANCH   1   7
ATOM      7  O   UNL     1      72.079  38.702  20.313  1.00  0.00    -0.340 OA
BRANCH   7   8
ATOM      8  C   UNL     1      71.405  38.058  19.244  1.00  0.00     0.282 C 
ATOM      9  C   UNL     1      67.792  37.825  18.652  1.00  0.00     0.041 C 
ATOM     10  C   UNL     1      69.279  37.537  18.448  1.00  0.00     0.150 C 
ATOM     11  C   UNL     1      69.561  36.017  18.301  1.00  0.00     0.174 C 
ATOM     12  O   UNL     1      70.019  38.077  19.533  1.00  0.00    -0.344 OA
ATOM     13  C   UNL     1      71.079  35.765  18.168  1.00  0.00     0.179 C 
ATOM     14  C   UNL     1      71.912  36.601  19.164  1.00  0.00     0.202 C 
BRANCH  11  15
ATOM     15  O   UNL     1      69.006  35.238  19.341  1.00  0.00    -0.388 OA
ATOM     16  H   UNL     1      68.852  34.314  19.014  1.00  0.00     0.211 HD
ENDBRANCH  11  15
BRANCH  13  17
ATOM     17  O   UNL     1      71.371  34.402  18.327  1.00  0.00    -0.387 OA
ATOM     18  H   UNL     1      71.627  34.268  19.278  1.00  0.00     0.211 HD
ENDBRANCH  13  17
BRANCH  14  19
ATOM     19  O   UNL     1      71.963  36.011  20.446  1.00  0.00    -0.385 OA
ATOM     20  H   UNL     1      72.880  35.682  20.599  1.00  0.00     0.211 HD
ENDBRANCH  14  19
ENDBRANCH   7   8
ENDBRANCH   1   7
BRANCH   2  21
ATOM     21  O   UNL     1      71.741  39.297  17.875  1.00  0.00    -0.385 OA
ATOM     22  H   UNL     1      71.567  39.659  16.970  1.00  0.00     0.211 HD
ENDBRANCH   2  21
BRANCH   6  23
ATOM     23  O   UNL     1      72.806  40.586  22.124  1.00  0.00    -0.453 OA
BRANCH  23  24
ATOM     24  C   UNL     1      73.802  40.921  23.057  1.00  0.00     0.331 C 
ATOM     25  O   UNL     1      74.217  42.114  23.154  1.00  0.00    -0.247 OA
BRANCH  24  26
ATOM     26  C   UNL     1      74.411  39.883  23.904  1.00  0.00     0.094 C 
ATOM     27  C   UNL     1      75.651  40.000  24.396  1.00  0.00     0.016 C 
BRANCH  27  28
ATOM     28  C   UNL     1      76.214  39.073  25.407  1.00  0.00    -0.021 A 
ATOM     29  C   UNL     1      75.623  38.865  26.669  1.00  0.00     0.058 A 
ATOM     30  C   UNL     1      77.402  38.395  25.095  1.00  0.00     0.012 A 
ATOM     31  C   UNL     1      76.233  38.023  27.610  1.00  0.00     0.157 A 
ATOM     32  C   UNL     1      78.005  37.551  26.027  1.00  0.00     0.051 A 
ATOM     33  C   UNL     1      77.434  37.368  27.287  1.00  0.00     0.157 A 
BRANCH  31  34
ATOM     34  O   UNL     1      75.651  37.834  28.863  1.00  0.00    -0.504 OA
ATOM     35  H   UNL     1      74.768  38.267  29.108  1.00  0.00     0.293 HD
ENDBRANCH  31  34
BRANCH  33  36
ATOM     36  O   UNL     1      78.072  36.537  28.203  1.00  0.00    -0.504 OA
ATOM     37  H   UNL     1      79.065  36.596  28.384  1.00  0.00     0.293 HD
ENDBRANCH  33  36
ENDBRANCH  27  28
ENDBRANCH  24  26
ENDBRANCH  23  24
ENDBRANCH   6  23
BRANCH   3  38
ATOM     38  O   UNL     1      74.009  42.111  18.293  1.00  0.00    -0.350 OA
BRANCH  38  39
ATOM     39  C   UNL     1      75.105  41.252  18.025  1.00  0.00     0.168 C 
BRANCH  39  40
ATOM     40  C   UNL     1      76.413  42.047  17.876  1.00  0.00     0.064 C 
BRANCH  40  41
ATOM     41  C   UNL     1      77.252  41.972  19.129  1.00  0.00    -0.042 A 
ATOM     42  C   UNL     1      76.650  42.080  20.395  1.00  0.00     0.054 A 
ATOM     43  C   UNL     1      78.647  41.830  19.045  1.00  0.00     0.008 A 
ATOM     44  C   UNL     1      77.424  42.030  21.560  1.00  0.00     0.157 A 
ATOM     45  C   UNL     1      79.425  41.787  20.207  1.00  0.00     0.050 A 
ATOM     46  C   UNL     1      78.819  41.886  21.469  1.00  0.00     0.157 A 
BRANCH  44  47
ATOM     47  O   UNL     1      76.789  42.125  22.800  1.00  0.00    -0.504 OA
ATOM     48  H   UNL     1      77.238  41.824  23.660  1.00  0.00     0.293 HD
ENDBRANCH  44  47
BRANCH  46  49
ATOM     49  O   UNL     1      79.595  41.840  22.630  1.00  0.00    -0.504 OA
ATOM     50  H   UNL     1      80.478  41.347  22.655  1.00  0.00     0.293 HD
ENDBRANCH  46  49
ENDBRANCH  40  41
ENDBRANCH  39  40
ENDBRANCH  38  39
ENDBRANCH   3  38
BRANCH   5  51
ATOM     51  C   UNL     1      70.322  41.100  20.516  1.00  0.00     0.192 C 
BRANCH  51  52
ATOM     52  O   UNL     1      70.294  40.465  21.766  1.00  0.00    -0.394 OA
ATOM     53  H   UNL     1      69.799  41.068  22.379  1.00  0.00     0.210 HD
ENDBRANCH  51  52
ENDBRANCH   5  51
TORSDOF 20
ENDMDL
