MODEL 1
REMARK VINA RESULT:    -3.632      0.000      0.000
REMARK INTER + INTRA:          -4.382
REMARK INTER:                  -4.270
REMARK INTRA:                  -0.112
REMARK UNBOUND:                -0.112
REMARK SMILES O=C([O-])CCC(=O)[O-]
REMARK SMILES IDX 4 1 2 2 1 3 3 4 5 5 6 6 7 7 8 8
REMARK H PARENT
REMARK Flexibility Score: inf
ROOT
ATOM      1  C   UNL     1     171.595  22.124  36.519  1.00  0.00     0.059 C 
ENDROOT
BRANCH   1   2
ATOM      2  C   UNL     1     172.841  21.446  36.043  1.00  0.00     0.042 C 
ATOM      3  O   UNL     1     173.276  20.428  36.642  1.00  0.00    -0.550 OA
ATOM      4  O   UNL     1     173.494  21.911  34.909  1.00  0.00    -0.550 OA
ENDBRANCH   1   2
BRANCH   1   5
ATOM      5  C   UNL     1     170.444  21.121  36.617  1.00  0.00     0.059 C 
BRANCH   5   6
ATOM      6  C   UNL     1     169.646  21.113  35.352  1.00  0.00     0.042 C 
ATOM      7  O   UNL     1     169.649  22.120  34.596  1.00  0.00    -0.550 OA
ATOM      8  O   UNL     1     168.860  20.014  35.033  1.00  0.00    -0.550 OA
ENDBRANCH   5   6
ENDBRANCH   1   5
TORSDOF 3
ENDMDL
MODEL 2
REMARK VINA RESULT:    -3.524      1.121      3.992
REMARK INTER + INTRA:          -4.254
REMARK INTER:                  -4.185
REMARK INTRA:                  -0.070
REMARK UNBOUND:                -0.112
REMARK SMILES O=C([O-])CCC(=O)[O-]
REMARK SMILES IDX 4 1 2 2 1 3 3 4 5 5 6 6 7 7 8 8
REMARK H PARENT
REMARK Flexibility Score: inf
ROOT
ATOM      1  C   UNL     1     170.882  20.789  35.097  1.00  0.00     0.059 C 
ENDROOT
BRANCH   1   2
ATOM      2  C   UNL     1     169.575  20.595  35.799  1.00  0.00     0.042 C 
ATOM      3  O   UNL     1     169.420  21.015  36.975  1.00  0.00    -0.550 OA
ATOM      4  O   UNL     1     168.512  19.996  35.135  1.00  0.00    -0.550 OA
ENDBRANCH   1   2
BRANCH   1   5
ATOM      5  C   UNL     1     171.764  21.772  35.868  1.00  0.00     0.059 C 
BRANCH   5   6
ATOM      6  C   UNL     1     173.139  21.210  36.052  1.00  0.00     0.042 C 
ATOM      7  O   UNL     1     173.434  20.595  37.110  1.00  0.00    -0.550 OA
ATOM      8  O   UNL     1     174.107  21.409  35.077  1.00  0.00    -0.550 OA
ENDBRANCH   5   6
ENDBRANCH   1   5
TORSDOF 3
ENDMDL
MODEL 3
REMARK VINA RESULT:    -3.211     19.358     20.629
REMARK INTER + INTRA:          -3.886
REMARK INTER:                  -3.703
REMARK INTRA:                  -0.182
REMARK UNBOUND:                -0.112
REMARK SMILES O=C([O-])CCC(=O)[O-]
REMARK SMILES IDX 4 1 2 2 1 3 3 4 5 5 6 6 7 7 8 8
REMARK H PARENT
REMARK Flexibility Score: inf
ROOT
ATOM      1  C   UNL     1     157.268   9.197  29.600  1.00  0.00     0.059 C 
ENDROOT
BRANCH   1   2
ATOM      2  C   UNL     1     157.039   9.775  28.239  1.00  0.00     0.042 C 
ATOM      3  O   UNL     1     158.013  10.178  27.551  1.00  0.00    -0.550 OA
ATOM      4  O   UNL     1     155.756   9.823  27.711  1.00  0.00    -0.550 OA
ENDBRANCH   1   2
BRANCH   1   5
ATOM      5  C   UNL     1     158.032   7.876  29.500  1.00  0.00     0.059 C 
BRANCH   5   6
ATOM      6  C   UNL     1     157.216   6.851  28.778  1.00  0.00     0.042 C 
ATOM      7  O   UNL     1     157.647   6.333  27.715  1.00  0.00    -0.550 OA
ATOM      8  O   UNL     1     155.957   6.505  29.253  1.00  0.00    -0.550 OA
ENDBRANCH   5   6
ENDBRANCH   1   5
TORSDOF 3
ENDMDL
MODEL 4
REMARK VINA RESULT:    -3.193     19.247     20.580
REMARK INTER + INTRA:          -3.865
REMARK INTER:                  -3.689
REMARK INTRA:                  -0.176
REMARK UNBOUND:                -0.112
REMARK SMILES O=C([O-])CCC(=O)[O-]
REMARK SMILES IDX 4 1 2 2 1 3 3 4 5 5 6 6 7 7 8 8
REMARK H PARENT
REMARK Flexibility Score: inf
ROOT
ATOM      1  C   UNL     1     158.044   7.875  29.506  1.00  0.00     0.059 C 
ENDROOT
BRANCH   1   2
ATOM      2  C   UNL     1     157.184   6.881  28.793  1.00  0.00     0.042 C 
ATOM      3  O   UNL     1     157.623   6.277  27.779  1.00  0.00    -0.550 OA
ATOM      4  O   UNL     1     155.917   6.585  29.277  1.00  0.00    -0.550 OA
ENDBRANCH   1   2
BRANCH   1   5
ATOM      5  C   UNL     1     157.331   9.225  29.610  1.00  0.00     0.059 C 
BRANCH   5   6
ATOM      6  C   UNL     1     157.137   9.821  28.252  1.00  0.00     0.042 C 
ATOM      7  O   UNL     1     158.123  10.275  27.613  1.00  0.00    -0.550 OA
ATOM      8  O   UNL     1     155.861   9.922  27.714  1.00  0.00    -0.550 OA
ENDBRANCH   5   6
ENDBRANCH   1   5
TORSDOF 3
ENDMDL
MODEL 5
REMARK VINA RESULT:    -3.192     19.363     20.621
REMARK INTER + INTRA:          -3.864
REMARK INTER:                  -3.700
REMARK INTRA:                  -0.164
REMARK UNBOUND:                -0.112
REMARK SMILES O=C([O-])CCC(=O)[O-]
REMARK SMILES IDX 4 1 2 2 1 3 3 4 5 5 6 6 7 7 8 8
REMARK H PARENT
REMARK Flexibility Score: inf
ROOT
ATOM      1  C   UNL     1     157.235   9.213  29.514  1.00  0.00     0.059 C 
ENDROOT
BRANCH   1   2
ATOM      2  C   UNL     1     156.970   9.785  28.158  1.00  0.00     0.042 C 
ATOM      3  O   UNL     1     155.797   9.815  27.701  1.00  0.00    -0.550 OA
ATOM      4  O   UNL     1     158.012  10.332  27.419  1.00  0.00    -0.550 OA
ENDBRANCH   1   2
BRANCH   1   5
ATOM      5  C   UNL     1     158.070   7.937  29.404  1.00  0.00     0.059 C 
BRANCH   5   6
ATOM      6  C   UNL     1     157.288   6.854  28.731  1.00  0.00     0.042 C 
ATOM      7  O   UNL     1     156.276   6.360  29.294  1.00  0.00    -0.550 OA
ATOM      8  O   UNL     1     157.707   6.355  27.504  1.00  0.00    -0.550 OA
ENDBRANCH   5   6
ENDBRANCH   1   5
TORSDOF 3
ENDMDL
MODEL 6
REMARK VINA RESULT:    -3.175     19.011     20.109
REMARK INTER + INTRA:          -3.843
REMARK INTER:                  -3.727
REMARK INTRA:                  -0.116
REMARK UNBOUND:                -0.112
REMARK SMILES O=C([O-])CCC(=O)[O-]
REMARK SMILES IDX 4 1 2 2 1 3 3 4 5 5 6 6 7 7 8 8
REMARK H PARENT
REMARK Flexibility Score: inf
ROOT
ATOM      1  C   UNL     1     158.447   8.635  28.228  1.00  0.00     0.059 C 
ENDROOT
BRANCH   1   2
ATOM      2  C   UNL     1     158.929   9.508  27.113  1.00  0.00     0.042 C 
ATOM      3  O   UNL     1     159.760   9.065  26.277  1.00  0.00    -0.550 OA
ATOM      4  O   UNL     1     158.423  10.793  26.968  1.00  0.00    -0.550 OA
ENDBRANCH   1   2
BRANCH   1   5
ATOM      5  C   UNL     1     157.214   9.248  28.895  1.00  0.00     0.059 C 
BRANCH   5   6
ATOM      6  C   UNL     1     155.962   8.697  28.290  1.00  0.00     0.042 C 
ATOM      7  O   UNL     1     155.365   9.332  27.382  1.00  0.00    -0.550 OA
ATOM      8  O   UNL     1     155.427   7.507  28.765  1.00  0.00    -0.550 OA
ENDBRANCH   5   6
ENDBRANCH   1   5
TORSDOF 3
ENDMDL
MODEL 7
REMARK VINA RESULT:    -3.137     19.092     19.692
REMARK INTER + INTRA:          -3.799
REMARK INTER:                  -3.685
REMARK INTRA:                  -0.113
REMARK UNBOUND:                -0.112
REMARK SMILES O=C([O-])CCC(=O)[O-]
REMARK SMILES IDX 4 1 2 2 1 3 3 4 5 5 6 6 7 7 8 8
REMARK H PARENT
REMARK Flexibility Score: inf
ROOT
ATOM      1  C   UNL     1     158.446   8.739  28.034  1.00  0.00     0.059 C 
ENDROOT
BRANCH   1   2
ATOM      2  C   UNL     1     157.773  10.001  27.594  1.00  0.00     0.042 C 
ATOM      3  O   UNL     1     158.435  10.903  27.018  1.00  0.00    -0.550 OA
ATOM      4  O   UNL     1     156.405  10.158  27.776  1.00  0.00    -0.550 OA
ENDBRANCH   1   2
BRANCH   1   5
ATOM      5  C   UNL     1     157.488   7.879  28.860  1.00  0.00     0.059 C 
BRANCH   5   6
ATOM      6  C   UNL     1     157.671   8.145  30.320  1.00  0.00     0.042 C 
ATOM      7  O   UNL     1     156.932   8.976  30.910  1.00  0.00    -0.550 OA
ATOM      8  O   UNL     1     158.690   7.510  31.019  1.00  0.00    -0.550 OA
ENDBRANCH   5   6
ENDBRANCH   1   5
TORSDOF 3
ENDMDL
MODEL 8
REMARK VINA RESULT:    -3.079     19.129     20.070
REMARK INTER + INTRA:          -3.731
REMARK INTER:                  -3.642
REMARK INTRA:                  -0.089
REMARK UNBOUND:                -0.112
REMARK SMILES O=C([O-])CCC(=O)[O-]
REMARK SMILES IDX 4 1 2 2 1 3 3 4 5 5 6 6 7 7 8 8
REMARK H PARENT
REMARK Flexibility Score: inf
ROOT
ATOM      1  C   UNL     1     157.456   7.571  28.335  1.00  0.00     0.059 C 
ENDROOT
BRANCH   1   2
ATOM      2  C   UNL     1     157.689   7.048  29.717  1.00  0.00     0.042 C 
ATOM      3  O   UNL     1     157.188   5.949  30.070  1.00  0.00    -0.550 OA
ATOM      4  O   UNL     1     158.500   7.751  30.598  1.00  0.00    -0.550 OA
ENDBRANCH   1   2
BRANCH   1   5
ATOM      5  C   UNL     1     158.454   8.683  28.006  1.00  0.00     0.059 C 
BRANCH   5   6
ATOM      6  C   UNL     1     157.735   9.947  27.656  1.00  0.00     0.042 C 
ATOM      7  O   UNL     1     158.347  10.885  27.081  1.00  0.00    -0.550 OA
ATOM      8  O   UNL     1     156.402  10.109  28.010  1.00  0.00    -0.550 OA
ENDBRANCH   5   6
ENDBRANCH   1   5
TORSDOF 3
ENDMDL
MODEL 9
REMARK VINA RESULT:    -2.909     19.084     20.059
REMARK INTER + INTRA:          -3.532
REMARK INTER:                  -3.442
REMARK INTRA:                  -0.090
REMARK UNBOUND:                -0.112
REMARK SMILES O=C([O-])CCC(=O)[O-]
REMARK SMILES IDX 4 1 2 2 1 3 3 4 5 5 6 6 7 7 8 8
REMARK H PARENT
REMARK Flexibility Score: inf
ROOT
ATOM      1  C   UNL     1     156.702   9.754  28.487  1.00  0.00     0.059 C 
ENDROOT
BRANCH   1   2
ATOM      2  C   UNL     1     158.000   9.760  27.743  1.00  0.00     0.042 C 
ATOM      3  O   UNL     1     158.734   8.737  27.743  1.00  0.00    -0.550 OA
ATOM      4  O   UNL     1     158.374  10.877  27.007  1.00  0.00    -0.550 OA
ENDBRANCH   1   2
BRANCH   1   5
ATOM      5  C   UNL     1     156.921   9.343  29.944  1.00  0.00     0.059 C 
BRANCH   5   6
ATOM      6  C   UNL     1     155.914   8.317  30.356  1.00  0.00     0.042 C 
ATOM      7  O   UNL     1     155.621   7.370  29.580  1.00  0.00    -0.550 OA
ATOM      8  O   UNL     1     155.262   8.434  31.577  1.00  0.00    -0.550 OA
ENDBRANCH   5   6
ENDBRANCH   1   5
TORSDOF 3
ENDMDL
