MODEL 1
REMARK VINA RESULT:     1.451      0.000      0.000
REMARK INTER + INTRA:           3.376
REMARK INTER:                   1.832
REMARK INTRA:                   1.543
REMARK UNBOUND:                 1.543
REMARK SMILES O[C@H]1OC[C@H](Cc2ccc3c(c2)OCO3)[C@H]1Cc1ccc2c(c1)OCO2
REMARK SMILES IDX 4 1 5 2 16 3 2 4 3 5 6 6 7 7 12 8 8 9 11 10 9 11 10 12 13 13
REMARK SMILES IDX 15 14 14 15 17 16 18 17 23 18 19 19 22 20 20 21 21 22 24 23
REMARK SMILES IDX 26 24 25 25 1 26
REMARK H PARENT 1 27
REMARK Flexibility Score: inf
ROOT
ATOM      1  C   UNL     1     -24.814 -13.986 -14.937  1.00  0.00     0.168 C 
ATOM      2  C   UNL     1     -24.200 -15.069 -14.042  1.00  0.00     0.028 C 
ATOM      3  C   UNL     1     -23.334 -15.862 -15.011  1.00  0.00     0.055 C 
ATOM      4  C   UNL     1     -23.021 -14.805 -16.073  1.00  0.00     0.250 C 
ATOM      5  O   UNL     1     -24.099 -13.899 -16.151  1.00  0.00    -0.352 OA
ENDROOT
BRANCH   2   6
ATOM      6  C   UNL     1     -23.358 -14.478 -12.887  1.00  0.00     0.042 C 
BRANCH   6   7
ATOM      7  C   UNL     1     -21.926 -14.950 -12.941  1.00  0.00    -0.044 A 
ATOM      8  C   UNL     1     -20.866 -14.055 -12.671  1.00  0.00     0.054 A 
ATOM      9  C   UNL     1     -21.640 -16.303 -13.255  1.00  0.00     0.008 A 
ATOM     10  C   UNL     1     -19.565 -14.548 -12.723  1.00  0.00     0.166 A 
ATOM     11  C   UNL     1     -20.310 -16.761 -13.298  1.00  0.00     0.051 A 
ATOM     12  C   UNL     1     -19.300 -15.844 -13.024  1.00  0.00     0.165 A 
ATOM     13  O   UNL     1     -18.381 -13.876 -12.497  1.00  0.00    -0.454 OA
ATOM     14  O   UNL     1     -17.933 -16.051 -13.000  1.00  0.00    -0.454 OA
ATOM     15  C   UNL     1     -17.303 -14.808 -12.664  1.00  0.00     0.468 C 
ENDBRANCH   6   7
ENDBRANCH   2   6
BRANCH   3  16
ATOM     16  C   UNL     1     -24.078 -17.099 -15.579  1.00  0.00     0.044 C 
BRANCH  16  17
ATOM     17  C   UNL     1     -24.606 -17.991 -14.483  1.00  0.00    -0.044 A 
ATOM     18  C   UNL     1     -24.140 -17.836 -13.158  1.00  0.00     0.054 A 
ATOM     19  C   UNL     1     -25.588 -18.976 -14.768  1.00  0.00     0.008 A 
ATOM     20  C   UNL     1     -24.673 -18.664 -12.175  1.00  0.00     0.166 A 
ATOM     21  C   UNL     1     -26.100 -19.792 -13.744  1.00  0.00     0.051 A 
ATOM     22  C   UNL     1     -25.613 -19.600 -12.456  1.00  0.00     0.165 A 
ATOM     23  O   UNL     1     -24.380 -18.698 -10.825  1.00  0.00    -0.454 OA
ATOM     24  O   UNL     1     -25.959 -20.269 -11.297  1.00  0.00    -0.454 OA
ATOM     25  C   UNL     1     -25.186 -19.720 -10.221  1.00  0.00     0.468 C 
ENDBRANCH  16  17
ENDBRANCH   3  16
BRANCH   4  26
ATOM     26  O   UNL     1     -22.740 -15.362 -17.333  1.00  0.00    -0.368 OA
ATOM     27  H   UNL     1     -22.262 -16.219 -17.182  1.00  0.00     0.213 HD
ENDBRANCH   4  26
TORSDOF 5
ENDMDL
MODEL 2
REMARK VINA RESULT:     2.967      2.496      6.257
REMARK INTER + INTRA:           5.291
REMARK INTER:                   5.817
REMARK INTRA:                  -0.526
REMARK UNBOUND:                 1.543
REMARK SMILES O[C@H]1OC[C@H](Cc2ccc3c(c2)OCO3)[C@H]1Cc1ccc2c(c1)OCO2
REMARK SMILES IDX 4 1 5 2 16 3 2 4 3 5 6 6 7 7 12 8 8 9 11 10 9 11 10 12 13 13
REMARK SMILES IDX 15 14 14 15 17 16 18 17 23 18 19 19 22 20 20 21 21 22 24 23
REMARK SMILES IDX 26 24 25 25 1 26
REMARK H PARENT 1 27
REMARK Flexibility Score: inf
ROOT
ATOM      1  C   UNL     1     -18.740 -16.716 -13.188  1.00  0.00     0.168 C 
ATOM      2  C   UNL     1     -19.697 -15.535 -13.385  1.00  0.00     0.028 C 
ATOM      3  C   UNL     1     -18.825 -14.330 -13.061  1.00  0.00     0.055 C 
ATOM      4  C   UNL     1     -17.430 -14.868 -13.394  1.00  0.00     0.250 C 
ATOM      5  O   UNL     1     -17.405 -16.258 -13.159  1.00  0.00    -0.352 OA
ENDROOT
BRANCH   2   6
ATOM      6  C   UNL     1     -20.254 -15.457 -14.827  1.00  0.00     0.042 C 
BRANCH   6   7
ATOM      7  C   UNL     1     -21.716 -15.822 -14.881  1.00  0.00    -0.044 A 
ATOM      8  C   UNL     1     -22.153 -17.094 -14.448  1.00  0.00     0.054 A 
ATOM      9  C   UNL     1     -22.662 -14.880 -15.362  1.00  0.00     0.008 A 
ATOM     10  C   UNL     1     -23.516 -17.372 -14.510  1.00  0.00     0.166 A 
ATOM     11  C   UNL     1     -24.031 -15.202 -15.408  1.00  0.00     0.051 A 
ATOM     12  C   UNL     1     -24.415 -16.466 -14.969  1.00  0.00     0.165 A 
ATOM     13  O   UNL     1     -24.175 -18.529 -14.144  1.00  0.00    -0.454 OA
ATOM     14  O   UNL     1     -25.685 -17.008 -14.915  1.00  0.00    -0.454 OA
ATOM     15  C   UNL     1     -25.576 -18.337 -14.388  1.00  0.00     0.468 C 
ENDBRANCH   6   7
ENDBRANCH   2   6
BRANCH   3  16
ATOM     16  C   UNL     1     -18.971 -13.886 -11.583  1.00  0.00     0.044 C 
BRANCH  16  17
ATOM     17  C   UNL     1     -20.410 -13.903 -11.130  1.00  0.00    -0.044 A 
ATOM     18  C   UNL     1     -20.719 -13.899  -9.751  1.00  0.00     0.054 A 
ATOM     19  C   UNL     1     -21.464 -13.903 -12.082  1.00  0.00     0.008 A 
ATOM     20  C   UNL     1     -22.060 -13.890  -9.380  1.00  0.00     0.166 A 
ATOM     21  C   UNL     1     -22.806 -13.894 -11.664  1.00  0.00     0.051 A 
ATOM     22  C   UNL     1     -23.060 -13.887 -10.297  1.00  0.00     0.165 A 
ATOM     23  O   UNL     1     -22.602 -13.883  -8.109  1.00  0.00    -0.454 OA
ATOM     24  O   UNL     1     -24.280 -13.875  -9.649  1.00  0.00    -0.454 OA
ATOM     25  C   UNL     1     -24.032 -13.875  -8.236  1.00  0.00     0.468 C 
ENDBRANCH  16  17
ENDBRANCH   3  16
BRANCH   4  26
ATOM     26  O   UNL     1     -16.409 -14.218 -12.680  1.00  0.00    -0.368 OA
ATOM     27  H   UNL     1     -16.146 -13.412 -13.197  1.00  0.00     0.213 HD
ENDBRANCH   4  26
TORSDOF 5
ENDMDL
