MODEL 1
REMARK VINA RESULT:    73.242      0.000      0.000
REMARK INTER + INTRA:         161.468
REMARK INTER:                 154.595
REMARK INTRA:                   6.873
REMARK UNBOUND:                 6.873
REMARK SMILES CCC(=O)CCCCC[C@H]1NC(=O)[C@H]2CCCCN2C(=O)[C@H]([C@H](C)CC)NC(=O)[C@@H](Cc2cn(OC)c3ccccc23)NC1=O
REMARK SMILES IDX 9 1 10 2 44 3 43 4 45 6 30 7 28 8 27 9 29 11 22 12 23 14
REMARK SMILES IDX 24 15 25 16 26 17 31 18 32 19 33 20 42 21 34 22 37 23 41 24
REMARK SMILES IDX 38 25 40 26 39 27 35 28 36 29 11 30 12 31 13 33 14 34 19 35
REMARK SMILES IDX 15 36 18 37 16 38 17 39 20 40 21 41 8 43 7 44 6 45 5 46 3 47
REMARK SMILES IDX 4 48 2 49 1 50
REMARK H PARENT 43 5 27 10 11 32
REMARK Flexibility Score: 80.00
ROOT
ATOM      1  C   UNL     1       6.418  18.622  23.397  1.00  0.00     0.035 C 
ENDROOT
BRANCH   1   2
ATOM      2  C   UNL     1       5.869  17.570  24.387  1.00  0.00     0.171 C 
BRANCH   2   3
ATOM      3  C   UNL     1       4.940  18.169  25.413  1.00  0.00     0.243 C 
ATOM      4  N   UNL     1       4.029  17.324  26.132  1.00  0.00    -0.342 N 
ATOM      5  H   UNL     1       3.665  16.472  25.647  1.00  0.00     0.164 HD
ATOM      6  O   UNL     1       5.022  19.394  25.700  1.00  0.00    -0.273 OA
BRANCH   4   7
ATOM      7  C   UNL     1       3.874  17.389  27.591  1.00  0.00     0.175 C 
BRANCH   7   8
ATOM      8  C   UNL     1       5.174  17.879  28.206  1.00  0.00     0.243 C 
ATOM      9  N   UNL     1       5.686  17.371  29.454  1.00  0.00    -0.342 N 
ATOM     10  H   UNL     1       5.231  16.549  29.898  1.00  0.00     0.164 HD
ATOM     11  O   UNL     1       5.844  18.733  27.563  1.00  0.00    -0.273 OA
BRANCH   9  12
ATOM     12  C   UNL     1       6.889  17.879  30.136  1.00  0.00     0.174 CG0
ATOM     13  G   UNL     1       8.150  17.212  29.604  1.00  0.00     0.000 G0
BRANCH  12  14
ATOM     14  C   UNL     1       6.692  17.878  31.687  1.00  0.00     0.018 C 
ATOM     15  C   UNL     1       6.462  19.304  32.229  1.00  0.00     0.010 C 
BRANCH  14  16
ATOM     16  C   UNL     1       7.808  17.130  32.458  1.00  0.00     0.002 C 
ATOM     17  C   UNL     1       7.321  15.842  33.125  1.00  0.00     0.004 C 
ENDBRANCH  14  16
ENDBRANCH  12  14
ENDBRANCH   9  12
ENDBRANCH   7   8
BRANCH   7  18
ATOM     18  C   UNL     1       2.615  18.218  27.955  1.00  0.00     0.073 C 
BRANCH  18  19
ATOM     19  C   UNL     1       1.802  18.614  26.749  1.00  0.00    -0.016 A 
ATOM     20  C   UNL     1       1.324  19.891  26.457  1.00  0.00     0.134 A 
ATOM     21  C   UNL     1       1.268  17.781  25.774  1.00  0.00     0.006 A 
ATOM     22  N   UNL     1       0.564  19.853  25.336  1.00  0.00    -0.191 N 
ATOM     23  C   UNL     1       0.532  18.572  24.928  1.00  0.00     0.087 A 
ATOM     24  C   UNL     1       1.369  16.402  25.580  1.00  0.00     0.011 A 
ATOM     25  C   UNL     1      -0.146  18.046  23.829  1.00  0.00     0.030 A 
ATOM     26  C   UNL     1       0.694  15.842  24.481  1.00  0.00     0.001 A 
ATOM     27  C   UNL     1      -0.058  16.660  23.607  1.00  0.00     0.002 A 
BRANCH  22  28
ATOM     28  O   UNL     1      -0.095  20.904  24.727  1.00  0.00    -0.417 OA
ATOM     29  C   UNL     1      -1.430  21.267  25.063  1.00  0.00     0.313 C 
ENDBRANCH  22  28
ENDBRANCH  18  19
ENDBRANCH   7  18
ENDBRANCH   4   7
ENDBRANCH   2   3
BRANCH   2  30
ATOM     30  N   UNL     1       6.949  16.848  25.073  1.00  0.00    -0.343 N 
ATOM     31  C   UNL     1       7.797  17.436  26.075  1.00  0.00     0.243 C 
ATOM     32  H   UNL     1       6.968  15.809  24.968  1.00  0.00     0.164 HD
ATOM     33  O   UNL     1       8.075  18.664  26.024  1.00  0.00    -0.273 OA
BRANCH  31  34
ATOM     34  C   UNL     1       8.299  16.590  27.226  1.00  0.00     0.174 C 
ATOM     35  N   UNL     1       8.740  17.449  28.341  1.00  0.00    -0.329 N 
ATOM     36  C   UNL     1       9.442  15.628  26.825  1.00  0.00     0.035 C 
ATOM     37  C   UNL     1       9.981  18.211  28.139  1.00  0.00     0.120 C 
ATOM     38  C   UNL     1      10.807  16.330  26.679  1.00  0.00     0.004 C 
ATOM     39  C   UNL     1      11.129  17.233  27.877  1.00  0.00     0.022 C 
BRANCH  35  40
ATOM     40  C   UNL     1       8.202  17.246  29.671  1.00  0.00     0.246 CG0
ATOM     41  O   UNL     1       8.852  16.550  30.498  1.00  0.00    -0.272 OA
ATOM     42  G   UNL     1       6.869  17.857  30.081  1.00  0.00     0.000 G0
ENDBRANCH  35  40
ENDBRANCH  31  34
ENDBRANCH   2  30
ENDBRANCH   1   2
BRANCH   1  43
ATOM     43  C   UNL     1       5.337  19.193  22.461  1.00  0.00     0.003 C 
BRANCH  43  44
ATOM     44  C   UNL     1       4.129  19.752  23.229  1.00  0.00     0.001 C 
BRANCH  44  45
ATOM     45  C   UNL     1       3.675  21.090  22.623  1.00  0.00     0.008 C 
BRANCH  45  46
ATOM     46  C   UNL     1       4.832  21.860  21.971  1.00  0.00     0.075 C 
BRANCH  46  47
ATOM     47  C   UNL     1       5.138  23.148  22.690  1.00  0.00     0.132 C 
ATOM     48  O   UNL     1       5.668  24.069  22.084  1.00  0.00    -0.300 OA
BRANCH  47  49
ATOM     49  C   UNL     1       4.754  23.335  24.135  1.00  0.00     0.072 C 
ATOM     50  C   UNL     1       5.774  22.671  25.058  1.00  0.00     0.012 C 
ENDBRANCH  47  49
ENDBRANCH  46  47
ENDBRANCH  45  46
ENDBRANCH  44  45
ENDBRANCH  43  44
ENDBRANCH   1  43
TORSDOF 12
ENDMDL
MODEL 2
REMARK VINA RESULT:    75.258      1.166      1.916
REMARK INTER + INTRA:         165.724
REMARK INTER:                 153.922
REMARK INTRA:                  11.801
REMARK UNBOUND:                 6.873
REMARK SMILES CCC(=O)CCCCC[C@H]1NC(=O)[C@H]2CCCCN2C(=O)[C@H]([C@H](C)CC)NC(=O)[C@@H](Cc2cn(OC)c3ccccc23)NC1=O
REMARK SMILES IDX 9 1 10 2 44 3 43 4 45 6 30 7 28 8 27 9 29 11 22 12 23 14
REMARK SMILES IDX 24 15 25 16 26 17 31 18 32 19 33 20 42 21 34 22 37 23 41 24
REMARK SMILES IDX 38 25 40 26 39 27 35 28 36 29 11 30 12 31 13 33 14 34 19 35
REMARK SMILES IDX 15 36 18 37 16 38 17 39 20 40 21 41 8 43 7 44 6 45 5 46 3 47
REMARK SMILES IDX 4 48 2 49 1 50
REMARK H PARENT 43 5 27 10 11 32
REMARK Flexibility Score: 80.00
ROOT
ATOM      1  C   UNL     1       6.327  18.704  23.629  1.00  0.00     0.035 C 
ENDROOT
BRANCH   1   2
ATOM      2  C   UNL     1       5.897  17.420  24.375  1.00  0.00     0.171 C 
BRANCH   2   3
ATOM      3  C   UNL     1       4.684  17.634  25.245  1.00  0.00     0.243 C 
ATOM      4  N   UNL     1       4.444  16.765  26.362  1.00  0.00    -0.342 N 
ATOM      5  H   UNL     1       4.769  15.774  26.291  1.00  0.00     0.164 HD
ATOM      6  O   UNL     1       3.930  18.624  25.044  1.00  0.00    -0.273 OA
BRANCH   4   7
ATOM      7  C   UNL     1       4.108  17.272  27.700  1.00  0.00     0.175 C 
BRANCH   7   8
ATOM      8  C   UNL     1       5.352  17.877  28.328  1.00  0.00     0.243 C 
ATOM      9  N   UNL     1       5.841  17.484  29.625  1.00  0.00    -0.342 N 
ATOM     10  H   UNL     1       5.415  16.667  30.107  1.00  0.00     0.164 HD
ATOM     11  O   UNL     1       5.998  18.725  27.653  1.00  0.00    -0.273 OA
BRANCH   9  12
ATOM     12  C   UNL     1       6.984  18.106  30.314  1.00  0.00     0.174 CG0
ATOM     13  G   UNL     1       8.305  17.514  29.841  1.00  0.00     0.000 G0
BRANCH  12  14
ATOM     14  C   UNL     1       6.746  18.150  31.859  1.00  0.00     0.018 C 
ATOM     15  C   UNL     1       6.634  19.601  32.372  1.00  0.00     0.010 C 
BRANCH  14  16
ATOM     16  C   UNL     1       7.767  17.317  32.673  1.00  0.00     0.002 C 
ATOM     17  C   UNL     1       7.340  15.860  32.865  1.00  0.00     0.004 C 
ENDBRANCH  14  16
ENDBRANCH  12  14
ENDBRANCH   9  12
ENDBRANCH   7   8
BRANCH   7  18
ATOM     18  C   UNL     1       2.881  18.216  27.617  1.00  0.00     0.073 C 
BRANCH  18  19
ATOM     19  C   UNL     1       1.953  17.877  26.479  1.00  0.00    -0.016 A 
ATOM     20  C   UNL     1       1.923  16.681  25.764  1.00  0.00     0.134 A 
ATOM     21  C   UNL     1       1.047  18.718  25.843  1.00  0.00     0.006 A 
ATOM     22  N   UNL     1       1.016  16.767  24.761  1.00  0.00    -0.191 N 
ATOM     23  C   UNL     1       0.490  18.003  24.812  1.00  0.00     0.087 A 
ATOM     24  C   UNL     1       0.685  20.044  26.090  1.00  0.00     0.011 A 
ATOM     25  C   UNL     1      -0.467  18.557  23.963  1.00  0.00     0.030 A 
ATOM     26  C   UNL     1      -0.277  20.630  25.249  1.00  0.00     0.001 A 
ATOM     27  C   UNL     1      -0.853  19.890  24.191  1.00  0.00     0.002 A 
BRANCH  22  28
ATOM     28  O   UNL     1       0.699  15.800  23.825  1.00  0.00    -0.417 OA
ATOM     29  C   UNL     1       1.680  14.946  23.245  1.00  0.00     0.313 C 
ENDBRANCH  22  28
ENDBRANCH  18  19
ENDBRANCH   7  18
ENDBRANCH   4   7
ENDBRANCH   2   3
BRANCH   2  30
ATOM     30  N   UNL     1       6.988  16.869  25.189  1.00  0.00    -0.343 N 
ATOM     31  C   UNL     1       7.542  17.528  26.341  1.00  0.00     0.243 C 
ATOM     32  H   UNL     1       7.233  15.864  25.037  1.00  0.00     0.164 HD
ATOM     33  O   UNL     1       7.568  18.787  26.394  1.00  0.00    -0.273 OA
BRANCH  31  34
ATOM     34  C   UNL     1       8.030  16.706  27.515  1.00  0.00     0.174 C 
ATOM     35  N   UNL     1       8.737  17.565  28.484  1.00  0.00    -0.329 N 
ATOM     36  C   UNL     1       8.941  15.528  27.099  1.00  0.00     0.035 C 
ATOM     37  C   UNL     1      10.054  18.077  28.077  1.00  0.00     0.120 C 
ATOM     38  C   UNL     1      10.377  15.964  26.742  1.00  0.00     0.004 C 
ATOM     39  C   UNL     1      10.985  16.894  27.800  1.00  0.00     0.022 C 
BRANCH  35  40
ATOM     40  C   UNL     1       8.335  17.572  29.876  1.00  0.00     0.246 CG0
ATOM     41  O   UNL     1       9.138  17.142  30.750  1.00  0.00    -0.272 OA
ATOM     42  G   UNL     1       6.966  18.088  30.296  1.00  0.00     0.000 G0
ENDBRANCH  35  40
ENDBRANCH  31  34
ENDBRANCH   2  30
ENDBRANCH   1   2
BRANCH   1  43
ATOM     43  C   UNL     1       5.247  19.802  23.644  1.00  0.00     0.003 C 
BRANCH  43  44
ATOM     44  C   UNL     1       4.719  20.129  22.239  1.00  0.00     0.001 C 
BRANCH  44  45
ATOM     45  C   UNL     1       3.261  20.609  22.308  1.00  0.00     0.008 C 
BRANCH  45  46
ATOM     46  C   UNL     1       3.092  21.847  23.199  1.00  0.00     0.075 C 
BRANCH  46  47
ATOM     47  C   UNL     1       4.334  22.699  23.235  1.00  0.00     0.132 C 
ATOM     48  O   UNL     1       5.047  22.774  22.244  1.00  0.00    -0.300 OA
BRANCH  47  49
ATOM     49  C   UNL     1       4.685  23.501  24.462  1.00  0.00     0.072 C 
ATOM     50  C   UNL     1       6.128  23.239  24.887  1.00  0.00     0.012 C 
ENDBRANCH  47  49
ENDBRANCH  46  47
ENDBRANCH  45  46
ENDBRANCH  44  45
ENDBRANCH  43  44
ENDBRANCH   1  43
TORSDOF 12
ENDMDL
MODEL 3
REMARK VINA RESULT:    75.274      2.654      7.789
REMARK INTER + INTRA:         165.757
REMARK INTER:                 160.970
REMARK INTRA:                   4.788
REMARK UNBOUND:                 6.873
REMARK SMILES CCC(=O)CCCCC[C@H]1NC(=O)[C@H]2CCCCN2C(=O)[C@H]([C@H](C)CC)NC(=O)[C@@H](Cc2cn(OC)c3ccccc23)NC1=O
REMARK SMILES IDX 9 1 10 2 44 3 43 4 45 6 30 7 28 8 27 9 29 11 22 12 23 14
REMARK SMILES IDX 24 15 25 16 26 17 31 18 32 19 33 20 42 21 34 22 37 23 41 24
REMARK SMILES IDX 38 25 40 26 39 27 35 28 36 29 11 30 12 31 13 33 14 34 19 35
REMARK SMILES IDX 15 36 18 37 16 38 17 39 20 40 21 41 8 43 7 44 6 45 5 46 3 47
REMARK SMILES IDX 4 48 2 49 1 50
REMARK H PARENT 43 5 27 10 11 32
REMARK Flexibility Score: 80.00
ROOT
ATOM      1  C   UNL     1       4.366  20.418  21.950  1.00  0.00     0.035 C 
ENDROOT
BRANCH   1   2
ATOM      2  C   UNL     1       4.316  20.341  23.493  1.00  0.00     0.171 C 
BRANCH   2   3
ATOM      3  C   UNL     1       5.168  19.226  24.046  1.00  0.00     0.243 C 
ATOM      4  N   UNL     1       5.649  19.296  25.396  1.00  0.00    -0.342 N 
ATOM      5  H   UNL     1       5.841  20.242  25.799  1.00  0.00     0.164 HD
ATOM      6  O   UNL     1       5.384  18.195  23.353  1.00  0.00    -0.273 OA
BRANCH   4   7
ATOM      7  C   UNL     1       5.539  18.171  26.334  1.00  0.00     0.175 C 
BRANCH   7   8
ATOM      8  C   UNL     1       4.079  17.970  26.700  1.00  0.00     0.243 C 
ATOM      9  N   UNL     1       3.109  17.440  25.775  1.00  0.00    -0.342 N 
ATOM     10  H   UNL     1       3.428  17.056  24.863  1.00  0.00     0.164 HD
ATOM     11  O   UNL     1       3.726  18.240  27.881  1.00  0.00    -0.273 OA
BRANCH   9  12
ATOM     12  C   UNL     1       1.668  17.315  26.051  1.00  0.00     0.174 CG0
ATOM     13  G   UNL     1       0.902  16.882  24.808  1.00  0.00     0.000 G0
BRANCH  12  14
ATOM     14  C   UNL     1       1.134  18.578  26.803  1.00  0.00     0.018 C 
ATOM     15  C   UNL     1       0.199  18.188  27.967  1.00  0.00     0.010 C 
BRANCH  14  16
ATOM     16  C   UNL     1       0.498  19.639  25.870  1.00  0.00     0.002 C 
ATOM     17  C   UNL     1      -0.820  20.200  26.406  1.00  0.00     0.004 C 
ENDBRANCH  14  16
ENDBRANCH  12  14
ENDBRANCH   9  12
ENDBRANCH   7   8
BRANCH   7  18
ATOM     18  C   UNL     1       6.254  16.924  25.753  1.00  0.00     0.073 C 
BRANCH  18  19
ATOM     19  C   UNL     1       7.594  16.661  26.393  1.00  0.00    -0.016 A 
ATOM     20  C   UNL     1       8.397  15.538  26.198  1.00  0.00     0.134 A 
ATOM     21  C   UNL     1       8.224  17.407  27.381  1.00  0.00     0.006 A 
ATOM     22  N   UNL     1       9.488  15.608  26.999  1.00  0.00    -0.191 N 
ATOM     23  C   UNL     1       9.376  16.740  27.715  1.00  0.00     0.087 A 
ATOM     24  C   UNL     1       7.865  18.602  28.008  1.00  0.00     0.011 A 
ATOM     25  C   UNL     1      10.251  17.222  28.688  1.00  0.00     0.030 A 
ATOM     26  C   UNL     1       8.727  19.111  28.995  1.00  0.00     0.001 A 
ATOM     27  C   UNL     1       9.916  18.426  29.332  1.00  0.00     0.002 A 
BRANCH  22  28
ATOM     28  O   UNL     1      10.514  14.688  27.109  1.00  0.00    -0.417 OA
ATOM     29  C   UNL     1      10.744  13.679  26.131  1.00  0.00     0.313 C 
ENDBRANCH  22  28
ENDBRANCH  18  19
ENDBRANCH   7  18
ENDBRANCH   4   7
ENDBRANCH   2   3
BRANCH   2  30
ATOM     30  N   UNL     1       2.941  20.194  23.988  1.00  0.00    -0.343 N 
ATOM     31  C   UNL     1       1.799  19.991  23.138  1.00  0.00     0.243 C 
ATOM     32  H   UNL     1       2.821  20.030  25.014  1.00  0.00     0.164 HD
ATOM     33  O   UNL     1       1.781  20.487  21.980  1.00  0.00    -0.273 OA
BRANCH  31  34
ATOM     34  C   UNL     1       0.651  19.126  23.614  1.00  0.00     0.174 C 
ATOM     35  N   UNL     1       1.048  17.706  23.625  1.00  0.00    -0.329 N 
ATOM     36  C   UNL     1      -0.636  19.302  22.774  1.00  0.00     0.035 C 
ATOM     37  C   UNL     1       1.218  17.055  22.318  1.00  0.00     0.120 C 
ATOM     38  C   UNL     1      -0.581  18.572  21.416  1.00  0.00     0.004 C 
ATOM     39  C   UNL     1      -0.106  17.120  21.553  1.00  0.00     0.022 C 
BRANCH  35  40
ATOM     40  C   UNL     1       0.894  16.918  24.832  1.00  0.00     0.246 CG0
ATOM     41  O   UNL     1       0.089  15.946  24.832  1.00  0.00    -0.272 OA
ATOM     42  G   UNL     1       1.684  17.247  26.091  1.00  0.00     0.000 G0
ENDBRANCH  35  40
ENDBRANCH  31  34
ENDBRANCH   2  30
ENDBRANCH   1   2
BRANCH   1  43
ATOM     43  C   UNL     1       4.451  21.862  21.420  1.00  0.00     0.003 C 
BRANCH  43  44
ATOM     44  C   UNL     1       5.826  22.501  21.667  1.00  0.00     0.001 C 
BRANCH  44  45
ATOM     45  C   UNL     1       5.669  23.915  22.247  1.00  0.00     0.008 C 
BRANCH  45  46
ATOM     46  C   UNL     1       6.389  24.080  23.593  1.00  0.00     0.075 C 
BRANCH  46  47
ATOM     47  C   UNL     1       5.647  23.417  24.724  1.00  0.00     0.132 C 
ATOM     48  O   UNL     1       4.481  23.082  24.569  1.00  0.00    -0.300 OA
BRANCH  47  49
ATOM     49  C   UNL     1       6.339  23.115  26.028  1.00  0.00     0.072 C 
ATOM     50  C   UNL     1       6.997  21.737  25.986  1.00  0.00     0.012 C 
ENDBRANCH  47  49
ENDBRANCH  46  47
ENDBRANCH  45  46
ENDBRANCH  44  45
ENDBRANCH  43  44
ENDBRANCH   1  43
TORSDOF 12
ENDMDL
MODEL 4
REMARK VINA RESULT:    75.956      2.945      8.324
REMARK INTER + INTRA:         167.196
REMARK INTER:                 164.526
REMARK INTRA:                   2.670
REMARK UNBOUND:                 6.873
REMARK SMILES CCC(=O)CCCCC[C@H]1NC(=O)[C@H]2CCCCN2C(=O)[C@H]([C@H](C)CC)NC(=O)[C@@H](Cc2cn(OC)c3ccccc23)NC1=O
REMARK SMILES IDX 9 1 10 2 44 3 43 4 45 6 30 7 28 8 27 9 29 11 22 12 23 14
REMARK SMILES IDX 24 15 25 16 26 17 31 18 32 19 33 20 42 21 34 22 37 23 41 24
REMARK SMILES IDX 38 25 40 26 39 27 35 28 36 29 11 30 12 31 13 33 14 34 19 35
REMARK SMILES IDX 15 36 18 37 16 38 17 39 20 40 21 41 8 43 7 44 6 45 5 46 3 47
REMARK SMILES IDX 4 48 2 49 1 50
REMARK H PARENT 43 5 27 10 11 32
REMARK Flexibility Score: 80.00
ROOT
ATOM      1  C   UNL     1       7.070  23.074  26.003  1.00  0.00     0.035 C 
ENDROOT
BRANCH   1   2
ATOM      2  C   UNL     1       6.022  21.997  26.363  1.00  0.00     0.171 C 
BRANCH   2   3
ATOM      3  C   UNL     1       6.601  20.605  26.373  1.00  0.00     0.243 C 
ATOM      4  N   UNL     1       5.788  19.496  26.786  1.00  0.00    -0.342 N 
ATOM      5  H   UNL     1       5.044  19.672  27.499  1.00  0.00     0.164 HD
ATOM      6  O   UNL     1       7.767  20.404  25.940  1.00  0.00    -0.273 OA
BRANCH   4   7
ATOM      7  C   UNL     1       5.703  18.248  26.014  1.00  0.00     0.175 C 
BRANCH   7   8
ATOM      8  C   UNL     1       4.858  18.487  24.775  1.00  0.00     0.243 C 
ATOM      9  N   UNL     1       3.490  18.938  24.839  1.00  0.00    -0.342 N 
ATOM     10  H   UNL     1       3.092  19.239  25.751  1.00  0.00     0.164 HD
ATOM     11  O   UNL     1       5.404  18.325  23.650  1.00  0.00    -0.273 OA
BRANCH   9  12
ATOM     12  C   UNL     1       2.603  19.094  23.674  1.00  0.00     0.174 CG0
ATOM     13  G   UNL     1       3.039  20.260  22.798  1.00  0.00     0.000 G0
BRANCH  12  14
ATOM     14  C   UNL     1       1.101  19.062  24.109  1.00  0.00     0.018 C 
ATOM     15  C   UNL     1       0.942  18.544  25.554  1.00  0.00     0.010 C 
BRANCH  14  16
ATOM     16  C   UNL     1       0.178  18.317  23.113  1.00  0.00     0.002 C 
ATOM     17  C   UNL     1      -0.441  17.046  23.700  1.00  0.00     0.004 C 
ENDBRANCH  14  16
ENDBRANCH  12  14
ENDBRANCH   9  12
ENDBRANCH   7   8
BRANCH   7  18
ATOM     18  C   UNL     1       7.125  17.691  25.749  1.00  0.00     0.073 C 
BRANCH  18  19
ATOM     19  C   UNL     1       8.008  17.723  26.970  1.00  0.00    -0.016 A 
ATOM     20  C   UNL     1       9.398  17.839  26.983  1.00  0.00     0.134 A 
ATOM     21  C   UNL     1       7.636  17.518  28.292  1.00  0.00     0.006 A 
ATOM     22  N   UNL     1       9.855  17.748  28.255  1.00  0.00    -0.191 N 
ATOM     23  C   UNL     1       8.784  17.552  29.044  1.00  0.00     0.087 A 
ATOM     24  C   UNL     1       6.387  17.298  28.878  1.00  0.00     0.011 A 
ATOM     25  C   UNL     1       8.765  17.377  30.427  1.00  0.00     0.030 A 
ATOM     26  C   UNL     1       6.338  17.117  30.272  1.00  0.00     0.001 A 
ATOM     27  C   UNL     1       7.521  17.158  31.044  1.00  0.00     0.002 A 
BRANCH  22  28
ATOM     28  O   UNL     1      11.167  17.805  28.686  1.00  0.00    -0.417 OA
ATOM     29  C   UNL     1      11.588  17.254  29.930  1.00  0.00     0.313 C 
ENDBRANCH  22  28
ENDBRANCH  18  19
ENDBRANCH   7  18
ENDBRANCH   4   7
ENDBRANCH   2   3
BRANCH   2  30
ATOM     30  N   UNL     1       4.866  22.036  25.457  1.00  0.00    -0.343 N 
ATOM     31  C   UNL     1       4.728  22.968  24.371  1.00  0.00     0.243 C 
ATOM     32  H   UNL     1       4.213  21.220  25.485  1.00  0.00     0.164 HD
ATOM     33  O   UNL     1       5.233  24.119  24.461  1.00  0.00    -0.273 OA
BRANCH  31  34
ATOM     34  C   UNL     1       4.032  22.540  23.096  1.00  0.00     0.174 C 
ATOM     35  N   UNL     1       4.164  21.083  22.903  1.00  0.00    -0.329 N 
ATOM     36  C   UNL     1       4.547  23.281  21.840  1.00  0.00     0.035 C 
ATOM     37  C   UNL     1       5.498  20.581  22.544  1.00  0.00     0.120 C 
ATOM     38  C   UNL     1       5.907  22.755  21.336  1.00  0.00     0.004 C 
ATOM     39  C   UNL     1       5.935  21.225  21.226  1.00  0.00     0.022 C 
BRANCH  35  40
ATOM     40  C   UNL     1       2.984  20.268  22.698  1.00  0.00     0.246 CG0
ATOM     41  O   UNL     1       2.238  20.506  21.708  1.00  0.00    -0.272 OA
ATOM     42  G   UNL     1       2.633  19.137  23.654  1.00  0.00     0.000 G0
ENDBRANCH  35  40
ENDBRANCH  31  34
ENDBRANCH   2  30
ENDBRANCH   1   2
BRANCH   1  43
ATOM     43  C   UNL     1       7.502  23.925  27.212  1.00  0.00     0.003 C 
BRANCH  43  44
ATOM     44  C   UNL     1       7.517  23.122  28.522  1.00  0.00     0.001 C 
BRANCH  44  45
ATOM     45  C   UNL     1       6.688  23.835  29.602  1.00  0.00     0.008 C 
BRANCH  45  46
ATOM     46  C   UNL     1       5.686  22.896  30.287  1.00  0.00     0.075 C 
BRANCH  46  47
ATOM     47  C   UNL     1       6.032  22.646  31.732  1.00  0.00     0.132 C 
ATOM     48  O   UNL     1       6.494  23.553  32.410  1.00  0.00    -0.300 OA
BRANCH  47  49
ATOM     49  C   UNL     1       5.770  21.305  32.368  1.00  0.00     0.072 C 
ATOM     50  C   UNL     1       7.082  20.595  32.697  1.00  0.00     0.012 C 
ENDBRANCH  47  49
ENDBRANCH  46  47
ENDBRANCH  45  46
ENDBRANCH  44  45
ENDBRANCH  43  44
ENDBRANCH   1  43
TORSDOF 12
ENDMDL
MODEL 5
REMARK VINA RESULT:    76.160      2.909      6.833
REMARK INTER + INTRA:         167.627
REMARK INTER:                 164.604
REMARK INTRA:                   3.023
REMARK UNBOUND:                 6.873
REMARK SMILES CCC(=O)CCCCC[C@H]1NC(=O)[C@H]2CCCCN2C(=O)[C@H]([C@H](C)CC)NC(=O)[C@@H](Cc2cn(OC)c3ccccc23)NC1=O
REMARK SMILES IDX 9 1 10 2 44 3 43 4 45 6 30 7 28 8 27 9 29 11 22 12 23 14
REMARK SMILES IDX 24 15 25 16 26 17 31 18 32 19 33 20 42 21 34 22 37 23 41 24
REMARK SMILES IDX 38 25 40 26 39 27 35 28 36 29 11 30 12 31 13 33 14 34 19 35
REMARK SMILES IDX 15 36 18 37 16 38 17 39 20 40 21 41 8 43 7 44 6 45 5 46 3 47
REMARK SMILES IDX 4 48 2 49 1 50
REMARK H PARENT 43 5 27 10 11 32
REMARK Flexibility Score: 80.00
ROOT
ATOM      1  C   UNL     1       9.495  16.701  27.972  1.00  0.00     0.035 C 
ENDROOT
BRANCH   1   2
ATOM      2  C   UNL     1       8.226  17.522  28.297  1.00  0.00     0.171 C 
BRANCH   2   3
ATOM      3  C   UNL     1       7.128  17.317  27.284  1.00  0.00     0.243 C 
ATOM      4  N   UNL     1       5.758  17.280  27.712  1.00  0.00    -0.342 N 
ATOM      5  H   UNL     1       5.554  16.912  28.669  1.00  0.00     0.164 HD
ATOM      6  O   UNL     1       7.405  17.263  26.055  1.00  0.00    -0.273 OA
BRANCH   4   7
ATOM      7  C   UNL     1       4.701  18.051  27.044  1.00  0.00     0.175 C 
BRANCH   7   8
ATOM      8  C   UNL     1       5.329  18.946  25.990  1.00  0.00     0.243 C 
ATOM      9  N   UNL     1       5.724  20.306  26.256  1.00  0.00    -0.342 N 
ATOM     10  H   UNL     1       5.704  20.664  27.231  1.00  0.00     0.164 HD
ATOM     11  O   UNL     1       5.552  18.448  24.852  1.00  0.00    -0.273 OA
BRANCH   9  12
ATOM     12  C   UNL     1       6.249  21.240  25.245  1.00  0.00     0.174 CG0
ATOM     13  G   UNL     1       7.520  21.924  25.730  1.00  0.00     0.000 G0
BRANCH  12  14
ATOM     14  C   UNL     1       5.113  22.168  24.701  1.00  0.00     0.018 C 
ATOM     15  C   UNL     1       4.381  21.523  23.506  1.00  0.00     0.010 C 
BRANCH  14  16
ATOM     16  C   UNL     1       5.581  23.612  24.393  1.00  0.00     0.002 C 
ATOM     17  C   UNL     1       5.473  23.977  22.911  1.00  0.00     0.004 C 
ENDBRANCH  14  16
ENDBRANCH  12  14
ENDBRANCH   9  12
ENDBRANCH   7   8
BRANCH   7  18
ATOM     18  C   UNL     1       3.593  17.096  26.528  1.00  0.00     0.073 C 
BRANCH  18  19
ATOM     19  C   UNL     1       2.379  17.826  26.013  1.00  0.00    -0.016 A 
ATOM     20  C   UNL     1       1.778  18.944  26.591  1.00  0.00     0.134 A 
ATOM     21  C   UNL     1       1.557  17.463  24.953  1.00  0.00     0.006 A 
ATOM     22  N   UNL     1       0.662  19.276  25.899  1.00  0.00    -0.191 N 
ATOM     23  C   UNL     1       0.531  18.375  24.910  1.00  0.00     0.087 A 
ATOM     24  C   UNL     1       1.632  16.406  24.044  1.00  0.00     0.011 A 
ATOM     25  C   UNL     1      -0.483  18.299  23.955  1.00  0.00     0.030 A 
ATOM     26  C   UNL     1       0.622  16.303  23.071  1.00  0.00     0.001 A 
ATOM     27  C   UNL     1      -0.430  17.246  23.025  1.00  0.00     0.002 A 
BRANCH  22  28
ATOM     28  O   UNL     1      -0.215  20.313  26.159  1.00  0.00    -0.417 OA
ATOM     29  C   UNL     1      -1.080  20.849  25.164  1.00  0.00     0.313 C 
ENDBRANCH  22  28
ENDBRANCH  18  19
ENDBRANCH   7  18
ENDBRANCH   4   7
ENDBRANCH   2   3
BRANCH   2  30
ATOM     30  N   UNL     1       8.518  18.956  28.413  1.00  0.00    -0.343 N 
ATOM     31  C   UNL     1       9.599  19.614  27.728  1.00  0.00     0.243 C 
ATOM     32  H   UNL     1       7.786  19.556  28.856  1.00  0.00     0.164 HD
ATOM     33  O   UNL     1      10.662  18.985  27.479  1.00  0.00    -0.273 OA
BRANCH  31  34
ATOM     34  C   UNL     1       9.429  21.040  27.250  1.00  0.00     0.174 C 
ATOM     35  N   UNL     1       8.735  21.067  25.949  1.00  0.00    -0.329 N 
ATOM     36  C   UNL     1      10.764  21.813  27.145  1.00  0.00     0.035 C 
ATOM     37  C   UNL     1       9.494  20.588  24.784  1.00  0.00     0.120 C 
ATOM     38  C   UNL     1      11.589  21.439  25.897  1.00  0.00     0.004 C 
ATOM     39  C   UNL     1      10.745  21.452  24.615  1.00  0.00     0.022 C 
BRANCH  35  40
ATOM     40  C   UNL     1       7.542  21.871  25.778  1.00  0.00     0.246 CG0
ATOM     41  O   UNL     1       7.583  23.100  26.066  1.00  0.00    -0.272 OA
ATOM     42  G   UNL     1       6.248  21.259  25.260  1.00  0.00     0.000 G0
ENDBRANCH  35  40
ENDBRANCH  31  34
ENDBRANCH   2  30
ENDBRANCH   1   2
BRANCH   1  43
ATOM     43  C   UNL     1       9.286  15.693  26.826  1.00  0.00     0.003 C 
BRANCH  43  44
ATOM     44  C   UNL     1      10.576  14.947  26.454  1.00  0.00     0.001 C 
BRANCH  44  45
ATOM     45  C   UNL     1      10.305  13.443  26.296  1.00  0.00     0.008 C 
BRANCH  45  46
ATOM     46  C   UNL     1      11.353  12.579  27.011  1.00  0.00     0.075 C 
BRANCH  46  47
ATOM     47  C   UNL     1      10.770  11.294  27.538  1.00  0.00     0.132 C 
ATOM     48  O   UNL     1      10.892  11.014  28.723  1.00  0.00    -0.300 OA
BRANCH  47  49
ATOM     49  C   UNL     1       9.995  10.370  26.635  1.00  0.00     0.072 C 
ATOM     50  C   UNL     1       9.088   9.449  27.450  1.00  0.00     0.012 C 
ENDBRANCH  47  49
ENDBRANCH  46  47
ENDBRANCH  45  46
ENDBRANCH  44  45
ENDBRANCH  43  44
ENDBRANCH   1  43
TORSDOF 12
ENDMDL
