MODEL 1
REMARK VINA RESULT:    -6.464      0.000      0.000
REMARK INTER + INTRA:          -7.961
REMARK INTER:                  -7.787
REMARK INTRA:                  -0.174
REMARK UNBOUND:                -0.174
REMARK SMILES O=c1c(O)c(-c2ccc(O)c(O)c2)oc2cc(O)cc(O)c12
REMARK SMILES IDX 5 1 3 2 2 3 1 4 22 5 20 6 19 7 17 8 16 9 15 10 14 11 6 12
REMARK SMILES IDX 7 13 8 14 9 15 13 16 11 17 10 18 12 20 4 22 21 24 18 26
REMARK H PARENT 10 19 12 21 4 23 21 25 18 27
REMARK Flexibility Score: inf
ROOT
ATOM      1  C   UNL     1     -31.165  28.214  11.994  1.00  0.00     0.180 A 
ATOM      2  C   UNL     1     -31.501  27.283  12.991  1.00  0.00     0.208 A 
ATOM      3  C   UNL     1     -32.800  26.749  13.015  1.00  0.00     0.238 A 
ATOM      4  O   UNL     1     -33.078  25.875  13.877  1.00  0.00    -0.285 OA
ATOM      5  C   UNL     1     -33.750  27.165  12.052  1.00  0.00     0.111 A 
ATOM      6  C   UNL     1     -35.105  26.719  12.005  1.00  0.00     0.134 A 
ATOM      7  C   UNL     1     -35.920  27.096  10.931  1.00  0.00     0.093 A 
ATOM      8  C   UNL     1     -35.447  27.954   9.936  1.00  0.00     0.123 A 
ATOM      9  C   UNL     1     -34.144  28.442  10.003  1.00  0.00     0.094 A 
ATOM     10  C   UNL     1     -33.296  28.055  11.043  1.00  0.00     0.146 A 
ATOM     11  O   UNL     1     -32.059  28.535  11.065  1.00  0.00    -0.452 OA
ENDROOT
BRANCH   1  12
ATOM     12  C   UNL     1     -29.825  28.840  11.919  1.00  0.00     0.025 A 
ATOM     13  C   UNL     1     -29.399  29.686  12.957  1.00  0.00     0.016 A 
ATOM     14  C   UNL     1     -28.131  30.271  12.918  1.00  0.00     0.051 A 
ATOM     15  C   UNL     1     -27.265  30.006  11.849  1.00  0.00     0.157 A 
ATOM     16  C   UNL     1     -28.944  28.562  10.859  1.00  0.00     0.062 A 
ATOM     17  C   UNL     1     -27.670  29.148  10.820  1.00  0.00     0.158 A 
BRANCH  15  18
ATOM     18  O   UNL     1     -26.000  30.590  11.805  1.00  0.00    -0.504 OA
ATOM     19  H   UNL     1     -25.831  31.518  12.174  1.00  0.00     0.293 HD
ENDBRANCH  15  18
BRANCH  17  20
ATOM     20  O   UNL     1     -26.801  28.876   9.765  1.00  0.00    -0.504 OA
ATOM     21  H   UNL     1     -25.848  29.220   9.760  1.00  0.00     0.293 HD
ENDBRANCH  17  20
ENDBRANCH   1  12
BRANCH   2  22
ATOM     22  O   UNL     1     -30.541  26.870  13.920  1.00  0.00    -0.502 OA
ATOM     23  H   UNL     1     -30.481  27.263  14.851  1.00  0.00     0.293 HD
ENDBRANCH   2  22
BRANCH   6  24
ATOM     24  O   UNL     1     -35.703  25.934  12.997  1.00  0.00    -0.507 OA
ATOM     25  H   UNL     1     -36.533  25.377  12.865  1.00  0.00     0.293 HD
ENDBRANCH   6  24
BRANCH   8  26
ATOM     26  O   UNL     1     -36.270  28.337   8.877  1.00  0.00    -0.508 OA
ATOM     27  H   UNL     1     -35.936  28.949   8.142  1.00  0.00     0.293 HD
ENDBRANCH   8  26
TORSDOF 6
ENDMDL
MODEL 2
REMARK VINA RESULT:    -6.421     16.921     18.539
REMARK INTER + INTRA:          -7.909
REMARK INTER:                  -7.894
REMARK INTRA:                  -0.014
REMARK UNBOUND:                -0.174
REMARK SMILES O=c1c(O)c(-c2ccc(O)c(O)c2)oc2cc(O)cc(O)c12
REMARK SMILES IDX 5 1 3 2 2 3 1 4 22 5 20 6 19 7 17 8 16 9 15 10 14 11 6 12
REMARK SMILES IDX 7 13 8 14 9 15 13 16 11 17 10 18 12 20 4 22 21 24 18 26
REMARK H PARENT 10 19 12 21 4 23 21 25 18 27
REMARK Flexibility Score: inf
ROOT
ATOM      1  C   UNL     1     -30.673  45.201  15.105  1.00  0.00     0.180 A 
ATOM      2  C   UNL     1     -31.209  45.363  13.816  1.00  0.00     0.208 A 
ATOM      3  C   UNL     1     -30.338  45.385  12.714  1.00  0.00     0.238 A 
ATOM      4  O   UNL     1     -30.827  45.475  11.558  1.00  0.00    -0.285 OA
ATOM      5  C   UNL     1     -28.943  45.260  12.917  1.00  0.00     0.111 A 
ATOM      6  C   UNL     1     -27.965  45.307  11.878  1.00  0.00     0.134 A 
ATOM      7  C   UNL     1     -26.623  45.042  12.178  1.00  0.00     0.093 A 
ATOM      8  C   UNL     1     -26.215  44.795  13.491  1.00  0.00     0.123 A 
ATOM      9  C   UNL     1     -27.153  44.805  14.521  1.00  0.00     0.094 A 
ATOM     10  C   UNL     1     -28.503  45.030  14.248  1.00  0.00     0.146 A 
ATOM     11  O   UNL     1     -29.366  45.021  15.257  1.00  0.00    -0.452 OA
ENDROOT
BRANCH   1  12
ATOM     12  C   UNL     1     -31.524  45.194  16.317  1.00  0.00     0.025 A 
ATOM     13  C   UNL     1     -31.251  46.096  17.358  1.00  0.00     0.016 A 
ATOM     14  C   UNL     1     -32.053  46.122  18.502  1.00  0.00     0.051 A 
ATOM     15  C   UNL     1     -33.150  45.258  18.613  1.00  0.00     0.157 A 
ATOM     16  C   UNL     1     -32.638  44.342  16.425  1.00  0.00     0.062 A 
ATOM     17  C   UNL     1     -33.445  44.369  17.572  1.00  0.00     0.158 A 
BRANCH  15  18
ATOM     18  O   UNL     1     -33.951  45.278  19.754  1.00  0.00    -0.504 OA
ATOM     19  H   UNL     1     -34.860  45.726  19.756  1.00  0.00     0.293 HD
ENDBRANCH  15  18
BRANCH  17  20
ATOM     20  O   UNL     1     -34.544  43.519  17.680  1.00  0.00    -0.504 OA
ATOM     21  H   UNL     1     -34.868  42.968  16.895  1.00  0.00     0.293 HD
ENDBRANCH  17  20
ENDBRANCH   1  12
BRANCH   2  22
ATOM     22  O   UNL     1     -32.591  45.463  13.636  1.00  0.00    -0.502 OA
ATOM     23  H   UNL     1     -33.112  46.298  13.875  1.00  0.00     0.293 HD
ENDBRANCH   2  22
BRANCH   6  24
ATOM     24  O   UNL     1     -28.253  45.636  10.549  1.00  0.00    -0.507 OA
ATOM     25  H   UNL     1     -28.990  45.218  10.002  1.00  0.00     0.293 HD
ENDBRANCH   6  24
BRANCH   8  26
ATOM     26  O   UNL     1     -24.875  44.547  13.785  1.00  0.00    -0.508 OA
ATOM     27  H   UNL     1     -24.156  44.620  13.075  1.00  0.00     0.293 HD
ENDBRANCH   8  26
TORSDOF 6
ENDMDL
MODEL 3
REMARK VINA RESULT:    -6.362      1.568      2.984
REMARK INTER + INTRA:          -7.838
REMARK INTER:                  -7.601
REMARK INTRA:                  -0.237
REMARK UNBOUND:                -0.174
REMARK SMILES O=c1c(O)c(-c2ccc(O)c(O)c2)oc2cc(O)cc(O)c12
REMARK SMILES IDX 5 1 3 2 2 3 1 4 22 5 20 6 19 7 17 8 16 9 15 10 14 11 6 12
REMARK SMILES IDX 7 13 8 14 9 15 13 16 11 17 10 18 12 20 4 22 21 24 18 26
REMARK H PARENT 10 19 12 21 4 23 21 25 18 27
REMARK Flexibility Score: inf
ROOT
ATOM      1  C   UNL     1     -31.616  28.865  11.296  1.00  0.00     0.180 A 
ATOM      2  C   UNL     1     -32.255  28.678  10.058  1.00  0.00     0.208 A 
ATOM      3  C   UNL     1     -33.468  27.970  10.018  1.00  0.00     0.238 A 
ATOM      4  O   UNL     1     -34.062  27.852   8.915  1.00  0.00    -0.285 OA
ATOM      5  C   UNL     1     -34.017  27.447  11.212  1.00  0.00     0.111 A 
ATOM      6  C   UNL     1     -35.220  26.682  11.284  1.00  0.00     0.134 A 
ATOM      7  C   UNL     1     -35.740  26.325  12.535  1.00  0.00     0.093 A 
ATOM      8  C   UNL     1     -35.065  26.653  13.713  1.00  0.00     0.123 A 
ATOM      9  C   UNL     1     -33.861  27.348  13.652  1.00  0.00     0.094 A 
ATOM     10  C   UNL     1     -33.336  27.749  12.421  1.00  0.00     0.146 A 
ATOM     11  O   UNL     1     -32.190  28.419  12.407  1.00  0.00    -0.452 OA
ENDROOT
BRANCH   1  12
ATOM     12  C   UNL     1     -30.323  29.577  11.415  1.00  0.00     0.025 A 
ATOM     13  C   UNL     1     -30.289  30.976  11.284  1.00  0.00     0.016 A 
ATOM     14  C   UNL     1     -29.084  31.670  11.414  1.00  0.00     0.051 A 
ATOM     15  C   UNL     1     -27.898  30.978  11.690  1.00  0.00     0.157 A 
ATOM     16  C   UNL     1     -29.133  28.889  11.712  1.00  0.00     0.062 A 
ATOM     17  C   UNL     1     -27.923  29.586  11.844  1.00  0.00     0.158 A 
BRANCH  15  18
ATOM     18  O   UNL     1     -26.692  31.667  11.817  1.00  0.00    -0.504 OA
ATOM     19  H   UNL     1     -26.002  31.669  11.076  1.00  0.00     0.293 HD
ENDBRANCH  15  18
BRANCH  17  20
ATOM     20  O   UNL     1     -26.743  28.902  12.132  1.00  0.00    -0.504 OA
ATOM     21  H   UNL     1     -26.045  29.289  12.757  1.00  0.00     0.293 HD
ENDBRANCH  17  20
ENDBRANCH   1  12
BRANCH   2  22
ATOM     22  O   UNL     1     -31.705  29.222   8.893  1.00  0.00    -0.502 OA
ATOM     23  H   UNL     1     -31.066  28.706   8.302  1.00  0.00     0.293 HD
ENDBRANCH   2  22
BRANCH   6  24
ATOM     24  O   UNL     1     -35.922  26.224  10.164  1.00  0.00    -0.507 OA
ATOM     25  H   UNL     1     -35.890  26.654   9.252  1.00  0.00     0.293 HD
ENDBRANCH   6  24
BRANCH   8  26
ATOM     26  O   UNL     1     -35.581  26.281  14.954  1.00  0.00    -0.508 OA
ATOM     27  H   UNL     1     -35.004  25.829  15.653  1.00  0.00     0.293 HD
ENDBRANCH   8  26
TORSDOF 6
ENDMDL
MODEL 4
REMARK VINA RESULT:    -6.275     16.245     17.625
REMARK INTER + INTRA:          -7.734
REMARK INTER:                  -7.429
REMARK INTRA:                  -0.305
REMARK UNBOUND:                -0.174
REMARK SMILES O=c1c(O)c(-c2ccc(O)c(O)c2)oc2cc(O)cc(O)c12
REMARK SMILES IDX 5 1 3 2 2 3 1 4 22 5 20 6 19 7 17 8 16 9 15 10 14 11 6 12
REMARK SMILES IDX 7 13 8 14 9 15 13 16 11 17 10 18 12 20 4 22 21 24 18 26
REMARK H PARENT 10 19 12 21 4 23 21 25 18 27
REMARK Flexibility Score: inf
ROOT
ATOM      1  C   UNL     1     -31.740  45.156  15.427  1.00  0.00     0.180 A 
ATOM      2  C   UNL     1     -32.511  45.564  14.325  1.00  0.00     0.208 A 
ATOM      3  C   UNL     1     -33.907  45.642  14.463  1.00  0.00     0.238 A 
ATOM      4  O   UNL     1     -34.587  46.060  13.490  1.00  0.00    -0.285 OA
ATOM      5  C   UNL     1     -34.513  45.296  15.693  1.00  0.00     0.111 A 
ATOM      6  C   UNL     1     -35.921  45.300  15.934  1.00  0.00     0.134 A 
ATOM      7  C   UNL     1     -36.402  45.065  17.227  1.00  0.00     0.093 A 
ATOM      8  C   UNL     1     -35.530  44.763  18.276  1.00  0.00     0.123 A 
ATOM      9  C   UNL     1     -34.159  44.698  18.039  1.00  0.00     0.094 A 
ATOM     10  C   UNL     1     -33.646  44.963  16.768  1.00  0.00     0.146 A 
ATOM     11  O   UNL     1     -32.333  44.901  16.588  1.00  0.00    -0.452 OA
ENDROOT
BRANCH   1  12
ATOM     12  C   UNL     1     -30.266  45.025  15.351  1.00  0.00     0.025 A 
ATOM     13  C   UNL     1     -29.454  46.011  15.935  1.00  0.00     0.016 A 
ATOM     14  C   UNL     1     -28.062  45.897  15.894  1.00  0.00     0.051 A 
ATOM     15  C   UNL     1     -27.463  44.788  15.283  1.00  0.00     0.157 A 
ATOM     16  C   UNL     1     -29.661  43.903  14.756  1.00  0.00     0.062 A 
ATOM     17  C   UNL     1     -28.263  43.788  14.716  1.00  0.00     0.158 A 
BRANCH  15  18
ATOM     18  O   UNL     1     -26.074  44.672  15.237  1.00  0.00    -0.504 OA
ATOM     19  H   UNL     1     -25.601  43.834  15.554  1.00  0.00     0.293 HD
ENDBRANCH  15  18
BRANCH  17  20
ATOM     20  O   UNL     1     -27.664  42.679  14.121  1.00  0.00    -0.504 OA
ATOM     21  H   UNL     1     -28.203  42.009  13.585  1.00  0.00     0.293 HD
ENDBRANCH  17  20
ENDBRANCH   1  12
BRANCH   2  22
ATOM     22  O   UNL     1     -31.890  45.922  13.125  1.00  0.00    -0.502 OA
ATOM     23  H   UNL     1     -31.743  45.263  12.371  1.00  0.00     0.293 HD
ENDBRANCH   2  22
BRANCH   6  24
ATOM     24  O   UNL     1     -36.881  45.500  14.937  1.00  0.00    -0.507 OA
ATOM     25  H   UNL     1     -36.705  45.949  14.051  1.00  0.00     0.293 HD
ENDBRANCH   6  24
BRANCH   8  26
ATOM     26  O   UNL     1     -36.019  44.515  19.558  1.00  0.00    -0.508 OA
ATOM     27  H   UNL     1     -35.923  45.197  20.301  1.00  0.00     0.293 HD
ENDBRANCH   8  26
TORSDOF 6
ENDMDL
MODEL 5
REMARK VINA RESULT:    -6.250      2.212      3.492
REMARK INTER + INTRA:          -7.703
REMARK INTER:                  -7.483
REMARK INTRA:                  -0.220
REMARK UNBOUND:                -0.174
REMARK SMILES O=c1c(O)c(-c2ccc(O)c(O)c2)oc2cc(O)cc(O)c12
REMARK SMILES IDX 5 1 3 2 2 3 1 4 22 5 20 6 19 7 17 8 16 9 15 10 14 11 6 12
REMARK SMILES IDX 7 13 8 14 9 15 13 16 11 17 10 18 12 20 4 22 21 24 18 26
REMARK H PARENT 10 19 12 21 4 23 21 25 18 27
REMARK Flexibility Score: inf
ROOT
ATOM      1  C   UNL     1     -31.486  29.353  12.270  1.00  0.00     0.180 A 
ATOM      2  C   UNL     1     -31.405  28.929  10.933  1.00  0.00     0.208 A 
ATOM      3  C   UNL     1     -32.355  28.013  10.450  1.00  0.00     0.238 A 
ATOM      4  O   UNL     1     -32.310  27.679   9.238  1.00  0.00    -0.285 OA
ATOM      5  C   UNL     1     -33.362  27.522  11.315  1.00  0.00     0.111 A 
ATOM      6  C   UNL     1     -34.352  26.563  10.944  1.00  0.00     0.134 A 
ATOM      7  C   UNL     1     -35.379  26.247  11.841  1.00  0.00     0.093 A 
ATOM      8  C   UNL     1     -35.415  26.808  13.120  1.00  0.00     0.123 A 
ATOM      9  C   UNL     1     -34.421  27.700  13.513  1.00  0.00     0.094 A 
ATOM     10  C   UNL     1     -33.404  28.063  12.627  1.00  0.00     0.146 A 
ATOM     11  O   UNL     1     -32.482  28.925  13.038  1.00  0.00    -0.452 OA
ENDROOT
BRANCH   1  12
ATOM     12  C   UNL     1     -30.506  30.296  12.858  1.00  0.00     0.025 A 
ATOM     13  C   UNL     1     -29.184  29.872  13.075  1.00  0.00     0.016 A 
ATOM     14  C   UNL     1     -28.238  30.751  13.609  1.00  0.00     0.051 A 
ATOM     15  C   UNL     1     -28.596  32.069  13.919  1.00  0.00     0.157 A 
ATOM     16  C   UNL     1     -30.855  31.626  13.153  1.00  0.00     0.062 A 
ATOM     17  C   UNL     1     -29.905  32.508  13.688  1.00  0.00     0.158 A 
BRANCH  15  18
ATOM     18  O   UNL     1     -27.656  32.948  14.456  1.00  0.00    -0.504 OA
ATOM     19  H   UNL     1     -27.087  32.694  15.254  1.00  0.00     0.293 HD
ENDBRANCH  15  18
BRANCH  17  20
ATOM     20  O   UNL     1     -30.255  33.824  13.985  1.00  0.00    -0.504 OA
ATOM     21  H   UNL     1     -30.189  34.560  13.292  1.00  0.00     0.293 HD
ENDBRANCH  17  20
ENDBRANCH   1  12
BRANCH   2  22
ATOM     22  O   UNL     1     -30.414  29.443  10.091  1.00  0.00    -0.502 OA
ATOM     23  H   UNL     1     -30.549  29.544   9.092  1.00  0.00     0.293 HD
ENDBRANCH   2  22
BRANCH   6  24
ATOM     24  O   UNL     1     -34.354  25.875   9.726  1.00  0.00    -0.507 OA
ATOM     25  H   UNL     1     -35.149  25.801   9.110  1.00  0.00     0.293 HD
ENDBRANCH   6  24
BRANCH   8  26
ATOM     26  O   UNL     1     -36.433  26.476  14.013  1.00  0.00    -0.508 OA
ATOM     27  H   UNL     1     -37.385  26.793  13.873  1.00  0.00     0.293 HD
ENDBRANCH   8  26
TORSDOF 6
ENDMDL
MODEL 6
REMARK VINA RESULT:    -6.226     15.282     17.486
REMARK INTER + INTRA:          -7.674
REMARK INTER:                  -7.344
REMARK INTRA:                  -0.331
REMARK UNBOUND:                -0.174
REMARK SMILES O=c1c(O)c(-c2ccc(O)c(O)c2)oc2cc(O)cc(O)c12
REMARK SMILES IDX 5 1 3 2 2 3 1 4 22 5 20 6 19 7 17 8 16 9 15 10 14 11 6 12
REMARK SMILES IDX 7 13 8 14 9 15 13 16 11 17 10 18 12 20 4 22 21 24 18 26
REMARK H PARENT 10 19 12 21 4 23 21 25 18 27
REMARK Flexibility Score: inf
ROOT
ATOM      1  C   UNL     1     -31.557  44.611  12.605  1.00  0.00     0.180 A 
ATOM      2  C   UNL     1     -30.718  45.079  13.631  1.00  0.00     0.208 A 
ATOM      3  C   UNL     1     -29.341  44.811  13.561  1.00  0.00     0.238 A 
ATOM      4  O   UNL     1     -28.588  45.279  14.453  1.00  0.00    -0.285 OA
ATOM      5  C   UNL     1     -28.824  44.065  12.475  1.00  0.00     0.111 A 
ATOM      6  C   UNL     1     -27.452  43.701  12.321  1.00  0.00     0.134 A 
ATOM      7  C   UNL     1     -27.031  43.074  11.142  1.00  0.00     0.093 A 
ATOM      8  C   UNL     1     -27.944  42.741  10.139  1.00  0.00     0.123 A 
ATOM      9  C   UNL     1     -29.294  43.039  10.304  1.00  0.00     0.094 A 
ATOM     10  C   UNL     1     -29.739  43.696  11.453  1.00  0.00     0.146 A 
ATOM     11  O   UNL     1     -31.033  43.971  11.566  1.00  0.00    -0.452 OA
ENDROOT
BRANCH   1  12
ATOM     12  C   UNL     1     -33.022  44.832  12.623  1.00  0.00     0.025 A 
ATOM     13  C   UNL     1     -33.567  45.910  11.905  1.00  0.00     0.016 A 
ATOM     14  C   UNL     1     -34.947  46.125  11.890  1.00  0.00     0.051 A 
ATOM     15  C   UNL     1     -35.803  45.257  12.581  1.00  0.00     0.157 A 
ATOM     16  C   UNL     1     -33.887  43.953  13.298  1.00  0.00     0.062 A 
ATOM     17  C   UNL     1     -35.273  44.168  13.283  1.00  0.00     0.158 A 
BRANCH  15  18
ATOM     18  O   UNL     1     -37.181  45.471  12.571  1.00  0.00    -0.504 OA
ATOM     19  H   UNL     1     -37.573  46.404  12.597  1.00  0.00     0.293 HD
ENDBRANCH  15  18
BRANCH  17  20
ATOM     20  O   UNL     1     -36.129  43.299  13.958  1.00  0.00    -0.504 OA
ATOM     21  H   UNL     1     -35.853  42.350  14.181  1.00  0.00     0.293 HD
ENDBRANCH  17  20
ENDBRANCH   1  12
BRANCH   2  22
ATOM     22  O   UNL     1     -31.247  45.833  14.683  1.00  0.00    -0.502 OA
ATOM     23  H   UNL     1     -32.043  45.524  15.227  1.00  0.00     0.293 HD
ENDBRANCH   2  22
BRANCH   6  24
ATOM     24  O   UNL     1     -26.477  43.905  13.302  1.00  0.00    -0.507 OA
ATOM     25  H   UNL     1     -26.587  44.504  14.106  1.00  0.00     0.293 HD
ENDBRANCH   6  24
BRANCH   8  26
ATOM     26  O   UNL     1     -27.519  42.103   8.975  1.00  0.00    -0.508 OA
ATOM     27  H   UNL     1     -28.177  41.797   8.268  1.00  0.00     0.293 HD
ENDBRANCH   8  26
TORSDOF 6
ENDMDL
MODEL 7
REMARK VINA RESULT:    -6.207      2.553      3.804
REMARK INTER + INTRA:          -7.651
REMARK INTER:                  -7.326
REMARK INTRA:                  -0.325
REMARK UNBOUND:                -0.174
REMARK SMILES O=c1c(O)c(-c2ccc(O)c(O)c2)oc2cc(O)cc(O)c12
REMARK SMILES IDX 5 1 3 2 2 3 1 4 22 5 20 6 19 7 17 8 16 9 15 10 14 11 6 12
REMARK SMILES IDX 7 13 8 14 9 15 13 16 11 17 10 18 12 20 4 22 21 24 18 26
REMARK H PARENT 10 19 12 21 4 23 21 25 18 27
REMARK Flexibility Score: inf
ROOT
ATOM      1  C   UNL     1     -29.501  30.199  13.106  1.00  0.00     0.180 A 
ATOM      2  C   UNL     1     -29.743  29.381  14.223  1.00  0.00     0.208 A 
ATOM      3  C   UNL     1     -30.551  28.242  14.070  1.00  0.00     0.238 A 
ATOM      4  O   UNL     1     -30.719  27.484  15.060  1.00  0.00    -0.285 OA
ATOM      5  C   UNL     1     -31.118  27.946  12.808  1.00  0.00     0.111 A 
ATOM      6  C   UNL     1     -31.984  26.841  12.548  1.00  0.00     0.134 A 
ATOM      7  C   UNL     1     -32.383  26.569  11.233  1.00  0.00     0.093 A 
ATOM      8  C   UNL     1     -31.998  27.401  10.179  1.00  0.00     0.123 A 
ATOM      9  C   UNL     1     -31.203  28.516  10.431  1.00  0.00     0.094 A 
ATOM     10  C   UNL     1     -30.760  28.792  11.726  1.00  0.00     0.146 A 
ATOM     11  O   UNL     1     -29.994  29.859  11.921  1.00  0.00    -0.452 OA
ENDROOT
BRANCH   1  12
ATOM     12  C   UNL     1     -28.681  31.430  13.194  1.00  0.00     0.025 A 
ATOM     13  C   UNL     1     -27.336  31.394  12.792  1.00  0.00     0.016 A 
ATOM     14  C   UNL     1     -26.549  32.548  12.847  1.00  0.00     0.051 A 
ATOM     15  C   UNL     1     -27.102  33.757  13.289  1.00  0.00     0.157 A 
ATOM     16  C   UNL     1     -29.236  32.651  13.618  1.00  0.00     0.062 A 
ATOM     17  C   UNL     1     -28.448  33.810  13.672  1.00  0.00     0.158 A 
BRANCH  15  18
ATOM     18  O   UNL     1     -26.320  34.910  13.348  1.00  0.00    -0.504 OA
ATOM     19  H   UNL     1     -26.456  35.606  14.071  1.00  0.00     0.293 HD
ENDBRANCH  15  18
BRANCH  17  20
ATOM     20  O   UNL     1     -28.997  35.017  14.099  1.00  0.00    -0.504 OA
ATOM     21  H   UNL     1     -29.869  35.051  14.614  1.00  0.00     0.293 HD
ENDBRANCH  17  20
ENDBRANCH   1  12
BRANCH   2  22
ATOM     22  O   UNL     1     -29.154  29.681  15.455  1.00  0.00    -0.502 OA
ATOM     23  H   UNL     1     -28.727  28.973  16.039  1.00  0.00     0.293 HD
ENDBRANCH   2  22
BRANCH   6  24
ATOM     24  O   UNL     1     -32.499  26.003  13.542  1.00  0.00    -0.507 OA
ATOM     25  H   UNL     1     -32.145  25.084  13.759  1.00  0.00     0.293 HD
ENDBRANCH   6  24
BRANCH   8  26
ATOM     26  O   UNL     1     -32.412  27.133   8.875  1.00  0.00    -0.508 OA
ATOM     27  H   UNL     1     -31.752  27.094   8.107  1.00  0.00     0.293 HD
ENDBRANCH   8  26
TORSDOF 6
ENDMDL
MODEL 8
REMARK VINA RESULT:    -6.174      2.952      5.326
REMARK INTER + INTRA:          -7.612
REMARK INTER:                  -7.408
REMARK INTRA:                  -0.204
REMARK UNBOUND:                -0.174
REMARK SMILES O=c1c(O)c(-c2ccc(O)c(O)c2)oc2cc(O)cc(O)c12
REMARK SMILES IDX 5 1 3 2 2 3 1 4 22 5 20 6 19 7 17 8 16 9 15 10 14 11 6 12
REMARK SMILES IDX 7 13 8 14 9 15 13 16 11 17 10 18 12 20 4 22 21 24 18 26
REMARK H PARENT 10 19 12 21 4 23 21 25 18 27
REMARK Flexibility Score: inf
ROOT
ATOM      1  C   UNL     1     -32.825  27.376  13.987  1.00  0.00     0.180 A 
ATOM      2  C   UNL     1     -31.630  27.372  13.248  1.00  0.00     0.208 A 
ATOM      3  C   UNL     1     -31.697  27.331  11.845  1.00  0.00     0.238 A 
ATOM      4  O   UNL     1     -30.626  27.381  11.187  1.00  0.00    -0.285 OA
ATOM      5  C   UNL     1     -32.957  27.279  11.202  1.00  0.00     0.111 A 
ATOM      6  C   UNL     1     -33.143  27.195   9.789  1.00  0.00     0.134 A 
ATOM      7  C   UNL     1     -34.435  27.281   9.255  1.00  0.00     0.093 A 
ATOM      8  C   UNL     1     -35.551  27.383  10.088  1.00  0.00     0.123 A 
ATOM      9  C   UNL     1     -35.385  27.406  11.470  1.00  0.00     0.094 A 
ATOM     10  C   UNL     1     -34.107  27.358  12.031  1.00  0.00     0.146 A 
ATOM     11  O   UNL     1     -33.992  27.393  13.353  1.00  0.00    -0.452 OA
ENDROOT
BRANCH   1  12
ATOM     12  C   UNL     1     -32.835  27.392  15.468  1.00  0.00     0.025 A 
ATOM     13  C   UNL     1     -33.217  26.236  16.169  1.00  0.00     0.016 A 
ATOM     14  C   UNL     1     -33.214  26.222  17.566  1.00  0.00     0.051 A 
ATOM     15  C   UNL     1     -32.813  27.358  18.282  1.00  0.00     0.157 A 
ATOM     16  C   UNL     1     -32.414  28.523  16.191  1.00  0.00     0.062 A 
ATOM     17  C   UNL     1     -32.409  28.508  17.594  1.00  0.00     0.158 A 
BRANCH  15  18
ATOM     18  O   UNL     1     -32.811  27.348  19.676  1.00  0.00    -0.504 OA
ATOM     19  H   UNL     1     -33.196  26.573  20.202  1.00  0.00     0.293 HD
ENDBRANCH  15  18
BRANCH  17  20
ATOM     20  O   UNL     1     -31.998  29.631  18.309  1.00  0.00    -0.504 OA
ATOM     21  H   UNL     1     -32.666  30.277  18.713  1.00  0.00     0.293 HD
ENDBRANCH  17  20
ENDBRANCH   1  12
BRANCH   2  22
ATOM     22  O   UNL     1     -30.397  27.445  13.902  1.00  0.00    -0.502 OA
ATOM     23  H   UNL     1     -29.534  27.650  13.415  1.00  0.00     0.293 HD
ENDBRANCH   2  22
BRANCH   6  24
ATOM     24  O   UNL     1     -32.102  27.000   8.875  1.00  0.00    -0.507 OA
ATOM     25  H   UNL     1     -31.543  27.738   8.476  1.00  0.00     0.293 HD
ENDBRANCH   6  24
BRANCH   8  26
ATOM     26  O   UNL     1     -36.835  27.453   9.549  1.00  0.00    -0.508 OA
ATOM     27  H   UNL     1     -37.019  27.938   8.679  1.00  0.00     0.293 HD
ENDBRANCH   8  26
TORSDOF 6
ENDMDL
MODEL 9
REMARK VINA RESULT:    -6.174     15.012     16.558
REMARK INTER + INTRA:          -7.612
REMARK INTER:                  -7.309
REMARK INTRA:                  -0.303
REMARK UNBOUND:                -0.174
REMARK SMILES O=c1c(O)c(-c2ccc(O)c(O)c2)oc2cc(O)cc(O)c12
REMARK SMILES IDX 5 1 3 2 2 3 1 4 22 5 20 6 19 7 17 8 16 9 15 10 14 11 6 12
REMARK SMILES IDX 7 13 8 14 9 15 13 16 11 17 10 18 12 20 4 22 21 24 18 26
REMARK H PARENT 10 19 12 21 4 23 21 25 18 27
REMARK Flexibility Score: inf
ROOT
ATOM      1  C   UNL     1     -31.819  44.190  11.568  1.00  0.00     0.180 A 
ATOM      2  C   UNL     1     -33.004  44.479  10.871  1.00  0.00     0.208 A 
ATOM      3  C   UNL     1     -34.149  44.847  11.597  1.00  0.00     0.238 A 
ATOM      4  O   UNL     1     -35.192  45.158  10.965  1.00  0.00    -0.285 OA
ATOM      5  C   UNL     1     -34.097  44.906  13.010  1.00  0.00     0.111 A 
ATOM      6  C   UNL     1     -35.206  45.229  13.849  1.00  0.00     0.134 A 
ATOM      7  C   UNL     1     -35.009  45.384  15.227  1.00  0.00     0.093 A 
ATOM      8  C   UNL     1     -33.755  45.166  15.803  1.00  0.00     0.123 A 
ATOM      9  C   UNL     1     -32.680  44.793  15.001  1.00  0.00     0.094 A 
ATOM     10  C   UNL     1     -32.837  44.665  13.619  1.00  0.00     0.146 A 
ATOM     11  O   UNL     1     -31.784  44.318  12.889  1.00  0.00    -0.452 OA
ENDROOT
BRANCH   1  12
ATOM     12  C   UNL     1     -30.580  43.770  10.874  1.00  0.00     0.025 A 
ATOM     13  C   UNL     1     -29.528  44.689  10.720  1.00  0.00     0.016 A 
ATOM     14  C   UNL     1     -28.342  44.309  10.088  1.00  0.00     0.051 A 
ATOM     15  C   UNL     1     -28.184  43.000   9.613  1.00  0.00     0.157 A 
ATOM     16  C   UNL     1     -30.409  42.452  10.413  1.00  0.00     0.062 A 
ATOM     17  C   UNL     1     -29.217  42.070   9.779  1.00  0.00     0.158 A 
BRANCH  15  18
ATOM     18  O   UNL     1     -27.004  42.618   8.978  1.00  0.00    -0.504 OA
ATOM     19  H   UNL     1     -26.890  41.693   8.582  1.00  0.00     0.293 HD
ENDBRANCH  15  18
BRANCH  17  20
ATOM     20  O   UNL     1     -29.052  40.765   9.318  1.00  0.00    -0.504 OA
ATOM     21  H   UNL     1     -28.179  40.453   8.909  1.00  0.00     0.293 HD
ENDBRANCH  17  20
ENDBRANCH   1  12
BRANCH   2  22
ATOM     22  O   UNL     1     -33.028  44.436   9.474  1.00  0.00    -0.502 OA
ATOM     23  H   UNL     1     -33.875  44.258   8.949  1.00  0.00     0.293 HD
ENDBRANCH   2  22
BRANCH   6  24
ATOM     24  O   UNL     1     -36.518  45.377  13.386  1.00  0.00    -0.507 OA
ATOM     25  H   UNL     1     -37.182  46.045  13.748  1.00  0.00     0.293 HD
ENDBRANCH   6  24
BRANCH   8  26
ATOM     26  O   UNL     1     -33.570  45.308  17.177  1.00  0.00    -0.508 OA
ATOM     27  H   UNL     1     -34.108  45.975  17.718  1.00  0.00     0.293 HD
ENDBRANCH   8  26
TORSDOF 6
ENDMDL
