MODEL 1
REMARK VINA RESULT:    -3.085      0.000      0.000
REMARK INTER + INTRA:          -5.338
REMARK INTER:                  -4.708
REMARK INTRA:                  -0.630
REMARK UNBOUND:                -0.630
REMARK SMILES CC1=CCC[C@@H](C)C(=O)C[C@@H](C(C)C)C(=O)C1
REMARK SMILES IDX 8 1 9 2 6 3 7 4 5 5 4 6 3 7 2 8 1 9 10 11 11 12 15 13 16 14
REMARK SMILES IDX 17 15 12 17 13 18 14 19
REMARK H PARENT
REMARK Flexibility Score: 70.00
ROOT
ATOM      1  C   UNL     1      15.216  52.323  34.296  1.00  0.00     0.136 C 
ATOM      2  O   UNL     1      14.375  51.450  34.139  1.00  0.00    -0.299 OA
ENDROOT
BRANCH   1   3
ATOM      3  C   UNL     1      15.228  53.139  35.584  1.00  0.00     0.053 C 
ATOM      4  C   UNL     1      15.338  52.254  36.836  1.00  0.00     0.016 C 
BRANCH   3   5
ATOM      5  C   UNL     1      13.973  54.049  35.679  1.00  0.00     0.015 C 
BRANCH   5   6
ATOM      6  C   UNL     1      13.831  55.144  34.598  1.00  0.00     0.028 C 
BRANCH   6   7
ATOM      7  C   UNL     1      14.842  56.272  34.572  1.00  0.00    -0.028 C 
ATOM      8  C   UNL     1      15.703  56.586  33.574  1.00  0.00    -0.070 CG0
ATOM      9  C   UNL     1      16.448  57.894  33.688  1.00  0.00     0.039 C 
ATOM     10  G   UNL     1      16.025  55.680  32.393  1.00  0.00     0.000 G0
ENDBRANCH   6   7
ENDBRANCH   5   6
ENDBRANCH   3   5
ENDBRANCH   1   3
BRANCH   1  11
ATOM     11  C   UNL     1      16.247  52.531  33.196  1.00  0.00     0.087 C 
BRANCH  11  12
ATOM     12  C   UNL     1      17.310  53.607  33.530  1.00  0.00     0.066 C 
BRANCH  12  13
ATOM     13  C   UNL     1      17.275  54.847  32.640  1.00  0.00     0.140 C 
ATOM     14  O   UNL     1      18.291  55.110  32.013  1.00  0.00    -0.299 OA
BRANCH  13  15
ATOM     15  C   UNL     1      16.033  55.694  32.392  1.00  0.00     0.106 CG0
ATOM     16  G   UNL     1      15.713  56.563  33.600  1.00  0.00     0.000 G0
ENDBRANCH  13  15
ENDBRANCH  12  13
BRANCH  12  17
ATOM     17  C   UNL     1      18.766  53.045  33.610  1.00  0.00    -0.006 C 
ATOM     18  C   UNL     1      18.970  51.746  32.813  1.00  0.00     0.008 C 
ATOM     19  C   UNL     1      19.231  52.849  35.062  1.00  0.00     0.008 C 
ENDBRANCH  12  17
ENDBRANCH  11  12
ENDBRANCH   1  11
TORSDOF 1
ENDMDL
MODEL 2
REMARK VINA RESULT:    -2.979     12.139     14.045
REMARK INTER + INTRA:          -5.176
REMARK INTER:                  -4.894
REMARK INTRA:                  -0.282
REMARK UNBOUND:                -0.630
REMARK SMILES CC1=CCC[C@@H](C)C(=O)C[C@@H](C(C)C)C(=O)C1
REMARK SMILES IDX 8 1 9 2 6 3 7 4 5 5 4 6 3 7 2 8 1 9 10 11 11 12 15 13 16 14
REMARK SMILES IDX 17 15 12 17 13 18 14 19
REMARK H PARENT
REMARK Flexibility Score: 70.00
ROOT
ATOM      1  C   UNL     1      13.003  60.762  21.859  1.00  0.00     0.136 C 
ATOM      2  O   UNL     1      12.263  59.870  21.469  1.00  0.00    -0.299 OA
ENDROOT
BRANCH   1   3
ATOM      3  C   UNL     1      13.603  61.739  20.853  1.00  0.00     0.053 C 
ATOM      4  C   UNL     1      12.691  61.958  19.635  1.00  0.00     0.016 C 
BRANCH   3   5
ATOM      5  C   UNL     1      15.011  61.272  20.393  1.00  0.00     0.015 C 
BRANCH   5   6
ATOM      6  C   UNL     1      15.871  60.537  21.444  1.00  0.00     0.028 C 
BRANCH   6   7
ATOM      7  C   UNL     1      16.987  61.299  22.129  1.00  0.00    -0.028 C 
ATOM      8  C   UNL     1      17.151  61.506  23.459  1.00  0.00    -0.070 CG0
ATOM      9  C   UNL     1      18.465  62.097  23.911  1.00  0.00     0.039 C 
ATOM     10  G   UNL     1      16.079  61.257  24.510  1.00  0.00     0.000 G0
ENDBRANCH   6   7
ENDBRANCH   5   6
ENDBRANCH   3   5
ENDBRANCH   1   3
BRANCH   1  11
ATOM     11  C   UNL     1      13.264  60.875  23.353  1.00  0.00     0.087 C 
BRANCH  11  12
ATOM     12  C   UNL     1      13.674  62.297  23.811  1.00  0.00     0.066 C 
BRANCH  12  13
ATOM     13  C   UNL     1      15.029  62.385  24.509  1.00  0.00     0.140 C 
ATOM     14  O   UNL     1      15.241  63.378  25.190  1.00  0.00    -0.299 OA
BRANCH  13  15
ATOM     15  C   UNL     1      16.070  61.272  24.513  1.00  0.00     0.106 CG0
ATOM     16  G   UNL     1      17.139  61.520  23.457  1.00  0.00     0.000 G0
ENDBRANCH  13  15
ENDBRANCH  12  13
BRANCH  12  17
ATOM     17  C   UNL     1      12.583  63.019  24.665  1.00  0.00    -0.006 C 
ATOM     18  C   UNL     1      11.622  62.056  25.380  1.00  0.00     0.008 C 
ATOM     19  C   UNL     1      11.785  64.041  23.839  1.00  0.00     0.008 C 
ENDBRANCH  12  17
ENDBRANCH  11  12
ENDBRANCH   1  11
TORSDOF 1
ENDMDL
MODEL 3
REMARK VINA RESULT:    -2.977     12.342     13.971
REMARK INTER + INTRA:          -5.173
REMARK INTER:                  -4.817
REMARK INTRA:                  -0.357
REMARK UNBOUND:                -0.630
REMARK SMILES CC1=CCC[C@@H](C)C(=O)C[C@@H](C(C)C)C(=O)C1
REMARK SMILES IDX 8 1 9 2 6 3 7 4 5 5 4 6 3 7 2 8 1 9 10 11 11 12 15 13 16 14
REMARK SMILES IDX 17 15 12 17 13 18 14 19
REMARK H PARENT
REMARK Flexibility Score: 70.00
ROOT
ATOM      1  C   UNL     1      16.070  60.464  20.998  1.00  0.00     0.136 C 
ATOM      2  O   UNL     1      16.006  60.357  19.781  1.00  0.00    -0.299 OA
ENDROOT
BRANCH   1   3
ATOM      3  C   UNL     1      17.391  60.854  21.653  1.00  0.00     0.053 C 
ATOM      4  C   UNL     1      18.013  59.695  22.449  1.00  0.00     0.016 C 
BRANCH   3   5
ATOM      5  C   UNL     1      17.215  62.098  22.566  1.00  0.00     0.015 C 
BRANCH   5   6
ATOM      6  C   UNL     1      17.187  61.838  24.089  1.00  0.00     0.028 C 
BRANCH   6   7
ATOM      7  C   UNL     1      16.253  62.665  24.948  1.00  0.00    -0.028 C 
ATOM      8  C   UNL     1      14.956  62.406  25.245  1.00  0.00    -0.070 CG0
ATOM      9  C   UNL     1      14.306  63.256  26.309  1.00  0.00     0.039 C 
ATOM     10  G   UNL     1      14.096  61.373  24.528  1.00  0.00     0.000 G0
ENDBRANCH   6   7
ENDBRANCH   5   6
ENDBRANCH   3   5
ENDBRANCH   1   3
BRANCH   1  11
ATOM     11  C   UNL     1      14.801  60.234  21.806  1.00  0.00     0.087 C 
BRANCH  11  12
ATOM     12  C   UNL     1      13.864  61.467  21.864  1.00  0.00     0.066 C 
BRANCH  12  13
ATOM     13  C   UNL     1      13.450  61.896  23.269  1.00  0.00     0.140 C 
ATOM     14  O   UNL     1      12.489  62.647  23.360  1.00  0.00    -0.299 OA
BRANCH  13  15
ATOM     15  C   UNL     1      14.069  61.357  24.552  1.00  0.00     0.106 CG0
ATOM     16  G   UNL     1      14.948  62.407  25.218  1.00  0.00     0.000 G0
ENDBRANCH  13  15
ENDBRANCH  12  13
BRANCH  12  17
ATOM     17  C   UNL     1      12.606  61.340  20.948  1.00  0.00    -0.006 C 
ATOM     18  C   UNL     1      12.084  59.900  20.811  1.00  0.00     0.008 C 
ATOM     19  C   UNL     1      12.841  61.948  19.555  1.00  0.00     0.008 C 
ENDBRANCH  12  17
ENDBRANCH  11  12
ENDBRANCH   1  11
TORSDOF 1
ENDMDL
MODEL 4
REMARK VINA RESULT:    -2.967      2.508      4.107
REMARK INTER + INTRA:          -5.159
REMARK INTER:                  -4.699
REMARK INTRA:                  -0.459
REMARK UNBOUND:                -0.630
REMARK SMILES CC1=CCC[C@@H](C)C(=O)C[C@@H](C(C)C)C(=O)C1
REMARK SMILES IDX 8 1 9 2 6 3 7 4 5 5 4 6 3 7 2 8 1 9 10 11 11 12 15 13 16 14
REMARK SMILES IDX 17 15 12 17 13 18 14 19
REMARK H PARENT
REMARK Flexibility Score: 70.00
ROOT
ATOM      1  C   UNL     1      14.746  53.122  35.086  1.00  0.00     0.136 C 
ATOM      2  O   UNL     1      14.362  54.110  35.698  1.00  0.00    -0.299 OA
ENDROOT
BRANCH   1   3
ATOM      3  C   UNL     1      15.831  52.235  35.687  1.00  0.00     0.053 C 
ATOM      4  C   UNL     1      15.378  51.561  36.992  1.00  0.00     0.016 C 
BRANCH   3   5
ATOM      5  C   UNL     1      17.140  53.036  35.922  1.00  0.00     0.015 C 
BRANCH   5   6
ATOM      6  C   UNL     1      17.600  53.959  34.772  1.00  0.00     0.028 C 
BRANCH   6   7
ATOM      7  C   UNL     1      18.353  53.347  33.608  1.00  0.00    -0.028 C 
ATOM      8  C   UNL     1      17.923  53.204  32.330  1.00  0.00    -0.070 CG0
ATOM      9  C   UNL     1      18.941  52.776  31.301  1.00  0.00     0.039 C 
ATOM     10  G   UNL     1      16.477  53.369  31.882  1.00  0.00     0.000 G0
ENDBRANCH   6   7
ENDBRANCH   5   6
ENDBRANCH   3   5
ENDBRANCH   1   3
BRANCH   1  11
ATOM     11  C   UNL     1      14.087  52.806  33.752  1.00  0.00     0.087 C 
BRANCH  11  12
ATOM     12  C   UNL     1      14.740  51.621  32.996  1.00  0.00     0.066 C 
BRANCH  12  13
ATOM     13  C   UNL     1      15.747  52.019  31.920  1.00  0.00     0.140 C 
ATOM     14  O   UNL     1      15.901  51.242  30.989  1.00  0.00    -0.299 OA
BRANCH  13  15
ATOM     15  C   UNL     1      16.468  53.360  31.868  1.00  0.00     0.106 CG0
ATOM     16  G   UNL     1      17.912  53.223  32.329  1.00  0.00     0.000 G0
ENDBRANCH  13  15
ENDBRANCH  12  13
BRANCH  12  17
ATOM     17  C   UNL     1      13.707  50.603  32.416  1.00  0.00    -0.006 C 
ATOM     18  C   UNL     1      12.404  51.257  31.927  1.00  0.00     0.008 C 
ATOM     19  C   UNL     1      13.388  49.474  33.409  1.00  0.00     0.008 C 
ENDBRANCH  12  17
ENDBRANCH  11  12
ENDBRANCH   1  11
TORSDOF 1
ENDMDL
MODEL 5
REMARK VINA RESULT:    -2.767      1.598      4.021
REMARK INTER + INTRA:          -4.852
REMARK INTER:                  -4.337
REMARK INTRA:                  -0.515
REMARK UNBOUND:                -0.630
REMARK SMILES CC1=CCC[C@@H](C)C(=O)C[C@@H](C(C)C)C(=O)C1
REMARK SMILES IDX 8 1 9 2 6 3 7 4 5 5 4 6 3 7 2 8 1 9 10 11 11 12 15 13 16 14
REMARK SMILES IDX 17 15 12 17 13 18 14 19
REMARK H PARENT
REMARK Flexibility Score: 70.00
ROOT
ATOM      1  C   UNL     1      17.541  56.011  33.621  1.00  0.00     0.136 C 
ATOM      2  O   UNL     1      18.631  56.129  33.077  1.00  0.00    -0.299 OA
ENDROOT
BRANCH   1   3
ATOM      3  C   UNL     1      16.337  56.767  33.070  1.00  0.00     0.053 C 
ATOM      4  C   UNL     1      16.717  57.715  31.921  1.00  0.00     0.016 C 
BRANCH   3   5
ATOM      5  C   UNL     1      15.607  57.551  34.194  1.00  0.00     0.015 C 
BRANCH   5   6
ATOM      6  C   UNL     1      14.182  57.075  34.554  1.00  0.00     0.028 C 
BRANCH   6   7
ATOM      7  C   UNL     1      13.663  55.801  33.920  1.00  0.00    -0.028 C 
ATOM      8  C   UNL     1      13.706  54.546  34.431  1.00  0.00    -0.070 CG0
ATOM      9  C   UNL     1      12.915  53.478  33.714  1.00  0.00     0.039 C 
ATOM     10  G   UNL     1      14.554  54.129  35.625  1.00  0.00     0.000 G0
ENDBRANCH   6   7
ENDBRANCH   5   6
ENDBRANCH   3   5
ENDBRANCH   1   3
BRANCH   1  11
ATOM     11  C   UNL     1      17.435  55.076  34.816  1.00  0.00     0.087 C 
BRANCH  11  12
ATOM     12  C   UNL     1      16.944  53.652  34.455  1.00  0.00     0.066 C 
BRANCH  12  13
ATOM     13  C   UNL     1      15.699  53.188  35.207  1.00  0.00     0.140 C 
ATOM     14  O   UNL     1      15.673  52.022  35.573  1.00  0.00    -0.299 OA
BRANCH  13  15
ATOM     15  C   UNL     1      14.559  54.104  35.634  1.00  0.00     0.106 CG0
ATOM     16  G   UNL     1      13.730  54.541  34.434  1.00  0.00     0.000 G0
ENDBRANCH  13  15
ENDBRANCH  12  13
BRANCH  12  17
ATOM     17  C   UNL     1      18.061  52.564  34.542  1.00  0.00    -0.006 C 
ATOM     18  C   UNL     1      19.145  52.876  35.586  1.00  0.00     0.008 C 
ATOM     19  C   UNL     1      18.710  52.290  33.176  1.00  0.00     0.008 C 
ENDBRANCH  12  17
ENDBRANCH  11  12
ENDBRANCH   1  11
TORSDOF 1
ENDMDL
MODEL 6
REMARK VINA RESULT:    -2.742      2.259      3.916
REMARK INTER + INTRA:          -4.815
REMARK INTER:                  -4.346
REMARK INTRA:                  -0.469
REMARK UNBOUND:                -0.630
REMARK SMILES CC1=CCC[C@@H](C)C(=O)C[C@@H](C(C)C)C(=O)C1
REMARK SMILES IDX 8 1 9 2 6 3 7 4 5 5 4 6 3 7 2 8 1 9 10 11 11 12 15 13 16 14
REMARK SMILES IDX 17 15 12 17 13 18 14 19
REMARK H PARENT
REMARK Flexibility Score: 70.00
ROOT
ATOM      1  C   UNL     1      15.757  52.222  32.448  1.00  0.00     0.136 C 
ATOM      2  O   UNL     1      16.082  51.421  31.583  1.00  0.00    -0.299 OA
ENDROOT
BRANCH   1   3
ATOM      3  C   UNL     1      14.951  53.459  32.068  1.00  0.00     0.053 C 
ATOM      4  C   UNL     1      13.555  53.105  31.529  1.00  0.00     0.016 C 
BRANCH   3   5
ATOM      5  C   UNL     1      15.719  54.330  31.037  1.00  0.00     0.015 C 
BRANCH   5   6
ATOM      6  C   UNL     1      16.667  55.405  31.613  1.00  0.00     0.028 C 
BRANCH   6   7
ATOM      7  C   UNL     1      18.128  55.054  31.805  1.00  0.00    -0.028 C 
ATOM      8  C   UNL     1      18.762  54.768  32.969  1.00  0.00    -0.070 CG0
ATOM      9  C   UNL     1      20.167  54.222  32.876  1.00  0.00     0.039 C 
ATOM     10  G   UNL     1      18.186  55.029  34.353  1.00  0.00     0.000 G0
ENDBRANCH   6   7
ENDBRANCH   5   6
ENDBRANCH   3   5
ENDBRANCH   1   3
BRANCH   1  11
ATOM     11  C   UNL     1      16.149  51.921  33.887  1.00  0.00     0.087 C 
BRANCH  11  12
ATOM     12  C   UNL     1      16.247  53.179  34.786  1.00  0.00     0.066 C 
BRANCH  12  13
ATOM     13  C   UNL     1      17.660  53.720  34.987  1.00  0.00     0.140 C 
ATOM     14  O   UNL     1      18.445  53.010  35.600  1.00  0.00    -0.299 OA
BRANCH  13  15
ATOM     15  C   UNL     1      18.183  55.013  34.375  1.00  0.00     0.106 CG0
ATOM     16  G   UNL     1      18.743  54.770  32.980  1.00  0.00     0.000 G0
ENDBRANCH  13  15
ENDBRANCH  12  13
BRANCH  12  17
ATOM     17  C   UNL     1      15.531  53.021  36.165  1.00  0.00    -0.006 C 
ATOM     18  C   UNL     1      15.179  51.566  36.514  1.00  0.00     0.008 C 
ATOM     19  C   UNL     1      14.277  53.904  36.270  1.00  0.00     0.008 C 
ENDBRANCH  12  17
ENDBRANCH  11  12
ENDBRANCH   1  11
TORSDOF 1
ENDMDL
MODEL 7
REMARK VINA RESULT:    -2.637      2.503      2.901
REMARK INTER + INTRA:          -4.655
REMARK INTER:                  -4.364
REMARK INTRA:                  -0.291
REMARK UNBOUND:                -0.630
REMARK SMILES CC1=CCC[C@@H](C)C(=O)C[C@@H](C(C)C)C(=O)C1
REMARK SMILES IDX 8 1 9 2 6 3 7 4 5 5 4 6 3 7 2 8 1 9 10 11 11 12 15 13 16 14
REMARK SMILES IDX 17 15 12 17 13 18 14 19
REMARK H PARENT
REMARK Flexibility Score: 70.00
ROOT
ATOM      1  C   UNL     1      17.224  52.946  35.499  1.00  0.00     0.136 C 
ATOM      2  O   UNL     1      17.992  53.825  35.863  1.00  0.00    -0.299 OA
ENDROOT
BRANCH   1   3
ATOM      3  C   UNL     1      15.894  52.757  36.221  1.00  0.00     0.053 C 
ATOM      4  C   UNL     1      15.384  51.309  36.138  1.00  0.00     0.016 C 
BRANCH   3   5
ATOM      5  C   UNL     1      14.819  53.737  35.676  1.00  0.00     0.015 C 
BRANCH   5   6
ATOM      6  C   UNL     1      14.031  53.272  34.431  1.00  0.00     0.028 C 
BRANCH   6   7
ATOM      7  C   UNL     1      14.245  54.006  33.123  1.00  0.00    -0.028 C 
ATOM      8  C   UNL     1      14.674  53.487  31.946  1.00  0.00    -0.070 CG0
ATOM      9  C   UNL     1      14.585  54.371  30.726  1.00  0.00     0.039 C 
ATOM     10  G   UNL     1      15.306  52.111  31.789  1.00  0.00     0.000 G0
ENDBRANCH   6   7
ENDBRANCH   5   6
ENDBRANCH   3   5
ENDBRANCH   1   3
BRANCH   1  11
ATOM     11  C   UNL     1      17.626  52.094  34.304  1.00  0.00     0.087 C 
BRANCH  11  12
ATOM     12  C   UNL     1      17.629  52.865  32.959  1.00  0.00     0.066 C 
BRANCH  12  13
ATOM     13  C   UNL     1      16.838  52.203  31.834  1.00  0.00     0.140 C 
ATOM     14  O   UNL     1      17.480  51.628  30.966  1.00  0.00    -0.299 OA
BRANCH  13  15
ATOM     15  C   UNL     1      15.318  52.107  31.790  1.00  0.00     0.106 CG0
ATOM     16  G   UNL     1      14.679  53.481  31.939  1.00  0.00     0.000 G0
ENDBRANCH  13  15
ENDBRANCH  12  13
BRANCH  12  17
ATOM     17  C   UNL     1      19.060  53.244  32.459  1.00  0.00    -0.006 C 
ATOM     18  C   UNL     1      20.184  52.447  33.143  1.00  0.00     0.008 C 
ATOM     19  C   UNL     1      19.335  54.751  32.582  1.00  0.00     0.008 C 
ENDBRANCH  12  17
ENDBRANCH  11  12
ENDBRANCH   1  11
TORSDOF 1
ENDMDL
MODEL 8
REMARK VINA RESULT:    -2.597      2.678      4.803
REMARK INTER + INTRA:          -4.594
REMARK INTER:                  -4.510
REMARK INTRA:                  -0.085
REMARK UNBOUND:                -0.630
REMARK SMILES CC1=CCC[C@@H](C)C(=O)C[C@@H](C(C)C)C(=O)C1
REMARK SMILES IDX 8 1 9 2 6 3 7 4 5 5 4 6 3 7 2 8 1 9 10 11 11 12 15 13 16 14
REMARK SMILES IDX 17 15 12 17 13 18 14 19
REMARK H PARENT
REMARK Flexibility Score: 70.00
ROOT
ATOM      1  C   UNL     1      15.221  52.728  32.138  1.00  0.00     0.136 C 
ATOM      2  O   UNL     1      15.146  53.926  31.903  1.00  0.00    -0.299 OA
ENDROOT
BRANCH   1   3
ATOM      3  C   UNL     1      15.184  51.729  30.986  1.00  0.00     0.053 C 
ATOM      4  C   UNL     1      14.546  50.390  31.394  1.00  0.00     0.016 C 
BRANCH   3   5
ATOM      5  C   UNL     1      16.605  51.492  30.407  1.00  0.00     0.015 C 
BRANCH   5   6
ATOM      6  C   UNL     1      17.684  51.009  31.402  1.00  0.00     0.028 C 
BRANCH   6   7
ATOM      7  C   UNL     1      18.814  51.952  31.759  1.00  0.00    -0.028 C 
ATOM      8  C   UNL     1      19.214  52.331  32.998  1.00  0.00    -0.070 CG0
ATOM      9  C   UNL     1      20.510  53.096  33.104  1.00  0.00     0.039 C 
ATOM     10  G   UNL     1      18.409  52.105  34.271  1.00  0.00     0.000 G0
ENDBRANCH   6   7
ENDBRANCH   5   6
ENDBRANCH   3   5
ENDBRANCH   1   3
BRANCH   1  11
ATOM     11  C   UNL     1      15.384  52.291  33.586  1.00  0.00     0.087 C 
BRANCH  11  12
ATOM     12  C   UNL     1      16.014  53.372  34.499  1.00  0.00     0.066 C 
BRANCH  12  13
ATOM     13  C   UNL     1      17.537  53.333  34.591  1.00  0.00     0.140 C 
ATOM     14  O   UNL     1      18.092  54.321  35.050  1.00  0.00    -0.299 OA
BRANCH  13  15
ATOM     15  C   UNL     1      18.388  52.111  34.269  1.00  0.00     0.106 CG0
ATOM     16  G   UNL     1      19.219  52.339  33.014  1.00  0.00     0.000 G0
ENDBRANCH  13  15
ENDBRANCH  12  13
BRANCH  12  17
ATOM     17  C   UNL     1      15.390  53.423  35.930  1.00  0.00    -0.006 C 
ATOM     18  C   UNL     1      15.354  52.058  36.636  1.00  0.00     0.008 C 
ATOM     19  C   UNL     1      13.987  54.051  35.928  1.00  0.00     0.008 C 
ENDBRANCH  12  17
ENDBRANCH  11  12
ENDBRANCH   1  11
TORSDOF 1
ENDMDL
MODEL 9
REMARK VINA RESULT:    -2.547      2.308      3.557
REMARK INTER + INTRA:          -4.516
REMARK INTER:                  -3.865
REMARK INTRA:                  -0.651
REMARK UNBOUND:                -0.630
REMARK SMILES CC1=CCC[C@@H](C)C(=O)C[C@@H](C(C)C)C(=O)C1
REMARK SMILES IDX 8 1 9 2 6 3 7 4 5 5 4 6 3 7 2 8 1 9 10 11 11 12 15 13 16 14
REMARK SMILES IDX 17 15 12 17 13 18 14 19
REMARK H PARENT
REMARK Flexibility Score: 70.00
ROOT
ATOM      1  C   UNL     1      15.406  53.551  35.293  1.00  0.00     0.136 C 
ATOM      2  O   UNL     1      14.961  53.337  36.412  1.00  0.00    -0.299 OA
ENDROOT
BRANCH   1   3
ATOM      3  C   UNL     1      14.768  54.624  34.418  1.00  0.00     0.053 C 
ATOM      4  C   UNL     1      14.732  55.997  35.110  1.00  0.00     0.016 C 
BRANCH   3   5
ATOM      5  C   UNL     1      13.338  54.207  33.977  1.00  0.00     0.015 C 
BRANCH   5   6
ATOM      6  C   UNL     1      13.217  52.879  33.199  1.00  0.00     0.028 C 
BRANCH   6   7
ATOM      7  C   UNL     1      13.709  52.830  31.767  1.00  0.00    -0.028 C 
ATOM      8  C   UNL     1      14.732  52.092  31.270  1.00  0.00    -0.070 CG0
ATOM      9  C   UNL     1      14.881  52.038  29.769  1.00  0.00     0.039 C 
ATOM     10  G   UNL     1      15.777  51.382  32.119  1.00  0.00     0.000 G0
ENDBRANCH   6   7
ENDBRANCH   5   6
ENDBRANCH   3   5
ENDBRANCH   1   3
BRANCH   1  11
ATOM     11  C   UNL     1      16.615  52.746  34.838  1.00  0.00     0.087 C 
BRANCH  11  12
ATOM     12  C   UNL     1      17.204  53.215  33.484  1.00  0.00     0.066 C 
BRANCH  12  13
ATOM     13  C   UNL     1      17.024  52.235  32.328  1.00  0.00     0.140 C 
ATOM     14  O   UNL     1      17.982  52.067  31.587  1.00  0.00    -0.299 OA
BRANCH  13  15
ATOM     15  C   UNL     1      15.787  51.372  32.115  1.00  0.00     0.106 CG0
ATOM     16  G   UNL     1      14.750  52.102  31.272  1.00  0.00     0.000 G0
ENDBRANCH  13  15
ENDBRANCH  12  13
BRANCH  12  17
ATOM     17  C   UNL     1      18.696  53.670  33.575  1.00  0.00    -0.006 C 
ATOM     18  C   UNL     1      19.452  53.070  34.772  1.00  0.00     0.008 C 
ATOM     19  C   UNL     1      18.835  55.201  33.579  1.00  0.00     0.008 C 
ENDBRANCH  12  17
ENDBRANCH  11  12
ENDBRANCH   1  11
TORSDOF 1
ENDMDL
