MODEL 1
REMARK VINA RESULT:    -5.412      0.000      0.000
REMARK INTER + INTRA:         -12.356
REMARK INTER:                  -9.842
REMARK INTRA:                  -2.514
REMARK UNBOUND:                -2.514
REMARK SMILES CCCCCCCCCCCCCC[C@H](C)C(=O)[O-]
REMARK SMILES IDX 9 1 10 2 11 3 12 4 13 5 14 6 15 7 16 8 17 9 18 10 19 11 8 12
REMARK SMILES IDX 7 13 6 14 5 15 4 16 3 17 2 18 1 19
REMARK H PARENT
REMARK Flexibility Score: inf
ROOT
ATOM      1  C   UNL     1      10.702   6.207 -10.197  1.00  0.00     0.000 C 
ENDROOT
BRANCH   1   2
ATOM      2  C   UNL     1      10.723   6.428 -11.723  1.00  0.00     0.000 C 
BRANCH   2   3
ATOM      3  C   UNL     1      10.212   5.244 -12.566  1.00  0.00     0.000 C 
BRANCH   3   4
ATOM      4  C   UNL     1      11.300   4.496 -13.359  1.00  0.00     0.000 C 
BRANCH   4   5
ATOM      5  C   UNL     1      12.371   5.435 -13.933  1.00  0.00     0.001 C 
BRANCH   5   6
ATOM      6  C   UNL     1      11.983   5.913 -15.342  1.00  0.00     0.009 C 
BRANCH   6   7
ATOM      7  C   UNL     1      11.668   7.424 -15.393  1.00  0.00     0.032 C 
ATOM      8  C   UNL     1      10.207   7.703 -15.776  1.00  0.00     0.014 C 
BRANCH   7   9
ATOM      9  C   UNL     1      12.588   8.107 -16.368  1.00  0.00     0.044 C 
ATOM     10  O   UNL     1      13.839   8.000 -16.250  1.00  0.00    -0.550 OA
ATOM     11  O   UNL     1      12.060   8.864 -17.407  1.00  0.00    -0.550 OA
ENDBRANCH   7   9
ENDBRANCH   6   7
ENDBRANCH   5   6
ENDBRANCH   4   5
ENDBRANCH   3   4
ENDBRANCH   2   3
ENDBRANCH   1   2
BRANCH   1  12
ATOM     12  C   UNL     1      12.064   6.350  -9.495  1.00  0.00     0.000 C 
BRANCH  12  13
ATOM     13  C   UNL     1      13.251   6.087 -10.436  1.00  0.00    -0.000 C 
BRANCH  13  14
ATOM     14  C   UNL     1      14.429   7.048 -10.194  1.00  0.00    -0.000 C 
BRANCH  14  15
ATOM     15  C   UNL     1      14.334   8.401 -10.928  1.00  0.00    -0.000 C 
BRANCH  15  16
ATOM     16  C   UNL     1      13.992   8.312 -12.429  1.00  0.00    -0.000 C 
BRANCH  16  17
ATOM     17  C   UNL     1      13.554   9.640 -13.073  1.00  0.00    -0.000 C 
BRANCH  17  18
ATOM     18  C   UNL     1      12.569  10.428 -12.199  1.00  0.00    -0.003 C 
ATOM     19  C   UNL     1      11.125  10.060 -12.531  1.00  0.00     0.004 C 
ENDBRANCH  17  18
ENDBRANCH  16  17
ENDBRANCH  15  16
ENDBRANCH  14  15
ENDBRANCH  13  14
ENDBRANCH  12  13
ENDBRANCH   1  12
TORSDOF 14
ENDMDL
MODEL 2
REMARK VINA RESULT:    -5.401      2.774      5.147
REMARK INTER + INTRA:         -12.336
REMARK INTER:                  -9.912
REMARK INTRA:                  -2.423
REMARK UNBOUND:                -2.514
REMARK SMILES CCCCCCCCCCCCCC[C@H](C)C(=O)[O-]
REMARK SMILES IDX 9 1 10 2 11 3 12 4 13 5 14 6 15 7 16 8 17 9 18 10 19 11 8 12
REMARK SMILES IDX 7 13 6 14 5 15 4 16 3 17 2 18 1 19
REMARK H PARENT
REMARK Flexibility Score: inf
ROOT
ATOM      1  C   UNL     1      12.691   9.536 -12.036  1.00  0.00     0.000 C 
ENDROOT
BRANCH   1   2
ATOM      2  C   UNL     1      11.655  10.643 -11.756  1.00  0.00     0.000 C 
BRANCH   2   3
ATOM      3  C   UNL     1      10.603  10.854 -12.863  1.00  0.00     0.000 C 
BRANCH   3   4
ATOM      4  C   UNL     1      10.131   9.565 -13.562  1.00  0.00     0.000 C 
BRANCH   4   5
ATOM      5  C   UNL     1       8.868   8.968 -12.924  1.00  0.00     0.001 C 
BRANCH   5   6
ATOM      6  C   UNL     1       8.914   7.432 -12.951  1.00  0.00     0.009 C 
BRANCH   6   7
ATOM      7  C   UNL     1      10.335   6.874 -12.717  1.00  0.00     0.032 C 
ATOM      8  C   UNL     1      10.713   5.791 -13.737  1.00  0.00     0.014 C 
BRANCH   7   9
ATOM      9  C   UNL     1      10.445   6.320 -11.323  1.00  0.00     0.044 C 
ATOM     10  O   UNL     1       9.503   5.646 -10.825  1.00  0.00    -0.550 OA
ATOM     11  O   UNL     1      11.591   6.551 -10.572  1.00  0.00    -0.550 OA
ENDBRANCH   7   9
ENDBRANCH   6   7
ENDBRANCH   5   6
ENDBRANCH   4   5
ENDBRANCH   3   4
ENDBRANCH   2   3
ENDBRANCH   1   2
BRANCH   1  12
ATOM     12  C   UNL     1      14.078  10.034 -12.482  1.00  0.00     0.000 C 
BRANCH  12  13
ATOM     13  C   UNL     1      14.486   9.502 -13.866  1.00  0.00    -0.000 C 
BRANCH  13  14
ATOM     14  C   UNL     1      13.591   8.346 -14.348  1.00  0.00    -0.000 C 
BRANCH  14  15
ATOM     15  C   UNL     1      13.347   8.296 -15.870  1.00  0.00    -0.000 C 
BRANCH  15  16
ATOM     16  C   UNL     1      11.880   8.085 -16.294  1.00  0.00    -0.000 C 
BRANCH  16  17
ATOM     17  C   UNL     1      11.402   8.989 -17.444  1.00  0.00    -0.000 C 
BRANCH  17  18
ATOM     18  C   UNL     1       9.920   8.782 -17.787  1.00  0.00    -0.003 C 
ATOM     19  C   UNL     1       9.250   7.847 -16.784  1.00  0.00     0.004 C 
ENDBRANCH  17  18
ENDBRANCH  16  17
ENDBRANCH  15  16
ENDBRANCH  14  15
ENDBRANCH  13  14
ENDBRANCH  12  13
ENDBRANCH   1  12
TORSDOF 14
ENDMDL
MODEL 3
REMARK VINA RESULT:    -5.381      2.971      6.021
REMARK INTER + INTRA:         -12.299
REMARK INTER:                  -9.552
REMARK INTRA:                  -2.747
REMARK UNBOUND:                -2.514
REMARK SMILES CCCCCCCCCCCCCC[C@H](C)C(=O)[O-]
REMARK SMILES IDX 9 1 10 2 11 3 12 4 13 5 14 6 15 7 16 8 17 9 18 10 19 11 8 12
REMARK SMILES IDX 7 13 6 14 5 15 4 16 3 17 2 18 1 19
REMARK H PARENT
REMARK Flexibility Score: inf
ROOT
ATOM      1  C   UNL     1      14.480   8.834 -14.438  1.00  0.00     0.000 C 
ENDROOT
BRANCH   1   2
ATOM      2  C   UNL     1      14.255   9.742 -13.212  1.00  0.00     0.000 C 
BRANCH   2   3
ATOM      3  C   UNL     1      12.789  10.146 -12.955  1.00  0.00     0.000 C 
BRANCH   3   4
ATOM      4  C   UNL     1      12.100   9.387 -11.806  1.00  0.00     0.000 C 
BRANCH   4   5
ATOM      5  C   UNL     1      10.858   8.608 -12.268  1.00  0.00     0.001 C 
BRANCH   5   6
ATOM      6  C   UNL     1      11.037   7.100 -12.027  1.00  0.00     0.009 C 
BRANCH   6   7
ATOM      7  C   UNL     1      12.349   6.766 -11.285  1.00  0.00     0.032 C 
ATOM      8  C   UNL     1      13.210   5.750 -12.048  1.00  0.00     0.014 C 
BRANCH   7   9
ATOM      9  C   UNL     1      12.040   6.240  -9.910  1.00  0.00     0.044 C 
ATOM     10  O   UNL     1      10.851   6.193  -9.494  1.00  0.00    -0.550 OA
ATOM     11  O   UNL     1      13.071   5.802  -9.087  1.00  0.00    -0.550 OA
ENDBRANCH   7   9
ENDBRANCH   6   7
ENDBRANCH   5   6
ENDBRANCH   4   5
ENDBRANCH   3   4
ENDBRANCH   2   3
ENDBRANCH   1   2
BRANCH   1  12
ATOM     12  C   UNL     1      13.216   8.147 -14.986  1.00  0.00     0.000 C 
BRANCH  12  13
ATOM     13  C   UNL     1      13.136   8.183 -16.521  1.00  0.00    -0.000 C 
BRANCH  13  14
ATOM     14  C   UNL     1      11.766   8.660 -17.037  1.00  0.00    -0.000 C 
BRANCH  14  15
ATOM     15  C   UNL     1      10.721   8.959 -15.944  1.00  0.00    -0.000 C 
BRANCH  15  16
ATOM     16  C   UNL     1       9.371   8.231 -16.109  1.00  0.00    -0.000 C 
BRANCH  16  17
ATOM     17  C   UNL     1       9.214   6.958 -15.259  1.00  0.00    -0.000 C 
BRANCH  17  18
ATOM     18  C   UNL     1       9.861   5.726 -15.908  1.00  0.00    -0.003 C 
ATOM     19  C   UNL     1      10.982   5.170 -15.035  1.00  0.00     0.004 C 
ENDBRANCH  17  18
ENDBRANCH  16  17
ENDBRANCH  15  16
ENDBRANCH  14  15
ENDBRANCH  13  14
ENDBRANCH  12  13
ENDBRANCH   1  12
TORSDOF 14
ENDMDL
MODEL 4
REMARK VINA RESULT:    -5.379      2.940      6.043
REMARK INTER + INTRA:         -12.295
REMARK INTER:                  -9.996
REMARK INTRA:                  -2.299
REMARK UNBOUND:                -2.514
REMARK SMILES CCCCCCCCCCCCCC[C@H](C)C(=O)[O-]
REMARK SMILES IDX 9 1 10 2 11 3 12 4 13 5 14 6 15 7 16 8 17 9 18 10 19 11 8 12
REMARK SMILES IDX 7 13 6 14 5 15 4 16 3 17 2 18 1 19
REMARK H PARENT
REMARK Flexibility Score: inf
ROOT
ATOM      1  C   UNL     1      13.849   8.376 -15.528  1.00  0.00     0.000 C 
ENDROOT
BRANCH   1   2
ATOM      2  C   UNL     1      14.608   8.558 -14.198  1.00  0.00     0.000 C 
BRANCH   2   3
ATOM      3  C   UNL     1      14.170   9.769 -13.351  1.00  0.00     0.000 C 
BRANCH   3   4
ATOM      4  C   UNL     1      13.759   9.434 -11.905  1.00  0.00     0.000 C 
BRANCH   4   5
ATOM      5  C   UNL     1      12.244   9.226 -11.749  1.00  0.00     0.001 C 
BRANCH   5   6
ATOM      6  C   UNL     1      11.882   7.735 -11.853  1.00  0.00     0.009 C 
BRANCH   6   7
ATOM      7  C   UNL     1      12.990   6.813 -11.299  1.00  0.00     0.032 C 
ATOM      8  C   UNL     1      13.272   5.619 -12.222  1.00  0.00     0.014 C 
BRANCH   7   9
ATOM      9  C   UNL     1      12.608   6.319  -9.931  1.00  0.00     0.044 C 
ATOM     10  O   UNL     1      13.478   5.826  -9.162  1.00  0.00    -0.550 OA
ATOM     11  O   UNL     1      11.288   6.401  -9.507  1.00  0.00    -0.550 OA
ENDBRANCH   7   9
ENDBRANCH   6   7
ENDBRANCH   5   6
ENDBRANCH   4   5
ENDBRANCH   3   4
ENDBRANCH   2   3
ENDBRANCH   1   2
BRANCH   1  12
ATOM     12  C   UNL     1      12.365   7.989 -15.388  1.00  0.00     0.000 C 
BRANCH  12  13
ATOM     13  C   UNL     1      12.098   6.515 -15.732  1.00  0.00    -0.000 C 
BRANCH  13  14
ATOM     14  C   UNL     1      10.849   5.954 -15.028  1.00  0.00    -0.000 C 
BRANCH  14  15
ATOM     15  C   UNL     1       9.510   6.255 -15.731  1.00  0.00    -0.000 C 
BRANCH  15  16
ATOM     16  C   UNL     1       8.788   7.530 -15.252  1.00  0.00    -0.000 C 
BRANCH  16  17
ATOM     17  C   UNL     1       8.529   8.579 -16.348  1.00  0.00    -0.000 C 
BRANCH  17  18
ATOM     18  C   UNL     1       9.137   8.186 -17.702  1.00  0.00    -0.003 C 
ATOM     19  C   UNL     1      10.351   9.051 -18.031  1.00  0.00     0.004 C 
ENDBRANCH  17  18
ENDBRANCH  16  17
ENDBRANCH  15  16
ENDBRANCH  14  15
ENDBRANCH  13  14
ENDBRANCH  12  13
ENDBRANCH   1  12
TORSDOF 14
ENDMDL
MODEL 5
REMARK VINA RESULT:    -5.362      1.108      2.041
REMARK INTER + INTRA:         -12.264
REMARK INTER:                  -9.910
REMARK INTRA:                  -2.355
REMARK UNBOUND:                -2.514
REMARK SMILES CCCCCCCCCCCCCC[C@H](C)C(=O)[O-]
REMARK SMILES IDX 9 1 10 2 11 3 12 4 13 5 14 6 15 7 16 8 17 9 18 10 19 11 8 12
REMARK SMILES IDX 7 13 6 14 5 15 4 16 3 17 2 18 1 19
REMARK H PARENT
REMARK Flexibility Score: inf
ROOT
ATOM      1  C   UNL     1      10.222   6.282 -11.762  1.00  0.00     0.000 C 
ENDROOT
BRANCH   1   2
ATOM      2  C   UNL     1      10.587   5.104 -12.689  1.00  0.00     0.000 C 
BRANCH   2   3
ATOM      3  C   UNL     1      11.966   5.207 -13.370  1.00  0.00     0.000 C 
BRANCH   3   4
ATOM      4  C   UNL     1      11.921   5.463 -14.889  1.00  0.00     0.000 C 
BRANCH   4   5
ATOM      5  C   UNL     1      10.492   5.446 -15.454  1.00  0.00     0.001 C 
BRANCH   5   6
ATOM      6  C   UNL     1      10.002   6.874 -15.747  1.00  0.00     0.009 C 
BRANCH   6   7
ATOM      7  C   UNL     1      11.052   7.949 -15.393  1.00  0.00     0.032 C 
ATOM      8  C   UNL     1      10.517   8.980 -14.389  1.00  0.00     0.014 C 
BRANCH   7   9
ATOM      9  C   UNL     1      11.511   8.647 -16.644  1.00  0.00     0.044 C 
ATOM     10  O   UNL     1      12.714   8.573 -17.014  1.00  0.00    -0.550 OA
ATOM     11  O   UNL     1      10.606   9.382 -17.400  1.00  0.00    -0.550 OA
ENDBRANCH   7   9
ENDBRANCH   6   7
ENDBRANCH   5   6
ENDBRANCH   4   5
ENDBRANCH   3   4
ENDBRANCH   2   3
ENDBRANCH   1   2
BRANCH   1  12
ATOM     12  C   UNL     1      10.307   5.980 -10.255  1.00  0.00     0.000 C 
BRANCH  12  13
ATOM     13  C   UNL     1      11.467   6.714  -9.564  1.00  0.00    -0.000 C 
BRANCH  13  14
ATOM     14  C   UNL     1      12.800   5.948  -9.660  1.00  0.00    -0.000 C 
BRANCH  14  15
ATOM     15  C   UNL     1      14.009   6.790 -10.117  1.00  0.00    -0.000 C 
BRANCH  15  16
ATOM     16  C   UNL     1      13.753   7.699 -11.336  1.00  0.00    -0.000 C 
BRANCH  16  17
ATOM     17  C   UNL     1      14.767   7.545 -12.483  1.00  0.00    -0.000 C 
BRANCH  17  18
ATOM     18  C   UNL     1      14.343   8.291 -13.756  1.00  0.00    -0.003 C 
ATOM     19  C   UNL     1      14.359   9.801 -13.538  1.00  0.00     0.004 C 
ENDBRANCH  17  18
ENDBRANCH  16  17
ENDBRANCH  15  16
ENDBRANCH  14  15
ENDBRANCH  13  14
ENDBRANCH  12  13
ENDBRANCH   1  12
TORSDOF 14
ENDMDL
MODEL 6
REMARK VINA RESULT:    -5.345      2.155      4.330
REMARK INTER + INTRA:         -12.233
REMARK INTER:                  -9.700
REMARK INTRA:                  -2.533
REMARK UNBOUND:                -2.514
REMARK SMILES CCCCCCCCCCCCCC[C@H](C)C(=O)[O-]
REMARK SMILES IDX 9 1 10 2 11 3 12 4 13 5 14 6 15 7 16 8 17 9 18 10 19 11 8 12
REMARK SMILES IDX 7 13 6 14 5 15 4 16 3 17 2 18 1 19
REMARK H PARENT
REMARK Flexibility Score: inf
ROOT
ATOM      1  C   UNL     1      14.489   7.345 -12.333  1.00  0.00     0.000 C 
ENDROOT
BRANCH   1   2
ATOM      2  C   UNL     1      14.607   8.253 -13.574  1.00  0.00     0.000 C 
BRANCH   2   3
ATOM      3  C   UNL     1      13.306   8.435 -14.381  1.00  0.00     0.000 C 
BRANCH   3   4
ATOM      4  C   UNL     1      13.462   8.280 -15.905  1.00  0.00     0.000 C 
BRANCH   4   5
ATOM      5  C   UNL     1      12.118   8.309 -16.648  1.00  0.00     0.001 C 
BRANCH   5   6
ATOM      6  C   UNL     1      10.949   8.455 -15.659  1.00  0.00     0.009 C 
BRANCH   6   7
ATOM      7  C   UNL     1       9.629   7.869 -16.207  1.00  0.00     0.032 C 
ATOM      8  C   UNL     1       9.314   8.366 -17.626  1.00  0.00     0.014 C 
BRANCH   7   9
ATOM      9  C   UNL     1       8.493   8.215 -15.284  1.00  0.00     0.044 C 
ATOM     10  O   UNL     1       8.501   9.296 -14.635  1.00  0.00    -0.550 OA
ATOM     11  O   UNL     1       7.424   7.339 -15.141  1.00  0.00    -0.550 OA
ENDBRANCH   7   9
ENDBRANCH   6   7
ENDBRANCH   5   6
ENDBRANCH   4   5
ENDBRANCH   3   4
ENDBRANCH   2   3
ENDBRANCH   1   2
BRANCH   1  12
ATOM     12  C   UNL     1      13.431   7.777 -11.302  1.00  0.00     0.000 C 
BRANCH  12  13
ATOM     13  C   UNL     1      12.935   6.610 -10.432  1.00  0.00    -0.000 C 
BRANCH  13  14
ATOM     14  C   UNL     1      11.453   6.272 -10.676  1.00  0.00    -0.000 C 
BRANCH  14  15
ATOM     15  C   UNL     1      10.815   6.962 -11.898  1.00  0.00    -0.000 C 
BRANCH  15  16
ATOM     16  C   UNL     1      10.239   6.009 -12.965  1.00  0.00    -0.000 C 
BRANCH  16  17
ATOM     17  C   UNL     1      11.044   4.714 -13.177  1.00  0.00    -0.000 C 
BRANCH  17  18
ATOM     18  C   UNL     1      12.340   4.941 -13.968  1.00  0.00    -0.003 C 
ATOM     19  C   UNL     1      12.090   4.848 -15.470  1.00  0.00     0.004 C 
ENDBRANCH  17  18
ENDBRANCH  16  17
ENDBRANCH  15  16
ENDBRANCH  14  15
ENDBRANCH  13  14
ENDBRANCH  12  13
ENDBRANCH   1  12
TORSDOF 14
ENDMDL
MODEL 7
REMARK VINA RESULT:    -5.315      1.735      3.000
REMARK INTER + INTRA:         -12.179
REMARK INTER:                  -9.734
REMARK INTRA:                  -2.445
REMARK UNBOUND:                -2.514
REMARK SMILES CCCCCCCCCCCCCC[C@H](C)C(=O)[O-]
REMARK SMILES IDX 9 1 10 2 11 3 12 4 13 5 14 6 15 7 16 8 17 9 18 10 19 11 8 12
REMARK SMILES IDX 7 13 6 14 5 15 4 16 3 17 2 18 1 19
REMARK H PARENT
REMARK Flexibility Score: inf
ROOT
ATOM      1  C   UNL     1      10.436   5.295 -12.781  1.00  0.00     0.000 C 
ENDROOT
BRANCH   1   2
ATOM      2  C   UNL     1      11.832   4.974 -13.353  1.00  0.00     0.000 C 
BRANCH   2   3
ATOM      3  C   UNL     1      11.844   4.465 -14.808  1.00  0.00     0.000 C 
BRANCH   3   4
ATOM      4  C   UNL     1      11.595   5.548 -15.875  1.00  0.00     0.000 C 
BRANCH   4   5
ATOM      5  C   UNL     1      12.382   6.840 -15.607  1.00  0.00     0.001 C 
BRANCH   5   6
ATOM      6  C   UNL     1      11.498   8.078 -15.836  1.00  0.00     0.009 C 
BRANCH   6   7
ATOM      7  C   UNL     1      10.025   7.713 -16.120  1.00  0.00     0.032 C 
ATOM      8  C   UNL     1       9.505   8.351 -17.416  1.00  0.00     0.014 C 
BRANCH   7   9
ATOM      9  C   UNL     1       9.161   8.134 -14.964  1.00  0.00     0.044 C 
ATOM     10  O   UNL     1       8.204   7.408 -14.581  1.00  0.00    -0.550 OA
ATOM     11  O   UNL     1       9.413   9.334 -14.309  1.00  0.00    -0.550 OA
ENDBRANCH   7   9
ENDBRANCH   6   7
ENDBRANCH   5   6
ENDBRANCH   4   5
ENDBRANCH   3   4
ENDBRANCH   2   3
ENDBRANCH   1   2
BRANCH   1  12
ATOM     12  C   UNL     1      10.389   6.474 -11.791  1.00  0.00     0.000 C 
BRANCH  12  13
ATOM     13  C   UNL     1      10.311   6.019 -10.325  1.00  0.00    -0.000 C 
BRANCH  13  14
ATOM     14  C   UNL     1      11.554   6.419  -9.508  1.00  0.00    -0.000 C 
BRANCH  14  15
ATOM     15  C   UNL     1      12.905   6.006 -10.125  1.00  0.00    -0.000 C 
BRANCH  15  16
ATOM     16  C   UNL     1      13.830   7.174 -10.524  1.00  0.00    -0.000 C 
BRANCH  16  17
ATOM     17  C   UNL     1      14.419   7.078 -11.943  1.00  0.00    -0.000 C 
BRANCH  17  18
ATOM     18  C   UNL     1      14.203   8.357 -12.763  1.00  0.00    -0.003 C 
ATOM     19  C   UNL     1      12.872   9.017 -12.413  1.00  0.00     0.004 C 
ENDBRANCH  17  18
ENDBRANCH  16  17
ENDBRANCH  15  16
ENDBRANCH  14  15
ENDBRANCH  13  14
ENDBRANCH  12  13
ENDBRANCH   1  12
TORSDOF 14
ENDMDL
MODEL 8
REMARK VINA RESULT:    -5.313      2.463      5.603
REMARK INTER + INTRA:         -12.175
REMARK INTER:                  -9.588
REMARK INTRA:                  -2.587
REMARK UNBOUND:                -2.514
REMARK SMILES CCCCCCCCCCCCCC[C@H](C)C(=O)[O-]
REMARK SMILES IDX 9 1 10 2 11 3 12 4 13 5 14 6 15 7 16 8 17 9 18 10 19 11 8 12
REMARK SMILES IDX 7 13 6 14 5 15 4 16 3 17 2 18 1 19
REMARK H PARENT
REMARK Flexibility Score: inf
ROOT
ATOM      1  C   UNL     1       9.389   8.028 -16.861  1.00  0.00     0.000 C 
ENDROOT
BRANCH   1   2
ATOM      2  C   UNL     1      10.229   8.987 -17.729  1.00  0.00     0.000 C 
BRANCH   2   3
ATOM      3  C   UNL     1      11.736   9.017 -17.407  1.00  0.00     0.000 C 
BRANCH   3   4
ATOM      4  C   UNL     1      12.140   8.260 -16.128  1.00  0.00     0.000 C 
BRANCH   4   5
ATOM      5  C   UNL     1      13.639   7.927 -16.081  1.00  0.00     0.001 C 
BRANCH   5   6
ATOM      6  C   UNL     1      14.321   8.638 -14.899  1.00  0.00     0.009 C 
BRANCH   6   7
ATOM      7  C   UNL     1      13.536   8.484 -13.579  1.00  0.00     0.032 C 
ATOM      8  C   UNL     1      13.285   9.832 -12.888  1.00  0.00     0.014 C 
BRANCH   7   9
ATOM      9  C   UNL     1      14.278   7.566 -12.646  1.00  0.00     0.044 C 
ATOM     10  O   UNL     1      15.092   8.031 -11.803  1.00  0.00    -0.550 OA
ATOM     11  O   UNL     1      14.069   6.194 -12.711  1.00  0.00    -0.550 OA
ENDBRANCH   7   9
ENDBRANCH   6   7
ENDBRANCH   5   6
ENDBRANCH   4   5
ENDBRANCH   3   4
ENDBRANCH   2   3
ENDBRANCH   1   2
BRANCH   1  12
ATOM     12  C   UNL     1       8.058   8.604 -16.347  1.00  0.00     0.000 C 
BRANCH  12  13
ATOM     13  C   UNL     1       7.958   8.598 -14.813  1.00  0.00    -0.000 C 
BRANCH  13  14
ATOM     14  C   UNL     1       9.199   9.202 -14.132  1.00  0.00    -0.000 C 
BRANCH  14  15
ATOM     15  C   UNL     1       9.911   8.277 -13.124  1.00  0.00    -0.000 C 
BRANCH  15  16
ATOM     16  C   UNL     1       9.499   6.793 -13.190  1.00  0.00    -0.000 C 
BRANCH  16  17
ATOM     17  C   UNL     1      10.659   5.809 -13.427  1.00  0.00    -0.000 C 
BRANCH  17  18
ATOM     18  C   UNL     1      10.666   5.228 -14.848  1.00  0.00    -0.003 C 
ATOM     19  C   UNL     1      12.043   4.678 -15.209  1.00  0.00     0.004 C 
ENDBRANCH  17  18
ENDBRANCH  16  17
ENDBRANCH  15  16
ENDBRANCH  14  15
ENDBRANCH  13  14
ENDBRANCH  12  13
ENDBRANCH   1  12
TORSDOF 14
ENDMDL
MODEL 9
REMARK VINA RESULT:    -5.311      2.964      5.909
REMARK INTER + INTRA:         -12.172
REMARK INTER:                  -9.917
REMARK INTRA:                  -2.255
REMARK UNBOUND:                -2.514
REMARK SMILES CCCCCCCCCCCCCC[C@H](C)C(=O)[O-]
REMARK SMILES IDX 9 1 10 2 11 3 12 4 13 5 14 6 15 7 16 8 17 9 18 10 19 11 8 12
REMARK SMILES IDX 7 13 6 14 5 15 4 16 3 17 2 18 1 19
REMARK H PARENT
REMARK Flexibility Score: inf
ROOT
ATOM      1  C   UNL     1      12.303   8.017 -15.832  1.00  0.00     0.000 C 
ENDROOT
BRANCH   1   2
ATOM      2  C   UNL     1      12.538   6.493 -15.843  1.00  0.00     0.000 C 
BRANCH   2   3
ATOM      3  C   UNL     1      11.316   5.637 -15.453  1.00  0.00     0.000 C 
BRANCH   3   4
ATOM      4  C   UNL     1      11.636   4.416 -14.570  1.00  0.00     0.000 C 
BRANCH   4   5
ATOM      5  C   UNL     1      11.535   4.724 -13.068  1.00  0.00     0.001 C 
BRANCH   5   6
ATOM      6  C   UNL     1      12.895   5.171 -12.507  1.00  0.00     0.009 C 
BRANCH   6   7
ATOM      7  C   UNL     1      12.817   6.520 -11.759  1.00  0.00     0.032 C 
ATOM      8  C   UNL     1      14.073   7.377 -11.969  1.00  0.00     0.014 C 
BRANCH   7   9
ATOM      9  C   UNL     1      12.605   6.280 -10.290  1.00  0.00     0.044 C 
ATOM     10  O   UNL     1      13.570   5.949  -9.549  1.00  0.00    -0.550 OA
ATOM     11  O   UNL     1      11.337   6.421  -9.739  1.00  0.00    -0.550 OA
ENDBRANCH   7   9
ENDBRANCH   6   7
ENDBRANCH   5   6
ENDBRANCH   4   5
ENDBRANCH   3   4
ENDBRANCH   2   3
ENDBRANCH   1   2
BRANCH   1  12
ATOM     12  C   UNL     1      12.077   8.655 -17.215  1.00  0.00     0.000 C 
BRANCH  12  13
ATOM     13  C   UNL     1      10.723   9.375 -17.326  1.00  0.00    -0.000 C 
BRANCH  13  14
ATOM     14  C   UNL     1       9.554   8.409 -17.594  1.00  0.00    -0.000 C 
BRANCH  14  15
ATOM     15  C   UNL     1       8.348   8.559 -16.644  1.00  0.00    -0.000 C 
BRANCH  15  16
ATOM     16  C   UNL     1       8.373   7.645 -15.402  1.00  0.00    -0.000 C 
BRANCH  16  17
ATOM     17  C   UNL     1       8.354   8.386 -14.053  1.00  0.00    -0.000 C 
BRANCH  17  18
ATOM     18  C   UNL     1       9.368   7.820 -13.049  1.00  0.00    -0.003 C 
ATOM     19  C   UNL     1       8.704   6.823 -12.102  1.00  0.00     0.004 C 
ENDBRANCH  17  18
ENDBRANCH  16  17
ENDBRANCH  15  16
ENDBRANCH  14  15
ENDBRANCH  13  14
ENDBRANCH  12  13
ENDBRANCH   1  12
TORSDOF 14
ENDMDL
