MODEL 1
REMARK VINA RESULT:    -3.417      0.000      0.000
REMARK INTER + INTRA:          -4.080
REMARK INTER:                  -3.816
REMARK INTRA:                  -0.264
REMARK UNBOUND:                -0.264
REMARK SMILES O=C([O-])C=Cc1ccccc1
REMARK SMILES IDX 4 1 5 2 2 3 1 4 3 5 6 6 7 7 11 8 8 9 10 10 9 11
REMARK H PARENT
REMARK Flexibility Score: inf
ROOT
ATOM      1  C   UNL     1      10.696   6.786  -0.859  1.00  0.00     0.025 C 
ATOM      2  C   UNL     1      10.991   5.507  -0.577  1.00  0.00     0.010 C 
ENDROOT
BRANCH   1   3
ATOM      3  C   UNL     1      11.001   7.483  -2.123  1.00  0.00     0.064 C 
ATOM      4  O   UNL     1      12.136   7.986  -2.341  1.00  0.00    -0.545 OA
ATOM      5  O   UNL     1      10.038   7.527  -3.121  1.00  0.00    -0.545 OA
ENDBRANCH   1   3
BRANCH   2   6
ATOM      6  C   UNL     1      11.832   4.619  -1.406  1.00  0.00    -0.026 A 
ATOM      7  C   UNL     1      13.216   4.510  -1.186  1.00  0.00     0.008 A 
ATOM      8  C   UNL     1      11.222   3.794  -2.364  1.00  0.00     0.008 A 
ATOM      9  C   UNL     1      13.983   3.625  -1.949  1.00  0.00     0.001 A 
ATOM     10  C   UNL     1      11.993   2.909  -3.125  1.00  0.00     0.001 A 
ATOM     11  C   UNL     1      13.373   2.828  -2.921  1.00  0.00     0.000 A 
ENDBRANCH   2   6
TORSDOF 2
ENDMDL
MODEL 2
REMARK VINA RESULT:    -3.191      1.799      2.461
REMARK INTER + INTRA:          -3.828
REMARK INTER:                  -3.733
REMARK INTRA:                  -0.095
REMARK UNBOUND:                -0.264
REMARK SMILES O=C([O-])C=Cc1ccccc1
REMARK SMILES IDX 4 1 5 2 2 3 1 4 3 5 6 6 7 7 11 8 8 9 10 10 9 11
REMARK H PARENT
REMARK Flexibility Score: inf
ROOT
ATOM      1  C   UNL     1       8.241   6.088  -2.662  1.00  0.00     0.025 C 
ATOM      2  C   UNL     1       8.980   4.967  -2.657  1.00  0.00     0.010 C 
ENDROOT
BRANCH   1   3
ATOM      3  C   UNL     1       8.723   7.440  -2.317  1.00  0.00     0.064 C 
ATOM      4  O   UNL     1       9.417   8.117  -3.122  1.00  0.00    -0.545 OA
ATOM      5  O   UNL     1       8.345   8.004  -1.107  1.00  0.00    -0.545 OA
ENDBRANCH   1   3
BRANCH   2   6
ATOM      6  C   UNL     1      10.356   4.851  -2.134  1.00  0.00    -0.026 A 
ATOM      7  C   UNL     1      10.655   5.152  -0.794  1.00  0.00     0.008 A 
ATOM      8  C   UNL     1      11.364   4.332  -2.963  1.00  0.00     0.008 A 
ATOM      9  C   UNL     1      11.955   4.985  -0.308  1.00  0.00     0.001 A 
ATOM     10  C   UNL     1      12.663   4.166  -2.472  1.00  0.00     0.001 A 
ATOM     11  C   UNL     1      12.960   4.497  -1.148  1.00  0.00     0.000 A 
ENDBRANCH   2   6
TORSDOF 2
ENDMDL
MODEL 3
REMARK VINA RESULT:    -3.079      2.179      3.381
REMARK INTER + INTRA:          -3.704
REMARK INTER:                  -3.433
REMARK INTRA:                  -0.270
REMARK UNBOUND:                -0.264
REMARK SMILES O=C([O-])C=Cc1ccccc1
REMARK SMILES IDX 4 1 5 2 2 3 1 4 3 5 6 6 7 7 11 8 8 9 10 10 9 11
REMARK H PARENT
REMARK Flexibility Score: inf
ROOT
ATOM      1  C   UNL     1      11.351   9.473  -2.923  1.00  0.00     0.025 C 
ATOM      2  C   UNL     1      11.035   8.177  -3.075  1.00  0.00     0.010 C 
ENDROOT
BRANCH   1   3
ATOM      3  C   UNL     1      12.279  10.023  -1.917  1.00  0.00     0.064 C 
ATOM      4  O   UNL     1      11.858  10.621  -0.890  1.00  0.00    -0.545 OA
ATOM      5  O   UNL     1      13.643   9.818  -2.070  1.00  0.00    -0.545 OA
ENDBRANCH   1   3
BRANCH   2   6
ATOM      6  C   UNL     1      11.418   7.089  -2.151  1.00  0.00    -0.026 A 
ATOM      7  C   UNL     1      10.596   6.730  -1.068  1.00  0.00     0.008 A 
ATOM      8  C   UNL     1      12.570   6.333  -2.420  1.00  0.00     0.008 A 
ATOM      9  C   UNL     1      10.953   5.663  -0.237  1.00  0.00     0.001 A 
ATOM     10  C   UNL     1      12.923   5.267  -1.586  1.00  0.00     0.001 A 
ATOM     11  C   UNL     1      12.118   4.935  -0.493  1.00  0.00     0.000 A 
ENDBRANCH   2   6
TORSDOF 2
ENDMDL
MODEL 4
REMARK VINA RESULT:    -3.070      2.566      4.435
REMARK INTER + INTRA:          -3.693
REMARK INTER:                  -3.612
REMARK INTRA:                  -0.081
REMARK UNBOUND:                -0.264
REMARK SMILES O=C([O-])C=Cc1ccccc1
REMARK SMILES IDX 4 1 5 2 2 3 1 4 3 5 6 6 7 7 11 8 8 9 10 10 9 11
REMARK H PARENT
REMARK Flexibility Score: inf
ROOT
ATOM      1  C   UNL     1      13.011   2.679  -2.955  1.00  0.00     0.025 C 
ATOM      2  C   UNL     1      11.829   3.311  -2.875  1.00  0.00     0.010 C 
ENDROOT
BRANCH   1   3
ATOM      3  C   UNL     1      14.280   3.146  -2.365  1.00  0.00     0.064 C 
ATOM      4  O   UNL     1      14.346   3.538  -1.169  1.00  0.00    -0.545 OA
ATOM      5  O   UNL     1      15.440   3.089  -3.124  1.00  0.00    -0.545 OA
ENDBRANCH   1   3
BRANCH   2   6
ATOM      6  C   UNL     1      11.620   4.672  -2.340  1.00  0.00    -0.026 A 
ATOM      7  C   UNL     1      11.871   5.811  -3.125  1.00  0.00     0.008 A 
ATOM      8  C   UNL     1      11.063   4.829  -1.061  1.00  0.00     0.008 A 
ATOM      9  C   UNL     1      11.617   7.088  -2.615  1.00  0.00     0.001 A 
ATOM     10  C   UNL     1      10.810   6.108  -0.554  1.00  0.00     0.001 A 
ATOM     11  C   UNL     1      11.091   7.237  -1.328  1.00  0.00     0.000 A 
ENDBRANCH   2   6
TORSDOF 2
ENDMDL
MODEL 5
REMARK VINA RESULT:    -3.061      2.367      4.235
REMARK INTER + INTRA:          -3.683
REMARK INTER:                  -3.726
REMARK INTRA:                   0.043
REMARK UNBOUND:                -0.264
REMARK SMILES O=C([O-])C=Cc1ccccc1
REMARK SMILES IDX 4 1 5 2 2 3 1 4 3 5 6 6 7 7 11 8 8 9 10 10 9 11
REMARK H PARENT
REMARK Flexibility Score: inf
ROOT
ATOM      1  C   UNL     1      12.761   4.615  -0.896  1.00  0.00     0.025 C 
ATOM      2  C   UNL     1      11.734   5.283  -0.347  1.00  0.00     0.010 C 
ENDROOT
BRANCH   1   3
ATOM      3  C   UNL     1      12.980   4.403  -2.339  1.00  0.00     0.064 C 
ATOM      4  O   UNL     1      13.220   5.364  -3.117  1.00  0.00    -0.545 OA
ATOM      5  O   UNL     1      12.990   3.108  -2.839  1.00  0.00    -0.545 OA
ENDBRANCH   1   3
BRANCH   2   6
ATOM      6  C   UNL     1      10.544   5.771  -1.075  1.00  0.00    -0.026 A 
ATOM      7  C   UNL     1       9.801   4.920  -1.912  1.00  0.00     0.008 A 
ATOM      8  C   UNL     1      10.088   7.079  -0.846  1.00  0.00     0.008 A 
ATOM      9  C   UNL     1       8.649   5.390  -2.550  1.00  0.00     0.001 A 
ATOM     10  C   UNL     1       8.935   7.545  -1.486  1.00  0.00     0.001 A 
ATOM     11  C   UNL     1       8.218   6.703  -2.341  1.00  0.00     0.000 A 
ENDBRANCH   2   6
TORSDOF 2
ENDMDL
MODEL 6
REMARK VINA RESULT:    -2.983      2.011      3.018
REMARK INTER + INTRA:          -3.596
REMARK INTER:                  -3.530
REMARK INTRA:                  -0.066
REMARK UNBOUND:                -0.264
REMARK SMILES O=C([O-])C=Cc1ccccc1
REMARK SMILES IDX 4 1 5 2 2 3 1 4 3 5 6 6 7 7 11 8 8 9 10 10 9 11
REMARK H PARENT
REMARK Flexibility Score: inf
ROOT
ATOM      1  C   UNL     1       9.592   8.912  -2.009  1.00  0.00     0.025 C 
ATOM      2  C   UNL     1      10.877   8.592  -1.783  1.00  0.00     0.010 C 
ENDROOT
BRANCH   1   3
ATOM      3  C   UNL     1       8.449   7.981  -1.958  1.00  0.00     0.064 C 
ATOM      4  O   UNL     1       7.681   7.936  -0.960  1.00  0.00    -0.545 OA
ATOM      5  O   UNL     1       8.174   7.186  -3.062  1.00  0.00    -0.545 OA
ENDBRANCH   1   3
BRANCH   2   6
ATOM      6  C   UNL     1      11.401   7.221  -1.619  1.00  0.00    -0.026 A 
ATOM      7  C   UNL     1      12.353   6.692  -2.508  1.00  0.00     0.008 A 
ATOM      8  C   UNL     1      11.018   6.469  -0.496  1.00  0.00     0.008 A 
ATOM      9  C   UNL     1      12.873   5.411  -2.304  1.00  0.00     0.001 A 
ATOM     10  C   UNL     1      11.541   5.188  -0.295  1.00  0.00     0.001 A 
ATOM     11  C   UNL     1      12.464   4.657  -1.200  1.00  0.00     0.000 A 
ENDBRANCH   2   6
TORSDOF 2
ENDMDL
MODEL 7
REMARK VINA RESULT:    -2.983      6.253      8.218
REMARK INTER + INTRA:          -3.596
REMARK INTER:                  -3.740
REMARK INTRA:                   0.145
REMARK UNBOUND:                -0.264
REMARK SMILES O=C([O-])C=Cc1ccccc1
REMARK SMILES IDX 4 1 5 2 2 3 1 4 3 5 6 6 7 7 11 8 8 9 10 10 9 11
REMARK H PARENT
REMARK Flexibility Score: inf
ROOT
ATOM      1  C   UNL     1      16.543   0.526  -2.877  1.00  0.00     0.025 C 
ATOM      2  C   UNL     1      17.766   0.029  -3.124  1.00  0.00     0.010 C 
ENDROOT
BRANCH   1   3
ATOM      3  C   UNL     1      16.249   1.877  -2.361  1.00  0.00     0.064 C 
ATOM      4  O   UNL     1      15.851   2.800  -3.120  1.00  0.00    -0.545 OA
ATOM      5  O   UNL     1      16.347   2.116  -0.997  1.00  0.00    -0.545 OA
ENDBRANCH   1   3
BRANCH   2   6
ATOM      6  C   UNL     1      19.043   0.674  -2.756  1.00  0.00    -0.026 A 
ATOM      7  C   UNL     1      20.074  -0.051  -2.134  1.00  0.00     0.008 A 
ATOM      8  C   UNL     1      19.268   2.010  -3.125  1.00  0.00     0.008 A 
ATOM      9  C   UNL     1      21.293   0.568  -1.842  1.00  0.00     0.001 A 
ATOM     10  C   UNL     1      20.489   2.625  -2.830  1.00  0.00     0.001 A 
ATOM     11  C   UNL     1      21.499   1.907  -2.185  1.00  0.00     0.000 A 
ENDBRANCH   2   6
TORSDOF 2
ENDMDL
MODEL 8
REMARK VINA RESULT:    -2.933      1.844      2.903
REMARK INTER + INTRA:          -3.540
REMARK INTER:                  -3.378
REMARK INTRA:                  -0.162
REMARK UNBOUND:                -0.264
REMARK SMILES O=C([O-])C=Cc1ccccc1
REMARK SMILES IDX 4 1 5 2 2 3 1 4 3 5 6 6 7 7 11 8 8 9 10 10 9 11
REMARK H PARENT
REMARK Flexibility Score: inf
ROOT
ATOM      1  C   UNL     1      10.179   9.229  -2.009  1.00  0.00     0.025 C 
ATOM      2  C   UNL     1       9.829   7.933  -1.965  1.00  0.00     0.010 C 
ENDROOT
BRANCH   1   3
ATOM      3  C   UNL     1      11.559   9.749  -2.045  1.00  0.00     0.064 C 
ATOM      4  O   UNL     1      12.215   9.804  -3.119  1.00  0.00    -0.545 OA
ATOM      5  O   UNL     1      12.123  10.252  -0.880  1.00  0.00    -0.545 OA
ENDBRANCH   1   3
BRANCH   2   6
ATOM      6  C   UNL     1      10.758   6.802  -1.762  1.00  0.00    -0.026 A 
ATOM      7  C   UNL     1      11.615   6.369  -2.788  1.00  0.00     0.008 A 
ATOM      8  C   UNL     1      10.859   6.217  -0.489  1.00  0.00     0.008 A 
ATOM      9  C   UNL     1      12.522   5.331  -2.556  1.00  0.00     0.001 A 
ATOM     10  C   UNL     1      11.768   5.179  -0.261  1.00  0.00     0.001 A 
ATOM     11  C   UNL     1      12.595   4.732  -1.295  1.00  0.00     0.000 A 
ENDBRANCH   2   6
TORSDOF 2
ENDMDL
MODEL 9
REMARK VINA RESULT:    -2.814     10.437     11.784
REMARK INTER + INTRA:          -3.408
REMARK INTER:                  -3.182
REMARK INTRA:                  -0.226
REMARK UNBOUND:                -0.264
REMARK SMILES O=C([O-])C=Cc1ccccc1
REMARK SMILES IDX 4 1 5 2 2 3 1 4 3 5 6 6 7 7 11 8 8 9 10 10 9 11
REMARK H PARENT
REMARK Flexibility Score: inf
ROOT
ATOM      1  C   UNL     1      12.071  17.418   0.682  1.00  0.00     0.025 C 
ATOM      2  C   UNL     1      13.356  17.030   0.716  1.00  0.00     0.010 C 
ENDROOT
BRANCH   1   3
ATOM      3  C   UNL     1      11.162  17.295  -0.474  1.00  0.00     0.064 C 
ATOM      4  O   UNL     1      11.188  18.124  -1.423  1.00  0.00    -0.545 OA
ATOM      5  O   UNL     1      10.307  16.205  -0.549  1.00  0.00    -0.545 OA
ENDBRANCH   1   3
BRANCH   2   6
ATOM      6  C   UNL     1      14.144  16.576  -0.449  1.00  0.00    -0.026 A 
ATOM      7  C   UNL     1      14.031  15.264  -0.939  1.00  0.00     0.008 A 
ATOM      8  C   UNL     1      14.940  17.502  -1.140  1.00  0.00     0.008 A 
ATOM      9  C   UNL     1      14.748  14.872  -2.074  1.00  0.00     0.001 A 
ATOM     10  C   UNL     1      15.655  17.107  -2.276  1.00  0.00     0.001 A 
ATOM     11  C   UNL     1      15.563  15.792  -2.740  1.00  0.00     0.000 A 
ENDBRANCH   2   6
TORSDOF 2
ENDMDL
