MODEL 1
REMARK VINA RESULT:    -4.175      0.000      0.000
REMARK INTER + INTRA:          -5.673
REMARK INTER:                  -5.151
REMARK INTRA:                  -0.522
REMARK UNBOUND:                -0.522
REMARK SMILES C=CC[C@@H](C)C(=O)CC
REMARK SMILES IDX 4 1 5 2 6 3 7 4 8 5 9 6 3 7 2 8 1 9
REMARK H PARENT
REMARK Flexibility Score: inf
ROOT
ATOM      1  C   UNL     1     -11.527 -16.492  30.146  1.00  0.00     0.057 C 
ATOM      2  C   UNL     1     -12.889 -16.173  30.781  1.00  0.00     0.016 C 
ENDROOT
BRANCH   1   3
ATOM      3  C   UNL     1     -11.302 -17.989  30.094  1.00  0.00     0.135 C 
ATOM      4  O   UNL     1     -10.185 -18.414  29.837  1.00  0.00    -0.299 OA
BRANCH   3   5
ATOM      5  C   UNL     1     -12.420 -18.975  30.325  1.00  0.00     0.072 C 
ATOM      6  C   UNL     1     -12.749 -19.737  29.045  1.00  0.00     0.012 C 
ENDBRANCH   3   5
ENDBRANCH   1   3
BRANCH   1   7
ATOM      7  C   UNL     1     -11.384 -15.872  28.742  1.00  0.00     0.038 C 
BRANCH   7   8
ATOM      8  C   UNL     1     -12.690 -15.898  27.992  1.00  0.00    -0.034 C 
ATOM      9  C   UNL     1     -12.854 -16.626  26.884  1.00  0.00     0.004 C 
ENDBRANCH   7   8
ENDBRANCH   1   7
TORSDOF 4
ENDMDL
MODEL 2
REMARK VINA RESULT:    -4.144      1.851      3.496
REMARK INTER + INTRA:          -5.635
REMARK INTER:                  -5.473
REMARK INTRA:                  -0.162
REMARK UNBOUND:                -0.522
REMARK SMILES C=CC[C@@H](C)C(=O)CC
REMARK SMILES IDX 4 1 5 2 6 3 7 4 8 5 9 6 3 7 2 8 1 9
REMARK H PARENT
REMARK Flexibility Score: inf
ROOT
ATOM      1  C   UNL     1     -12.190 -16.120  29.319  1.00  0.00     0.057 C 
ATOM      2  C   UNL     1     -10.674 -15.892  29.434  1.00  0.00     0.016 C 
ENDROOT
BRANCH   1   3
ATOM      3  C   UNL     1     -12.497 -17.101  28.207  1.00  0.00     0.135 C 
ATOM      4  O   UNL     1     -12.774 -18.257  28.493  1.00  0.00    -0.299 OA
BRANCH   3   5
ATOM      5  C   UNL     1     -12.447 -16.704  26.752  1.00  0.00     0.072 C 
ATOM      6  C   UNL     1     -11.200 -17.267  26.076  1.00  0.00     0.012 C 
ENDBRANCH   3   5
ENDBRANCH   1   3
BRANCH   1   7
ATOM      7  C   UNL     1     -12.806 -16.595  30.649  1.00  0.00     0.038 C 
BRANCH   7   8
ATOM      8  C   UNL     1     -13.730 -15.557  31.230  1.00  0.00    -0.034 C 
ATOM      9  C   UNL     1     -14.031 -15.528  32.532  1.00  0.00     0.004 C 
ENDBRANCH   7   8
ENDBRANCH   1   7
TORSDOF 4
ENDMDL
MODEL 3
REMARK VINA RESULT:    -4.117      1.070      3.076
REMARK INTER + INTRA:          -5.601
REMARK INTER:                  -5.124
REMARK INTRA:                  -0.477
REMARK UNBOUND:                -0.522
REMARK SMILES C=CC[C@@H](C)C(=O)CC
REMARK SMILES IDX 4 1 5 2 6 3 7 4 8 5 9 6 3 7 2 8 1 9
REMARK H PARENT
REMARK Flexibility Score: inf
ROOT
ATOM      1  C   UNL     1     -12.503 -17.565  29.467  1.00  0.00     0.057 C 
ATOM      2  C   UNL     1     -12.655 -16.392  30.448  1.00  0.00     0.016 C 
ENDROOT
BRANCH   1   3
ATOM      3  C   UNL     1     -11.327 -17.335  28.540  1.00  0.00     0.135 C 
ATOM      4  O   UNL     1     -10.206 -17.233  29.016  1.00  0.00    -0.299 OA
BRANCH   3   5
ATOM      5  C   UNL     1     -11.500 -17.200  27.047  1.00  0.00     0.072 C 
ATOM      6  C   UNL     1     -12.864 -16.606  26.707  1.00  0.00     0.012 C 
ENDBRANCH   3   5
ENDBRANCH   1   3
BRANCH   1   7
ATOM      7  C   UNL     1     -12.363 -18.915  30.198  1.00  0.00     0.038 C 
BRANCH   7   8
ATOM      8  C   UNL     1     -12.606 -20.074  29.267  1.00  0.00    -0.034 C 
ATOM      9  C   UNL     1     -13.717 -20.168  28.531  1.00  0.00     0.004 C 
ENDBRANCH   7   8
ENDBRANCH   1   7
TORSDOF 4
ENDMDL
MODEL 4
REMARK VINA RESULT:    -4.082      1.738      3.007
REMARK INTER + INTRA:          -5.558
REMARK INTER:                  -5.358
REMARK INTRA:                  -0.200
REMARK UNBOUND:                -0.522
REMARK SMILES C=CC[C@@H](C)C(=O)CC
REMARK SMILES IDX 4 1 5 2 6 3 7 4 8 5 9 6 3 7 2 8 1 9
REMARK H PARENT
REMARK Flexibility Score: inf
ROOT
ATOM      1  C   UNL     1     -12.563 -16.536  29.545  1.00  0.00     0.057 C 
ATOM      2  C   UNL     1     -11.306 -15.909  28.921  1.00  0.00     0.016 C 
ENDROOT
BRANCH   1   3
ATOM      3  C   UNL     1     -12.559 -18.039  29.354  1.00  0.00     0.135 C 
ATOM      4  O   UNL     1     -13.217 -18.524  28.445  1.00  0.00    -0.299 OA
BRANCH   3   5
ATOM      5  C   UNL     1     -11.789 -18.959  30.268  1.00  0.00     0.072 C 
ATOM      6  C   UNL     1     -12.732 -19.893  31.021  1.00  0.00     0.012 C 
ENDBRANCH   3   5
ENDBRANCH   1   3
BRANCH   1   7
ATOM      7  C   UNL     1     -12.709 -16.177  31.036  1.00  0.00     0.038 C 
BRANCH   7   8
ATOM      8  C   UNL     1     -13.934 -15.336  31.283  1.00  0.00    -0.034 C 
ATOM      9  C   UNL     1     -14.368 -15.065  32.518  1.00  0.00     0.004 C 
ENDBRANCH   7   8
ENDBRANCH   1   7
TORSDOF 4
ENDMDL
MODEL 5
REMARK VINA RESULT:    -4.036      1.713      3.955
REMARK INTER + INTRA:          -5.501
REMARK INTER:                  -5.209
REMARK INTRA:                  -0.292
REMARK UNBOUND:                -0.522
REMARK SMILES C=CC[C@@H](C)C(=O)CC
REMARK SMILES IDX 4 1 5 2 6 3 7 4 8 5 9 6 3 7 2 8 1 9
REMARK H PARENT
REMARK Flexibility Score: inf
ROOT
ATOM      1  C   UNL     1     -11.901 -18.729  28.657  1.00  0.00     0.057 C 
ATOM      2  C   UNL     1     -13.372 -19.050  28.353  1.00  0.00     0.016 C 
ENDROOT
BRANCH   1   3
ATOM      3  C   UNL     1     -11.485 -17.442  27.976  1.00  0.00     0.135 C 
ATOM      4  O   UNL     1     -11.135 -17.475  26.805  1.00  0.00    -0.299 OA
BRANCH   3   5
ATOM      5  C   UNL     1     -11.463 -16.122  28.705  1.00  0.00     0.072 C 
ATOM      6  C   UNL     1     -12.738 -15.328  28.434  1.00  0.00     0.012 C 
ENDBRANCH   3   5
ENDBRANCH   1   3
BRANCH   1   7
ATOM      7  C   UNL     1     -11.626 -18.657  30.172  1.00  0.00     0.038 C 
BRANCH   7   8
ATOM      8  C   UNL     1     -12.508 -19.607  30.938  1.00  0.00    -0.034 C 
ATOM      9  C   UNL     1     -12.006 -20.625  31.643  1.00  0.00     0.004 C 
ENDBRANCH   7   8
ENDBRANCH   1   7
TORSDOF 4
ENDMDL
MODEL 6
REMARK VINA RESULT:    -4.007      1.317      1.964
REMARK INTER + INTRA:          -5.465
REMARK INTER:                  -5.228
REMARK INTRA:                  -0.237
REMARK UNBOUND:                -0.522
REMARK SMILES C=CC[C@@H](C)C(=O)CC
REMARK SMILES IDX 4 1 5 2 6 3 7 4 8 5 9 6 3 7 2 8 1 9
REMARK H PARENT
REMARK Flexibility Score: inf
ROOT
ATOM      1  C   UNL     1     -12.120 -17.799  28.625  1.00  0.00     0.057 C 
ATOM      2  C   UNL     1     -11.026 -17.653  27.556  1.00  0.00     0.016 C 
ENDROOT
BRANCH   1   3
ATOM      3  C   UNL     1     -11.803 -18.951  29.556  1.00  0.00     0.135 C 
ATOM      4  O   UNL     1     -10.738 -18.954  30.156  1.00  0.00    -0.299 OA
BRANCH   3   5
ATOM      5  C   UNL     1     -12.750 -20.109  29.748  1.00  0.00     0.072 C 
ATOM      6  C   UNL     1     -13.633 -20.301  28.519  1.00  0.00     0.012 C 
ENDBRANCH   3   5
ENDBRANCH   1   3
BRANCH   1   7
ATOM      7  C   UNL     1     -12.328 -16.496  29.421  1.00  0.00     0.038 C 
BRANCH   7   8
ATOM      8  C   UNL     1     -12.417 -15.301  28.509  1.00  0.00    -0.034 C 
ATOM      9  C   UNL     1     -13.560 -14.631  28.332  1.00  0.00     0.004 C 
ENDBRANCH   7   8
ENDBRANCH   1   7
TORSDOF 4
ENDMDL
MODEL 7
REMARK VINA RESULT:    -3.983      2.202      2.958
REMARK INTER + INTRA:          -5.436
REMARK INTER:                  -5.230
REMARK INTRA:                  -0.206
REMARK UNBOUND:                -0.522
REMARK SMILES C=CC[C@@H](C)C(=O)CC
REMARK SMILES IDX 4 1 5 2 6 3 7 4 8 5 9 6 3 7 2 8 1 9
REMARK H PARENT
REMARK Flexibility Score: inf
ROOT
ATOM      1  C   UNL     1     -12.353 -15.926  28.980  1.00  0.00     0.057 C 
ATOM      2  C   UNL     1     -12.874 -16.138  30.410  1.00  0.00     0.016 C 
ENDROOT
BRANCH   1   3
ATOM      3  C   UNL     1     -12.220 -17.251  28.259  1.00  0.00     0.135 C 
ATOM      4  O   UNL     1     -13.138 -18.056  28.321  1.00  0.00    -0.299 OA
BRANCH   3   5
ATOM      5  C   UNL     1     -10.978 -17.622  27.489  1.00  0.00     0.072 C 
ATOM      6  C   UNL     1     -11.104 -17.220  26.022  1.00  0.00     0.012 C 
ENDBRANCH   3   5
ENDBRANCH   1   3
BRANCH   1   7
ATOM      7  C   UNL     1     -13.244 -14.957  28.178  1.00  0.00     0.038 C 
BRANCH   7   8
ATOM      8  C   UNL     1     -14.222 -14.240  29.071  1.00  0.00    -0.034 C 
ATOM      9  C   UNL     1     -14.895 -13.162  28.659  1.00  0.00     0.004 C 
ENDBRANCH   7   8
ENDBRANCH   1   7
TORSDOF 4
ENDMDL
MODEL 8
REMARK VINA RESULT:    -3.954      1.526      1.852
REMARK INTER + INTRA:          -5.400
REMARK INTER:                  -5.120
REMARK INTRA:                  -0.280
REMARK UNBOUND:                -0.522
REMARK SMILES C=CC[C@@H](C)C(=O)CC
REMARK SMILES IDX 4 1 5 2 6 3 7 4 8 5 9 6 3 7 2 8 1 9
REMARK H PARENT
REMARK Flexibility Score: inf
ROOT
ATOM      1  C   UNL     1     -10.979 -17.019  29.196  1.00  0.00     0.057 C 
ATOM      2  C   UNL     1     -10.211 -16.178  30.228  1.00  0.00     0.016 C 
ENDROOT
BRANCH   1   3
ATOM      3  C   UNL     1     -11.961 -17.942  29.888  1.00  0.00     0.135 C 
ATOM      4  O   UNL     1     -12.854 -17.457  30.568  1.00  0.00    -0.299 OA
BRANCH   3   5
ATOM      5  C   UNL     1     -11.857 -19.443  29.785  1.00  0.00     0.072 C 
ATOM      6  C   UNL     1     -12.447 -20.117  31.021  1.00  0.00     0.012 C 
ENDBRANCH   3   5
ENDBRANCH   1   3
BRANCH   1   7
ATOM      7  C   UNL     1     -11.699 -16.140  28.155  1.00  0.00     0.038 C 
BRANCH   7   8
ATOM      8  C   UNL     1     -11.974 -16.903  26.885  1.00  0.00    -0.034 C 
ATOM      9  C   UNL     1     -10.989 -17.356  26.105  1.00  0.00     0.004 C 
ENDBRANCH   7   8
ENDBRANCH   1   7
TORSDOF 4
ENDMDL
MODEL 9
REMARK VINA RESULT:    -3.911      1.997      3.697
REMARK INTER + INTRA:          -5.347
REMARK INTER:                  -5.150
REMARK INTRA:                  -0.196
REMARK UNBOUND:                -0.522
REMARK SMILES C=CC[C@@H](C)C(=O)CC
REMARK SMILES IDX 4 1 5 2 6 3 7 4 8 5 9 6 3 7 2 8 1 9
REMARK H PARENT
REMARK Flexibility Score: inf
ROOT
ATOM      1  C   UNL     1     -12.521 -17.436  29.576  1.00  0.00     0.057 C 
ATOM      2  C   UNL     1     -12.514 -16.167  30.444  1.00  0.00     0.016 C 
ENDROOT
BRANCH   1   3
ATOM      3  C   UNL     1     -12.196 -17.097  28.136  1.00  0.00     0.135 C 
ATOM      4  O   UNL     1     -12.964 -16.385  27.505  1.00  0.00    -0.299 OA
BRANCH   3   5
ATOM      5  C   UNL     1     -10.966 -17.632  27.446  1.00  0.00     0.072 C 
ATOM      6  C   UNL     1     -10.977 -17.280  25.961  1.00  0.00     0.012 C 
ENDBRANCH   3   5
ENDBRANCH   1   3
BRANCH   1   7
ATOM      7  C   UNL     1     -11.555 -18.509  30.114  1.00  0.00     0.038 C 
BRANCH   7   8
ATOM      8  C   UNL     1     -12.266 -19.813  30.369  1.00  0.00    -0.034 C 
ATOM      9  C   UNL     1     -12.081 -20.511  31.492  1.00  0.00     0.004 C 
ENDBRANCH   7   8
ENDBRANCH   1   7
TORSDOF 4
ENDMDL
