MODEL 1
REMARK VINA RESULT:    25.283      0.000      0.000
REMARK INTER + INTRA:          35.149
REMARK INTER:                  34.151
REMARK INTRA:                   0.998
REMARK UNBOUND:                 0.998
REMARK SMILES C=C1C(=O)O[C@H]2[C@H]3O[C@@]3(C)CCC=C(C)CC[C@@H]12
REMARK SMILES IDX 6 1 18 2 2 3 1 4 3 5 4 6 5 7 17 8 16 9 14 10 15 11 13 12
REMARK SMILES IDX 7 14 9 15 8 16 10 17 11 18 12 19
REMARK H PARENT
REMARK Flexibility Score: 70.00
ROOT
ATOM      1  C   UNL     1      12.333  12.206  29.433  1.00  0.00     0.216 C 
ATOM      2  C   UNL     1      11.930  12.506  30.938  1.00  0.00     0.070 C 
ATOM      3  C   UNL     1      11.000  11.379  31.287  1.00  0.00     0.037 C 
ATOM      4  C   UNL     1      10.290  11.228  32.406  1.00  0.00     0.021 C 
ATOM      5  C   UNL     1      11.199  10.365  30.280  1.00  0.00     0.334 C 
ATOM      6  O   UNL     1      10.702   9.208  30.297  1.00  0.00    -0.247 OA
ATOM      7  O   UNL     1      12.055  10.813  29.295  1.00  0.00    -0.455 OA
ENDROOT
BRANCH   2   8
ATOM      8  C   UNL     1      11.536  13.917  31.479  1.00  0.00     0.017 C 
BRANCH   8   9
ATOM      9  C   UNL     1      12.660  14.767  32.107  1.00  0.00     0.031 C 
BRANCH   9  10
ATOM     10  C   UNL     1      13.501  15.726  31.251  1.00  0.00    -0.077 C 
ATOM     11  C   UNL     1      13.627  17.122  31.819  1.00  0.00     0.039 C 
ATOM     12  C   UNL     1      14.019  15.555  29.998  1.00  0.00    -0.028 CG0
ATOM     13  G   UNL     1      14.197  14.308  29.152  1.00  0.00     0.000 G0
ENDBRANCH   9  10
ENDBRANCH   8   9
ENDBRANCH   2   8
BRANCH   1  14
ATOM     14  C   UNL     1      11.619  12.881  28.230  1.00  0.00     0.192 C 
ATOM     15  C   UNL     1      12.293  13.908  27.377  1.00  0.00     0.096 C 
ATOM     16  O   UNL     1      11.389  14.250  28.401  1.00  0.00    -0.362 OA
ATOM     17  C   UNL     1      11.705  14.189  25.995  1.00  0.00     0.045 C 
BRANCH  15  18
ATOM     18  C   UNL     1      13.754  14.315  27.646  1.00  0.00     0.042 C 
BRANCH  18  19
ATOM     19  C   UNL     1      14.218  14.311  29.126  1.00  0.00     0.030 CG0
ATOM     20  G   UNL     1      14.040  15.571  29.952  1.00  0.00     0.000 G0
ENDBRANCH  18  19
ENDBRANCH  15  18
ENDBRANCH   1  14
TORSDOF 0
ENDMDL
MODEL 2
REMARK VINA RESULT:    25.449      1.789      3.236
REMARK INTER + INTRA:          35.374
REMARK INTER:                  33.219
REMARK INTRA:                   2.154
REMARK UNBOUND:                 0.998
REMARK SMILES C=C1C(=O)O[C@H]2[C@H]3O[C@@]3(C)CCC=C(C)CC[C@@H]12
REMARK SMILES IDX 6 1 18 2 2 3 1 4 3 5 4 6 5 7 17 8 16 9 14 10 15 11 13 12
REMARK SMILES IDX 7 14 9 15 8 16 10 17 11 18 12 19
REMARK H PARENT
REMARK Flexibility Score: 70.00
ROOT
ATOM      1  C   UNL     1      12.212  12.001  31.001  1.00  0.00     0.216 C 
ATOM      2  C   UNL     1      10.880  12.669  30.457  1.00  0.00     0.070 C 
ATOM      3  C   UNL     1       9.916  11.520  30.372  1.00  0.00     0.037 C 
ATOM      4  C   UNL     1       8.684  11.529  29.860  1.00  0.00     0.021 C 
ATOM      5  C   UNL     1      10.485  10.457  31.164  1.00  0.00     0.334 C 
ATOM      6  O   UNL     1       9.913   9.373  31.454  1.00  0.00    -0.247 OA
ATOM      7  O   UNL     1      11.745  10.798  31.613  1.00  0.00    -0.455 OA
ENDROOT
BRANCH   2   8
ATOM      8  C   UNL     1      10.828  13.699  29.285  1.00  0.00     0.017 C 
BRANCH   8   9
ATOM      9  C   UNL     1      11.222  13.188  27.882  1.00  0.00     0.031 C 
BRANCH   9  10
ATOM     10  C   UNL     1      11.942  14.101  26.879  1.00  0.00    -0.077 C 
ATOM     11  C   UNL     1      11.256  14.217  25.536  1.00  0.00     0.039 C 
ATOM     12  C   UNL     1      13.170  14.696  26.962  1.00  0.00    -0.028 CG0
ATOM     13  G   UNL     1      14.102  14.904  28.141  1.00  0.00     0.000 G0
ENDBRANCH   9  10
ENDBRANCH   8   9
ENDBRANCH   2   8
BRANCH   1  14
ATOM     14  C   UNL     1      13.364  11.553  30.060  1.00  0.00     0.192 C 
ATOM     15  C   UNL     1      14.186  12.533  29.284  1.00  0.00     0.096 C 
ATOM     16  O   UNL     1      13.123  11.812  28.707  1.00  0.00    -0.362 OA
ATOM     17  C   UNL     1      15.538  12.067  28.746  1.00  0.00     0.045 C 
BRANCH  15  18
ATOM     18  C   UNL     1      13.936  14.047  29.420  1.00  0.00     0.042 C 
BRANCH  18  19
ATOM     19  C   UNL     1      14.129  14.903  28.141  1.00  0.00     0.030 CG0
ATOM     20  G   UNL     1      13.176  14.704  26.977  1.00  0.00     0.000 G0
ENDBRANCH  18  19
ENDBRANCH  15  18
ENDBRANCH   1  14
TORSDOF 0
ENDMDL
MODEL 3
REMARK VINA RESULT:    26.104      1.533      4.268
REMARK INTER + INTRA:          36.258
REMARK INTER:                  36.657
REMARK INTRA:                  -0.400
REMARK UNBOUND:                 0.998
REMARK SMILES C=C1C(=O)O[C@H]2[C@H]3O[C@@]3(C)CCC=C(C)CC[C@@H]12
REMARK SMILES IDX 6 1 18 2 2 3 1 4 3 5 4 6 5 7 17 8 16 9 14 10 15 11 13 12
REMARK SMILES IDX 7 14 9 15 8 16 10 17 11 18 12 19
REMARK H PARENT
REMARK Flexibility Score: 70.00
ROOT
ATOM      1  C   UNL     1      11.349  13.641  28.418  1.00  0.00     0.216 C 
ATOM      2  C   UNL     1      12.670  14.409  27.991  1.00  0.00     0.070 C 
ATOM      3  C   UNL     1      12.593  14.438  26.491  1.00  0.00     0.037 C 
ATOM      4  C   UNL     1      13.524  14.872  25.639  1.00  0.00     0.021 C 
ATOM      5  C   UNL     1      11.227  14.126  26.149  1.00  0.00     0.334 C 
ATOM      6  O   UNL     1      10.728  14.184  24.995  1.00  0.00    -0.247 OA
ATOM      7  O   UNL     1      10.504  13.790  27.276  1.00  0.00    -0.455 OA
ENDROOT
BRANCH   2   8
ATOM      8  C   UNL     1      14.080  14.141  28.604  1.00  0.00     0.017 C 
BRANCH   8   9
ATOM      9  C   UNL     1      14.456  14.932  29.875  1.00  0.00     0.031 C 
BRANCH   9  10
ATOM     10  C   UNL     1      13.377  15.408  30.860  1.00  0.00    -0.077 C 
ATOM     11  C   UNL     1      13.265  16.912  30.982  1.00  0.00     0.039 C 
ATOM     12  C   UNL     1      12.619  14.691  31.741  1.00  0.00    -0.028 CG0
ATOM     13  G   UNL     1      12.365  13.200  31.858  1.00  0.00     0.000 G0
ENDBRANCH   9  10
ENDBRANCH   8   9
ENDBRANCH   2   8
BRANCH   1  14
ATOM     14  C   UNL     1      11.336  12.119  28.733  1.00  0.00     0.192 C 
ATOM     15  C   UNL     1      11.217  11.596  30.129  1.00  0.00     0.096 C 
ATOM     16  O   UNL     1      12.450  11.680  29.455  1.00  0.00    -0.362 OA
ATOM     17  C   UNL     1      10.777  10.145  30.315  1.00  0.00     0.045 C 
BRANCH  15  18
ATOM     18  C   UNL     1      11.067  12.563  31.319  1.00  0.00     0.042 C 
BRANCH  18  19
ATOM     19  C   UNL     1      12.372  13.192  31.875  1.00  0.00     0.030 CG0
ATOM     20  G   UNL     1      12.580  14.688  31.735  1.00  0.00     0.000 G0
ENDBRANCH  18  19
ENDBRANCH  15  18
ENDBRANCH   1  14
TORSDOF 0
ENDMDL
MODEL 4
REMARK VINA RESULT:    26.680      2.178      3.688
REMARK INTER + INTRA:          37.037
REMARK INTER:                  36.878
REMARK INTRA:                   0.159
REMARK UNBOUND:                 0.998
REMARK SMILES C=C1C(=O)O[C@H]2[C@H]3O[C@@]3(C)CCC=C(C)CC[C@@H]12
REMARK SMILES IDX 6 1 18 2 2 3 1 4 3 5 4 6 5 7 17 8 16 9 14 10 15 11 13 12
REMARK SMILES IDX 7 14 9 15 8 16 10 17 11 18 12 19
REMARK H PARENT
REMARK Flexibility Score: 70.00
ROOT
ATOM      1  C   UNL     1      12.213  12.876  30.461  1.00  0.00     0.216 C 
ATOM      2  C   UNL     1      10.891  12.651  29.613  1.00  0.00     0.070 C 
ATOM      3  C   UNL     1      10.264  11.443  30.249  1.00  0.00     0.037 C 
ATOM      4  C   UNL     1       9.188  10.773  29.833  1.00  0.00     0.021 C 
ATOM      5  C   UNL     1      10.906  11.282  31.531  1.00  0.00     0.334 C 
ATOM      6  O   UNL     1      10.565  10.462  32.424  1.00  0.00    -0.247 OA
ATOM      7  O   UNL     1      11.937  12.187  31.681  1.00  0.00    -0.455 OA
ENDROOT
BRANCH   2   8
ATOM      8  C   UNL     1      10.822  12.723  28.055  1.00  0.00     0.017 C 
BRANCH   8   9
ATOM      9  C   UNL     1      10.696  14.126  27.422  1.00  0.00     0.031 C 
BRANCH   9  10
ATOM     10  C   UNL     1      11.410  14.468  26.107  1.00  0.00    -0.077 C 
ATOM     11  C   UNL     1      10.481  14.718  24.939  1.00  0.00     0.039 C 
ATOM     12  C   UNL     1      12.741  14.433  25.798  1.00  0.00    -0.028 CG0
ATOM     13  G   UNL     1      13.969  14.333  26.683  1.00  0.00     0.000 G0
ENDBRANCH   9  10
ENDBRANCH   8   9
ENDBRANCH   2   8
BRANCH   1  14
ATOM     14  C   UNL     1      13.598  12.343  30.001  1.00  0.00     0.192 C 
ATOM     15  C   UNL     1      14.379  12.995  28.905  1.00  0.00     0.096 C 
ATOM     16  O   UNL     1      13.606  11.836  28.698  1.00  0.00    -0.362 OA
ATOM     17  C   UNL     1      15.874  12.694  28.815  1.00  0.00     0.045 C 
BRANCH  15  18
ATOM     18  C   UNL     1      13.844  14.259  28.206  1.00  0.00     0.042 C 
BRANCH  18  19
ATOM     19  C   UNL     1      13.982  14.313  26.662  1.00  0.00     0.030 CG0
ATOM     20  G   UNL     1      12.729  14.461  25.819  1.00  0.00     0.000 G0
ENDBRANCH  18  19
ENDBRANCH  15  18
ENDBRANCH   1  14
TORSDOF 0
ENDMDL
MODEL 5
REMARK VINA RESULT:    26.908      1.978      3.480
REMARK INTER + INTRA:          37.344
REMARK INTER:                  35.402
REMARK INTRA:                   1.942
REMARK UNBOUND:                 0.998
REMARK SMILES C=C1C(=O)O[C@H]2[C@H]3O[C@@]3(C)CCC=C(C)CC[C@@H]12
REMARK SMILES IDX 6 1 18 2 2 3 1 4 3 5 4 6 5 7 17 8 16 9 14 10 15 11 13 12
REMARK SMILES IDX 7 14 9 15 8 16 10 17 11 18 12 19
REMARK H PARENT
REMARK Flexibility Score: 70.00
ROOT
ATOM      1  C   UNL     1      10.609  12.688  30.305  1.00  0.00     0.216 C 
ATOM      2  C   UNL     1      10.999  11.329  29.585  1.00  0.00     0.070 C 
ATOM      3  C   UNL     1      10.665  10.279  30.605  1.00  0.00     0.037 C 
ATOM      4  C   UNL     1      10.915   8.970  30.535  1.00  0.00     0.021 C 
ATOM      5  C   UNL     1       9.809  10.916  31.576  1.00  0.00     0.334 C 
ATOM      6  O   UNL     1       9.206  10.334  32.516  1.00  0.00    -0.247 OA
ATOM      7  O   UNL     1       9.694  12.267  31.318  1.00  0.00    -0.455 OA
ENDROOT
BRANCH   2   8
ATOM      8  C   UNL     1      12.315  11.110  28.775  1.00  0.00     0.017 C 
BRANCH   8   9
ATOM      9  C   UNL     1      13.630  11.030  29.580  1.00  0.00     0.031 C 
BRANCH   9  10
ATOM     10  C   UNL     1      14.938  11.608  29.019  1.00  0.00    -0.077 C 
ATOM     11  C   UNL     1      16.125  10.675  29.119  1.00  0.00     0.039 C 
ATOM     12  C   UNL     1      15.223  12.874  28.590  1.00  0.00    -0.028 CG0
ATOM     13  G   UNL     1      14.315  14.041  28.248  1.00  0.00     0.000 G0
ENDBRANCH   9  10
ENDBRANCH   8   9
ENDBRANCH   2   8
BRANCH   1  14
ATOM     14  C   UNL     1      11.654  13.567  31.046  1.00  0.00     0.192 C 
ATOM     15  C   UNL     1      12.762  14.266  30.325  1.00  0.00     0.096 C 
ATOM     16  O   UNL     1      12.954  13.052  31.013  1.00  0.00    -0.362 OA
ATOM     17  C   UNL     1      13.457  15.427  31.033  1.00  0.00     0.045 C 
BRANCH  15  18
ATOM     18  C   UNL     1      12.888  14.163  28.793  1.00  0.00     0.042 C 
BRANCH  18  19
ATOM     19  C   UNL     1      14.325  14.066  28.216  1.00  0.00     0.030 CG0
ATOM     20  G   UNL     1      15.190  12.881  28.602  1.00  0.00     0.000 G0
ENDBRANCH  18  19
ENDBRANCH  15  18
ENDBRANCH   1  14
TORSDOF 0
ENDMDL
