MODEL 1
REMARK VINA RESULT:    -6.317      0.000      0.000
REMARK INTER + INTRA:          -7.320
REMARK INTER:                  -7.425
REMARK INTRA:                   0.105
REMARK UNBOUND:                 0.105
REMARK SMILES O=c1c(O)c(-c2ccc(O)cc2)oc2cc(O)cc(O)c12
REMARK SMILES IDX 5 1 3 2 2 3 1 4 21 5 19 6 18 7 16 8 15 9 14 10 13 11 6 12
REMARK SMILES IDX 7 13 8 14 9 15 12 16 11 17 10 18 4 20 20 22 17 24
REMARK H PARENT 10 19 4 21 20 23 17 25
REMARK Flexibility Score: inf
ROOT
ATOM      1  C   UNL     1     -38.554  75.481 -25.976  1.00  0.00     0.180 A 
ATOM      2  C   UNL     1     -38.383  74.554 -27.019  1.00  0.00     0.208 A 
ATOM      3  C   UNL     1     -37.082  74.233 -27.439  1.00  0.00     0.238 A 
ATOM      4  O   UNL     1     -36.935  73.362 -28.336  1.00  0.00    -0.285 OA
ATOM      5  C   UNL     1     -35.969  74.855 -26.824  1.00  0.00     0.111 A 
ATOM      6  C   UNL     1     -34.609  74.637 -27.197  1.00  0.00     0.134 A 
ATOM      7  C   UNL     1     -33.583  75.206 -26.433  1.00  0.00     0.093 A 
ATOM      8  C   UNL     1     -33.867  76.038 -25.351  1.00  0.00     0.123 A 
ATOM      9  C   UNL     1     -35.194  76.307 -25.014  1.00  0.00     0.094 A 
ATOM     10  C   UNL     1     -36.239  75.724 -25.735  1.00  0.00     0.146 A 
ATOM     11  O   UNL     1     -37.487  75.998 -25.375  1.00  0.00    -0.452 OA
ENDROOT
BRANCH   1  12
ATOM     12  C   UNL     1     -39.893  75.888 -25.494  1.00  0.00     0.021 A 
ATOM     13  C   UNL     1     -40.942  76.162 -26.390  1.00  0.00     0.016 A 
ATOM     14  C   UNL     1     -42.192  76.568 -25.913  1.00  0.00     0.047 A 
ATOM     15  C   UNL     1     -42.406  76.720 -24.540  1.00  0.00     0.115 A 
ATOM     16  C   UNL     1     -40.110  76.063 -24.116  1.00  0.00     0.016 A 
ATOM     17  C   UNL     1     -41.360  76.470 -23.643  1.00  0.00     0.047 A 
BRANCH  15  18
ATOM     18  O   UNL     1     -43.657  77.125 -24.078  1.00  0.00    -0.508 OA
ATOM     19  H   UNL     1     -44.180  76.571 -23.410  1.00  0.00     0.293 HD
ENDBRANCH  15  18
ENDBRANCH   1  12
BRANCH   2  20
ATOM     20  O   UNL     1     -39.495  73.936 -27.597  1.00  0.00    -0.502 OA
ATOM     21  H   UNL     1     -39.699  74.001 -28.587  1.00  0.00     0.293 HD
ENDBRANCH   2  20
BRANCH   6  22
ATOM     22  O   UNL     1     -34.217  73.896 -28.317  1.00  0.00    -0.507 OA
ATOM     23  H   UNL     1     -34.705  73.887 -29.200  1.00  0.00     0.293 HD
ENDBRANCH   6  22
BRANCH   8  24
ATOM     24  O   UNL     1     -32.821  76.600 -24.623  1.00  0.00    -0.508 OA
ATOM     25  H   UNL     1     -32.913  77.504 -24.176  1.00  0.00     0.293 HD
ENDBRANCH   8  24
TORSDOF 5
ENDMDL
MODEL 2
REMARK VINA RESULT:    -5.563      1.793      6.487
REMARK INTER + INTRA:          -6.433
REMARK INTER:                  -6.200
REMARK INTRA:                  -0.233
REMARK UNBOUND:                 0.105
REMARK SMILES O=c1c(O)c(-c2ccc(O)cc2)oc2cc(O)cc(O)c12
REMARK SMILES IDX 5 1 3 2 2 3 1 4 21 5 19 6 18 7 16 8 15 9 14 10 13 11 6 12
REMARK SMILES IDX 7 13 8 14 9 15 12 16 11 17 10 18 4 20 20 22 17 24
REMARK H PARENT 10 19 4 21 20 23 17 25
REMARK Flexibility Score: inf
ROOT
ATOM      1  C   UNL     1     -37.096  75.922 -26.274  1.00  0.00     0.180 A 
ATOM      2  C   UNL     1     -38.112  75.629 -27.201  1.00  0.00     0.208 A 
ATOM      3  C   UNL     1     -39.449  75.640 -26.772  1.00  0.00     0.238 A 
ATOM      4  O   UNL     1     -40.357  75.431 -27.618  1.00  0.00    -0.285 OA
ATOM      5  C   UNL     1     -39.753  75.929 -25.420  1.00  0.00     0.111 A 
ATOM      6  C   UNL     1     -41.069  75.928 -24.866  1.00  0.00     0.134 A 
ATOM      7  C   UNL     1     -41.264  76.355 -23.548  1.00  0.00     0.093 A 
ATOM      8  C   UNL     1     -40.186  76.719 -22.741  1.00  0.00     0.123 A 
ATOM      9  C   UNL     1     -38.890  76.666 -23.254  1.00  0.00     0.094 A 
ATOM     10  C   UNL     1     -38.667  76.279 -24.577  1.00  0.00     0.146 A 
ATOM     11  O   UNL     1     -37.418  76.253 -25.028  1.00  0.00    -0.452 OA
ENDROOT
BRANCH   1  12
ATOM     12  C   UNL     1     -35.663  75.906 -26.644  1.00  0.00     0.021 A 
ATOM     13  C   UNL     1     -34.979  74.698 -26.871  1.00  0.00     0.016 A 
ATOM     14  C   UNL     1     -33.619  74.706 -27.196  1.00  0.00     0.047 A 
ATOM     15  C   UNL     1     -32.923  75.915 -27.283  1.00  0.00     0.115 A 
ATOM     16  C   UNL     1     -34.952  77.116 -26.713  1.00  0.00     0.016 A 
ATOM     17  C   UNL     1     -33.592  77.120 -27.038  1.00  0.00     0.047 A 
BRANCH  15  18
ATOM     18  O   UNL     1     -31.568  75.907 -27.609  1.00  0.00    -0.508 OA
ATOM     19  H   UNL     1     -31.200  75.301 -28.332  1.00  0.00     0.293 HD
ENDBRANCH  15  18
ENDBRANCH   1  12
BRANCH   2  20
ATOM     20  O   UNL     1     -37.791  75.369 -28.536  1.00  0.00    -0.502 OA
ATOM     21  H   UNL     1     -37.966  76.036 -29.277  1.00  0.00     0.293 HD
ENDBRANCH   2  20
BRANCH   6  22
ATOM     22  O   UNL     1     -42.206  75.495 -25.557  1.00  0.00    -0.507 OA
ATOM     23  H   UNL     1     -42.928  76.103 -25.913  1.00  0.00     0.293 HD
ENDBRANCH   6  22
BRANCH   8  24
ATOM     24  O   UNL     1     -40.416  77.125 -21.429  1.00  0.00    -0.508 OA
ATOM     25  H   UNL     1     -41.351  77.162 -21.042  1.00  0.00     0.293 HD
ENDBRANCH   8  24
TORSDOF 5
ENDMDL
MODEL 3
REMARK VINA RESULT:    -5.230      1.694      6.704
REMARK INTER + INTRA:          -6.043
REMARK INTER:                  -5.845
REMARK INTRA:                  -0.198
REMARK UNBOUND:                 0.105
REMARK SMILES O=c1c(O)c(-c2ccc(O)cc2)oc2cc(O)cc(O)c12
REMARK SMILES IDX 5 1 3 2 2 3 1 4 21 5 19 6 18 7 16 8 15 9 14 10 13 11 6 12
REMARK SMILES IDX 7 13 8 14 9 15 12 16 11 17 10 18 4 20 20 22 17 24
REMARK H PARENT 10 19 4 21 20 23 17 25
REMARK Flexibility Score: inf
ROOT
ATOM      1  C   UNL     1     -39.070  75.780 -25.556  1.00  0.00     0.180 A 
ATOM      2  C   UNL     1     -40.249  75.820 -26.321  1.00  0.00     0.208 A 
ATOM      3  C   UNL     1     -41.476  76.031 -25.670  1.00  0.00     0.238 A 
ATOM      4  O   UNL     1     -42.521  76.120 -26.366  1.00  0.00    -0.285 OA
ATOM      5  C   UNL     1     -41.511  76.183 -24.263  1.00  0.00     0.111 A 
ATOM      6  C   UNL     1     -42.702  76.360 -23.496  1.00  0.00     0.134 A 
ATOM      7  C   UNL     1     -42.607  76.631 -22.126  1.00  0.00     0.093 A 
ATOM      8  C   UNL     1     -41.370  76.664 -21.482  1.00  0.00     0.123 A 
ATOM      9  C   UNL     1     -40.204  76.433 -22.212  1.00  0.00     0.094 A 
ATOM     10  C   UNL     1     -40.264  76.197 -23.587  1.00  0.00     0.146 A 
ATOM     11  O   UNL     1     -39.129  75.991 -24.245  1.00  0.00    -0.452 OA
ENDROOT
BRANCH   1  12
ATOM     12  C   UNL     1     -37.743  75.538 -26.165  1.00  0.00     0.021 A 
ATOM     13  C   UNL     1     -37.406  74.288 -26.714  1.00  0.00     0.016 A 
ATOM     14  C   UNL     1     -36.137  74.075 -27.262  1.00  0.00     0.047 A 
ATOM     15  C   UNL     1     -35.187  75.100 -27.258  1.00  0.00     0.115 A 
ATOM     16  C   UNL     1     -36.776  76.558 -26.145  1.00  0.00     0.016 A 
ATOM     17  C   UNL     1     -35.509  76.341 -26.695  1.00  0.00     0.047 A 
BRANCH  15  18
ATOM     18  O   UNL     1     -33.927  74.874 -27.809  1.00  0.00    -0.508 OA
ATOM     19  H   UNL     1     -33.359  74.085 -27.524  1.00  0.00     0.293 HD
ENDBRANCH  15  18
ENDBRANCH   1  12
BRANCH   2  20
ATOM     20  O   UNL     1     -40.189  75.690 -27.711  1.00  0.00    -0.502 OA
ATOM     21  H   UNL     1     -40.934  75.265 -28.249  1.00  0.00     0.293 HD
ENDBRANCH   2  20
BRANCH   6  22
ATOM     22  O   UNL     1     -43.993  76.255 -24.024  1.00  0.00    -0.507 OA
ATOM     23  H   UNL     1     -44.296  76.678 -24.889  1.00  0.00     0.293 HD
ENDBRANCH   6  22
BRANCH   8  24
ATOM     24  O   UNL     1     -41.314  76.921 -20.114  1.00  0.00    -0.508 OA
ATOM     25  H   UNL     1     -40.722  77.650 -19.736  1.00  0.00     0.293 HD
ENDBRANCH   8  24
TORSDOF 5
ENDMDL
MODEL 4
REMARK VINA RESULT:    -5.140      3.721      6.255
REMARK INTER + INTRA:          -5.937
REMARK INTER:                  -5.662
REMARK INTRA:                  -0.275
REMARK UNBOUND:                 0.105
REMARK SMILES O=c1c(O)c(-c2ccc(O)cc2)oc2cc(O)cc(O)c12
REMARK SMILES IDX 5 1 3 2 2 3 1 4 21 5 19 6 18 7 16 8 15 9 14 10 13 11 6 12
REMARK SMILES IDX 7 13 8 14 9 15 12 16 11 17 10 18 4 20 20 22 17 24
REMARK H PARENT 10 19 4 21 20 23 17 25
REMARK Flexibility Score: inf
ROOT
ATOM      1  C   UNL     1     -39.727  76.067 -21.993  1.00  0.00     0.180 A 
ATOM      2  C   UNL     1     -41.077  75.795 -22.272  1.00  0.00     0.208 A 
ATOM      3  C   UNL     1     -41.531  75.883 -23.598  1.00  0.00     0.238 A 
ATOM      4  O   UNL     1     -42.728  75.586 -23.848  1.00  0.00    -0.285 OA
ATOM      5  C   UNL     1     -40.633  76.259 -24.626  1.00  0.00     0.111 A 
ATOM      6  C   UNL     1     -40.993  76.420 -25.998  1.00  0.00     0.134 A 
ATOM      7  C   UNL     1     -39.997  76.666 -26.949  1.00  0.00     0.093 A 
ATOM      8  C   UNL     1     -38.663  76.823 -26.572  1.00  0.00     0.123 A 
ATOM      9  C   UNL     1     -38.309  76.727 -25.226  1.00  0.00     0.094 A 
ATOM     10  C   UNL     1     -39.276  76.445 -24.258  1.00  0.00     0.146 A 
ATOM     11  O   UNL     1     -38.894  76.352 -22.989  1.00  0.00    -0.452 OA
ENDROOT
BRANCH   1  12
ATOM     12  C   UNL     1     -39.179  76.018 -20.619  1.00  0.00     0.021 A 
ATOM     13  C   UNL     1     -38.543  74.865 -20.124  1.00  0.00     0.016 A 
ATOM     14  C   UNL     1     -38.055  74.833 -18.814  1.00  0.00     0.047 A 
ATOM     15  C   UNL     1     -38.207  75.944 -17.979  1.00  0.00     0.115 A 
ATOM     16  C   UNL     1     -39.347  77.123 -19.767  1.00  0.00     0.016 A 
ATOM     17  C   UNL     1     -38.857  77.088 -18.458  1.00  0.00     0.047 A 
BRANCH  15  18
ATOM     18  O   UNL     1     -37.715  75.898 -16.676  1.00  0.00    -0.508 OA
ATOM     19  H   UNL     1     -36.779  76.217 -16.453  1.00  0.00     0.293 HD
ENDBRANCH  15  18
ENDBRANCH   1  12
BRANCH   2  20
ATOM     20  O   UNL     1     -41.941  75.405 -21.244  1.00  0.00    -0.502 OA
ATOM     21  H   UNL     1     -42.766  74.842 -21.412  1.00  0.00     0.293 HD
ENDBRANCH   2  20
BRANCH   6  22
ATOM     22  O   UNL     1     -42.309  76.374 -26.470  1.00  0.00    -0.507 OA
ATOM     23  H   UNL     1     -42.719  75.589 -26.955  1.00  0.00     0.293 HD
ENDBRANCH   6  22
BRANCH   8  24
ATOM     24  O   UNL     1     -37.700  77.083 -27.543  1.00  0.00    -0.508 OA
ATOM     25  H   UNL     1     -36.758  76.718 -27.466  1.00  0.00     0.293 HD
ENDBRANCH   8  24
TORSDOF 5
ENDMDL
MODEL 5
REMARK VINA RESULT:    -5.043      1.702      7.169
REMARK INTER + INTRA:          -5.823
REMARK INTER:                  -5.821
REMARK INTRA:                  -0.002
REMARK UNBOUND:                 0.105
REMARK SMILES O=c1c(O)c(-c2ccc(O)cc2)oc2cc(O)cc(O)c12
REMARK SMILES IDX 5 1 3 2 2 3 1 4 21 5 19 6 18 7 16 8 15 9 14 10 13 11 6 12
REMARK SMILES IDX 7 13 8 14 9 15 12 16 11 17 10 18 4 20 20 22 17 24
REMARK H PARENT 10 19 4 21 20 23 17 25
REMARK Flexibility Score: inf
ROOT
ATOM      1  C   UNL     1     -38.407  75.807 -25.749  1.00  0.00     0.180 A 
ATOM      2  C   UNL     1     -38.582  76.264 -24.431  1.00  0.00     0.208 A 
ATOM      3  C   UNL     1     -39.885  76.413 -23.929  1.00  0.00     0.238 A 
ATOM      4  O   UNL     1     -40.033  76.769 -22.731  1.00  0.00    -0.285 OA
ATOM      5  C   UNL     1     -40.996  76.119 -24.755  1.00  0.00     0.111 A 
ATOM      6  C   UNL     1     -42.360  76.273 -24.363  1.00  0.00     0.134 A 
ATOM      7  C   UNL     1     -43.378  75.829 -25.216  1.00  0.00     0.093 A 
ATOM      8  C   UNL     1     -43.085  75.299 -26.472  1.00  0.00     0.123 A 
ATOM      9  C   UNL     1     -41.758  75.199 -26.889  1.00  0.00     0.094 A 
ATOM     10  C   UNL     1     -40.719  75.600 -26.045  1.00  0.00     0.146 A 
ATOM     11  O   UNL     1     -39.469  75.478 -26.477  1.00  0.00    -0.452 OA
ENDROOT
BRANCH   1  12
ATOM     12  C   UNL     1     -37.067  75.648 -26.358  1.00  0.00     0.021 A 
ATOM     13  C   UNL     1     -36.649  74.418 -26.896  1.00  0.00     0.016 A 
ATOM     14  C   UNL     1     -35.370  74.284 -27.444  1.00  0.00     0.047 A 
ATOM     15  C   UNL     1     -34.489  75.370 -27.450  1.00  0.00     0.115 A 
ATOM     16  C   UNL     1     -36.169  76.729 -26.348  1.00  0.00     0.016 A 
ATOM     17  C   UNL     1     -34.891  76.592 -26.897  1.00  0.00     0.047 A 
BRANCH  15  18
ATOM     18  O   UNL     1     -33.218  75.222 -28.001  1.00  0.00    -0.508 OA
ATOM     19  H   UNL     1     -32.407  75.041 -27.420  1.00  0.00     0.293 HD
ENDBRANCH  15  18
ENDBRANCH   1  12
BRANCH   2  20
ATOM     20  O   UNL     1     -37.470  76.527 -23.626  1.00  0.00    -0.502 OA
ATOM     21  H   UNL     1     -36.989  75.800 -23.110  1.00  0.00     0.293 HD
ENDBRANCH   2  20
BRANCH   6  22
ATOM     22  O   UNL     1     -42.766  76.876 -23.168  1.00  0.00    -0.507 OA
ATOM     23  H   UNL     1     -43.197  76.389 -22.396  1.00  0.00     0.293 HD
ENDBRANCH   6  22
BRANCH   8  24
ATOM     24  O   UNL     1     -44.124  74.881 -27.300  1.00  0.00    -0.508 OA
ATOM     25  H   UNL     1     -45.094  74.982 -27.026  1.00  0.00     0.293 HD
ENDBRANCH   8  24
TORSDOF 5
ENDMDL
MODEL 6
REMARK VINA RESULT:    -5.018      1.822      2.528
REMARK INTER + INTRA:          -5.793
REMARK INTER:                  -6.300
REMARK INTRA:                   0.507
REMARK UNBOUND:                 0.105
REMARK SMILES O=c1c(O)c(-c2ccc(O)cc2)oc2cc(O)cc(O)c12
REMARK SMILES IDX 5 1 3 2 2 3 1 4 21 5 19 6 18 7 16 8 15 9 14 10 13 11 6 12
REMARK SMILES IDX 7 13 8 14 9 15 12 16 11 17 10 18 4 20 20 22 17 24
REMARK H PARENT 10 19 4 21 20 23 17 25
REMARK Flexibility Score: inf
ROOT
ATOM      1  C   UNL     1     -38.766  76.166 -24.558  1.00  0.00     0.180 A 
ATOM      2  C   UNL     1     -39.280  75.915 -25.842  1.00  0.00     0.208 A 
ATOM      3  C   UNL     1     -38.387  75.731 -26.910  1.00  0.00     0.238 A 
ATOM      4  O   UNL     1     -38.853  75.452 -28.046  1.00  0.00    -0.285 OA
ATOM      5  C   UNL     1     -36.992  75.817 -26.685  1.00  0.00     0.111 A 
ATOM      6  C   UNL     1     -35.997  75.689 -27.700  1.00  0.00     0.134 A 
ATOM      7  C   UNL     1     -34.644  75.661 -27.342  1.00  0.00     0.093 A 
ATOM      8  C   UNL     1     -34.247  75.824 -26.015  1.00  0.00     0.123 A 
ATOM      9  C   UNL     1     -35.209  76.010 -25.022  1.00  0.00     0.094 A 
ATOM     10  C   UNL     1     -36.568  76.005 -25.344  1.00  0.00     0.146 A 
ATOM     11  O   UNL     1     -37.451  76.176 -24.367  1.00  0.00    -0.452 OA
ENDROOT
BRANCH   1  12
ATOM     12  C   UNL     1     -39.643  76.394 -23.388  1.00  0.00     0.021 A 
ATOM     13  C   UNL     1     -39.140  76.932 -22.189  1.00  0.00     0.016 A 
ATOM     14  C   UNL     1     -39.983  77.117 -21.089  1.00  0.00     0.047 A 
ATOM     15  C   UNL     1     -41.331  76.755 -21.165  1.00  0.00     0.115 A 
ATOM     16  C   UNL     1     -40.995  76.014 -23.450  1.00  0.00     0.016 A 
ATOM     17  C   UNL     1     -41.834  76.199 -22.348  1.00  0.00     0.047 A 
BRANCH  15  18
ATOM     18  O   UNL     1     -42.159  76.945 -20.061  1.00  0.00    -0.508 OA
ATOM     19  H   UNL     1     -42.552  77.854 -19.844  1.00  0.00     0.293 HD
ENDBRANCH  15  18
ENDBRANCH   1  12
BRANCH   2  20
ATOM     20  O   UNL     1     -40.660  75.812 -26.038  1.00  0.00    -0.502 OA
ATOM     21  H   UNL     1     -41.156  74.932 -25.963  1.00  0.00     0.293 HD
ENDBRANCH   2  20
BRANCH   6  22
ATOM     22  O   UNL     1     -36.283  75.612 -29.067  1.00  0.00    -0.507 OA
ATOM     23  H   UNL     1     -35.648  75.261 -29.768  1.00  0.00     0.293 HD
ENDBRANCH   6  22
BRANCH   8  24
ATOM     24  O   UNL     1     -32.891  75.806 -25.697  1.00  0.00    -0.508 OA
ATOM     25  H   UNL     1     -32.498  75.094 -25.093  1.00  0.00     0.293 HD
ENDBRANCH   8  24
TORSDOF 5
ENDMDL
MODEL 7
REMARK VINA RESULT:    -4.566      2.422      6.739
REMARK INTER + INTRA:          -5.261
REMARK INTER:                  -5.123
REMARK INTRA:                  -0.138
REMARK UNBOUND:                 0.105
REMARK SMILES O=c1c(O)c(-c2ccc(O)cc2)oc2cc(O)cc(O)c12
REMARK SMILES IDX 5 1 3 2 2 3 1 4 21 5 19 6 18 7 16 8 15 9 14 10 13 11 6 12
REMARK SMILES IDX 7 13 8 14 9 15 12 16 11 17 10 18 4 20 20 22 17 24
REMARK H PARENT 10 19 4 21 20 23 17 25
REMARK Flexibility Score: inf
ROOT
ATOM      1  C   UNL     1     -38.840  76.111 -24.564  1.00  0.00     0.180 A 
ATOM      2  C   UNL     1     -40.171  76.159 -25.014  1.00  0.00     0.208 A 
ATOM      3  C   UNL     1     -41.202  76.325 -24.075  1.00  0.00     0.238 A 
ATOM      4  O   UNL     1     -42.386  76.423 -24.490  1.00  0.00    -0.285 OA
ATOM      5  C   UNL     1     -40.891  76.424 -22.698  1.00  0.00     0.111 A 
ATOM      6  C   UNL     1     -41.859  76.553 -21.656  1.00  0.00     0.134 A 
ATOM      7  C   UNL     1     -41.433  76.774 -20.341  1.00  0.00     0.093 A 
ATOM      8  C   UNL     1     -40.076  76.804 -20.019  1.00  0.00     0.123 A 
ATOM      9  C   UNL     1     -39.122  76.620 -21.020  1.00  0.00     0.094 A 
ATOM     10  C   UNL     1     -39.517  76.434 -22.347  1.00  0.00     0.146 A 
ATOM     11  O   UNL     1     -38.577  76.272 -23.271  1.00  0.00    -0.452 OA
ENDROOT
BRANCH   1  12
ATOM     12  C   UNL     1     -37.701  75.914 -25.488  1.00  0.00     0.021 A 
ATOM     13  C   UNL     1     -36.757  76.933 -25.715  1.00  0.00     0.016 A 
ATOM     14  C   UNL     1     -35.703  76.733 -26.612  1.00  0.00     0.047 A 
ATOM     15  C   UNL     1     -35.585  75.522 -27.302  1.00  0.00     0.115 A 
ATOM     16  C   UNL     1     -37.587  74.708 -26.201  1.00  0.00     0.016 A 
ATOM     17  C   UNL     1     -36.532  74.512 -27.096  1.00  0.00     0.047 A 
BRANCH  15  18
ATOM     18  O   UNL     1     -34.528  75.337 -28.191  1.00  0.00    -0.508 OA
ATOM     19  H   UNL     1     -33.575  75.570 -27.937  1.00  0.00     0.293 HD
ENDBRANCH  15  18
ENDBRANCH   1  12
BRANCH   2  20
ATOM     20  O   UNL     1     -40.453  76.082 -26.381  1.00  0.00    -0.502 OA
ATOM     21  H   UNL     1     -40.925  75.287 -26.794  1.00  0.00     0.293 HD
ENDBRANCH   2  20
BRANCH   6  22
ATOM     22  O   UNL     1     -43.239  76.446 -21.855  1.00  0.00    -0.507 OA
ATOM     23  H   UNL     1     -43.932  77.015 -21.393  1.00  0.00     0.293 HD
ENDBRANCH   6  22
BRANCH   8  24
ATOM     24  O   UNL     1     -39.688  77.011 -18.697  1.00  0.00    -0.508 OA
ATOM     25  H   UNL     1     -40.001  76.401 -17.952  1.00  0.00     0.293 HD
ENDBRANCH   8  24
TORSDOF 5
ENDMDL
MODEL 8
REMARK VINA RESULT:    -4.325      7.356      9.880
REMARK INTER + INTRA:          -4.979
REMARK INTER:                  -4.844
REMARK INTRA:                  -0.135
REMARK UNBOUND:                 0.105
REMARK SMILES O=c1c(O)c(-c2ccc(O)cc2)oc2cc(O)cc(O)c12
REMARK SMILES IDX 5 1 3 2 2 3 1 4 21 5 19 6 18 7 16 8 15 9 14 10 13 11 6 12
REMARK SMILES IDX 7 13 8 14 9 15 12 16 11 17 10 18 4 20 20 22 17 24
REMARK H PARENT 10 19 4 21 20 23 17 25
REMARK Flexibility Score: inf
ROOT
ATOM      1  C   UNL     1     -36.764  72.293 -18.932  1.00  0.00     0.180 A 
ATOM      2  C   UNL     1     -36.406  73.363 -18.094  1.00  0.00     0.208 A 
ATOM      3  C   UNL     1     -37.113  74.572 -18.192  1.00  0.00     0.238 A 
ATOM      4  O   UNL     1     -36.823  75.508 -17.401  1.00  0.00    -0.285 OA
ATOM      5  C   UNL     1     -38.159  74.702 -19.137  1.00  0.00     0.111 A 
ATOM      6  C   UNL     1     -38.915  75.893 -19.351  1.00  0.00     0.134 A 
ATOM      7  C   UNL     1     -40.012  75.869 -20.221  1.00  0.00     0.093 A 
ATOM      8  C   UNL     1     -40.340  74.716 -20.934  1.00  0.00     0.123 A 
ATOM      9  C   UNL     1     -39.570  73.563 -20.778  1.00  0.00     0.094 A 
ATOM     10  C   UNL     1     -38.492  73.546 -19.890  1.00  0.00     0.146 A 
ATOM     11  O   UNL     1     -37.792  72.425 -19.763  1.00  0.00    -0.452 OA
ENDROOT
BRANCH   1  12
ATOM     12  C   UNL     1     -36.050  70.997 -18.905  1.00  0.00     0.021 A 
ATOM     13  C   UNL     1     -36.681  69.823 -18.455  1.00  0.00     0.016 A 
ATOM     14  C   UNL     1     -35.980  68.614 -18.416  1.00  0.00     0.047 A 
ATOM     15  C   UNL     1     -34.640  68.564 -18.810  1.00  0.00     0.115 A 
ATOM     16  C   UNL     1     -34.697  70.943 -19.280  1.00  0.00     0.016 A 
ATOM     17  C   UNL     1     -33.999  69.733 -19.239  1.00  0.00     0.047 A 
BRANCH  15  18
ATOM     18  O   UNL     1     -33.953  67.352 -18.766  1.00  0.00    -0.508 OA
ATOM     19  H   UNL     1     -33.031  67.280 -18.353  1.00  0.00     0.293 HD
ENDBRANCH  15  18
ENDBRANCH   1  12
BRANCH   2  20
ATOM     20  O   UNL     1     -35.385  73.206 -17.152  1.00  0.00    -0.502 OA
ATOM     21  H   UNL     1     -34.483  72.811 -17.389  1.00  0.00     0.293 HD
ENDBRANCH   2  20
BRANCH   6  22
ATOM     22  O   UNL     1     -38.616  77.124 -18.758  1.00  0.00    -0.507 OA
ATOM     23  H   UNL     1     -37.715  77.577 -18.797  1.00  0.00     0.293 HD
ENDBRANCH   6  22
BRANCH   8  24
ATOM     24  O   UNL     1     -41.429  74.732 -21.803  1.00  0.00    -0.508 OA
ATOM     25  H   UNL     1     -41.719  73.900 -22.304  1.00  0.00     0.293 HD
ENDBRANCH   8  24
TORSDOF 5
ENDMDL
MODEL 9
REMARK VINA RESULT:    -4.146      1.821      7.123
REMARK INTER + INTRA:          -4.768
REMARK INTER:                  -4.480
REMARK INTRA:                  -0.289
REMARK UNBOUND:                 0.105
REMARK SMILES O=c1c(O)c(-c2ccc(O)cc2)oc2cc(O)cc(O)c12
REMARK SMILES IDX 5 1 3 2 2 3 1 4 21 5 19 6 18 7 16 8 15 9 14 10 13 11 6 12
REMARK SMILES IDX 7 13 8 14 9 15 12 16 11 17 10 18 4 20 20 22 17 24
REMARK H PARENT 10 19 4 21 20 23 17 25
REMARK Flexibility Score: inf
ROOT
ATOM      1  C   UNL     1     -36.478  75.938 -26.207  1.00  0.00     0.180 A 
ATOM      2  C   UNL     1     -36.731  76.548 -24.966  1.00  0.00     0.208 A 
ATOM      3  C   UNL     1     -38.054  76.627 -24.502  1.00  0.00     0.238 A 
ATOM      4  O   UNL     1     -38.267  77.125 -23.366  1.00  0.00    -0.285 OA
ATOM      5  C   UNL     1     -39.109  76.111 -25.292  1.00  0.00     0.111 A 
ATOM      6  C   UNL     1     -40.491  76.175 -24.940  1.00  0.00     0.134 A 
ATOM      7  C   UNL     1     -41.437  75.516 -25.735  1.00  0.00     0.093 A 
ATOM      8  C   UNL     1     -41.061  74.854 -26.903  1.00  0.00     0.123 A 
ATOM      9  C   UNL     1     -39.721  74.837 -27.288  1.00  0.00     0.094 A 
ATOM     10  C   UNL     1     -38.749  75.454 -26.497  1.00  0.00     0.146 A 
ATOM     11  O   UNL     1     -37.483  75.405 -26.895  1.00  0.00    -0.452 OA
ENDROOT
BRANCH   1  12
ATOM     12  C   UNL     1     -35.114  75.838 -26.774  1.00  0.00     0.021 A 
ATOM     13  C   UNL     1     -34.293  74.726 -26.513  1.00  0.00     0.016 A 
ATOM     14  C   UNL     1     -32.999  74.664 -27.040  1.00  0.00     0.047 A 
ATOM     15  C   UNL     1     -32.505  75.714 -27.819  1.00  0.00     0.115 A 
ATOM     16  C   UNL     1     -34.603  76.899 -27.541  1.00  0.00     0.016 A 
ATOM     17  C   UNL     1     -33.309  76.834 -28.066  1.00  0.00     0.047 A 
BRANCH  15  18
ATOM     18  O   UNL     1     -31.214  75.638 -28.338  1.00  0.00    -0.508 OA
ATOM     19  H   UNL     1     -30.562  74.924 -28.035  1.00  0.00     0.293 HD
ENDBRANCH  15  18
ENDBRANCH   1  12
BRANCH   2  20
ATOM     20  O   UNL     1     -35.671  77.030 -24.192  1.00  0.00    -0.502 OA
ATOM     21  H   UNL     1     -35.368  77.996 -24.229  1.00  0.00     0.293 HD
ENDBRANCH   2  20
BRANCH   6  22
ATOM     22  O   UNL     1     -40.985  76.888 -23.843  1.00  0.00    -0.507 OA
ATOM     23  H   UNL     1     -41.887  76.736 -23.418  1.00  0.00     0.293 HD
ENDBRANCH   6  22
BRANCH   8  24
ATOM     24  O   UNL     1     -42.032  74.223 -27.678  1.00  0.00    -0.508 OA
ATOM     25  H   UNL     1     -42.149  74.440 -28.660  1.00  0.00     0.293 HD
ENDBRANCH   8  24
TORSDOF 5
ENDMDL
