MODEL 1
REMARK VINA RESULT:    -8.043      0.000      0.000
REMARK INTER + INTRA:         -12.247
REMARK INTER:                 -11.804
REMARK INTRA:                  -0.443
REMARK UNBOUND:                -0.443
REMARK SMILES O=c1c(O[C@H]2O[C@@H](CO)[C@H](O)[C@@H](O)[C@@H]2O)c(-c2ccc(O)c(O)c2)oc2cc(O)cc(O)c12
REMARK SMILES IDX 4 1 3 2 16 3 25 4 2 5 26 6 1 7 33 8 27 9 31 10 28 11 30 12
REMARK SMILES IDX 17 13 18 14 19 15 20 16 24 17 22 18 21 19 23 21 32 23 29 25
REMARK SMILES IDX 5 27 14 28 6 29 12 30 7 31 10 32 15 33 13 35 8 37 9 38 11 40
REMARK H PARENT 21 20 23 22 32 24 29 26 15 34 13 36 9 39 11 41
REMARK Flexibility Score: inf
ROOT
ATOM      1  O   UNL     1       2.697  -3.731  37.798  1.00  0.00    -0.454 OA
ENDROOT
BRANCH   1   2
ATOM      2  C   UNL     1       3.832  -3.174  37.181  1.00  0.00     0.214 A 
ATOM      3  C   UNL     1       4.760  -4.062  36.606  1.00  0.00     0.180 A 
ATOM      4  O   UNL     1       5.891  -3.601  36.088  1.00  0.00    -0.452 OA
ATOM      5  C   UNL     1       4.107  -1.788  37.128  1.00  0.00     0.239 A 
ATOM      6  C   UNL     1       6.196  -2.312  36.025  1.00  0.00     0.146 A 
ATOM      7  O   UNL     1       3.319  -0.977  37.678  1.00  0.00    -0.285 OA
ATOM      8  C   UNL     1       5.291  -1.327  36.500  1.00  0.00     0.111 A 
ATOM      9  C   UNL     1       7.434  -1.945  35.492  1.00  0.00     0.094 A 
ATOM     10  C   UNL     1       5.650   0.050  36.354  1.00  0.00     0.134 A 
ATOM     11  C   UNL     1       7.805  -0.607  35.425  1.00  0.00     0.123 A 
ATOM     12  C   UNL     1       6.914   0.386  35.854  1.00  0.00     0.093 A 
BRANCH   3  13
ATOM     13  C   UNL     1       4.534  -5.525  36.622  1.00  0.00     0.025 A 
ATOM     14  C   UNL     1       4.724  -6.303  35.470  1.00  0.00     0.016 A 
ATOM     15  C   UNL     1       4.474  -7.677  35.496  1.00  0.00     0.051 A 
ATOM     16  C   UNL     1       4.032  -8.292  36.676  1.00  0.00     0.157 A 
ATOM     17  C   UNL     1       4.126  -6.149  37.809  1.00  0.00     0.062 A 
ATOM     18  C   UNL     1       3.861  -7.524  37.839  1.00  0.00     0.158 A 
BRANCH  16  19
ATOM     19  O   UNL     1       3.757  -9.658  36.698  1.00  0.00    -0.504 OA
ATOM     20  H   UNL     1       3.196 -10.073  37.431  1.00  0.00     0.293 HD
ENDBRANCH  16  19
BRANCH  18  21
ATOM     21  O   UNL     1       3.414  -8.100  39.025  1.00  0.00    -0.504 OA
ATOM     22  H   UNL     1       3.297  -7.559  39.875  1.00  0.00     0.293 HD
ENDBRANCH  18  21
ENDBRANCH   3  13
BRANCH  10  23
ATOM     23  O   UNL     1       4.796   1.115  36.644  1.00  0.00    -0.507 OA
ATOM     24  H   UNL     1       4.607   1.893  36.030  1.00  0.00     0.293 HD
ENDBRANCH  10  23
BRANCH  11  25
ATOM     25  O   UNL     1       9.057  -0.267  34.919  1.00  0.00    -0.508 OA
ATOM     26  H   UNL     1       9.177   0.506  34.278  1.00  0.00     0.293 HD
ENDBRANCH  11  25
ENDBRANCH   1   2
BRANCH   1  27
ATOM     27  C   UNL     1       1.804  -3.122  38.729  1.00  0.00     0.339 C 
ATOM     28  C   UNL     1       2.129  -3.702  40.132  1.00  0.00     0.214 C 
ATOM     29  O   UNL     1       0.471  -3.268  38.254  1.00  0.00    -0.332 OA
ATOM     30  C   UNL     1       0.981  -3.556  41.152  1.00  0.00     0.180 C 
ATOM     31  C   UNL     1      -0.393  -4.078  39.025  1.00  0.00     0.179 C 
ATOM     32  C   UNL     1      -0.422  -3.675  40.516  1.00  0.00     0.177 C 
BRANCH  28  33
ATOM     33  O   UNL     1       3.318  -3.132  40.623  1.00  0.00    -0.384 OA
ATOM     34  H   UNL     1       3.122  -2.198  40.900  1.00  0.00     0.211 HD
ENDBRANCH  28  33
BRANCH  30  35
ATOM     35  O   UNL     1       1.144  -4.495  42.182  1.00  0.00    -0.387 OA
ATOM     36  H   UNL     1       1.679  -5.243  41.816  1.00  0.00     0.211 HD
ENDBRANCH  30  35
BRANCH  31  37
ATOM     37  C   UNL     1      -0.173  -5.581  38.766  1.00  0.00     0.191 C 
BRANCH  37  38
ATOM     38  O   UNL     1       0.528  -5.772  37.569  1.00  0.00    -0.394 OA
ATOM     39  H   UNL     1      -0.099  -5.546  36.833  1.00  0.00     0.210 HD
ENDBRANCH  37  38
ENDBRANCH  31  37
BRANCH  32  40
ATOM     40  O   UNL     1      -1.125  -2.467  40.670  1.00  0.00    -0.387 OA
ATOM     41  H   UNL     1      -0.461  -1.758  40.885  1.00  0.00     0.211 HD
ENDBRANCH  32  40
ENDBRANCH   1  27
TORSDOF 12
ENDMDL
MODEL 2
REMARK VINA RESULT:    -7.967      1.132      2.066
REMARK INTER + INTRA:         -12.136
REMARK INTER:                 -10.395
REMARK INTRA:                  -1.741
REMARK UNBOUND:                -0.443
REMARK SMILES O=c1c(O[C@H]2O[C@@H](CO)[C@H](O)[C@@H](O)[C@@H]2O)c(-c2ccc(O)c(O)c2)oc2cc(O)cc(O)c12
REMARK SMILES IDX 4 1 3 2 16 3 25 4 2 5 26 6 1 7 33 8 27 9 31 10 28 11 30 12
REMARK SMILES IDX 17 13 18 14 19 15 20 16 24 17 22 18 21 19 23 21 32 23 29 25
REMARK SMILES IDX 5 27 14 28 6 29 12 30 7 31 10 32 15 33 13 35 8 37 9 38 11 40
REMARK H PARENT 21 20 23 22 32 24 29 26 15 34 13 36 9 39 11 41
REMARK Flexibility Score: inf
ROOT
ATOM      1  O   UNL     1       2.449  -3.964  37.688  1.00  0.00    -0.454 OA
ENDROOT
BRANCH   1   2
ATOM      2  C   UNL     1       3.599  -3.384  37.121  1.00  0.00     0.214 A 
ATOM      3  C   UNL     1       4.545  -4.249  36.542  1.00  0.00     0.180 A 
ATOM      4  O   UNL     1       5.689  -3.768  36.071  1.00  0.00    -0.452 OA
ATOM      5  C   UNL     1       3.871  -1.996  37.125  1.00  0.00     0.239 A 
ATOM      6  C   UNL     1       5.992  -2.477  36.062  1.00  0.00     0.146 A 
ATOM      7  O   UNL     1       3.067  -1.206  37.682  1.00  0.00    -0.285 OA
ATOM      8  C   UNL     1       5.071  -1.512  36.546  1.00  0.00     0.111 A 
ATOM      9  C   UNL     1       7.243  -2.090  35.576  1.00  0.00     0.094 A 
ATOM     10  C   UNL     1       5.430  -0.129  36.458  1.00  0.00     0.134 A 
ATOM     11  C   UNL     1       7.612  -0.750  35.566  1.00  0.00     0.123 A 
ATOM     12  C   UNL     1       6.707   0.226  36.005  1.00  0.00     0.093 A 
BRANCH   3  13
ATOM     13  C   UNL     1       4.322  -5.712  36.500  1.00  0.00     0.025 A 
ATOM     14  C   UNL     1       4.857  -6.557  37.484  1.00  0.00     0.016 A 
ATOM     15  C   UNL     1       4.663  -7.938  37.410  1.00  0.00     0.051 A 
ATOM     16  C   UNL     1       3.931  -8.494  36.351  1.00  0.00     0.157 A 
ATOM     17  C   UNL     1       3.560  -6.267  35.462  1.00  0.00     0.062 A 
ATOM     18  C   UNL     1       3.375  -7.652  35.375  1.00  0.00     0.158 A 
BRANCH  16  19
ATOM     19  O   UNL     1       3.758  -9.873  36.261  1.00  0.00    -0.504 OA
ATOM     20  H   UNL     1       4.350 -10.515  36.775  1.00  0.00     0.293 HD
ENDBRANCH  16  19
BRANCH  18  21
ATOM     21  O   UNL     1       2.650  -8.170  34.304  1.00  0.00    -0.504 OA
ATOM     22  H   UNL     1       1.636  -8.185  34.299  1.00  0.00     0.293 HD
ENDBRANCH  18  21
ENDBRANCH   3  13
BRANCH  10  23
ATOM     23  O   UNL     1       4.566   0.924  36.762  1.00  0.00    -0.507 OA
ATOM     24  H   UNL     1       4.549   1.816  36.293  1.00  0.00     0.293 HD
ENDBRANCH  10  23
BRANCH  11  25
ATOM     25  O   UNL     1       8.876  -0.390  35.107  1.00  0.00    -0.508 OA
ATOM     26  H   UNL     1       9.708  -0.569  35.653  1.00  0.00     0.293 HD
ENDBRANCH  11  25
ENDBRANCH   1   2
BRANCH   1  27
ATOM     27  C   UNL     1       2.247  -4.408  39.028  1.00  0.00     0.339 C 
ATOM     28  C   UNL     1       1.068  -5.418  39.011  1.00  0.00     0.214 C 
ATOM     29  O   UNL     1       2.122  -3.272  39.877  1.00  0.00    -0.332 OA
ATOM     30  C   UNL     1       0.392  -5.614  40.383  1.00  0.00     0.180 C 
ATOM     31  C   UNL     1       0.867  -3.076  40.495  1.00  0.00     0.179 C 
ATOM     32  C   UNL     1       0.364  -4.331  41.242  1.00  0.00     0.177 C 
BRANCH  28  33
ATOM     33  O   UNL     1       1.498  -6.647  38.477  1.00  0.00    -0.384 OA
ATOM     34  H   UNL     1       2.476  -6.587  38.308  1.00  0.00     0.211 HD
ENDBRANCH  28  33
BRANCH  30  35
ATOM     35  O   UNL     1      -0.904  -6.122  40.201  1.00  0.00    -0.387 OA
ATOM     36  H   UNL     1      -0.913  -7.043  40.564  1.00  0.00     0.211 HD
ENDBRANCH  30  35
BRANCH  31  37
ATOM     37  C   UNL     1      -0.161  -2.435  39.543  1.00  0.00     0.191 C 
BRANCH  37  38
ATOM     38  O   UNL     1       0.487  -1.635  38.593  1.00  0.00    -0.394 OA
ATOM     39  H   UNL     1      -0.186  -0.983  38.265  1.00  0.00     0.210 HD
ENDBRANCH  37  38
ENDBRANCH  31  37
BRANCH  32  40
ATOM     40  O   UNL     1       1.114  -4.520  42.416  1.00  0.00    -0.387 OA
ATOM     41  H   UNL     1       2.018  -4.136  42.260  1.00  0.00     0.211 HD
ENDBRANCH  32  40
ENDBRANCH   1  27
TORSDOF 12
ENDMDL
MODEL 3
REMARK VINA RESULT:    -7.868      1.879      7.541
REMARK INTER + INTRA:         -11.990
REMARK INTER:                 -11.635
REMARK INTRA:                  -0.355
REMARK UNBOUND:                -0.443
REMARK SMILES O=c1c(O[C@H]2O[C@@H](CO)[C@H](O)[C@@H](O)[C@@H]2O)c(-c2ccc(O)c(O)c2)oc2cc(O)cc(O)c12
REMARK SMILES IDX 4 1 3 2 16 3 25 4 2 5 26 6 1 7 33 8 27 9 31 10 28 11 30 12
REMARK SMILES IDX 17 13 18 14 19 15 20 16 24 17 22 18 21 19 23 21 32 23 29 25
REMARK SMILES IDX 5 27 14 28 6 29 12 30 7 31 10 32 15 33 13 35 8 37 9 38 11 40
REMARK H PARENT 21 20 23 22 32 24 29 26 15 34 13 36 9 39 11 41
REMARK Flexibility Score: inf
ROOT
ATOM      1  O   UNL     1       4.541  -5.228  36.877  1.00  0.00    -0.454 OA
ENDROOT
BRANCH   1   2
ATOM      2  C   UNL     1       3.609  -4.697  37.789  1.00  0.00     0.214 A 
ATOM      3  C   UNL     1       3.621  -3.305  37.993  1.00  0.00     0.180 A 
ATOM      4  O   UNL     1       2.826  -2.757  38.904  1.00  0.00    -0.452 OA
ATOM      5  C   UNL     1       2.688  -5.477  38.527  1.00  0.00     0.239 A 
ATOM      6  C   UNL     1       1.954  -3.449  39.625  1.00  0.00     0.146 A 
ATOM      7  O   UNL     1       2.692  -6.728  38.400  1.00  0.00    -0.285 OA
ATOM      8  C   UNL     1       1.803  -4.847  39.438  1.00  0.00     0.111 A 
ATOM      9  C   UNL     1       1.197  -2.771  40.583  1.00  0.00     0.094 A 
ATOM     10  C   UNL     1       0.806  -5.530  40.205  1.00  0.00     0.134 A 
ATOM     11  C   UNL     1       0.285  -3.458  41.377  1.00  0.00     0.123 A 
ATOM     12  C   UNL     1       0.091  -4.833  41.186  1.00  0.00     0.093 A 
BRANCH   3  13
ATOM     13  C   UNL     1       4.556  -2.429  37.251  1.00  0.00     0.025 A 
ATOM     14  C   UNL     1       5.726  -2.941  36.670  1.00  0.00     0.016 A 
ATOM     15  C   UNL     1       6.612  -2.093  36.002  1.00  0.00     0.051 A 
ATOM     16  C   UNL     1       6.340  -0.720  35.906  1.00  0.00     0.157 A 
ATOM     17  C   UNL     1       4.270  -1.062  37.123  1.00  0.00     0.062 A 
ATOM     18  C   UNL     1       5.161  -0.205  36.467  1.00  0.00     0.158 A 
BRANCH  16  19
ATOM     19  O   UNL     1       7.236   0.132  35.263  1.00  0.00    -0.504 OA
ATOM     20  H   UNL     1       7.109   0.398  34.294  1.00  0.00     0.293 HD
ENDBRANCH  16  19
BRANCH  18  21
ATOM     21  O   UNL     1       4.864   1.154  36.399  1.00  0.00    -0.504 OA
ATOM     22  H   UNL     1       4.229   1.599  37.053  1.00  0.00     0.293 HD
ENDBRANCH  18  21
ENDBRANCH   3  13
BRANCH  10  23
ATOM     23  O   UNL     1       0.456  -6.868  40.017  1.00  0.00    -0.507 OA
ATOM     24  H   UNL     1       0.539  -7.374  39.148  1.00  0.00     0.293 HD
ENDBRANCH  10  23
BRANCH  11  25
ATOM     25  O   UNL     1      -0.436  -2.768  42.347  1.00  0.00    -0.508 OA
ATOM     26  H   UNL     1      -0.604  -1.773  42.275  1.00  0.00     0.293 HD
ENDBRANCH  11  25
ENDBRANCH   1   2
BRANCH   1  27
ATOM     27  C   UNL     1       4.384  -6.335  35.992  1.00  0.00     0.339 C 
ATOM     28  C   UNL     1       5.535  -7.334  36.288  1.00  0.00     0.214 C 
ATOM     29  O   UNL     1       4.267  -5.849  34.660  1.00  0.00    -0.332 OA
ATOM     30  C   UNL     1       5.826  -8.315  35.135  1.00  0.00     0.180 C 
ATOM     31  C   UNL     1       5.310  -6.182  33.768  1.00  0.00     0.179 C 
ATOM     32  C   UNL     1       5.611  -7.697  33.735  1.00  0.00     0.177 C 
BRANCH  28  33
ATOM     33  O   UNL     1       5.276  -8.023  37.487  1.00  0.00    -0.384 OA
ATOM     34  H   UNL     1       5.025  -8.958  37.258  1.00  0.00     0.211 HD
ENDBRANCH  28  33
BRANCH  30  35
ATOM     35  O   UNL     1       7.128  -8.821  35.263  1.00  0.00    -0.387 OA
ATOM     36  H   UNL     1       7.635  -8.189  35.832  1.00  0.00     0.211 HD
ENDBRANCH  30  35
BRANCH  31  37
ATOM     37  C   UNL     1       6.548  -5.283  33.952  1.00  0.00     0.191 C 
BRANCH  37  38
ATOM     38  O   UNL     1       6.446  -4.142  33.144  1.00  0.00    -0.394 OA
ATOM     39  H   UNL     1       6.419  -4.461  32.205  1.00  0.00     0.210 HD
ENDBRANCH  37  38
ENDBRANCH  31  37
BRANCH  32  40
ATOM     40  O   UNL     1       4.577  -8.374  33.062  1.00  0.00    -0.387 OA
ATOM     41  H   UNL     1       4.266  -9.110  33.654  1.00  0.00     0.211 HD
ENDBRANCH  32  40
ENDBRANCH   1  27
TORSDOF 12
ENDMDL
MODEL 4
REMARK VINA RESULT:    -7.784      1.526      5.944
REMARK INTER + INTRA:         -11.868
REMARK INTER:                 -11.855
REMARK INTRA:                  -0.013
REMARK UNBOUND:                -0.443
REMARK SMILES O=c1c(O[C@H]2O[C@@H](CO)[C@H](O)[C@@H](O)[C@@H]2O)c(-c2ccc(O)c(O)c2)oc2cc(O)cc(O)c12
REMARK SMILES IDX 4 1 3 2 16 3 25 4 2 5 26 6 1 7 33 8 27 9 31 10 28 11 30 12
REMARK SMILES IDX 17 13 18 14 19 15 20 16 24 17 22 18 21 19 23 21 32 23 29 25
REMARK SMILES IDX 5 27 14 28 6 29 12 30 7 31 10 32 15 33 13 35 8 37 9 38 11 40
REMARK H PARENT 21 20 23 22 32 24 29 26 15 34 13 36 9 39 11 41
REMARK Flexibility Score: inf
ROOT
ATOM      1  O   UNL     1       3.483  -3.629  38.566  1.00  0.00    -0.454 OA
ENDROOT
BRANCH   1   2
ATOM      2  C   UNL     1       4.036  -4.604  37.715  1.00  0.00     0.214 A 
ATOM      3  C   UNL     1       4.915  -4.164  36.709  1.00  0.00     0.180 A 
ATOM      4  O   UNL     1       5.399  -5.024  35.822  1.00  0.00    -0.452 OA
ATOM      5  C   UNL     1       3.740  -5.985  37.793  1.00  0.00     0.239 A 
ATOM      6  C   UNL     1       5.142  -6.326  35.849  1.00  0.00     0.146 A 
ATOM      7  O   UNL     1       2.918  -6.397  38.650  1.00  0.00    -0.285 OA
ATOM      8  C   UNL     1       4.334  -6.885  36.873  1.00  0.00     0.111 A 
ATOM      9  C   UNL     1       5.676  -7.131  34.840  1.00  0.00     0.094 A 
ATOM     10  C   UNL     1       4.139  -8.303  36.883  1.00  0.00     0.134 A 
ATOM     11  C   UNL     1       5.417  -8.497  34.817  1.00  0.00     0.123 A 
ATOM     12  C   UNL     1       4.652  -9.079  35.836  1.00  0.00     0.093 A 
BRANCH   3  13
ATOM     13  C   UNL     1       5.271  -2.733  36.573  1.00  0.00     0.025 A 
ATOM     14  C   UNL     1       6.505  -2.339  36.034  1.00  0.00     0.016 A 
ATOM     15  C   UNL     1       6.836  -0.985  35.944  1.00  0.00     0.051 A 
ATOM     16  C   UNL     1       5.936  -0.006  36.390  1.00  0.00     0.157 A 
ATOM     17  C   UNL     1       4.359  -1.751  36.984  1.00  0.00     0.062 A 
ATOM     18  C   UNL     1       4.690  -0.393  36.909  1.00  0.00     0.158 A 
BRANCH  16  19
ATOM     19  O   UNL     1       6.274   1.344  36.324  1.00  0.00    -0.504 OA
ATOM     20  H   UNL     1       5.733   1.998  35.772  1.00  0.00     0.293 HD
ENDBRANCH  16  19
BRANCH  18  21
ATOM     21  O   UNL     1       3.777   0.552  37.369  1.00  0.00    -0.504 OA
ATOM     22  H   UNL     1       3.518   0.617  38.348  1.00  0.00     0.293 HD
ENDBRANCH  18  21
ENDBRANCH   3  13
BRANCH  10  23
ATOM     23  O   UNL     1       3.492  -8.995  37.907  1.00  0.00    -0.507 OA
ATOM     24  H   UNL     1       3.878  -9.775  38.418  1.00  0.00     0.293 HD
ENDBRANCH  10  23
BRANCH  11  25
ATOM     25  O   UNL     1       5.932  -9.275  33.783  1.00  0.00    -0.508 OA
ATOM     26  H   UNL     1       5.409 -10.046  33.390  1.00  0.00     0.293 HD
ENDBRANCH  11  25
ENDBRANCH   1   2
BRANCH   1  27
ATOM     27  C   UNL     1       2.346  -3.739  39.421  1.00  0.00     0.339 C 
ATOM     28  C   UNL     1       1.171  -2.997  38.729  1.00  0.00     0.214 C 
ATOM     29  O   UNL     1       2.709  -3.313  40.730  1.00  0.00    -0.332 OA
ATOM     30  C   UNL     1       0.040  -2.582  39.691  1.00  0.00     0.180 C 
ATOM     31  C   UNL     1       2.083  -2.142  41.212  1.00  0.00     0.179 C 
ATOM     32  C   UNL     1       0.543  -2.194  41.100  1.00  0.00     0.177 C 
BRANCH  28  33
ATOM     33  O   UNL     1       0.673  -3.773  37.667  1.00  0.00    -0.384 OA
ATOM     34  H   UNL     1      -0.280  -3.984  37.857  1.00  0.00     0.211 HD
ENDBRANCH  28  33
BRANCH  30  35
ATOM     35  O   UNL     1      -0.703  -1.537  39.121  1.00  0.00    -0.387 OA
ATOM     36  H   UNL     1      -0.932  -1.809  38.197  1.00  0.00     0.211 HD
ENDBRANCH  30  35
BRANCH  31  37
ATOM     37  C   UNL     1       2.728  -0.859  40.652  1.00  0.00     0.191 C 
BRANCH  37  38
ATOM     38  O   UNL     1       2.956   0.062  41.683  1.00  0.00    -0.394 OA
ATOM     39  H   UNL     1       3.936   0.220  41.711  1.00  0.00     0.210 HD
ENDBRANCH  37  38
ENDBRANCH  31  37
BRANCH  32  40
ATOM     40  O   UNL     1       0.025  -3.083  42.059  1.00  0.00    -0.387 OA
ATOM     41  H   UNL     1       0.142  -2.662  42.952  1.00  0.00     0.211 HD
ENDBRANCH  32  40
ENDBRANCH   1  27
TORSDOF 12
ENDMDL
MODEL 5
REMARK VINA RESULT:    -7.423      2.059      7.742
REMARK INTER + INTRA:         -11.338
REMARK INTER:                 -11.058
REMARK INTRA:                  -0.280
REMARK UNBOUND:                -0.443
REMARK SMILES O=c1c(O[C@H]2O[C@@H](CO)[C@H](O)[C@@H](O)[C@@H]2O)c(-c2ccc(O)c(O)c2)oc2cc(O)cc(O)c12
REMARK SMILES IDX 4 1 3 2 16 3 25 4 2 5 26 6 1 7 33 8 27 9 31 10 28 11 30 12
REMARK SMILES IDX 17 13 18 14 19 15 20 16 24 17 22 18 21 19 23 21 32 23 29 25
REMARK SMILES IDX 5 27 14 28 6 29 12 30 7 31 10 32 15 33 13 35 8 37 9 38 11 40
REMARK H PARENT 21 20 23 22 32 24 29 26 15 34 13 36 9 39 11 41
REMARK Flexibility Score: inf
ROOT
ATOM      1  O   UNL     1       4.417  -4.716  35.411  1.00  0.00    -0.454 OA
ENDROOT
BRANCH   1   2
ATOM      2  C   UNL     1       3.693  -4.546  36.605  1.00  0.00     0.214 A 
ATOM      3  C   UNL     1       3.911  -3.363  37.334  1.00  0.00     0.180 A 
ATOM      4  O   UNL     1       3.323  -3.186  38.511  1.00  0.00    -0.452 OA
ATOM      5  C   UNL     1       2.786  -5.499  37.126  1.00  0.00     0.239 A 
ATOM      6  C   UNL     1       2.474  -4.056  39.043  1.00  0.00     0.146 A 
ATOM      7  O   UNL     1       2.612  -6.587  36.519  1.00  0.00    -0.285 OA
ATOM      8  C   UNL     1       2.120  -5.243  38.350  1.00  0.00     0.111 A 
ATOM      9  C   UNL     1       1.946  -3.782  40.307  1.00  0.00     0.094 A 
ATOM     10  C   UNL     1       1.156  -6.115  38.949  1.00  0.00     0.134 A 
ATOM     11  C   UNL     1       1.068  -4.674  40.913  1.00  0.00     0.123 A 
ATOM     12  C   UNL     1       0.674  -5.835  40.234  1.00  0.00     0.093 A 
BRANCH   3  13
ATOM     13  C   UNL     1       4.844  -2.322  36.846  1.00  0.00     0.025 A 
ATOM     14  C   UNL     1       6.142  -2.647  36.428  1.00  0.00     0.016 A 
ATOM     15  C   UNL     1       7.018  -1.647  36.001  1.00  0.00     0.051 A 
ATOM     16  C   UNL     1       6.607  -0.306  35.986  1.00  0.00     0.157 A 
ATOM     17  C   UNL     1       4.423  -0.985  36.797  1.00  0.00     0.062 A 
ATOM     18  C   UNL     1       5.301   0.024  36.383  1.00  0.00     0.158 A 
BRANCH  16  19
ATOM     19  O   UNL     1       7.487   0.696  35.585  1.00  0.00    -0.504 OA
ATOM     20  H   UNL     1       8.039   1.215  36.257  1.00  0.00     0.293 HD
ENDBRANCH  16  19
BRANCH  18  21
ATOM     21  O   UNL     1       4.862   1.345  36.390  1.00  0.00    -0.504 OA
ATOM     22  H   UNL     1       4.817   1.901  35.542  1.00  0.00     0.293 HD
ENDBRANCH  18  21
ENDBRANCH   3  13
BRANCH  10  23
ATOM     23  O   UNL     1       0.614  -7.233  38.314  1.00  0.00    -0.507 OA
ATOM     24  H   UNL     1       0.347  -7.278  37.343  1.00  0.00     0.293 HD
ENDBRANCH  10  23
BRANCH  11  25
ATOM     25  O   UNL     1       0.578  -4.397  42.186  1.00  0.00    -0.508 OA
ATOM     26  H   UNL     1       0.302  -5.135  42.820  1.00  0.00     0.293 HD
ENDBRANCH  11  25
ENDBRANCH   1   2
BRANCH   1  27
ATOM     27  C   UNL     1       5.711  -5.289  35.232  1.00  0.00     0.339 C 
ATOM     28  C   UNL     1       6.019  -5.275  33.710  1.00  0.00     0.214 C 
ATOM     29  O   UNL     1       5.756  -6.546  35.897  1.00  0.00    -0.332 OA
ATOM     30  C   UNL     1       7.111  -6.278  33.283  1.00  0.00     0.180 C 
ATOM     31  C   UNL     1       5.906  -7.690  35.082  1.00  0.00     0.179 C 
ATOM     32  C   UNL     1       7.102  -7.583  34.110  1.00  0.00     0.177 C 
BRANCH  28  33
ATOM     33  O   UNL     1       6.342  -3.969  33.298  1.00  0.00    -0.384 OA
ATOM     34  H   UNL     1       6.716  -4.019  32.378  1.00  0.00     0.211 HD
ENDBRANCH  28  33
BRANCH  30  35
ATOM     35  O   UNL     1       6.986  -6.554  31.913  1.00  0.00    -0.387 OA
ATOM     36  H   UNL     1       6.124  -7.024  31.784  1.00  0.00     0.211 HD
ENDBRANCH  30  35
BRANCH  31  37
ATOM     37  C   UNL     1       4.579  -8.122  34.428  1.00  0.00     0.191 C 
BRANCH  37  38
ATOM     38  O   UNL     1       3.869  -8.975  35.282  1.00  0.00    -0.394 OA
ATOM     39  H   UNL     1       3.299  -8.397  35.852  1.00  0.00     0.210 HD
ENDBRANCH  37  38
ENDBRANCH  31  37
BRANCH  32  40
ATOM     40  O   UNL     1       8.308  -7.711  34.822  1.00  0.00    -0.387 OA
ATOM     41  H   UNL     1       8.104  -7.570  35.785  1.00  0.00     0.211 HD
ENDBRANCH  32  40
ENDBRANCH   1  27
TORSDOF 12
ENDMDL
MODEL 6
REMARK VINA RESULT:    -7.381      2.596      6.049
REMARK INTER + INTRA:         -11.276
REMARK INTER:                 -10.020
REMARK INTRA:                  -1.256
REMARK UNBOUND:                -0.443
REMARK SMILES O=c1c(O[C@H]2O[C@@H](CO)[C@H](O)[C@@H](O)[C@@H]2O)c(-c2ccc(O)c(O)c2)oc2cc(O)cc(O)c12
REMARK SMILES IDX 4 1 3 2 16 3 25 4 2 5 26 6 1 7 33 8 27 9 31 10 28 11 30 12
REMARK SMILES IDX 17 13 18 14 19 15 20 16 24 17 22 18 21 19 23 21 32 23 29 25
REMARK SMILES IDX 5 27 14 28 6 29 12 30 7 31 10 32 15 33 13 35 8 37 9 38 11 40
REMARK H PARENT 21 20 23 22 32 24 29 26 15 34 13 36 9 39 11 41
REMARK Flexibility Score: inf
ROOT
ATOM      1  O   UNL     1       2.874  -6.445  37.266  1.00  0.00    -0.454 OA
ENDROOT
BRANCH   1   2
ATOM      2  C   UNL     1       2.797  -5.231  37.973  1.00  0.00     0.214 A 
ATOM      3  C   UNL     1       3.419  -4.105  37.400  1.00  0.00     0.180 A 
ATOM      4  O   UNL     1       3.455  -2.955  38.061  1.00  0.00    -0.452 OA
ATOM      5  C   UNL     1       2.162  -5.081  39.228  1.00  0.00     0.239 A 
ATOM      6  C   UNL     1       2.882  -2.771  39.243  1.00  0.00     0.146 A 
ATOM      7  O   UNL     1       1.643  -6.083  39.784  1.00  0.00    -0.285 OA
ATOM      8  C   UNL     1       2.157  -3.818  39.870  1.00  0.00     0.111 A 
ATOM      9  C   UNL     1       3.018  -1.526  39.862  1.00  0.00     0.094 A 
ATOM     10  C   UNL     1       1.512  -3.543  41.118  1.00  0.00     0.134 A 
ATOM     11  C   UNL     1       2.452  -1.294  41.111  1.00  0.00     0.123 A 
ATOM     12  C   UNL     1       1.701  -2.300  41.735  1.00  0.00     0.093 A 
BRANCH   3  13
ATOM     13  C   UNL     1       4.099  -4.189  36.088  1.00  0.00     0.025 A 
ATOM     14  C   UNL     1       5.482  -3.984  35.972  1.00  0.00     0.016 A 
ATOM     15  C   UNL     1       6.101  -4.036  34.721  1.00  0.00     0.051 A 
ATOM     16  C   UNL     1       5.345  -4.293  33.568  1.00  0.00     0.157 A 
ATOM     17  C   UNL     1       3.352  -4.482  34.939  1.00  0.00     0.062 A 
ATOM     18  C   UNL     1       3.964  -4.521  33.680  1.00  0.00     0.158 A 
BRANCH  16  19
ATOM     19  O   UNL     1       5.956  -4.319  32.317  1.00  0.00    -0.504 OA
ATOM     20  H   UNL     1       6.681  -4.991  32.097  1.00  0.00     0.293 HD
ENDBRANCH  16  19
BRANCH  18  21
ATOM     21  O   UNL     1       3.181  -4.770  32.556  1.00  0.00    -0.504 OA
ATOM     22  H   UNL     1       2.237  -4.409  32.468  1.00  0.00     0.293 HD
ENDBRANCH  18  21
ENDBRANCH   3  13
BRANCH  10  23
ATOM     23  O   UNL     1       0.654  -4.432  41.766  1.00  0.00    -0.507 OA
ATOM     24  H   UNL     1      -0.353  -4.407  41.719  1.00  0.00     0.293 HD
ENDBRANCH  10  23
BRANCH  11  25
ATOM     25  O   UNL     1       2.628  -0.057  41.725  1.00  0.00    -0.508 OA
ATOM     26  H   UNL     1       3.522   0.223  42.105  1.00  0.00     0.293 HD
ENDBRANCH  11  25
ENDBRANCH   1   2
BRANCH   1  27
ATOM     27  C   UNL     1       1.869  -7.444  37.107  1.00  0.00     0.339 C 
ATOM     28  C   UNL     1       2.475  -8.792  37.580  1.00  0.00     0.214 C 
ATOM     29  O   UNL     1       1.365  -7.384  35.777  1.00  0.00    -0.332 OA
ATOM     30  C   UNL     1       1.744 -10.035  37.030  1.00  0.00     0.180 C 
ATOM     31  C   UNL     1       1.618  -8.502  34.952  1.00  0.00     0.179 C 
ATOM     32  C   UNL     1       1.190  -9.837  35.601  1.00  0.00     0.177 C 
BRANCH  28  33
ATOM     33  O   UNL     1       2.537  -8.823  38.985  1.00  0.00    -0.384 OA
ATOM     34  H   UNL     1       2.710  -9.761  39.267  1.00  0.00     0.211 HD
ENDBRANCH  28  33
BRANCH  30  35
ATOM     35  O   UNL     1       2.599 -11.146  37.084  1.00  0.00    -0.387 OA
ATOM     36  H   UNL     1       3.202 -11.016  37.859  1.00  0.00     0.211 HD
ENDBRANCH  30  35
BRANCH  31  37
ATOM     37  C   UNL     1       3.046  -8.494  34.374  1.00  0.00     0.191 C 
BRANCH  37  38
ATOM     38  O   UNL     1       3.082  -7.777  33.171  1.00  0.00    -0.394 OA
ATOM     39  H   UNL     1       2.559  -8.303  32.512  1.00  0.00     0.210 HD
ENDBRANCH  37  38
ENDBRANCH  31  37
BRANCH  32  40
ATOM     40  O   UNL     1      -0.213  -9.934  35.611  1.00  0.00    -0.387 OA
ATOM     41  H   UNL     1      -0.566  -9.139  36.092  1.00  0.00     0.211 HD
ENDBRANCH  32  40
ENDBRANCH   1  27
TORSDOF 12
ENDMDL
MODEL 7
REMARK VINA RESULT:    -7.361      2.681      6.528
REMARK INTER + INTRA:         -11.247
REMARK INTER:                 -10.153
REMARK INTRA:                  -1.094
REMARK UNBOUND:                -0.443
REMARK SMILES O=c1c(O[C@H]2O[C@@H](CO)[C@H](O)[C@@H](O)[C@@H]2O)c(-c2ccc(O)c(O)c2)oc2cc(O)cc(O)c12
REMARK SMILES IDX 4 1 3 2 16 3 25 4 2 5 26 6 1 7 33 8 27 9 31 10 28 11 30 12
REMARK SMILES IDX 17 13 18 14 19 15 20 16 24 17 22 18 21 19 23 21 32 23 29 25
REMARK SMILES IDX 5 27 14 28 6 29 12 30 7 31 10 32 15 33 13 35 8 37 9 38 11 40
REMARK H PARENT 21 20 23 22 32 24 29 26 15 34 13 36 9 39 11 41
REMARK Flexibility Score: inf
ROOT
ATOM      1  O   UNL     1       2.815  -6.855  36.646  1.00  0.00    -0.454 OA
ENDROOT
BRANCH   1   2
ATOM      2  C   UNL     1       2.746  -5.695  37.440  1.00  0.00     0.214 A 
ATOM      3  C   UNL     1       3.382  -4.537  36.954  1.00  0.00     0.180 A 
ATOM      4  O   UNL     1       3.426  -3.438  37.697  1.00  0.00    -0.452 OA
ATOM      5  C   UNL     1       2.104  -5.631  38.699  1.00  0.00     0.239 A 
ATOM      6  C   UNL     1       2.848  -3.335  38.887  1.00  0.00     0.146 A 
ATOM      7  O   UNL     1       1.572  -6.664  39.178  1.00  0.00    -0.285 OA
ATOM      8  C   UNL     1       2.109  -4.417  39.431  1.00  0.00     0.111 A 
ATOM      9  C   UNL     1       2.993  -2.141  39.596  1.00  0.00     0.094 A 
ATOM     10  C   UNL     1       1.459  -4.228  40.693  1.00  0.00     0.134 A 
ATOM     11  C   UNL     1       2.421  -1.995  40.855  1.00  0.00     0.123 A 
ATOM     12  C   UNL     1       1.656  -3.035  41.400  1.00  0.00     0.093 A 
BRANCH   3  13
ATOM     13  C   UNL     1       4.070  -4.532  35.643  1.00  0.00     0.025 A 
ATOM     14  C   UNL     1       5.437  -4.234  35.540  1.00  0.00     0.016 A 
ATOM     15  C   UNL     1       6.060  -4.202  34.291  1.00  0.00     0.051 A 
ATOM     16  C   UNL     1       5.325  -4.470  33.127  1.00  0.00     0.157 A 
ATOM     17  C   UNL     1       3.346  -4.834  34.481  1.00  0.00     0.062 A 
ATOM     18  C   UNL     1       3.962  -4.790  33.225  1.00  0.00     0.158 A 
BRANCH  16  19
ATOM     19  O   UNL     1       5.939  -4.413  31.878  1.00  0.00    -0.504 OA
ATOM     20  H   UNL     1       5.465  -4.730  31.041  1.00  0.00     0.293 HD
ENDBRANCH  16  19
BRANCH  18  21
ATOM     21  O   UNL     1       3.199  -5.052  32.089  1.00  0.00    -0.504 OA
ATOM     22  H   UNL     1       3.364  -4.574  31.210  1.00  0.00     0.293 HD
ENDBRANCH  18  21
ENDBRANCH   3  13
BRANCH  10  23
ATOM     23  O   UNL     1       0.588  -5.153  41.270  1.00  0.00    -0.507 OA
ATOM     24  H   UNL     1      -0.416  -5.063  41.304  1.00  0.00     0.293 HD
ENDBRANCH  10  23
BRANCH  11  25
ATOM     25  O   UNL     1       2.606  -0.807  41.559  1.00  0.00    -0.508 OA
ATOM     26  H   UNL     1       2.450  -0.753  42.557  1.00  0.00     0.293 HD
ENDBRANCH  11  25
ENDBRANCH   1   2
BRANCH   1  27
ATOM     27  C   UNL     1       3.439  -8.101  36.949  1.00  0.00     0.339 C 
ATOM     28  C   UNL     1       4.933  -7.982  36.545  1.00  0.00     0.214 C 
ATOM     29  O   UNL     1       2.683  -9.152  36.358  1.00  0.00    -0.332 OA
ATOM     30  C   UNL     1       5.633  -9.339  36.329  1.00  0.00     0.180 C 
ATOM     31  C   UNL     1       3.313  -9.885  35.327  1.00  0.00     0.179 C 
ATOM     32  C   UNL     1       4.703 -10.421  35.736  1.00  0.00     0.177 C 
BRANCH  28  33
ATOM     33  O   UNL     1       5.625  -7.201  37.489  1.00  0.00    -0.384 OA
ATOM     34  H   UNL     1       5.294  -7.445  38.395  1.00  0.00     0.211 HD
ENDBRANCH  28  33
BRANCH  30  35
ATOM     35  O   UNL     1       6.769  -9.161  35.524  1.00  0.00    -0.387 OA
ATOM     36  H   UNL     1       7.238  -8.352  35.852  1.00  0.00     0.211 HD
ENDBRANCH  30  35
BRANCH  31  37
ATOM     37  C   UNL     1       3.279  -9.145  33.976  1.00  0.00     0.191 C 
BRANCH  37  38
ATOM     38  O   UNL     1       2.202  -8.249  33.939  1.00  0.00    -0.394 OA
ATOM     39  H   UNL     1       1.388  -8.774  34.155  1.00  0.00     0.210 HD
ENDBRANCH  37  38
ENDBRANCH  31  37
BRANCH  32  40
ATOM     40  O   UNL     1       4.556 -11.483  36.647  1.00  0.00    -0.387 OA
ATOM     41  H   UNL     1       3.778 -11.272  37.230  1.00  0.00     0.211 HD
ENDBRANCH  32  40
ENDBRANCH   1  27
TORSDOF 12
ENDMDL
MODEL 8
REMARK VINA RESULT:    -7.260      2.061      3.264
REMARK INTER + INTRA:         -11.098
REMARK INTER:                  -9.620
REMARK INTRA:                  -1.478
REMARK UNBOUND:                -0.443
REMARK SMILES O=c1c(O[C@H]2O[C@@H](CO)[C@H](O)[C@@H](O)[C@@H]2O)c(-c2ccc(O)c(O)c2)oc2cc(O)cc(O)c12
REMARK SMILES IDX 4 1 3 2 16 3 25 4 2 5 26 6 1 7 33 8 27 9 31 10 28 11 30 12
REMARK SMILES IDX 17 13 18 14 19 15 20 16 24 17 22 18 21 19 23 21 32 23 29 25
REMARK SMILES IDX 5 27 14 28 6 29 12 30 7 31 10 32 15 33 13 35 8 37 9 38 11 40
REMARK H PARENT 21 20 23 22 32 24 29 26 15 34 13 36 9 39 11 41
REMARK Flexibility Score: inf
ROOT
ATOM      1  O   UNL     1       3.552  -5.063  37.238  1.00  0.00    -0.454 OA
ENDROOT
BRANCH   1   2
ATOM      2  C   UNL     1       4.402  -4.051  36.753  1.00  0.00     0.214 A 
ATOM      3  C   UNL     1       5.471  -4.442  35.926  1.00  0.00     0.180 A 
ATOM      4  O   UNL     1       6.356  -3.544  35.511  1.00  0.00    -0.452 OA
ATOM      5  C   UNL     1       4.262  -2.680  37.068  1.00  0.00     0.239 A 
ATOM      6  C   UNL     1       6.271  -2.249  35.789  1.00  0.00     0.146 A 
ATOM      7  O   UNL     1       3.345  -2.311  37.846  1.00  0.00    -0.285 OA
ATOM      8  C   UNL     1       5.185  -1.739  36.546  1.00  0.00     0.111 A 
ATOM      9  C   UNL     1       7.283  -1.402  35.330  1.00  0.00     0.094 A 
ATOM     10  C   UNL     1       5.116  -0.326  36.765  1.00  0.00     0.134 A 
ATOM     11  C   UNL     1       7.246  -0.042  35.615  1.00  0.00     0.123 A 
ATOM     12  C   UNL     1       6.165   0.493  36.329  1.00  0.00     0.093 A 
BRANCH   3  13
ATOM     13  C   UNL     1       5.675  -5.860  35.553  1.00  0.00     0.025 A 
ATOM     14  C   UNL     1       5.995  -6.827  36.519  1.00  0.00     0.016 A 
ATOM     15  C   UNL     1       6.215  -8.154  36.142  1.00  0.00     0.051 A 
ATOM     16  C   UNL     1       6.117  -8.533  34.796  1.00  0.00     0.157 A 
ATOM     17  C   UNL     1       5.542  -6.249  34.213  1.00  0.00     0.062 A 
ATOM     18  C   UNL     1       5.776  -7.575  33.828  1.00  0.00     0.158 A 
BRANCH  16  19
ATOM     19  O   UNL     1       6.362  -9.850  34.416  1.00  0.00    -0.504 OA
ATOM     20  H   UNL     1       6.624 -10.087  33.466  1.00  0.00     0.293 HD
ENDBRANCH  16  19
BRANCH  18  21
ATOM     21  O   UNL     1       5.679  -7.914  32.481  1.00  0.00    -0.504 OA
ATOM     22  H   UNL     1       5.916  -8.840  32.142  1.00  0.00     0.293 HD
ENDBRANCH  18  21
ENDBRANCH   3  13
BRANCH  10  23
ATOM     23  O   UNL     1       4.034   0.320  37.364  1.00  0.00    -0.507 OA
ATOM     24  H   UNL     1       3.174  -0.125  37.646  1.00  0.00     0.293 HD
ENDBRANCH  10  23
BRANCH  11  25
ATOM     25  O   UNL     1       8.282   0.779  35.176  1.00  0.00    -0.508 OA
ATOM     26  H   UNL     1       8.118   1.532  34.521  1.00  0.00     0.293 HD
ENDBRANCH  11  25
ENDBRANCH   1   2
BRANCH   1  27
ATOM     27  C   UNL     1       2.358  -5.575  36.651  1.00  0.00     0.339 C 
ATOM     28  C   UNL     1       1.166  -5.067  37.506  1.00  0.00     0.214 C 
ATOM     29  O   UNL     1       2.490  -6.982  36.484  1.00  0.00    -0.332 OA
ATOM     30  C   UNL     1      -0.123  -5.898  37.340  1.00  0.00     0.180 C 
ATOM     31  C   UNL     1       1.629  -7.797  37.252  1.00  0.00     0.179 C 
ATOM     32  C   UNL     1       0.143  -7.403  37.108  1.00  0.00     0.177 C 
BRANCH  28  33
ATOM     33  O   UNL     1       0.928  -3.707  37.239  1.00  0.00    -0.384 OA
ATOM     34  H   UNL     1       0.900  -3.585  36.253  1.00  0.00     0.211 HD
ENDBRANCH  28  33
BRANCH  30  35
ATOM     35  O   UNL     1      -0.956  -5.704  38.452  1.00  0.00    -0.387 OA
ATOM     36  H   UNL     1      -0.553  -4.984  39.000  1.00  0.00     0.211 HD
ENDBRANCH  30  35
BRANCH  31  37
ATOM     37  C   UNL     1       2.116  -7.957  38.706  1.00  0.00     0.191 C 
BRANCH  37  38
ATOM     38  O   UNL     1       3.516  -7.994  38.749  1.00  0.00    -0.394 OA
ATOM     39  H   UNL     1       3.795  -7.361  39.461  1.00  0.00     0.210 HD
ENDBRANCH  37  38
ENDBRANCH  31  37
BRANCH  32  40
ATOM     40  O   UNL     1      -0.331  -7.786  35.840  1.00  0.00    -0.387 OA
ATOM     41  H   UNL     1      -0.960  -7.082  35.529  1.00  0.00     0.211 HD
ENDBRANCH  32  40
ENDBRANCH   1  27
TORSDOF 12
ENDMDL
MODEL 9
REMARK VINA RESULT:    -6.943      1.506      5.584
REMARK INTER + INTRA:         -10.634
REMARK INTER:                 -10.823
REMARK INTRA:                   0.189
REMARK UNBOUND:                -0.443
REMARK SMILES O=c1c(O[C@H]2O[C@@H](CO)[C@H](O)[C@@H](O)[C@@H]2O)c(-c2ccc(O)c(O)c2)oc2cc(O)cc(O)c12
REMARK SMILES IDX 4 1 3 2 16 3 25 4 2 5 26 6 1 7 33 8 27 9 31 10 28 11 30 12
REMARK SMILES IDX 17 13 18 14 19 15 20 16 24 17 22 18 21 19 23 21 32 23 29 25
REMARK SMILES IDX 5 27 14 28 6 29 12 30 7 31 10 32 15 33 13 35 8 37 9 38 11 40
REMARK H PARENT 21 20 23 22 32 24 29 26 15 34 13 36 9 39 11 41
REMARK Flexibility Score: inf
ROOT
ATOM      1  O   UNL     1       3.749  -3.739  38.448  1.00  0.00    -0.454 OA
ENDROOT
BRANCH   1   2
ATOM      2  C   UNL     1       4.258  -4.660  37.514  1.00  0.00     0.214 A 
ATOM      3  C   UNL     1       5.082  -4.158  36.490  1.00  0.00     0.180 A 
ATOM      4  O   UNL     1       5.521  -4.964  35.531  1.00  0.00    -0.452 OA
ATOM      5  C   UNL     1       3.972  -6.045  37.527  1.00  0.00     0.239 A 
ATOM      6  C   UNL     1       5.270  -6.266  35.497  1.00  0.00     0.146 A 
ATOM      7  O   UNL     1       3.197  -6.511  38.402  1.00  0.00    -0.285 OA
ATOM      8  C   UNL     1       4.519  -6.888  36.528  1.00  0.00     0.111 A 
ATOM      9  C   UNL     1       5.751  -7.009  34.416  1.00  0.00     0.094 A 
ATOM     10  C   UNL     1       4.329  -8.305  36.467  1.00  0.00     0.134 A 
ATOM     11  C   UNL     1       5.495  -8.373  34.328  1.00  0.00     0.123 A 
ATOM     12  C   UNL     1       4.787  -9.017  35.351  1.00  0.00     0.093 A 
BRANCH   3  13
ATOM     13  C   UNL     1       5.426  -2.720  36.417  1.00  0.00     0.025 A 
ATOM     14  C   UNL     1       6.681  -2.295  35.957  1.00  0.00     0.016 A 
ATOM     15  C   UNL     1       6.998  -0.935  35.926  1.00  0.00     0.051 A 
ATOM     16  C   UNL     1       6.064   0.019  36.355  1.00  0.00     0.157 A 
ATOM     17  C   UNL     1       4.481  -1.762  36.811  1.00  0.00     0.062 A 
ATOM     18  C   UNL     1       4.798  -0.398  36.796  1.00  0.00     0.158 A 
BRANCH  16  19
ATOM     19  O   UNL     1       6.388   1.374  36.349  1.00  0.00    -0.504 OA
ATOM     20  H   UNL     1       5.712   2.078  36.078  1.00  0.00     0.293 HD
ENDBRANCH  16  19
BRANCH  18  21
ATOM     21  O   UNL     1       3.850   0.520  37.238  1.00  0.00    -0.504 OA
ATOM     22  H   UNL     1       3.510   0.525  38.194  1.00  0.00     0.293 HD
ENDBRANCH  18  21
ENDBRANCH   3  13
BRANCH  10  23
ATOM     23  O   UNL     1       3.738  -9.059  37.482  1.00  0.00    -0.507 OA
ATOM     24  H   UNL     1       4.062  -9.103  38.436  1.00  0.00     0.293 HD
ENDBRANCH  10  23
BRANCH  11  25
ATOM     25  O   UNL     1       5.957  -9.087  33.226  1.00  0.00    -0.508 OA
ATOM     26  H   UNL     1       6.175 -10.073  33.287  1.00  0.00     0.293 HD
ENDBRANCH  11  25
ENDBRANCH   1   2
BRANCH   1  27
ATOM     27  C   UNL     1       2.484  -3.080  38.444  1.00  0.00     0.339 C 
ATOM     28  C   UNL     1       2.335  -2.352  39.807  1.00  0.00     0.214 C 
ATOM     29  O   UNL     1       1.474  -4.018  38.090  1.00  0.00    -0.332 OA
ATOM     30  C   UNL     1       0.877  -2.018  40.183  1.00  0.00     0.180 C 
ATOM     31  C   UNL     1       0.522  -4.331  39.085  1.00  0.00     0.179 C 
ATOM     32  C   UNL     1      -0.139  -3.077  39.699  1.00  0.00     0.177 C 
BRANCH  28  33
ATOM     33  O   UNL     1       3.140  -1.198  39.825  1.00  0.00    -0.384 OA
ATOM     34  H   UNL     1       2.564  -0.416  39.612  1.00  0.00     0.211 HD
ENDBRANCH  28  33
BRANCH  30  35
ATOM     35  O   UNL     1       0.779  -1.829  41.569  1.00  0.00    -0.387 OA
ATOM     36  H   UNL     1       0.466  -0.902  41.719  1.00  0.00     0.211 HD
ENDBRANCH  30  35
BRANCH  31  37
ATOM     37  C   UNL     1       1.058  -5.347  40.112  1.00  0.00     0.191 C 
BRANCH  37  38
ATOM     38  O   UNL     1       0.656  -6.645  39.770  1.00  0.00    -0.394 OA
ATOM     39  H   UNL     1       0.872  -6.765  38.809  1.00  0.00     0.210 HD
ENDBRANCH  37  38
ENDBRANCH  31  37
BRANCH  32  40
ATOM     40  O   UNL     1      -1.028  -2.504  38.772  1.00  0.00    -0.387 OA
ATOM     41  H   UNL     1      -1.898  -2.980  38.857  1.00  0.00     0.211 HD
ENDBRANCH  32  40
ENDBRANCH   1  27
TORSDOF 12
ENDMDL
