MODEL 1
REMARK VINA RESULT:    -2.629      0.000      0.000
REMARK INTER + INTRA:          -2.860
REMARK INTER:                  -2.860
REMARK INTRA:                   0.000
REMARK UNBOUND:                 0.000
REMARK SMILES [NH3+]CC(=O)[O-]
REMARK SMILES IDX 2 1 1 2 3 6 4 7 5 8
REMARK H PARENT 1 3 1 4 1 5
REMARK Flexibility Score: inf
ROOT
ATOM      1  C   UNL     1     101.113 114.618 115.041  1.00  0.00     0.312 C 
ENDROOT
BRANCH   1   2
ATOM      2  N   UNL     1     101.386 116.015 115.380  1.00  0.00    -0.353 N 
ATOM      3  H   UNL     1     100.543 116.602 115.183  1.00  0.00     0.344 HD
ATOM      4  H   UNL     1     101.615 116.081 116.398  1.00  0.00     0.344 HD
ATOM      5  H   UNL     1     102.200 116.366 114.825  1.00  0.00     0.344 HD
ENDBRANCH   1   2
BRANCH   1   6
ATOM      6  C   UNL     1      99.690 114.269 115.344  1.00  0.00     0.096 C 
ATOM      7  O   UNL     1      99.240 113.132 115.045  1.00  0.00    -0.544 OA
ATOM      8  O   UNL     1      98.875 115.181 116.003  1.00  0.00    -0.544 OA
ENDBRANCH   1   6
TORSDOF 2
ENDMDL
MODEL 2
REMARK VINA RESULT:    -1.984     19.636     20.042
REMARK INTER + INTRA:          -2.158
REMARK INTER:                  -2.158
REMARK INTRA:                   0.000
REMARK UNBOUND:                 0.000
REMARK SMILES [NH3+]CC(=O)[O-]
REMARK SMILES IDX 2 1 1 2 3 6 4 7 5 8
REMARK H PARENT 1 3 1 4 1 5
REMARK Flexibility Score: inf
ROOT
ATOM      1  C   UNL     1     109.324 101.809 104.962  1.00  0.00     0.312 C 
ENDROOT
BRANCH   1   2
ATOM      2  N   UNL     1     109.631 101.939 106.386  1.00  0.00    -0.353 N 
ATOM      3  H   UNL     1     110.118 102.848 106.566  1.00  0.00     0.344 HD
ATOM      4  H   UNL     1     108.738 101.920 106.931  1.00  0.00     0.344 HD
ATOM      5  H   UNL     1     110.236 101.145 106.697  1.00  0.00     0.344 HD
ENDBRANCH   1   2
BRANCH   1   6
ATOM      6  C   UNL     1     109.998 100.604 104.385  1.00  0.00     0.096 C 
ATOM      7  O   UNL     1     110.064  99.536 105.049  1.00  0.00    -0.544 OA
ATOM      8  O   UNL     1     110.508 100.644 103.094  1.00  0.00    -0.544 OA
ENDBRANCH   1   6
TORSDOF 2
ENDMDL
MODEL 3
REMARK VINA RESULT:    -1.978     17.921     18.173
REMARK INTER + INTRA:          -2.151
REMARK INTER:                  -2.151
REMARK INTRA:                   0.000
REMARK UNBOUND:                 0.000
REMARK SMILES [NH3+]CC(=O)[O-]
REMARK SMILES IDX 2 1 1 2 3 6 4 7 5 8
REMARK H PARENT 1 3 1 4 1 5
REMARK Flexibility Score: inf
ROOT
ATOM      1  C   UNL     1     113.935 112.693 104.928  1.00  0.00     0.312 C 
ENDROOT
BRANCH   1   2
ATOM      2  N   UNL     1     113.841 112.805 106.383  1.00  0.00    -0.353 N 
ATOM      3  H   UNL     1     112.908 113.195 106.653  1.00  0.00     0.344 HD
ATOM      4  H   UNL     1     113.946 111.855 106.807  1.00  0.00     0.344 HD
ATOM      5  H   UNL     1     114.602 113.424 106.745  1.00  0.00     0.344 HD
ENDBRANCH   1   2
BRANCH   1   6
ATOM      6  C   UNL     1     114.770 113.801 104.366  1.00  0.00     0.096 C 
ATOM      7  O   UNL     1     115.690 114.314 105.057  1.00  0.00    -0.544 OA
ATOM      8  O   UNL     1     114.568 114.231 103.061  1.00  0.00    -0.544 OA
ENDBRANCH   1   6
TORSDOF 2
ENDMDL
MODEL 4
REMARK VINA RESULT:    -1.973     10.582     10.950
REMARK INTER + INTRA:          -2.146
REMARK INTER:                  -2.146
REMARK INTRA:                   0.000
REMARK UNBOUND:                 0.000
REMARK SMILES [NH3+]CC(=O)[O-]
REMARK SMILES IDX 2 1 1 2 3 6 4 7 5 8
REMARK H PARENT 1 3 1 4 1 5
REMARK Flexibility Score: inf
ROOT
ATOM      1  C   UNL     1     102.310 110.671 105.676  1.00  0.00     0.312 C 
ENDROOT
BRANCH   1   2
ATOM      2  N   UNL     1     103.493 111.281 106.281  1.00  0.00    -0.353 N 
ATOM      3  H   UNL     1     103.593 112.270 105.955  1.00  0.00     0.344 HD
ATOM      4  H   UNL     1     103.386 111.277 107.321  1.00  0.00     0.344 HD
ATOM      5  H   UNL     1     104.348 110.736 106.026  1.00  0.00     0.344 HD
ENDBRANCH   1   2
BRANCH   1   6
ATOM      6  C   UNL     1     101.534 111.684 104.894  1.00  0.00     0.096 C 
ATOM      7  O   UNL     1     100.356 111.976 105.230  1.00  0.00    -0.544 OA
ATOM      8  O   UNL     1     102.130 112.344 103.827  1.00  0.00    -0.544 OA
ENDBRANCH   1   6
TORSDOF 2
ENDMDL
MODEL 5
REMARK VINA RESULT:    -1.958     12.994     13.477
REMARK INTER + INTRA:          -2.130
REMARK INTER:                  -2.130
REMARK INTRA:                   0.000
REMARK UNBOUND:                 0.000
REMARK SMILES [NH3+]CC(=O)[O-]
REMARK SMILES IDX 2 1 1 2 3 6 4 7 5 8
REMARK H PARENT 1 3 1 4 1 5
REMARK Flexibility Score: inf
ROOT
ATOM      1  C   UNL     1      98.875 101.388 115.516  1.00  0.00     0.312 C 
ENDROOT
BRANCH   1   2
ATOM      2  N   UNL     1      99.563 102.662 115.725  1.00  0.00    -0.353 N 
ATOM      3  H   UNL     1      98.908 103.457 115.539  1.00  0.00     0.344 HD
ATOM      4  H   UNL     1      99.889 102.716 116.717  1.00  0.00     0.344 HD
ATOM      5  H   UNL     1     100.392 102.730 115.090  1.00  0.00     0.344 HD
ENDBRANCH   1   2
BRANCH   1   6
ATOM      6  C   UNL     1      98.999 100.948 114.091  1.00  0.00     0.096 C 
ATOM      7  O   UNL     1      98.875  99.731 113.791  1.00  0.00    -0.544 OA
ATOM      8  O   UNL     1      99.198 101.887 113.088  1.00  0.00    -0.544 OA
ENDBRANCH   1   6
TORSDOF 2
ENDMDL
MODEL 6
REMARK VINA RESULT:    -1.926     14.727     15.011
REMARK INTER + INTRA:          -2.095
REMARK INTER:                  -2.095
REMARK INTRA:                   0.000
REMARK UNBOUND:                 0.000
REMARK SMILES [NH3+]CC(=O)[O-]
REMARK SMILES IDX 2 1 1 2 3 6 4 7 5 8
REMARK H PARENT 1 3 1 4 1 5
REMARK Flexibility Score: inf
ROOT
ATOM      1  C   UNL     1     103.415 114.020 100.379  1.00  0.00     0.312 C 
ENDROOT
BRANCH   1   2
ATOM      2  N   UNL     1     102.049 113.604 100.695  1.00  0.00    -0.353 N 
ATOM      3  H   UNL     1     101.996 112.561 100.752  1.00  0.00     0.344 HD
ATOM      4  H   UNL     1     101.774 114.009 101.619  1.00  0.00     0.344 HD
ATOM      5  H   UNL     1     101.389 113.953  99.962  1.00  0.00     0.344 HD
ENDBRANCH   1   2
BRANCH   1   6
ATOM      6  C   UNL     1     103.745 115.311 101.060  1.00  0.00     0.096 C 
ATOM      7  O   UNL     1     103.735 115.384 102.318  1.00  0.00    -0.544 OA
ATOM      8  O   UNL     1     104.116 116.419 100.309  1.00  0.00    -0.544 OA
ENDBRANCH   1   6
TORSDOF 2
ENDMDL
MODEL 7
REMARK VINA RESULT:    -1.919     22.204     22.595
REMARK INTER + INTRA:          -2.088
REMARK INTER:                  -2.088
REMARK INTRA:                   0.000
REMARK UNBOUND:                 0.000
REMARK SMILES [NH3+]CC(=O)[O-]
REMARK SMILES IDX 2 1 1 2 3 6 4 7 5 8
REMARK H PARENT 1 3 1 4 1 5
REMARK Flexibility Score: inf
ROOT
ATOM      1  C   UNL     1     116.169 110.795 100.757  1.00  0.00     0.312 C 
ENDROOT
BRANCH   1   2
ATOM      2  N   UNL     1     115.045 110.806  99.822  1.00  0.00    -0.353 N 
ATOM      3  H   UNL     1     114.163 110.543 100.319  1.00  0.00     0.344 HD
ATOM      4  H   UNL     1     114.938 111.769  99.428  1.00  0.00     0.344 HD
ATOM      5  H   UNL     1     115.224 110.137  99.038  1.00  0.00     0.344 HD
ENDBRANCH   1   2
BRANCH   1   6
ATOM      6  C   UNL     1     116.739 109.417 100.881  1.00  0.00     0.096 C 
ATOM      7  O   UNL     1     117.977 109.256 101.045  1.00  0.00    -0.544 OA
ATOM      8  O   UNL     1     115.897 108.312 100.869  1.00  0.00    -0.544 OA
ENDBRANCH   1   6
TORSDOF 2
ENDMDL
MODEL 8
REMARK VINA RESULT:    -1.909     20.166     20.658
REMARK INTER + INTRA:          -2.076
REMARK INTER:                  -2.076
REMARK INTRA:                   0.000
REMARK UNBOUND:                 0.000
REMARK SMILES [NH3+]CC(=O)[O-]
REMARK SMILES IDX 2 1 1 2 3 6 4 7 5 8
REMARK H PARENT 1 3 1 4 1 5
REMARK Flexibility Score: inf
ROOT
ATOM      1  C   UNL     1     104.499 100.374 100.960  1.00  0.00     0.312 C 
ENDROOT
BRANCH   1   2
ATOM      2  N   UNL     1     103.380 100.357 100.018  1.00  0.00    -0.353 N 
ATOM      3  H   UNL     1     103.722 100.567  99.052  1.00  0.00     0.344 HD
ATOM      4  H   UNL     1     102.942  99.407 100.025  1.00  0.00     0.344 HD
ATOM      5  H   UNL     1     102.662 101.063 100.301  1.00  0.00     0.344 HD
ENDBRANCH   1   2
BRANCH   1   6
ATOM      6  C   UNL     1     105.339 101.596 100.759  1.00  0.00     0.096 C 
ATOM      7  O   UNL     1     104.899 102.729 101.089  1.00  0.00    -0.544 OA
ATOM      8  O   UNL     1     106.629 101.478 100.257  1.00  0.00    -0.544 OA
ENDBRANCH   1   6
TORSDOF 2
ENDMDL
MODEL 9
REMARK VINA RESULT:    -1.881     14.939     15.310
REMARK INTER + INTRA:          -2.046
REMARK INTER:                  -2.046
REMARK INTRA:                   0.000
REMARK UNBOUND:                 0.000
REMARK SMILES [NH3+]CC(=O)[O-]
REMARK SMILES IDX 2 1 1 2 3 6 4 7 5 8
REMARK H PARENT 1 3 1 4 1 5
REMARK Flexibility Score: inf
ROOT
ATOM      1  C   UNL     1     104.030 114.591 100.949  1.00  0.00     0.312 C 
ENDROOT
BRANCH   1   2
ATOM      2  N   UNL     1     103.393 115.900 101.092  1.00  0.00    -0.353 N 
ATOM      3  H   UNL     1     104.107 116.619 101.351  1.00  0.00     0.344 HD
ATOM      4  H   UNL     1     102.957 116.169 100.180  1.00  0.00     0.344 HD
ATOM      5  H   UNL     1     102.649 115.858 101.825  1.00  0.00     0.344 HD
ENDBRANCH   1   2
BRANCH   1   6
ATOM      6  C   UNL     1     103.087 113.609 100.329  1.00  0.00     0.096 C 
ATOM      7  O   UNL     1     101.872 113.601 100.661  1.00  0.00    -0.544 OA
ATOM      8  O   UNL     1     103.537 112.736  99.346  1.00  0.00    -0.544 OA
ENDBRANCH   1   6
TORSDOF 2
ENDMDL
