MODEL 1
REMARK VINA RESULT:    -3.466      0.000      0.000
REMARK INTER + INTRA:          -6.049
REMARK INTER:                  -5.290
REMARK INTRA:                  -0.759
REMARK UNBOUND:                -0.759
REMARK SMILES O=C([O-])CCCCCCCCC(=O)[O-]
REMARK SMILES IDX 7 1 6 2 5 3 4 4 2 5 1 6 3 7 8 8 9 9 10 10 11 11 12 12 13 13
REMARK SMILES IDX 14 14
REMARK H PARENT
REMARK Flexibility Score: inf
ROOT
ATOM      1  C   UNL     1      58.868  29.577  50.829  1.00  0.00     0.000 C 
ENDROOT
BRANCH   1   2
ATOM      2  C   UNL     1      59.082  29.302  49.327  1.00  0.00     0.000 C 
BRANCH   2   3
ATOM      3  C   UNL     1      60.158  28.247  49.001  1.00  0.00     0.006 C 
BRANCH   3   4
ATOM      4  C   UNL     1      59.766  26.808  49.367  1.00  0.00     0.053 C 
BRANCH   4   5
ATOM      5  C   UNL     1      60.957  25.987  49.759  1.00  0.00     0.041 C 
ATOM      6  O   UNL     1      60.899  24.729  49.724  1.00  0.00    -0.550 OA
ATOM      7  O   UNL     1      62.140  26.612  50.131  1.00  0.00    -0.550 OA
ENDBRANCH   4   5
ENDBRANCH   3   4
ENDBRANCH   2   3
ENDBRANCH   1   2
BRANCH   1   8
ATOM      8  C   UNL     1      57.448  29.288  51.348  1.00  0.00     0.000 C 
BRANCH   8   9
ATOM      9  C   UNL     1      56.559  28.596  50.305  1.00  0.00     0.000 C 
BRANCH   9  10
ATOM     10  C   UNL     1      56.152  27.192  50.775  1.00  0.00     0.006 C 
BRANCH  10  11
ATOM     11  C   UNL     1      55.949  26.222  49.604  1.00  0.00     0.053 C 
BRANCH  11  12
ATOM     12  C   UNL     1      54.497  25.953  49.352  1.00  0.00     0.041 C 
ATOM     13  O   UNL     1      54.070  24.768  49.310  1.00  0.00    -0.550 OA
ATOM     14  O   UNL     1      53.610  27.010  49.197  1.00  0.00    -0.550 OA
ENDBRANCH  11  12
ENDBRANCH  10  11
ENDBRANCH   9  10
ENDBRANCH   8   9
ENDBRANCH   1   8
TORSDOF 9
ENDMDL
MODEL 2
REMARK VINA RESULT:    -3.395     11.651     13.950
REMARK INTER + INTRA:          -5.940
REMARK INTER:                  -5.159
REMARK INTRA:                  -0.781
REMARK UNBOUND:                -0.759
REMARK SMILES O=C([O-])CCCCCCCCC(=O)[O-]
REMARK SMILES IDX 7 1 6 2 5 3 4 4 2 5 1 6 3 7 8 8 9 9 10 10 11 11 12 12 13 13
REMARK SMILES IDX 14 14
REMARK H PARENT
REMARK Flexibility Score: inf
ROOT
ATOM      1  C   UNL     1      60.808  31.446  59.654  1.00  0.00     0.000 C 
ENDROOT
BRANCH   1   2
ATOM      2  C   UNL     1      61.025  31.143  61.150  1.00  0.00     0.000 C 
BRANCH   2   3
ATOM      3  C   UNL     1      61.955  29.950  61.449  1.00  0.00     0.006 C 
BRANCH   3   4
ATOM      4  C   UNL     1      63.450  30.249  61.260  1.00  0.00     0.053 C 
BRANCH   4   5
ATOM      5  C   UNL     1      64.138  29.179  60.467  1.00  0.00     0.041 C 
ATOM      6  O   UNL     1      63.497  28.511  59.614  1.00  0.00    -0.550 OA
ATOM      7  O   UNL     1      65.495  28.945  60.647  1.00  0.00    -0.550 OA
ENDBRANCH   4   5
ENDBRANCH   3   4
ENDBRANCH   2   3
ENDBRANCH   1   2
BRANCH   1   8
ATOM      8  C   UNL     1      61.235  32.856  59.206  1.00  0.00     0.000 C 
BRANCH   8   9
ATOM      9  C   UNL     1      61.952  33.643  60.312  1.00  0.00     0.000 C 
BRANCH   9  10
ATOM     10  C   UNL     1      63.414  33.917  59.932  1.00  0.00     0.006 C 
BRANCH  10  11
ATOM     11  C   UNL     1      64.306  34.123  61.163  1.00  0.00     0.053 C 
BRANCH  11  12
ATOM     12  C   UNL     1      64.920  35.490  61.180  1.00  0.00     0.041 C 
ATOM     13  O   UNL     1      66.072  35.673  60.704  1.00  0.00    -0.550 OA
ATOM     14  O   UNL     1      64.207  36.566  61.692  1.00  0.00    -0.550 OA
ENDBRANCH  11  12
ENDBRANCH  10  11
ENDBRANCH   9  10
ENDBRANCH   8   9
ENDBRANCH   1   8
TORSDOF 9
ENDMDL
MODEL 3
REMARK VINA RESULT:    -3.384     11.956     13.745
REMARK INTER + INTRA:          -5.923
REMARK INTER:                  -5.205
REMARK INTRA:                  -0.719
REMARK UNBOUND:                -0.759
REMARK SMILES O=C([O-])CCCCCCCCC(=O)[O-]
REMARK SMILES IDX 7 1 6 2 5 3 4 4 2 5 1 6 3 7 8 8 9 9 10 10 11 11 12 12 13 13
REMARK SMILES IDX 14 14
REMARK H PARENT
REMARK Flexibility Score: inf
ROOT
ATOM      1  C   UNL     1      60.763  31.253  59.722  1.00  0.00     0.000 C 
ENDROOT
BRANCH   1   2
ATOM      2  C   UNL     1      61.201  32.639  59.209  1.00  0.00     0.000 C 
BRANCH   2   3
ATOM      3  C   UNL     1      61.756  33.592  60.287  1.00  0.00     0.006 C 
BRANCH   3   4
ATOM      4  C   UNL     1      63.286  33.730  60.285  1.00  0.00     0.053 C 
BRANCH   4   5
ATOM      5  C   UNL     1      63.735  34.975  60.988  1.00  0.00     0.041 C 
ATOM      6  O   UNL     1      64.877  35.027  61.516  1.00  0.00    -0.550 OA
ATOM      7  O   UNL     1      62.906  36.088  61.029  1.00  0.00    -0.550 OA
ENDBRANCH   4   5
ENDBRANCH   3   4
ENDBRANCH   2   3
ENDBRANCH   1   2
BRANCH   1   8
ATOM      8  C   UNL     1      60.865  31.060  61.246  1.00  0.00     0.000 C 
BRANCH   8   9
ATOM      9  C   UNL     1      61.543  29.740  61.638  1.00  0.00     0.000 C 
BRANCH   9  10
ATOM     10  C   UNL     1      62.722  29.430  60.704  1.00  0.00     0.006 C 
BRANCH  10  11
ATOM     11  C   UNL     1      63.983  30.221  61.077  1.00  0.00     0.053 C 
BRANCH  11  12
ATOM     12  C   UNL     1      65.177  29.761  60.296  1.00  0.00     0.041 C 
ATOM     13  O   UNL     1      65.600  30.443  59.326  1.00  0.00    -0.550 OA
ATOM     14  O   UNL     1      65.840  28.598  60.662  1.00  0.00    -0.550 OA
ENDBRANCH  11  12
ENDBRANCH  10  11
ENDBRANCH   9  10
ENDBRANCH   8   9
ENDBRANCH   1   8
TORSDOF 9
ENDMDL
MODEL 4
REMARK VINA RESULT:    -3.363     11.841     14.022
REMARK INTER + INTRA:          -5.891
REMARK INTER:                  -5.141
REMARK INTRA:                  -0.750
REMARK UNBOUND:                -0.759
REMARK SMILES O=C([O-])CCCCCCCCC(=O)[O-]
REMARK SMILES IDX 7 1 6 2 5 3 4 4 2 5 1 6 3 7 8 8 9 9 10 10 11 11 12 12 13 13
REMARK SMILES IDX 14 14
REMARK H PARENT
REMARK Flexibility Score: inf
ROOT
ATOM      1  C   UNL     1      61.902  33.218  59.065  1.00  0.00     0.000 C 
ENDROOT
BRANCH   1   2
ATOM      2  C   UNL     1      61.583  34.065  60.312  1.00  0.00     0.000 C 
BRANCH   2   3
ATOM      3  C   UNL     1      62.643  35.125  60.674  1.00  0.00     0.006 C 
BRANCH   3   4
ATOM      4  C   UNL     1      64.050  34.557  60.916  1.00  0.00     0.053 C 
BRANCH   4   5
ATOM      5  C   UNL     1      65.018  35.622  61.333  1.00  0.00     0.041 C 
ATOM      6  O   UNL     1      66.197  35.617  60.889  1.00  0.00    -0.550 OA
ATOM      7  O   UNL     1      64.608  36.639  62.185  1.00  0.00    -0.550 OA
ENDBRANCH   4   5
ENDBRANCH   3   4
ENDBRANCH   2   3
ENDBRANCH   1   2
BRANCH   1   8
ATOM      8  C   UNL     1      61.923  31.696  59.298  1.00  0.00     0.000 C 
BRANCH   8   9
ATOM      9  C   UNL     1      61.327  31.292  60.653  1.00  0.00     0.000 C 
BRANCH   9  10
ATOM     10  C   UNL     1      62.265  30.334  61.402  1.00  0.00     0.006 C 
BRANCH  10  11
ATOM     11  C   UNL     1      63.741  30.586  61.067  1.00  0.00     0.053 C 
BRANCH  11  12
ATOM     12  C   UNL     1      64.435  29.328  60.641  1.00  0.00     0.041 C 
ATOM     13  O   UNL     1      65.693  29.284  60.591  1.00  0.00    -0.550 OA
ATOM     14  O   UNL     1      63.694  28.196  60.331  1.00  0.00    -0.550 OA
ENDBRANCH  11  12
ENDBRANCH  10  11
ENDBRANCH   9  10
ENDBRANCH   8   9
ENDBRANCH   1   8
TORSDOF 9
ENDMDL
MODEL 5
REMARK VINA RESULT:    -3.347     11.454     13.744
REMARK INTER + INTRA:          -5.866
REMARK INTER:                  -5.061
REMARK INTRA:                  -0.805
REMARK UNBOUND:                -0.759
REMARK SMILES O=C([O-])CCCCCCCCC(=O)[O-]
REMARK SMILES IDX 7 1 6 2 5 3 4 4 2 5 1 6 3 7 8 8 9 9 10 10 11 11 12 12 13 13
REMARK SMILES IDX 14 14
REMARK H PARENT
REMARK Flexibility Score: inf
ROOT
ATOM      1  C   UNL     1      60.600  30.902  59.775  1.00  0.00     0.000 C 
ENDROOT
BRANCH   1   2
ATOM      2  C   UNL     1      60.968  30.665  61.254  1.00  0.00     0.000 C 
BRANCH   2   3
ATOM      3  C   UNL     1      62.075  29.619  61.494  1.00  0.00     0.006 C 
BRANCH   3   4
ATOM      4  C   UNL     1      63.504  30.163  61.346  1.00  0.00     0.053 C 
BRANCH   4   5
ATOM      5  C   UNL     1      64.292  29.396  60.328  1.00  0.00     0.041 C 
ATOM      6  O   UNL     1      65.544  29.517  60.271  1.00  0.00    -0.550 OA
ATOM      7  O   UNL     1      63.645  28.521  59.465  1.00  0.00    -0.550 OA
ENDBRANCH   4   5
ENDBRANCH   3   4
ENDBRANCH   2   3
ENDBRANCH   1   2
BRANCH   1   8
ATOM      8  C   UNL     1      60.972  32.291  59.226  1.00  0.00     0.000 C 
BRANCH   8   9
ATOM      9  C   UNL     1      61.669  33.178  60.267  1.00  0.00     0.000 C 
BRANCH   9  10
ATOM     10  C   UNL     1      63.018  33.689  59.740  1.00  0.00     0.006 C 
BRANCH  10  11
ATOM     11  C   UNL     1      64.062  33.832  60.855  1.00  0.00     0.053 C 
BRANCH  11  12
ATOM     12  C   UNL     1      64.488  35.257  61.037  1.00  0.00     0.041 C 
ATOM     13  O   UNL     1      63.629  36.151  61.260  1.00  0.00    -0.550 OA
ATOM     14  O   UNL     1      65.835  35.590  60.993  1.00  0.00    -0.550 OA
ENDBRANCH  11  12
ENDBRANCH  10  11
ENDBRANCH   9  10
ENDBRANCH   8   9
ENDBRANCH   1   8
TORSDOF 9
ENDMDL
MODEL 6
REMARK VINA RESULT:    -3.279      1.375      5.995
REMARK INTER + INTRA:          -5.763
REMARK INTER:                  -5.238
REMARK INTRA:                  -0.525
REMARK UNBOUND:                -0.759
REMARK SMILES O=C([O-])CCCCCCCCC(=O)[O-]
REMARK SMILES IDX 7 1 6 2 5 3 4 4 2 5 1 6 3 7 8 8 9 9 10 10 11 11 12 12 13 13
REMARK SMILES IDX 14 14
REMARK H PARENT
REMARK Flexibility Score: inf
ROOT
ATOM      1  C   UNL     1      56.359  28.382  51.098  1.00  0.00     0.000 C 
ENDROOT
BRANCH   1   2
ATOM      2  C   UNL     1      55.342  29.347  50.456  1.00  0.00     0.000 C 
BRANCH   2   3
ATOM      3  C   UNL     1      54.079  28.679  49.878  1.00  0.00     0.006 C 
BRANCH   3   4
ATOM      4  C   UNL     1      53.858  27.232  50.343  1.00  0.00     0.053 C 
BRANCH   4   5
ATOM      5  C   UNL     1      53.959  26.258  49.209  1.00  0.00     0.041 C 
ATOM      6  O   UNL     1      52.951  26.008  48.496  1.00  0.00    -0.550 OA
ATOM      7  O   UNL     1      55.174  25.653  48.918  1.00  0.00    -0.550 OA
ENDBRANCH   4   5
ENDBRANCH   3   4
ENDBRANCH   2   3
ENDBRANCH   1   2
BRANCH   1   8
ATOM      8  C   UNL     1      57.646  28.156  50.285  1.00  0.00     0.000 C 
BRANCH   8   9
ATOM      9  C   UNL     1      58.473  29.437  50.106  1.00  0.00     0.000 C 
BRANCH   9  10
ATOM     10  C   UNL     1      59.599  29.227  49.084  1.00  0.00     0.006 C 
BRANCH  10  11
ATOM     11  C   UNL     1      60.064  27.766  49.023  1.00  0.00     0.053 C 
BRANCH  11  12
ATOM     12  C   UNL     1      61.456  27.605  49.554  1.00  0.00     0.041 C 
ATOM     13  O   UNL     1      61.819  26.510  50.059  1.00  0.00    -0.550 OA
ATOM     14  O   UNL     1      62.362  28.653  49.459  1.00  0.00    -0.550 OA
ENDBRANCH  11  12
ENDBRANCH  10  11
ENDBRANCH   9  10
ENDBRANCH   8   9
ENDBRANCH   1   8
TORSDOF 9
ENDMDL
MODEL 7
REMARK VINA RESULT:    -3.257     11.748     13.480
REMARK INTER + INTRA:          -5.729
REMARK INTER:                  -5.295
REMARK INTRA:                  -0.434
REMARK UNBOUND:                -0.759
REMARK SMILES O=C([O-])CCCCCCCCC(=O)[O-]
REMARK SMILES IDX 7 1 6 2 5 3 4 4 2 5 1 6 3 7 8 8 9 9 10 10 11 11 12 12 13 13
REMARK SMILES IDX 14 14
REMARK H PARENT
REMARK Flexibility Score: inf
ROOT
ATOM      1  C   UNL     1      61.476  34.158  59.733  1.00  0.00     0.000 C 
ENDROOT
BRANCH   1   2
ATOM      2  C   UNL     1      61.565  35.441  60.584  1.00  0.00     0.000 C 
BRANCH   2   3
ATOM      3  C   UNL     1      62.856  36.263  60.397  1.00  0.00     0.006 C 
BRANCH   3   4
ATOM      4  C   UNL     1      64.029  35.813  61.281  1.00  0.00     0.053 C 
BRANCH   4   5
ATOM      5  C   UNL     1      65.202  35.362  60.466  1.00  0.00     0.041 C 
ATOM      6  O   UNL     1      66.366  35.740  60.766  1.00  0.00    -0.550 OA
ATOM      7  O   UNL     1      65.014  34.496  59.397  1.00  0.00    -0.550 OA
ENDBRANCH   4   5
ENDBRANCH   3   4
ENDBRANCH   2   3
ENDBRANCH   1   2
BRANCH   1   8
ATOM      8  C   UNL     1      61.965  32.877  60.431  1.00  0.00     0.000 C 
BRANCH   8   9
ATOM      9  C   UNL     1      61.091  31.655  60.118  1.00  0.00     0.000 C 
BRANCH   9  10
ATOM     10  C   UNL     1      60.941  30.755  61.353  1.00  0.00     0.006 C 
BRANCH  10  11
ATOM     11  C   UNL     1      62.062  29.713  61.454  1.00  0.00     0.053 C 
BRANCH  11  12
ATOM     12  C   UNL     1      61.588  28.348  61.056  1.00  0.00     0.041 C 
ATOM     13  O   UNL     1      60.520  28.214  60.403  1.00  0.00    -0.550 OA
ATOM     14  O   UNL     1      62.344  27.229  61.377  1.00  0.00    -0.550 OA
ENDBRANCH  11  12
ENDBRANCH  10  11
ENDBRANCH   9  10
ENDBRANCH   8   9
ENDBRANCH   1   8
TORSDOF 9
ENDMDL
MODEL 8
REMARK VINA RESULT:    -3.166      1.084      5.708
REMARK INTER + INTRA:          -5.591
REMARK INTER:                  -5.159
REMARK INTRA:                  -0.432
REMARK UNBOUND:                -0.759
REMARK SMILES O=C([O-])CCCCCCCCC(=O)[O-]
REMARK SMILES IDX 7 1 6 2 5 3 4 4 2 5 1 6 3 7 8 8 9 9 10 10 11 11 12 12 13 13
REMARK SMILES IDX 14 14
REMARK H PARENT
REMARK Flexibility Score: inf
ROOT
ATOM      1  C   UNL     1      57.088  28.561  51.345  1.00  0.00     0.000 C 
ENDROOT
BRANCH   1   2
ATOM      2  C   UNL     1      56.270  28.161  50.101  1.00  0.00     0.000 C 
BRANCH   2   3
ATOM      3  C   UNL     1      54.813  28.664  50.085  1.00  0.00     0.006 C 
BRANCH   3   4
ATOM      4  C   UNL     1      53.786  27.621  49.619  1.00  0.00     0.053 C 
BRANCH   4   5
ATOM      5  C   UNL     1      54.290  26.221  49.802  1.00  0.00     0.041 C 
ATOM      6  O   UNL     1      54.758  25.583  48.823  1.00  0.00    -0.550 OA
ATOM      7  O   UNL     1      54.273  25.636  51.061  1.00  0.00    -0.550 OA
ENDBRANCH   4   5
ENDBRANCH   3   4
ENDBRANCH   2   3
ENDBRANCH   1   2
BRANCH   1   8
ATOM      8  C   UNL     1      58.589  28.793  51.090  1.00  0.00     0.000 C 
BRANCH   8   9
ATOM      9  C   UNL     1      58.878  29.358  49.693  1.00  0.00     0.000 C 
BRANCH   9  10
ATOM     10  C   UNL     1      60.008  28.578  49.007  1.00  0.00     0.006 C 
BRANCH  10  11
ATOM     11  C   UNL     1      59.927  27.071  49.286  1.00  0.00     0.053 C 
BRANCH  11  12
ATOM     12  C   UNL     1      61.260  26.507  49.677  1.00  0.00     0.041 C 
ATOM     13  O   UNL     1      62.320  27.105  49.355  1.00  0.00    -0.550 OA
ATOM     14  O   UNL     1      61.328  25.339  50.424  1.00  0.00    -0.550 OA
ENDBRANCH  11  12
ENDBRANCH  10  11
ENDBRANCH   9  10
ENDBRANCH   8   9
ENDBRANCH   1   8
TORSDOF 9
ENDMDL
MODEL 9
REMARK VINA RESULT:    -3.130     12.170     13.816
REMARK INTER + INTRA:          -5.536
REMARK INTER:                  -5.057
REMARK INTRA:                  -0.479
REMARK UNBOUND:                -0.759
REMARK SMILES O=C([O-])CCCCCCCCC(=O)[O-]
REMARK SMILES IDX 7 1 6 2 5 3 4 4 2 5 1 6 3 7 8 8 9 9 10 10 11 11 12 12 13 13
REMARK SMILES IDX 14 14
REMARK H PARENT
REMARK Flexibility Score: inf
ROOT
ATOM      1  C   UNL     1      61.911  33.371  60.299  1.00  0.00     0.000 C 
ENDROOT
BRANCH   1   2
ATOM      2  C   UNL     1      63.412  33.725  60.313  1.00  0.00     0.000 C 
BRANCH   2   3
ATOM      3  C   UNL     1      63.771  35.029  61.053  1.00  0.00     0.006 C 
BRANCH   3   4
ATOM      4  C   UNL     1      65.243  35.449  60.919  1.00  0.00     0.053 C 
BRANCH   4   5
ATOM      5  C   UNL     1      65.530  36.058  59.581  1.00  0.00     0.041 C 
ATOM      6  O   UNL     1      66.545  35.702  58.926  1.00  0.00    -0.550 OA
ATOM      7  O   UNL     1      64.658  36.995  59.041  1.00  0.00    -0.550 OA
ENDBRANCH   4   5
ENDBRANCH   3   4
ENDBRANCH   2   3
ENDBRANCH   1   2
BRANCH   1   8
ATOM      8  C   UNL     1      61.591  31.901  59.973  1.00  0.00     0.000 C 
BRANCH   8   9
ATOM      9  C   UNL     1      61.008  31.137  61.170  1.00  0.00     0.000 C 
BRANCH   9  10
ATOM     10  C   UNL     1      61.822  29.868  61.461  1.00  0.00     0.006 C 
BRANCH  10  11
ATOM     11  C   UNL     1      63.330  30.090  61.283  1.00  0.00     0.053 C 
BRANCH  11  12
ATOM     12  C   UNL     1      63.991  28.914  60.631  1.00  0.00     0.041 C 
ATOM     13  O   UNL     1      63.446  27.779  60.670  1.00  0.00    -0.550 OA
ATOM     14  O   UNL     1      65.192  29.079  59.954  1.00  0.00    -0.550 OA
ENDBRANCH  11  12
ENDBRANCH  10  11
ENDBRANCH   9  10
ENDBRANCH   8   9
ENDBRANCH   1   8
TORSDOF 9
ENDMDL
