MODEL 1
REMARK VINA RESULT:    -6.143      0.000      0.000
REMARK INTER + INTRA:          -9.637
REMARK INTER:                  -8.118
REMARK INTRA:                  -1.520
REMARK UNBOUND:                -1.520
REMARK SMILES CC[C@@H](C=C[C@@H](C)[C@@H]1CC[C@H]2[C@@H]3CC=C4C[C@@H](O)CC[C@@]4(C)[C@H]3CC[C@]21C)C(C)C
REMARK SMILES IDX 6 1 7 2 5 3 4 4 3 5 2 6 1 7 28 8 29 9 30 10 8 11 9 12 26 13
REMARK SMILES IDX 10 14 11 15 25 16 27 17 12 18 24 19 23 20 13 21 21 22 14 23
REMARK SMILES IDX 15 24 20 25 22 26 16 27 19 28 17 29 18 30
REMARK H PARENT 18 31
REMARK Flexibility Score: inf
ROOT
ATOM      1  C   UNL     1      11.427 -10.574 -43.805  1.00  0.00     0.012 C 
ATOM      2  C   UNL     1      11.233  -9.078 -43.498  1.00  0.00     0.012 C 
ENDROOT
BRANCH   1   3
ATOM      3  C   UNL     1      12.879 -11.034 -43.848  1.00  0.00    -0.028 C 
ATOM      4  C   UNL     1      13.325 -12.225 -43.400  1.00  0.00    -0.027 C 
BRANCH   4   5
ATOM      5  C   UNL     1      14.776 -12.665 -43.504  1.00  0.00     0.014 C 
BRANCH   5   6
ATOM      6  C   UNL     1      15.710 -11.471 -43.829  1.00  0.00     0.004 C 
ATOM      7  C   UNL     1      17.155 -11.697 -43.383  1.00  0.00     0.004 C 
ENDBRANCH   5   6
BRANCH   5   8
ATOM      8  C   UNL     1      14.964 -13.913 -44.425  1.00  0.00    -0.011 C 
ATOM      9  C   UNL     1      14.978 -13.593 -45.930  1.00  0.00     0.008 C 
ATOM     10  C   UNL     1      13.906 -14.987 -44.129  1.00  0.00     0.008 C 
ENDBRANCH   5   8
ENDBRANCH   4   5
ENDBRANCH   1   3
BRANCH   1  11
ATOM     11  C   UNL     1      10.537 -11.068 -44.995  1.00  0.00     0.002 C 
ATOM     12  C   UNL     1       9.188 -10.359 -45.068  1.00  0.00     0.005 C 
ATOM     13  C   UNL     1      10.217 -12.593 -45.200  1.00  0.00    -0.026 C 
ATOM     14  C   UNL     1       8.423 -11.124 -46.124  1.00  0.00     0.005 C 
ATOM     15  C   UNL     1       8.815 -12.591 -45.920  1.00  0.00    -0.001 C 
ATOM     16  C   UNL     1      11.316 -13.265 -46.086  1.00  0.00     0.007 C 
ATOM     17  C   UNL     1      10.095 -13.361 -43.862  1.00  0.00     0.012 C 
ATOM     18  C   UNL     1       8.801 -13.404 -47.242  1.00  0.00     0.000 C 
ATOM     19  C   UNL     1      10.928 -14.643 -46.675  1.00  0.00     0.005 C 
ATOM     20  C   UNL     1       9.410 -14.812 -46.977  1.00  0.00     0.003 C 
ATOM     21  C   UNL     1       7.401 -13.513 -47.858  1.00  0.00     0.031 C 
ATOM     22  C   UNL     1       8.996 -15.928 -48.055  1.00  0.00    -0.008 C 
ATOM     23  C   UNL     1       7.532 -14.225 -49.172  1.00  0.00    -0.027 C 
ATOM     24  C   UNL     1       8.376 -15.271 -49.314  1.00  0.00    -0.065 C 
ATOM     25  C   UNL     1      10.164 -16.921 -48.414  1.00  0.00     0.014 C 
ATOM     26  C   UNL     1       7.876 -16.814 -47.437  1.00  0.00     0.016 C 
ATOM     27  C   UNL     1       8.737 -15.663 -50.739  1.00  0.00     0.063 C 
ATOM     28  C   UNL     1      10.847 -16.605 -49.742  1.00  0.00     0.033 C 
ATOM     29  C   UNL     1       9.818 -16.742 -50.865  1.00  0.00     0.118 C 
BRANCH  29  30
ATOM     30  O   UNL     1      10.450 -16.620 -52.113  1.00  0.00    -0.393 OA
ATOM     31  H   UNL     1      11.163 -17.311 -52.143  1.00  0.00     0.210 HD
ENDBRANCH  29  30
ENDBRANCH   1  11
TORSDOF 6
ENDMDL
MODEL 2
REMARK VINA RESULT:    -6.055      9.669     12.783
REMARK INTER + INTRA:          -9.521
REMARK INTER:                  -8.800
REMARK INTRA:                  -0.721
REMARK UNBOUND:                -1.520
REMARK SMILES CC[C@@H](C=C[C@@H](C)[C@@H]1CC[C@H]2[C@@H]3CC=C4C[C@@H](O)CC[C@@]4(C)[C@H]3CC[C@]21C)C(C)C
REMARK SMILES IDX 6 1 7 2 5 3 4 4 3 5 2 6 1 7 28 8 29 9 30 10 8 11 9 12 26 13
REMARK SMILES IDX 10 14 11 15 25 16 27 17 12 18 24 19 23 20 13 21 21 22 14 23
REMARK SMILES IDX 15 24 20 25 22 26 16 27 19 28 17 29 18 30
REMARK H PARENT 18 31
REMARK Flexibility Score: inf
ROOT
ATOM      1  C   UNL     1       6.789 -20.910 -36.764  1.00  0.00     0.012 C 
ATOM      2  C   UNL     1       5.437 -21.553 -37.121  1.00  0.00     0.012 C 
ENDROOT
BRANCH   1   3
ATOM      3  C   UNL     1       6.859 -19.404 -36.981  1.00  0.00    -0.028 C 
ATOM      4  C   UNL     1       5.866 -18.536 -36.701  1.00  0.00    -0.027 C 
BRANCH   4   5
ATOM      5  C   UNL     1       5.993 -17.033 -36.890  1.00  0.00     0.014 C 
BRANCH   5   6
ATOM      6  C   UNL     1       7.196 -16.675 -37.801  1.00  0.00     0.004 C 
ATOM      7  C   UNL     1       6.791 -16.375 -39.244  1.00  0.00     0.004 C 
ENDBRANCH   5   6
BRANCH   5   8
ATOM      8  C   UNL     1       5.938 -16.248 -35.541  1.00  0.00    -0.011 C 
ATOM      9  C   UNL     1       5.268 -17.015 -34.388  1.00  0.00     0.008 C 
ATOM     10  C   UNL     1       5.261 -14.880 -35.720  1.00  0.00     0.008 C 
ENDBRANCH   5   8
ENDBRANCH   4   5
ENDBRANCH   1   3
BRANCH   1  11
ATOM     11  C   UNL     1       8.010 -21.719 -37.319  1.00  0.00     0.002 C 
ATOM     12  C   UNL     1       8.004 -23.182 -36.886  1.00  0.00     0.005 C 
ATOM     13  C   UNL     1       9.486 -21.227 -37.102  1.00  0.00    -0.026 C 
ATOM     14  C   UNL     1       9.348 -23.707 -37.337  1.00  0.00     0.005 C 
ATOM     15  C   UNL     1      10.331 -22.556 -37.094  1.00  0.00    -0.001 C 
ATOM     16  C   UNL     1       9.919 -20.277 -38.266  1.00  0.00     0.007 C 
ATOM     17  C   UNL     1       9.678 -20.501 -35.748  1.00  0.00     0.012 C 
ATOM     18  C   UNL     1      11.504 -22.546 -38.111  1.00  0.00     0.000 C 
ATOM     19  C   UNL     1      11.445 -20.035 -38.377  1.00  0.00     0.005 C 
ATOM     20  C   UNL     1      12.324 -21.237 -37.925  1.00  0.00     0.003 C 
ATOM     21  C   UNL     1      12.401 -23.785 -37.997  1.00  0.00     0.031 C 
ATOM     22  C   UNL     1      13.823 -21.306 -38.496  1.00  0.00    -0.008 C 
ATOM     23  C   UNL     1      13.427 -23.711 -39.089  1.00  0.00    -0.027 C 
ATOM     24  C   UNL     1      14.001 -22.534 -39.423  1.00  0.00    -0.065 C 
ATOM     25  C   UNL     1      14.300 -19.970 -39.177  1.00  0.00     0.014 C 
ATOM     26  C   UNL     1      14.794 -21.528 -37.300  1.00  0.00     0.016 C 
ATOM     27  C   UNL     1      14.707 -22.483 -40.771  1.00  0.00     0.063 C 
ATOM     28  C   UNL     1      14.248 -20.009 -40.702  1.00  0.00     0.033 C 
ATOM     29  C   UNL     1      15.204 -21.097 -41.195  1.00  0.00     0.118 C 
BRANCH  29  30
ATOM     30  O   UNL     1      15.304 -21.050 -42.595  1.00  0.00    -0.393 OA
ATOM     31  H   UNL     1      14.881 -21.878 -42.940  1.00  0.00     0.210 HD
ENDBRANCH  29  30
ENDBRANCH   1  11
TORSDOF 6
ENDMDL
MODEL 3
REMARK VINA RESULT:    -6.034     10.582     13.011
REMARK INTER + INTRA:          -9.494
REMARK INTER:                  -8.254
REMARK INTRA:                  -1.240
REMARK UNBOUND:                -1.520
REMARK SMILES CC[C@@H](C=C[C@@H](C)[C@@H]1CC[C@H]2[C@@H]3CC=C4C[C@@H](O)CC[C@@]4(C)[C@H]3CC[C@]21C)C(C)C
REMARK SMILES IDX 6 1 7 2 5 3 4 4 3 5 2 6 1 7 28 8 29 9 30 10 8 11 9 12 26 13
REMARK SMILES IDX 10 14 11 15 25 16 27 17 12 18 24 19 23 20 13 21 21 22 14 23
REMARK SMILES IDX 15 24 20 25 22 26 16 27 19 28 17 29 18 30
REMARK H PARENT 18 31
REMARK Flexibility Score: inf
ROOT
ATOM      1  C   UNL     1       4.032 -15.382 -38.235  1.00  0.00     0.012 C 
ATOM      2  C   UNL     1       3.690 -14.548 -39.483  1.00  0.00     0.012 C 
ENDROOT
BRANCH   1   3
ATOM      3  C   UNL     1       3.936 -14.627 -36.916  1.00  0.00    -0.028 C 
ATOM      4  C   UNL     1       3.821 -15.204 -35.702  1.00  0.00    -0.027 C 
BRANCH   4   5
ATOM      5  C   UNL     1       3.774 -14.415 -34.404  1.00  0.00     0.014 C 
BRANCH   5   6
ATOM      6  C   UNL     1       4.531 -15.148 -33.266  1.00  0.00     0.004 C 
ATOM      7  C   UNL     1       5.069 -16.517 -33.684  1.00  0.00     0.004 C 
ENDBRANCH   5   6
BRANCH   5   8
ATOM      8  C   UNL     1       2.330 -13.948 -34.034  1.00  0.00    -0.011 C 
ATOM      9  C   UNL     1       1.842 -12.716 -34.816  1.00  0.00     0.008 C 
ATOM     10  C   UNL     1       2.198 -13.694 -32.524  1.00  0.00     0.008 C 
ENDBRANCH   5   8
ENDBRANCH   4   5
ENDBRANCH   1   3
BRANCH   1  11
ATOM     11  C   UNL     1       5.331 -16.239 -38.418  1.00  0.00     0.002 C 
ATOM     12  C   UNL     1       6.103 -15.892 -39.688  1.00  0.00     0.005 C 
ATOM     13  C   UNL     1       5.289 -17.809 -38.374  1.00  0.00    -0.026 C 
ATOM     14  C   UNL     1       7.169 -16.960 -39.777  1.00  0.00     0.005 C 
ATOM     15  C   UNL     1       6.491 -18.246 -39.293  1.00  0.00    -0.001 C 
ATOM     16  C   UNL     1       5.474 -18.316 -36.906  1.00  0.00     0.007 C 
ATOM     17  C   UNL     1       3.975 -18.386 -38.954  1.00  0.00     0.012 C 
ATOM     18  C   UNL     1       7.479 -19.217 -38.594  1.00  0.00     0.000 C 
ATOM     19  C   UNL     1       5.833 -19.816 -36.774  1.00  0.00     0.005 C 
ATOM     20  C   UNL     1       6.674 -20.385 -37.954  1.00  0.00     0.003 C 
ATOM     21  C   UNL     1       8.564 -19.745 -39.541  1.00  0.00     0.031 C 
ATOM     22  C   UNL     1       7.537 -21.709 -37.670  1.00  0.00    -0.008 C 
ATOM     23  C   UNL     1       9.510 -20.584 -38.733  1.00  0.00    -0.027 C 
ATOM     24  C   UNL     1       9.053 -21.406 -37.763  1.00  0.00    -0.065 C 
ATOM     25  C   UNL     1       7.155 -22.434 -36.325  1.00  0.00     0.014 C 
ATOM     26  C   UNL     1       7.236 -22.742 -38.795  1.00  0.00     0.016 C 
ATOM     27  C   UNL     1      10.079 -21.897 -36.751  1.00  0.00     0.063 C 
ATOM     28  C   UNL     1       8.128 -22.154 -35.183  1.00  0.00     0.033 C 
ATOM     29  C   UNL     1       9.505 -22.693 -35.574  1.00  0.00     0.118 C 
BRANCH  29  30
ATOM     30  O   UNL     1      10.384 -22.600 -34.482  1.00  0.00    -0.393 OA
ATOM     31  H   UNL     1      10.544 -23.527 -34.163  1.00  0.00     0.210 HD
ENDBRANCH  29  30
ENDBRANCH   1  11
TORSDOF 6
ENDMDL
MODEL 4
REMARK VINA RESULT:    -6.024     10.169     12.938
REMARK INTER + INTRA:          -9.481
REMARK INTER:                  -8.580
REMARK INTRA:                  -0.901
REMARK UNBOUND:                -1.520
REMARK SMILES CC[C@@H](C=C[C@@H](C)[C@@H]1CC[C@H]2[C@@H]3CC=C4C[C@@H](O)CC[C@@]4(C)[C@H]3CC[C@]21C)C(C)C
REMARK SMILES IDX 6 1 7 2 5 3 4 4 3 5 2 6 1 7 28 8 29 9 30 10 8 11 9 12 26 13
REMARK SMILES IDX 10 14 11 15 25 16 27 17 12 18 24 19 23 20 13 21 21 22 14 23
REMARK SMILES IDX 15 24 20 25 22 26 16 27 19 28 17 29 18 30
REMARK H PARENT 18 31
REMARK Flexibility Score: inf
ROOT
ATOM      1  C   UNL     1       7.081 -20.787 -36.799  1.00  0.00     0.012 C 
ATOM      2  C   UNL     1       5.735 -21.446 -37.150  1.00  0.00     0.012 C 
ENDROOT
BRANCH   1   3
ATOM      3  C   UNL     1       6.974 -19.388 -36.207  1.00  0.00    -0.028 C 
ATOM      4  C   UNL     1       5.883 -18.600 -36.279  1.00  0.00    -0.027 C 
BRANCH   4   5
ATOM      5  C   UNL     1       5.801 -17.226 -35.634  1.00  0.00     0.014 C 
BRANCH   5   6
ATOM      6  C   UNL     1       5.304 -17.316 -34.167  1.00  0.00     0.004 C 
ATOM      7  C   UNL     1       5.273 -15.963 -33.457  1.00  0.00     0.004 C 
ENDBRANCH   5   6
BRANCH   5   8
ATOM      8  C   UNL     1       5.042 -16.187 -36.519  1.00  0.00    -0.011 C 
ATOM      9  C   UNL     1       3.566 -16.535 -36.781  1.00  0.00     0.008 C 
ATOM     10  C   UNL     1       5.769 -15.957 -37.854  1.00  0.00     0.008 C 
ENDBRANCH   5   8
ENDBRANCH   4   5
ENDBRANCH   1   3
BRANCH   1  11
ATOM     11  C   UNL     1       8.148 -20.948 -37.935  1.00  0.00     0.002 C 
ATOM     12  C   UNL     1       7.528 -21.210 -39.305  1.00  0.00     0.005 C 
ATOM     13  C   UNL     1       9.329 -21.977 -37.810  1.00  0.00    -0.026 C 
ATOM     14  C   UNL     1       8.708 -21.545 -40.188  1.00  0.00     0.005 C 
ATOM     15  C   UNL     1       9.653 -22.364 -39.302  1.00  0.00    -0.001 C 
ATOM     16  C   UNL     1      10.558 -21.310 -37.110  1.00  0.00     0.007 C 
ATOM     17  C   UNL     1       8.927 -23.254 -37.034  1.00  0.00     0.012 C 
ATOM     18  C   UNL     1      11.146 -22.168 -39.679  1.00  0.00     0.000 C 
ATOM     19  C   UNL     1      11.894 -22.076 -37.268  1.00  0.00     0.005 C 
ATOM     20  C   UNL     1      12.034 -22.861 -38.605  1.00  0.00     0.003 C 
ATOM     21  C   UNL     1      11.477 -22.679 -41.087  1.00  0.00     0.031 C 
ATOM     22  C   UNL     1      13.522 -23.210 -39.099  1.00  0.00    -0.008 C 
ATOM     23  C   UNL     1      12.911 -22.343 -41.372  1.00  0.00    -0.027 C 
ATOM     24  C   UNL     1      13.855 -22.458 -40.412  1.00  0.00    -0.065 C 
ATOM     25  C   UNL     1      14.620 -22.994 -37.992  1.00  0.00     0.014 C 
ATOM     26  C   UNL     1      13.580 -24.726 -39.446  1.00  0.00     0.016 C 
ATOM     27  C   UNL     1      15.169 -21.732 -40.662  1.00  0.00     0.063 C 
ATOM     28  C   UNL     1      15.405 -21.695 -38.157  1.00  0.00     0.033 C 
ATOM     29  C   UNL     1      16.155 -21.744 -39.489  1.00  0.00     0.118 C 
BRANCH  29  30
ATOM     30  O   UNL     1      17.015 -20.639 -39.597  1.00  0.00    -0.393 OA
ATOM     31  H   UNL     1      16.866 -20.247 -40.497  1.00  0.00     0.210 HD
ENDBRANCH  29  30
ENDBRANCH   1  11
TORSDOF 6
ENDMDL
MODEL 5
REMARK VINA RESULT:    -5.866      9.300     11.643
REMARK INTER + INTRA:          -9.272
REMARK INTER:                  -8.111
REMARK INTRA:                  -1.161
REMARK UNBOUND:                -1.520
REMARK SMILES CC[C@@H](C=C[C@@H](C)[C@@H]1CC[C@H]2[C@@H]3CC=C4C[C@@H](O)CC[C@@]4(C)[C@H]3CC[C@]21C)C(C)C
REMARK SMILES IDX 6 1 7 2 5 3 4 4 3 5 2 6 1 7 28 8 29 9 30 10 8 11 9 12 26 13
REMARK SMILES IDX 10 14 11 15 25 16 27 17 12 18 24 19 23 20 13 21 21 22 14 23
REMARK SMILES IDX 15 24 20 25 22 26 16 27 19 28 17 29 18 30
REMARK H PARENT 18 31
REMARK Flexibility Score: inf
ROOT
ATOM      1  C   UNL     1       6.928 -19.322 -37.241  1.00  0.00     0.012 C 
ATOM      2  C   UNL     1       7.103 -20.273 -36.043  1.00  0.00     0.012 C 
ENDROOT
BRANCH   1   3
ATOM      3  C   UNL     1       8.160 -19.170 -38.123  1.00  0.00    -0.028 C 
ATOM      4  C   UNL     1       9.106 -18.221 -37.972  1.00  0.00    -0.027 C 
BRANCH   4   5
ATOM      5  C   UNL     1      10.346 -18.133 -38.847  1.00  0.00     0.014 C 
BRANCH   5   6
ATOM      6  C   UNL     1       9.992 -18.274 -40.350  1.00  0.00     0.004 C 
ATOM      7  C   UNL     1       9.201 -17.085 -40.897  1.00  0.00     0.004 C 
ENDBRANCH   5   6
BRANCH   5   8
ATOM      8  C   UNL     1      11.499 -19.066 -38.356  1.00  0.00    -0.011 C 
ATOM      9  C   UNL     1      11.576 -19.229 -36.828  1.00  0.00     0.008 C 
ATOM     10  C   UNL     1      12.859 -18.603 -38.902  1.00  0.00     0.008 C 
ENDBRANCH   5   8
ENDBRANCH   4   5
ENDBRANCH   1   3
BRANCH   1  11
ATOM     11  C   UNL     1       6.220 -17.980 -36.850  1.00  0.00     0.002 C 
ATOM     12  C   UNL     1       5.974 -17.849 -35.350  1.00  0.00     0.005 C 
ATOM     13  C   UNL     1       4.877 -17.533 -37.532  1.00  0.00    -0.026 C 
ATOM     14  C   UNL     1       5.107 -16.616 -35.223  1.00  0.00     0.005 C 
ATOM     15  C   UNL     1       4.164 -16.663 -36.430  1.00  0.00    -0.001 C 
ATOM     16  C   UNL     1       5.174 -16.698 -38.821  1.00  0.00     0.007 C 
ATOM     17  C   UNL     1       3.967 -18.731 -37.895  1.00  0.00     0.012 C 
ATOM     18  C   UNL     1       3.759 -15.250 -36.928  1.00  0.00     0.000 C 
ATOM     19  C   UNL     1       3.972 -15.886 -39.363  1.00  0.00     0.005 C 
ATOM     20  C   UNL     1       2.982 -15.389 -38.269  1.00  0.00     0.003 C 
ATOM     21  C   UNL     1       2.943 -14.465 -35.893  1.00  0.00     0.031 C 
ATOM     22  C   UNL     1       2.057 -14.128 -38.635  1.00  0.00    -0.008 C 
ATOM     23  C   UNL     1       2.702 -13.091 -36.444  1.00  0.00    -0.027 C 
ATOM     24  C   UNL     1       2.420 -12.908 -37.753  1.00  0.00    -0.065 C 
ATOM     25  C   UNL     1       2.050 -13.775 -40.169  1.00  0.00     0.014 C 
ATOM     26  C   UNL     1       0.583 -14.485 -38.287  1.00  0.00     0.016 C 
ATOM     27  C   UNL     1       2.588 -11.494 -38.291  1.00  0.00     0.063 C 
ATOM     28  C   UNL     1       2.945 -12.592 -40.527  1.00  0.00     0.033 C 
ATOM     29  C   UNL     1       2.420 -11.348 -39.808  1.00  0.00     0.118 C 
BRANCH  29  30
ATOM     30  O   UNL     1       3.119 -10.211 -40.243  1.00  0.00    -0.393 OA
ATOM     31  H   UNL     1       3.452 -10.412 -41.156  1.00  0.00     0.210 HD
ENDBRANCH  29  30
ENDBRANCH   1  11
TORSDOF 6
ENDMDL
MODEL 6
REMARK VINA RESULT:    -5.833      3.254      6.752
REMARK INTER + INTRA:          -9.227
REMARK INTER:                  -7.900
REMARK INTRA:                  -1.327
REMARK UNBOUND:                -1.520
REMARK SMILES CC[C@@H](C=C[C@@H](C)[C@@H]1CC[C@H]2[C@@H]3CC=C4C[C@@H](O)CC[C@@]4(C)[C@H]3CC[C@]21C)C(C)C
REMARK SMILES IDX 6 1 7 2 5 3 4 4 3 5 2 6 1 7 28 8 29 9 30 10 8 11 9 12 26 13
REMARK SMILES IDX 10 14 11 15 25 16 27 17 12 18 24 19 23 20 13 21 21 22 14 23
REMARK SMILES IDX 15 24 20 25 22 26 16 27 19 28 17 29 18 30
REMARK H PARENT 18 31
REMARK Flexibility Score: inf
ROOT
ATOM      1  C   UNL     1      16.957 -15.475 -46.480  1.00  0.00     0.012 C 
ATOM      2  C   UNL     1      18.389 -15.444 -45.917  1.00  0.00     0.012 C 
ENDROOT
BRANCH   1   3
ATOM      3  C   UNL     1      16.864 -15.730 -47.979  1.00  0.00    -0.028 C 
ATOM      4  C   UNL     1      15.885 -15.269 -48.782  1.00  0.00    -0.027 C 
BRANCH   4   5
ATOM      5  C   UNL     1      15.854 -15.508 -50.282  1.00  0.00     0.014 C 
BRANCH   5   6
ATOM      6  C   UNL     1      17.252 -15.299 -50.920  1.00  0.00     0.004 C 
ATOM      7  C   UNL     1      17.837 -16.577 -51.522  1.00  0.00     0.004 C 
ENDBRANCH   5   6
BRANCH   5   8
ATOM      8  C   UNL     1      14.691 -14.744 -50.992  1.00  0.00    -0.011 C 
ATOM      9  C   UNL     1      15.147 -13.793 -52.112  1.00  0.00     0.008 C 
ATOM     10  C   UNL     1      13.828 -13.978 -49.977  1.00  0.00     0.008 C 
ENDBRANCH   5   8
ENDBRANCH   4   5
ENDBRANCH   1   3
BRANCH   1  11
ATOM     11  C   UNL     1      16.073 -14.295 -45.950  1.00  0.00     0.002 C 
ATOM     12  C   UNL     1      16.817 -13.377 -44.984  1.00  0.00     0.005 C 
ATOM     13  C   UNL     1      14.674 -14.555 -45.283  1.00  0.00    -0.026 C 
ATOM     14  C   UNL     1      15.743 -12.463 -44.440  1.00  0.00     0.005 C 
ATOM     15  C   UNL     1      14.502 -13.349 -44.284  1.00  0.00    -0.001 C 
ATOM     16  C   UNL     1      13.548 -14.566 -46.369  1.00  0.00     0.007 C 
ATOM     17  C   UNL     1      14.632 -15.880 -44.486  1.00  0.00     0.012 C 
ATOM     18  C   UNL     1      13.178 -12.566 -44.485  1.00  0.00     0.000 C 
ATOM     19  C   UNL     1      12.109 -14.427 -45.816  1.00  0.00     0.005 C 
ATOM     20  C   UNL     1      11.993 -13.575 -44.519  1.00  0.00     0.003 C 
ATOM     21  C   UNL     1      12.957 -11.487 -43.419  1.00  0.00     0.031 C 
ATOM     22  C   UNL     1      10.561 -12.928 -44.190  1.00  0.00    -0.008 C 
ATOM     23  C   UNL     1      11.707 -10.737 -43.777  1.00  0.00    -0.027 C 
ATOM     24  C   UNL     1      10.626 -11.383 -44.266  1.00  0.00    -0.065 C 
ATOM     25  C   UNL     1       9.388 -13.519 -45.059  1.00  0.00     0.014 C 
ATOM     26  C   UNL     1      10.195 -13.270 -42.717  1.00  0.00     0.016 C 
ATOM     27  C   UNL     1       9.581 -10.523 -44.963  1.00  0.00     0.063 C 
ATOM     28  C   UNL     1       8.974 -12.618 -46.219  1.00  0.00     0.033 C 
ATOM     29  C   UNL     1       8.451 -11.298 -45.649  1.00  0.00     0.118 C 
BRANCH  29  30
ATOM     30  O   UNL     1       7.909 -10.512 -46.679  1.00  0.00    -0.393 OA
ATOM     31  H   UNL     1       8.660  -9.988 -47.064  1.00  0.00     0.210 HD
ENDBRANCH  29  30
ENDBRANCH   1  11
TORSDOF 6
ENDMDL
MODEL 7
REMARK VINA RESULT:    -5.813      5.777      8.714
REMARK INTER + INTRA:          -9.202
REMARK INTER:                  -8.193
REMARK INTRA:                  -1.009
REMARK UNBOUND:                -1.520
REMARK SMILES CC[C@@H](C=C[C@@H](C)[C@@H]1CC[C@H]2[C@@H]3CC=C4C[C@@H](O)CC[C@@]4(C)[C@H]3CC[C@]21C)C(C)C
REMARK SMILES IDX 6 1 7 2 5 3 4 4 3 5 2 6 1 7 28 8 29 9 30 10 8 11 9 12 26 13
REMARK SMILES IDX 10 14 11 15 25 16 27 17 12 18 24 19 23 20 13 21 21 22 14 23
REMARK SMILES IDX 15 24 20 25 22 26 16 27 19 28 17 29 18 30
REMARK H PARENT 18 31
REMARK Flexibility Score: inf
ROOT
ATOM      1  C   UNL     1       7.031 -17.308 -40.565  1.00  0.00     0.012 C 
ATOM      2  C   UNL     1       6.352 -18.608 -41.030  1.00  0.00     0.012 C 
ENDROOT
BRANCH   1   3
ATOM      3  C   UNL     1       6.551 -16.781 -39.219  1.00  0.00    -0.028 C 
ATOM      4  C   UNL     1       6.782 -17.374 -38.030  1.00  0.00    -0.027 C 
BRANCH   4   5
ATOM      5  C   UNL     1       6.323 -16.790 -36.704  1.00  0.00     0.014 C 
BRANCH   5   6
ATOM      6  C   UNL     1       6.045 -17.902 -35.660  1.00  0.00     0.004 C 
ATOM      7  C   UNL     1       6.687 -19.242 -36.020  1.00  0.00     0.004 C 
ENDBRANCH   5   6
BRANCH   5   8
ATOM      8  C   UNL     1       5.173 -15.746 -36.869  1.00  0.00    -0.011 C 
ATOM      9  C   UNL     1       5.315 -14.500 -35.977  1.00  0.00     0.008 C 
ATOM     10  C   UNL     1       3.798 -16.394 -36.647  1.00  0.00     0.008 C 
ENDBRANCH   5   8
ENDBRANCH   4   5
ENDBRANCH   1   3
BRANCH   1  11
ATOM     11  C   UNL     1       7.127 -16.235 -41.703  1.00  0.00     0.002 C 
ATOM     12  C   UNL     1       6.320 -16.605 -42.943  1.00  0.00     0.005 C 
ATOM     13  C   UNL     1       8.516 -15.737 -42.244  1.00  0.00    -0.026 C 
ATOM     14  C   UNL     1       6.721 -15.569 -43.970  1.00  0.00     0.005 C 
ATOM     15  C   UNL     1       8.218 -15.333 -43.737  1.00  0.00    -0.001 C 
ATOM     16  C   UNL     1       9.019 -14.516 -41.408  1.00  0.00     0.007 C 
ATOM     17  C   UNL     1       9.593 -16.849 -42.229  1.00  0.00     0.012 C 
ATOM     18  C   UNL     1       8.655 -13.885 -44.082  1.00  0.00     0.000 C 
ATOM     19  C   UNL     1      10.163 -13.703 -42.063  1.00  0.00     0.005 C 
ATOM     20  C   UNL     1      10.127 -13.677 -43.619  1.00  0.00     0.003 C 
ATOM     21  C   UNL     1       8.489 -13.551 -45.569  1.00  0.00     0.031 C 
ATOM     22  C   UNL     1      10.888 -12.467 -44.351  1.00  0.00    -0.008 C 
ATOM     23  C   UNL     1       8.844 -12.105 -45.758  1.00  0.00    -0.027 C 
ATOM     24  C   UNL     1       9.881 -11.552 -45.091  1.00  0.00    -0.065 C 
ATOM     25  C   UNL     1      11.842 -11.655 -43.398  1.00  0.00     0.014 C 
ATOM     26  C   UNL     1      11.813 -13.064 -45.450  1.00  0.00     0.016 C 
ATOM     27  C   UNL     1       9.915 -10.031 -45.033  1.00  0.00     0.063 C 
ATOM     28  C   UNL     1      11.247 -10.333 -42.919  1.00  0.00     0.033 C 
ATOM     29  C   UNL     1      11.007  -9.438 -44.136  1.00  0.00     0.118 C 
BRANCH  29  30
ATOM     30  O   UNL     1      10.614  -8.156 -43.718  1.00  0.00    -0.393 OA
ATOM     31  H   UNL     1      11.097  -7.970 -42.870  1.00  0.00     0.210 HD
ENDBRANCH  29  30
ENDBRANCH   1  11
TORSDOF 6
ENDMDL
MODEL 8
REMARK VINA RESULT:    -5.792      2.581      4.995
REMARK INTER + INTRA:          -9.174
REMARK INTER:                  -7.514
REMARK INTRA:                  -1.660
REMARK UNBOUND:                -1.520
REMARK SMILES CC[C@@H](C=C[C@@H](C)[C@@H]1CC[C@H]2[C@@H]3CC=C4C[C@@H](O)CC[C@@]4(C)[C@H]3CC[C@]21C)C(C)C
REMARK SMILES IDX 6 1 7 2 5 3 4 4 3 5 2 6 1 7 28 8 29 9 30 10 8 11 9 12 26 13
REMARK SMILES IDX 10 14 11 15 25 16 27 17 12 18 24 19 23 20 13 21 21 22 14 23
REMARK SMILES IDX 15 24 20 25 22 26 16 27 19 28 17 29 18 30
REMARK H PARENT 18 31
REMARK Flexibility Score: inf
ROOT
ATOM      1  C   UNL     1      16.509 -13.650 -44.959  1.00  0.00     0.012 C 
ATOM      2  C   UNL     1      17.671 -12.722 -44.561  1.00  0.00     0.012 C 
ENDROOT
BRANCH   1   3
ATOM      3  C   UNL     1      16.788 -14.546 -46.159  1.00  0.00    -0.028 C 
ATOM      4  C   UNL     1      16.647 -15.887 -46.172  1.00  0.00    -0.027 C 
BRANCH   4   5
ATOM      5  C   UNL     1      16.892 -16.740 -47.405  1.00  0.00     0.014 C 
BRANCH   5   6
ATOM      6  C   UNL     1      18.028 -16.155 -48.284  1.00  0.00     0.004 C 
ATOM      7  C   UNL     1      18.634 -17.178 -49.245  1.00  0.00     0.004 C 
ENDBRANCH   5   6
BRANCH   5   8
ATOM      8  C   UNL     1      15.576 -17.078 -48.177  1.00  0.00    -0.011 C 
ATOM      9  C   UNL     1      15.039 -15.930 -49.048  1.00  0.00     0.008 C 
ATOM     10  C   UNL     1      14.478 -17.563 -47.217  1.00  0.00     0.008 C 
ENDBRANCH   5   8
ENDBRANCH   4   5
ENDBRANCH   1   3
BRANCH   1  11
ATOM     11  C   UNL     1      15.127 -12.912 -44.988  1.00  0.00     0.002 C 
ATOM     12  C   UNL     1      15.055 -11.740 -44.013  1.00  0.00     0.005 C 
ATOM     13  C   UNL     1      13.777 -13.693 -44.799  1.00  0.00    -0.026 C 
ATOM     14  C   UNL     1      13.603 -11.321 -44.043  1.00  0.00     0.005 C 
ATOM     15  C   UNL     1      12.810 -12.628 -44.157  1.00  0.00    -0.001 C 
ATOM     16  C   UNL     1      13.242 -14.195 -46.180  1.00  0.00     0.007 C 
ATOM     17  C   UNL     1      13.915 -14.895 -43.834  1.00  0.00     0.012 C 
ATOM     18  C   UNL     1      11.480 -12.455 -44.936  1.00  0.00     0.000 C 
ATOM     19  C   UNL     1      11.757 -14.633 -46.185  1.00  0.00     0.005 C 
ATOM     20  C   UNL     1      10.852 -13.858 -45.184  1.00  0.00     0.003 C 
ATOM     21  C   UNL     1      10.491 -11.523 -44.226  1.00  0.00     0.031 C 
ATOM     22  C   UNL     1       9.275 -13.835 -45.486  1.00  0.00    -0.008 C 
ATOM     23  C   UNL     1       9.296 -11.355 -45.118  1.00  0.00    -0.027 C 
ATOM     24  C   UNL     1       8.800 -12.399 -45.818  1.00  0.00    -0.065 C 
ATOM     25  C   UNL     1       8.827 -14.879 -46.576  1.00  0.00     0.014 C 
ATOM     26  C   UNL     1       8.522 -14.247 -44.188  1.00  0.00     0.016 C 
ATOM     27  C   UNL     1       7.869 -12.060 -46.974  1.00  0.00     0.063 C 
ATOM     28  C   UNL     1       8.595 -14.261 -47.953  1.00  0.00     0.033 C 
ATOM     29  C   UNL     1       7.454 -13.249 -47.847  1.00  0.00     0.118 C 
BRANCH  29  30
ATOM     30  O   UNL     1       7.105 -12.783 -49.125  1.00  0.00    -0.393 OA
ATOM     31  H   UNL     1       6.844 -11.831 -49.022  1.00  0.00     0.210 HD
ENDBRANCH  29  30
ENDBRANCH   1  11
TORSDOF 6
ENDMDL
MODEL 9
REMARK VINA RESULT:    -5.651      9.178     11.339
REMARK INTER + INTRA:          -8.987
REMARK INTER:                  -7.519
REMARK INTRA:                  -1.468
REMARK UNBOUND:                -1.520
REMARK SMILES CC[C@@H](C=C[C@@H](C)[C@@H]1CC[C@H]2[C@@H]3CC=C4C[C@@H](O)CC[C@@]4(C)[C@H]3CC[C@]21C)C(C)C
REMARK SMILES IDX 6 1 7 2 5 3 4 4 3 5 2 6 1 7 28 8 29 9 30 10 8 11 9 12 26 13
REMARK SMILES IDX 10 14 11 15 25 16 27 17 12 18 24 19 23 20 13 21 21 22 14 23
REMARK SMILES IDX 15 24 20 25 22 26 16 27 19 28 17 29 18 30
REMARK H PARENT 18 31
REMARK Flexibility Score: inf
ROOT
ATOM      1  C   UNL     1       9.815 -23.217 -36.483  1.00  0.00     0.012 C 
ATOM      2  C   UNL     1       9.619 -23.866 -35.102  1.00  0.00     0.012 C 
ENDROOT
BRANCH   1   3
ATOM      3  C   UNL     1      11.222 -23.335 -37.053  1.00  0.00    -0.028 C 
ATOM      4  C   UNL     1      11.922 -22.322 -37.601  1.00  0.00    -0.027 C 
BRANCH   4   5
ATOM      5  C   UNL     1      13.343 -22.472 -38.117  1.00  0.00     0.014 C 
BRANCH   5   6
ATOM      6  C   UNL     1      14.304 -21.462 -37.439  1.00  0.00     0.004 C 
ATOM      7  C   UNL     1      13.640 -20.125 -37.109  1.00  0.00     0.004 C 
ENDBRANCH   5   6
BRANCH   5   8
ATOM      8  C   UNL     1      13.420 -22.500 -39.677  1.00  0.00    -0.011 C 
ATOM      9  C   UNL     1      14.782 -22.078 -40.253  1.00  0.00     0.008 C 
ATOM     10  C   UNL     1      12.302 -21.651 -40.304  1.00  0.00     0.008 C 
ENDBRANCH   5   8
ENDBRANCH   4   5
ENDBRANCH   1   3
BRANCH   1  11
ATOM     11  C   UNL     1       9.178 -21.788 -36.576  1.00  0.00     0.002 C 
ATOM     12  C   UNL     1       8.521 -21.341 -35.273  1.00  0.00     0.005 C 
ATOM     13  C   UNL     1       8.150 -21.421 -37.707  1.00  0.00    -0.026 C 
ATOM     14  C   UNL     1       7.798 -20.065 -35.642  1.00  0.00     0.005 C 
ATOM     15  C   UNL     1       7.249 -20.308 -37.052  1.00  0.00    -0.001 C 
ATOM     16  C   UNL     1       8.901 -20.883 -38.969  1.00  0.00     0.007 C 
ATOM     17  C   UNL     1       7.258 -22.619 -38.112  1.00  0.00     0.012 C 
ATOM     18  C   UNL     1       7.166 -19.008 -37.894  1.00  0.00     0.000 C 
ATOM     19  C   UNL     1       8.008 -20.138 -39.991  1.00  0.00     0.005 C 
ATOM     20  C   UNL     1       6.804 -19.377 -39.362  1.00  0.00     0.003 C 
ATOM     21  C   UNL     1       6.177 -17.987 -37.319  1.00  0.00     0.031 C 
ATOM     22  C   UNL     1       6.172 -18.171 -40.214  1.00  0.00    -0.008 C 
ATOM     23  C   UNL     1       6.262 -16.743 -38.154  1.00  0.00    -0.027 C 
ATOM     24  C   UNL     1       6.396 -16.817 -39.496  1.00  0.00    -0.065 C 
ATOM     25  C   UNL     1       6.652 -18.139 -41.713  1.00  0.00     0.014 C 
ATOM     26  C   UNL     1       4.630 -18.372 -40.279  1.00  0.00     0.016 C 
ATOM     27  C   UNL     1       6.869 -15.553 -40.200  1.00  0.00     0.063 C 
ATOM     28  C   UNL     1       7.738 -17.102 -41.984  1.00  0.00     0.033 C 
ATOM     29  C   UNL     1       7.168 -15.712 -41.695  1.00  0.00     0.118 C 
BRANCH  29  30
ATOM     30  O   UNL     1       8.086 -14.725 -42.090  1.00  0.00    -0.393 OA
ATOM     31  H   UNL     1       8.328 -14.215 -41.273  1.00  0.00     0.210 HD
ENDBRANCH  29  30
ENDBRANCH   1  11
TORSDOF 6
ENDMDL
