MODEL 1
REMARK VINA RESULT:    -5.322      0.000      0.000
REMARK INTER + INTRA:         -15.046
REMARK INTER:                 -11.544
REMARK INTRA:                  -3.502
REMARK UNBOUND:                -3.502
REMARK SMILES CCCCCCCCCCCCCCCCCCCCCC(=O)[O-]
REMARK SMILES IDX 12 1 11 2 10 3 9 4 8 5 7 6 6 7 5 8 4 9 3 10 2 11 1 12 13 13
REMARK SMILES IDX 14 14 15 15 16 16 17 17 18 18 19 19 20 20 21 21 22 22 23 23
REMARK SMILES IDX 24 24
REMARK H PARENT
REMARK Flexibility Score: inf
ROOT
ATOM      1  C   UNL     1     138.486 130.548 128.281  1.00  0.00     0.000 C 
ENDROOT
BRANCH   1   2
ATOM      2  C   UNL     1     138.845 130.434 129.775  1.00  0.00     0.000 C 
BRANCH   2   3
ATOM      3  C   UNL     1     137.793 131.069 130.697  1.00  0.00     0.000 C 
BRANCH   3   4
ATOM      4  C   UNL     1     138.432 132.119 131.619  1.00  0.00    -0.000 C 
BRANCH   4   5
ATOM      5  C   UNL     1     139.589 132.877 130.947  1.00  0.00    -0.000 C 
BRANCH   5   6
ATOM      6  C   UNL     1     140.424 133.693 131.950  1.00  0.00    -0.000 C 
BRANCH   6   7
ATOM      7  C   UNL     1     140.808 135.083 131.413  1.00  0.00    -0.000 C 
BRANCH   7   8
ATOM      8  C   UNL     1     140.185 135.459 130.052  1.00  0.00    -0.000 C 
BRANCH   8   9
ATOM      9  C   UNL     1     139.613 136.886 129.964  1.00  0.00    -0.000 C 
BRANCH   9  10
ATOM     10  C   UNL     1     138.354 137.136 130.816  1.00  0.00    -0.000 C 
BRANCH  10  11
ATOM     11  C   UNL     1     137.504 138.331 130.335  1.00  0.00    -0.003 C 
ATOM     12  C   UNL     1     136.015 137.998 130.237  1.00  0.00     0.004 C 
ENDBRANCH  10  11
ENDBRANCH   9  10
ENDBRANCH   8   9
ENDBRANCH   7   8
ENDBRANCH   6   7
ENDBRANCH   5   6
ENDBRANCH   4   5
ENDBRANCH   3   4
ENDBRANCH   2   3
ENDBRANCH   1   2
BRANCH   1  13
ATOM     13  C   UNL     1     137.069 131.074 127.985  1.00  0.00     0.000 C 
BRANCH  13  14
ATOM     14  C   UNL     1     137.023 132.028 126.780  1.00  0.00     0.000 C 
BRANCH  14  15
ATOM     15  C   UNL     1     136.564 133.450 127.156  1.00  0.00     0.000 C 
BRANCH  15  16
ATOM     16  C   UNL     1     137.315 134.099 128.333  1.00  0.00     0.000 C 
BRANCH  16  17
ATOM     17  C   UNL     1     136.426 134.308 129.571  1.00  0.00     0.000 C 
BRANCH  17  18
ATOM     18  C   UNL     1     134.950 134.535 129.204  1.00  0.00     0.000 C 
BRANCH  18  19
ATOM     19  C   UNL     1     133.989 134.137 130.334  1.00  0.00     0.000 C 
BRANCH  19  20
ATOM     20  C   UNL     1     134.236 132.686 130.776  1.00  0.00     0.006 C 
BRANCH  20  21
ATOM     21  C   UNL     1     134.062 131.690 129.622  1.00  0.00     0.053 C 
BRANCH  21  22
ATOM     22  C   UNL     1     133.796 130.303 130.121  1.00  0.00     0.041 C 
ATOM     23  O   UNL     1     132.757 130.057 130.790  1.00  0.00    -0.550 OA
ATOM     24  O   UNL     1     134.712 129.288 129.874  1.00  0.00    -0.550 OA
ENDBRANCH  21  22
ENDBRANCH  20  21
ENDBRANCH  19  20
ENDBRANCH  18  19
ENDBRANCH  17  18
ENDBRANCH  16  17
ENDBRANCH  15  16
ENDBRANCH  14  15
ENDBRANCH  13  14
ENDBRANCH   1  13
TORSDOF 20
ENDMDL
MODEL 2
REMARK VINA RESULT:    -5.185      2.753      6.120
REMARK INTER + INTRA:         -14.748
REMARK INTER:                 -11.560
REMARK INTRA:                  -3.188
REMARK UNBOUND:                -3.502
REMARK SMILES CCCCCCCCCCCCCCCCCCCCCC(=O)[O-]
REMARK SMILES IDX 12 1 11 2 10 3 9 4 8 5 7 6 6 7 5 8 4 9 3 10 2 11 1 12 13 13
REMARK SMILES IDX 14 14 15 15 16 16 17 17 18 18 19 19 20 20 21 21 22 22 23 23
REMARK SMILES IDX 24 24
REMARK H PARENT
REMARK Flexibility Score: inf
ROOT
ATOM      1  C   UNL     1     138.387 130.682 128.116  1.00  0.00     0.000 C 
ENDROOT
BRANCH   1   2
ATOM      2  C   UNL     1     136.961 131.055 127.667  1.00  0.00     0.000 C 
BRANCH   2   3
ATOM      3  C   UNL     1     136.937 132.130 126.571  1.00  0.00     0.000 C 
BRANCH   3   4
ATOM      4  C   UNL     1     136.503 133.489 127.143  1.00  0.00    -0.000 C 
BRANCH   4   5
ATOM      5  C   UNL     1     137.319 133.904 128.378  1.00  0.00    -0.000 C 
BRANCH   5   6
ATOM      6  C   UNL     1     136.431 134.254 129.585  1.00  0.00    -0.000 C 
BRANCH   6   7
ATOM      7  C   UNL     1     134.955 134.462 129.198  1.00  0.00    -0.000 C 
BRANCH   7   8
ATOM      8  C   UNL     1     133.927 133.991 130.249  1.00  0.00    -0.000 C 
BRANCH   8   9
ATOM      9  C   UNL     1     134.433 132.913 131.225  1.00  0.00    -0.000 C 
BRANCH   9  10
ATOM     10  C   UNL     1     133.716 131.554 131.122  1.00  0.00    -0.000 C 
BRANCH  10  11
ATOM     11  C   UNL     1     133.900 130.854 129.758  1.00  0.00    -0.003 C 
ATOM     12  C   UNL     1     134.755 129.590 129.850  1.00  0.00     0.004 C 
ENDBRANCH  10  11
ENDBRANCH   9  10
ENDBRANCH   8   9
ENDBRANCH   7   8
ENDBRANCH   6   7
ENDBRANCH   5   6
ENDBRANCH   4   5
ENDBRANCH   3   4
ENDBRANCH   2   3
ENDBRANCH   1   2
BRANCH   1  13
ATOM     13  C   UNL     1     138.468 129.778 129.360  1.00  0.00     0.000 C 
BRANCH  13  14
ATOM     14  C   UNL     1     139.156 130.460 130.554  1.00  0.00     0.000 C 
BRANCH  14  15
ATOM     15  C   UNL     1     138.303 131.579 131.181  1.00  0.00     0.000 C 
BRANCH  15  16
ATOM     16  C   UNL     1     139.094 132.754 131.785  1.00  0.00     0.000 C 
BRANCH  16  17
ATOM     17  C   UNL     1     140.020 133.441 130.767  1.00  0.00     0.000 C 
BRANCH  17  18
ATOM     18  C   UNL     1     140.257 134.925 131.095  1.00  0.00     0.000 C 
BRANCH  18  19
ATOM     19  C   UNL     1     139.911 135.855 129.923  1.00  0.00     0.000 C 
BRANCH  19  20
ATOM     20  C   UNL     1     139.348 137.191 130.433  1.00  0.00     0.006 C 
BRANCH  20  21
ATOM     21  C   UNL     1     137.931 137.043 131.006  1.00  0.00     0.053 C 
BRANCH  21  22
ATOM     22  C   UNL     1     136.987 138.045 130.416  1.00  0.00     0.041 C 
ATOM     23  O   UNL     1     137.405 139.181 130.065  1.00  0.00    -0.550 OA
ATOM     24  O   UNL     1     135.639 137.736 130.283  1.00  0.00    -0.550 OA
ENDBRANCH  21  22
ENDBRANCH  20  21
ENDBRANCH  19  20
ENDBRANCH  18  19
ENDBRANCH  17  18
ENDBRANCH  16  17
ENDBRANCH  15  16
ENDBRANCH  14  15
ENDBRANCH  13  14
ENDBRANCH   1  13
TORSDOF 20
ENDMDL
MODEL 3
REMARK VINA RESULT:    -4.882      2.631      5.467
REMARK INTER + INTRA:         -14.092
REMARK INTER:                 -10.864
REMARK INTRA:                  -3.228
REMARK UNBOUND:                -3.502
REMARK SMILES CCCCCCCCCCCCCCCCCCCCCC(=O)[O-]
REMARK SMILES IDX 12 1 11 2 10 3 9 4 8 5 7 6 6 7 5 8 4 9 3 10 2 11 1 12 13 13
REMARK SMILES IDX 14 14 15 15 16 16 17 17 18 18 19 19 20 20 21 21 22 22 23 23
REMARK SMILES IDX 24 24
REMARK H PARENT
REMARK Flexibility Score: inf
ROOT
ATOM      1  C   UNL     1     136.730 132.824 127.404  1.00  0.00     0.000 C 
ENDROOT
BRANCH   1   2
ATOM      2  C   UNL     1     136.835 131.355 127.856  1.00  0.00     0.000 C 
BRANCH   2   3
ATOM      3  C   UNL     1     138.285 130.876 128.014  1.00  0.00     0.000 C 
BRANCH   3   4
ATOM      4  C   UNL     1     138.388 129.777 129.083  1.00  0.00    -0.000 C 
BRANCH   4   5
ATOM      5  C   UNL     1     139.153 130.234 130.336  1.00  0.00    -0.000 C 
BRANCH   5   6
ATOM      6  C   UNL     1     139.113 131.760 130.532  1.00  0.00    -0.000 C 
BRANCH   6   7
ATOM      7  C   UNL     1     138.173 132.190 131.672  1.00  0.00    -0.000 C 
BRANCH   7   8
ATOM      8  C   UNL     1     136.704 131.739 131.519  1.00  0.00    -0.000 C 
BRANCH   8   9
ATOM      9  C   UNL     1     135.653 132.746 132.023  1.00  0.00    -0.000 C 
BRANCH   9  10
ATOM     10  C   UNL     1     134.205 132.447 131.591  1.00  0.00    -0.000 C 
BRANCH  10  11
ATOM     11  C   UNL     1     134.100 131.675 130.258  1.00  0.00    -0.003 C 
ATOM     12  C   UNL     1     133.414 130.318 130.411  1.00  0.00     0.004 C 
ENDBRANCH  10  11
ENDBRANCH   9  10
ENDBRANCH   8   9
ENDBRANCH   7   8
ENDBRANCH   6   7
ENDBRANCH   5   6
ENDBRANCH   4   5
ENDBRANCH   3   4
ENDBRANCH   2   3
ENDBRANCH   1   2
BRANCH   1  13
ATOM     13  C   UNL     1     136.676 133.859 128.542  1.00  0.00     0.000 C 
BRANCH  13  14
ATOM     14  C   UNL     1     135.305 134.545 128.664  1.00  0.00     0.000 C 
BRANCH  14  15
ATOM     15  C   UNL     1     135.184 135.430 129.920  1.00  0.00     0.000 C 
BRANCH  15  16
ATOM     16  C   UNL     1     134.447 136.766 129.719  1.00  0.00     0.000 C 
BRANCH  16  17
ATOM     17  C   UNL     1     135.352 137.991 129.938  1.00  0.00     0.000 C 
BRANCH  17  18
ATOM     18  C   UNL     1     136.652 137.637 130.680  1.00  0.00     0.000 C 
BRANCH  18  19
ATOM     19  C   UNL     1     137.865 138.422 130.160  1.00  0.00     0.000 C 
BRANCH  19  20
ATOM     20  C   UNL     1     139.146 137.580 130.264  1.00  0.00     0.006 C 
BRANCH  20  21
ATOM     21  C   UNL     1     138.858 136.135 130.693  1.00  0.00     0.053 C 
BRANCH  21  22
ATOM     22  C   UNL     1     140.065 135.261 130.547  1.00  0.00     0.041 C 
ATOM     23  O   UNL     1     140.810 135.037 131.538  1.00  0.00    -0.550 OA
ATOM     24  O   UNL     1     140.385 134.718 129.309  1.00  0.00    -0.550 OA
ENDBRANCH  21  22
ENDBRANCH  20  21
ENDBRANCH  19  20
ENDBRANCH  18  19
ENDBRANCH  17  18
ENDBRANCH  16  17
ENDBRANCH  15  16
ENDBRANCH  14  15
ENDBRANCH  13  14
ENDBRANCH   1  13
TORSDOF 20
ENDMDL
MODEL 4
REMARK VINA RESULT:    -4.861      2.927      5.848
REMARK INTER + INTRA:         -14.046
REMARK INTER:                 -10.776
REMARK INTRA:                  -3.270
REMARK UNBOUND:                -3.502
REMARK SMILES CCCCCCCCCCCCCCCCCCCCCC(=O)[O-]
REMARK SMILES IDX 12 1 11 2 10 3 9 4 8 5 7 6 6 7 5 8 4 9 3 10 2 11 1 12 13 13
REMARK SMILES IDX 14 14 15 15 16 16 17 17 18 18 19 19 20 20 21 21 22 22 23 23
REMARK SMILES IDX 24 24
REMARK H PARENT
REMARK Flexibility Score: inf
ROOT
ATOM      1  C   UNL     1     137.912 129.348 129.873  1.00  0.00     0.000 C 
ENDROOT
BRANCH   1   2
ATOM      2  C   UNL     1     136.392 129.413 130.110  1.00  0.00     0.000 C 
BRANCH   2   3
ATOM      3  C   UNL     1     135.762 130.725 129.617  1.00  0.00     0.000 C 
BRANCH   3   4
ATOM      4  C   UNL     1     134.230 130.672 129.724  1.00  0.00    -0.000 C 
BRANCH   4   5
ATOM      5  C   UNL     1     133.694 131.391 130.973  1.00  0.00    -0.000 C 
BRANCH   5   6
ATOM      6  C   UNL     1     134.330 132.777 131.178  1.00  0.00    -0.000 C 
BRANCH   6   7
ATOM      7  C   UNL     1     133.793 133.831 130.192  1.00  0.00    -0.000 C 
BRANCH   7   8
ATOM      8  C   UNL     1     134.871 134.680 129.485  1.00  0.00    -0.000 C 
BRANCH   8   9
ATOM      9  C   UNL     1     136.322 134.215 129.707  1.00  0.00    -0.000 C 
BRANCH   9  10
ATOM     10  C   UNL     1     137.109 133.901 128.421  1.00  0.00    -0.000 C 
BRANCH  10  11
ATOM     11  C   UNL     1     136.230 133.381 127.264  1.00  0.00    -0.003 C 
ATOM     12  C   UNL     1     136.946 132.349 126.393  1.00  0.00     0.004 C 
ENDBRANCH  10  11
ENDBRANCH   9  10
ENDBRANCH   8   9
ENDBRANCH   7   8
ENDBRANCH   6   7
ENDBRANCH   5   6
ENDBRANCH   4   5
ENDBRANCH   3   4
ENDBRANCH   2   3
ENDBRANCH   1   2
BRANCH   1  13
ATOM     13  C   UNL     1     138.482 130.448 128.958  1.00  0.00     0.000 C 
BRANCH  13  14
ATOM     14  C   UNL     1     139.578 131.285 129.638  1.00  0.00     0.000 C 
BRANCH  14  15
ATOM     15  C   UNL     1     139.237 131.654 131.094  1.00  0.00     0.000 C 
BRANCH  15  16
ATOM     16  C   UNL     1     139.134 133.162 131.388  1.00  0.00     0.000 C 
BRANCH  16  17
ATOM     17  C   UNL     1     140.179 133.995 130.626  1.00  0.00     0.000 C 
BRANCH  17  18
ATOM     18  C   UNL     1     140.137 135.484 131.007  1.00  0.00     0.000 C 
BRANCH  18  19
ATOM     19  C   UNL     1     139.298 136.324 130.032  1.00  0.00     0.000 C 
BRANCH  19  20
ATOM     20  C   UNL     1     138.214 137.112 130.783  1.00  0.00     0.006 C 
BRANCH  20  21
ATOM     21  C   UNL     1     137.924 138.469 130.127  1.00  0.00     0.053 C 
BRANCH  21  22
ATOM     22  C   UNL     1     136.473 138.831 130.216  1.00  0.00     0.041 C 
ATOM     23  O   UNL     1     135.594 137.929 130.212  1.00  0.00    -0.550 OA
ATOM     24  O   UNL     1     136.091 140.165 130.272  1.00  0.00    -0.550 OA
ENDBRANCH  21  22
ENDBRANCH  20  21
ENDBRANCH  19  20
ENDBRANCH  18  19
ENDBRANCH  17  18
ENDBRANCH  16  17
ENDBRANCH  15  16
ENDBRANCH  14  15
ENDBRANCH  13  14
ENDBRANCH   1  13
TORSDOF 20
ENDMDL
MODEL 5
REMARK VINA RESULT:    -4.840      0.865      2.342
REMARK INTER + INTRA:         -14.002
REMARK INTER:                 -10.642
REMARK INTRA:                  -3.360
REMARK UNBOUND:                -3.502
REMARK SMILES CCCCCCCCCCCCCCCCCCCCCC(=O)[O-]
REMARK SMILES IDX 12 1 11 2 10 3 9 4 8 5 7 6 6 7 5 8 4 9 3 10 2 11 1 12 13 13
REMARK SMILES IDX 14 14 15 15 16 16 17 17 18 18 19 19 20 20 21 21 22 22 23 23
REMARK SMILES IDX 24 24
REMARK H PARENT
REMARK Flexibility Score: inf
ROOT
ATOM      1  C   UNL     1     138.081 131.069 131.049  1.00  0.00     0.000 C 
ENDROOT
BRANCH   1   2
ATOM      2  C   UNL     1     138.722 132.243 131.813  1.00  0.00     0.000 C 
BRANCH   2   3
ATOM      3  C   UNL     1     140.067 132.685 131.217  1.00  0.00     0.000 C 
BRANCH   3   4
ATOM      4  C   UNL     1     140.489 134.055 131.771  1.00  0.00    -0.000 C 
BRANCH   4   5
ATOM      5  C   UNL     1     140.640 135.121 130.673  1.00  0.00    -0.000 C 
BRANCH   5   6
ATOM      6  C   UNL     1     139.828 134.789 129.409  1.00  0.00    -0.000 C 
BRANCH   6   7
ATOM      7  C   UNL     1     138.722 135.821 129.122  1.00  0.00    -0.000 C 
BRANCH   7   8
ATOM      8  C   UNL     1     138.740 137.072 130.026  1.00  0.00    -0.000 C 
BRANCH   8   9
ATOM      9  C   UNL     1     137.398 137.412 130.702  1.00  0.00    -0.000 C 
BRANCH   9  10
ATOM     10  C   UNL     1     136.796 138.773 130.306  1.00  0.00    -0.000 C 
BRANCH  10  11
ATOM     11  C   UNL     1     135.307 138.703 129.907  1.00  0.00    -0.003 C 
ATOM     12  C   UNL     1     134.770 137.272 129.866  1.00  0.00     0.004 C 
ENDBRANCH  10  11
ENDBRANCH   9  10
ENDBRANCH   8   9
ENDBRANCH   7   8
ENDBRANCH   6   7
ENDBRANCH   5   6
ENDBRANCH   4   5
ENDBRANCH   3   4
ENDBRANCH   2   3
ENDBRANCH   1   2
BRANCH   1  13
ATOM     13  C   UNL     1     139.025 130.310 130.098  1.00  0.00     0.000 C 
BRANCH  13  14
ATOM     14  C   UNL     1     138.492 130.235 128.658  1.00  0.00     0.000 C 
BRANCH  14  15
ATOM     15  C   UNL     1     138.237 131.622 128.038  1.00  0.00     0.000 C 
BRANCH  15  16
ATOM     16  C   UNL     1     136.773 131.921 127.664  1.00  0.00     0.000 C 
BRANCH  16  17
ATOM     17  C   UNL     1     136.476 133.426 127.557  1.00  0.00     0.000 C 
BRANCH  17  18
ATOM     18  C   UNL     1     135.470 133.905 128.617  1.00  0.00     0.000 C 
BRANCH  18  19
ATOM     19  C   UNL     1     135.994 133.742 130.051  1.00  0.00     0.000 C 
BRANCH  19  20
ATOM     20  C   UNL     1     134.998 132.946 130.910  1.00  0.00     0.006 C 
BRANCH  20  21
ATOM     21  C   UNL     1     133.878 132.319 130.069  1.00  0.00     0.053 C 
BRANCH  21  22
ATOM     22  C   UNL     1     133.927 130.822 130.107  1.00  0.00     0.041 C 
ATOM     23  O   UNL     1     134.995 130.215 129.825  1.00  0.00    -0.550 OA
ATOM     24  O   UNL     1     132.786 130.097 130.422  1.00  0.00    -0.550 OA
ENDBRANCH  21  22
ENDBRANCH  20  21
ENDBRANCH  19  20
ENDBRANCH  18  19
ENDBRANCH  17  18
ENDBRANCH  16  17
ENDBRANCH  15  16
ENDBRANCH  14  15
ENDBRANCH  13  14
ENDBRANCH   1  13
TORSDOF 20
ENDMDL
MODEL 6
REMARK VINA RESULT:    -4.806      2.629      5.536
REMARK INTER + INTRA:         -13.928
REMARK INTER:                 -11.120
REMARK INTRA:                  -2.808
REMARK UNBOUND:                -3.502
REMARK SMILES CCCCCCCCCCCCCCCCCCCCCC(=O)[O-]
REMARK SMILES IDX 12 1 11 2 10 3 9 4 8 5 7 6 6 7 5 8 4 9 3 10 2 11 1 12 13 13
REMARK SMILES IDX 14 14 15 15 16 16 17 17 18 18 19 19 20 20 21 21 22 22 23 23
REMARK SMILES IDX 24 24
REMARK H PARENT
REMARK Flexibility Score: inf
ROOT
ATOM      1  C   UNL     1     136.951 132.366 126.930  1.00  0.00     0.000 C 
ENDROOT
BRANCH   1   2
ATOM      2  C   UNL     1     136.911 131.286 128.028  1.00  0.00     0.000 C 
BRANCH   2   3
ATOM      3  C   UNL     1     138.274 130.618 128.265  1.00  0.00     0.000 C 
BRANCH   3   4
ATOM      4  C   UNL     1     138.376 130.068 129.696  1.00  0.00    -0.000 C 
BRANCH   4   5
ATOM      5  C   UNL     1     139.342 130.876 130.578  1.00  0.00    -0.000 C 
BRANCH   5   6
ATOM      6  C   UNL     1     138.628 131.971 131.390  1.00  0.00    -0.000 C 
BRANCH   6   7
ATOM      7  C   UNL     1     137.134 131.673 131.608  1.00  0.00    -0.000 C 
BRANCH   7   8
ATOM      8  C   UNL     1     136.225 132.915 131.722  1.00  0.00    -0.000 C 
BRANCH   8   9
ATOM      9  C   UNL     1     134.716 132.637 131.591  1.00  0.00    -0.000 C 
BRANCH   9  10
ATOM     10  C   UNL     1     134.234 132.315 130.164  1.00  0.00    -0.000 C 
BRANCH  10  11
ATOM     11  C   UNL     1     134.083 130.804 129.884  1.00  0.00    -0.003 C 
ATOM     12  C   UNL     1     132.950 130.163 130.685  1.00  0.00     0.004 C 
ENDBRANCH  10  11
ENDBRANCH   9  10
ENDBRANCH   8   9
ENDBRANCH   7   8
ENDBRANCH   6   7
ENDBRANCH   5   6
ENDBRANCH   4   5
ENDBRANCH   3   4
ENDBRANCH   2   3
ENDBRANCH   1   2
BRANCH   1  13
ATOM     13  C   UNL     1     136.636 133.797 127.405  1.00  0.00     0.000 C 
BRANCH  13  14
ATOM     14  C   UNL     1     137.279 134.134 128.760  1.00  0.00     0.000 C 
BRANCH  14  15
ATOM     15  C   UNL     1     138.633 134.856 128.619  1.00  0.00     0.000 C 
BRANCH  15  16
ATOM     16  C   UNL     1     139.788 134.261 129.446  1.00  0.00     0.000 C 
BRANCH  16  17
ATOM     17  C   UNL     1     140.382 135.261 130.453  1.00  0.00     0.000 C 
BRANCH  17  18
ATOM     18  C   UNL     1     139.341 136.271 130.965  1.00  0.00     0.000 C 
BRANCH  18  19
ATOM     19  C   UNL     1     139.410 137.619 130.232  1.00  0.00     0.000 C 
BRANCH  19  20
ATOM     20  C   UNL     1     138.060 138.348 130.301  1.00  0.00     0.006 C 
BRANCH  20  21
ATOM     21  C   UNL     1     136.892 137.384 130.552  1.00  0.00     0.053 C 
BRANCH  21  22
ATOM     22  C   UNL     1     135.586 137.967 130.107  1.00  0.00     0.041 C 
ATOM     23  O   UNL     1     135.503 139.189 129.813  1.00  0.00    -0.550 OA
ATOM     24  O   UNL     1     134.452 137.167 130.047  1.00  0.00    -0.550 OA
ENDBRANCH  21  22
ENDBRANCH  20  21
ENDBRANCH  19  20
ENDBRANCH  18  19
ENDBRANCH  17  18
ENDBRANCH  16  17
ENDBRANCH  15  16
ENDBRANCH  14  15
ENDBRANCH  13  14
ENDBRANCH   1  13
TORSDOF 20
ENDMDL
MODEL 7
REMARK VINA RESULT:    -4.648      1.775      3.140
REMARK INTER + INTRA:         -13.584
REMARK INTER:                 -10.607
REMARK INTRA:                  -2.977
REMARK UNBOUND:                -3.502
REMARK SMILES CCCCCCCCCCCCCCCCCCCCCC(=O)[O-]
REMARK SMILES IDX 12 1 11 2 10 3 9 4 8 5 7 6 6 7 5 8 4 9 3 10 2 11 1 12 13 13
REMARK SMILES IDX 14 14 15 15 16 16 17 17 18 18 19 19 20 20 21 21 22 22 23 23
REMARK SMILES IDX 24 24
REMARK H PARENT
REMARK Flexibility Score: inf
ROOT
ATOM      1  C   UNL     1     137.236 130.215 130.249  1.00  0.00     0.000 C 
ENDROOT
BRANCH   1   2
ATOM      2  C   UNL     1     138.542 130.181 129.433  1.00  0.00     0.000 C 
BRANCH   2   3
ATOM      3  C   UNL     1     139.717 130.867 130.146  1.00  0.00     0.000 C 
BRANCH   3   4
ATOM      4  C   UNL     1     139.647 132.392 129.976  1.00  0.00    -0.000 C 
BRANCH   4   5
ATOM      5  C   UNL     1     139.634 133.143 131.318  1.00  0.00    -0.000 C 
BRANCH   5   6
ATOM      6  C   UNL     1     140.391 134.481 131.257  1.00  0.00    -0.000 C 
BRANCH   6   7
ATOM      7  C   UNL     1     140.386 135.105 129.849  1.00  0.00    -0.000 C 
BRANCH   7   8
ATOM      8  C   UNL     1     139.413 136.288 129.658  1.00  0.00    -0.000 C 
BRANCH   8   9
ATOM      9  C   UNL     1     138.717 136.779 130.942  1.00  0.00    -0.000 C 
BRANCH   9  10
ATOM     10  C   UNL     1     137.189 136.592 130.965  1.00  0.00    -0.000 C 
BRANCH  10  11
ATOM     11  C   UNL     1     136.408 137.763 130.329  1.00  0.00    -0.003 C 
ATOM     12  C   UNL     1     137.227 139.052 130.258  1.00  0.00     0.004 C 
ENDBRANCH  10  11
ENDBRANCH   9  10
ENDBRANCH   8   9
ENDBRANCH   7   8
ENDBRANCH   6   7
ENDBRANCH   5   6
ENDBRANCH   4   5
ENDBRANCH   3   4
ENDBRANCH   2   3
ENDBRANCH   1   2
BRANCH   1  13
ATOM     13  C   UNL     1     136.438 128.898 130.266  1.00  0.00     0.000 C 
BRANCH  13  14
ATOM     14  C   UNL     1     134.946 129.097 129.950  1.00  0.00     0.000 C 
BRANCH  14  15
ATOM     15  C   UNL     1     134.602 130.547 129.562  1.00  0.00     0.000 C 
BRANCH  15  16
ATOM     16  C   UNL     1     133.782 131.334 130.601  1.00  0.00     0.000 C 
BRANCH  16  17
ATOM     17  C   UNL     1     134.466 132.638 131.044  1.00  0.00     0.000 C 
BRANCH  17  18
ATOM     18  C   UNL     1     133.984 133.858 130.240  1.00  0.00     0.000 C 
BRANCH  18  19
ATOM     19  C   UNL     1     134.916 134.203 129.069  1.00  0.00     0.000 C 
BRANCH  19  20
ATOM     20  C   UNL     1     136.344 133.708 129.342  1.00  0.00     0.006 C 
BRANCH  20  21
ATOM     21  C   UNL     1     137.241 133.806 128.100  1.00  0.00     0.053 C 
BRANCH  21  22
ATOM     22  C   UNL     1     136.740 132.943 126.984  1.00  0.00     0.041 C 
ATOM     23  O   UNL     1     136.760 131.688 127.095  1.00  0.00    -0.550 OA
ATOM     24  O   UNL     1     136.280 133.523 125.809  1.00  0.00    -0.550 OA
ENDBRANCH  21  22
ENDBRANCH  20  21
ENDBRANCH  19  20
ENDBRANCH  18  19
ENDBRANCH  17  18
ENDBRANCH  16  17
ENDBRANCH  15  16
ENDBRANCH  14  15
ENDBRANCH  13  14
ENDBRANCH   1  13
TORSDOF 20
ENDMDL
MODEL 8
REMARK VINA RESULT:    -4.619      2.915      5.785
REMARK INTER + INTRA:         -13.523
REMARK INTER:                  -9.675
REMARK INTRA:                  -3.848
REMARK UNBOUND:                -3.502
REMARK SMILES CCCCCCCCCCCCCCCCCCCCCC(=O)[O-]
REMARK SMILES IDX 12 1 11 2 10 3 9 4 8 5 7 6 6 7 5 8 4 9 3 10 2 11 1 12 13 13
REMARK SMILES IDX 14 14 15 15 16 16 17 17 18 18 19 19 20 20 21 21 22 22 23 23
REMARK SMILES IDX 24 24
REMARK H PARENT
REMARK Flexibility Score: inf
ROOT
ATOM      1  C   UNL     1     136.450 130.226 130.200  1.00  0.00     0.000 C 
ENDROOT
BRANCH   1   2
ATOM      2  C   UNL     1     135.143 129.808 129.499  1.00  0.00     0.000 C 
BRANCH   2   3
ATOM      3  C   UNL     1     134.056 130.893 129.555  1.00  0.00     0.000 C 
BRANCH   3   4
ATOM      4  C   UNL     1     133.696 131.236 131.009  1.00  0.00    -0.000 C 
BRANCH   4   5
ATOM      5  C   UNL     1     134.008 132.697 131.372  1.00  0.00    -0.000 C 
BRANCH   5   6
ATOM      6  C   UNL     1     135.479 132.908 131.772  1.00  0.00    -0.000 C 
BRANCH   6   7
ATOM      7  C   UNL     1     136.211 133.901 130.852  1.00  0.00    -0.000 C 
BRANCH   7   8
ATOM      8  C   UNL     1     135.337 134.550 129.757  1.00  0.00    -0.000 C 
BRANCH   8   9
ATOM      9  C   UNL     1     135.678 134.134 128.314  1.00  0.00    -0.000 C 
BRANCH   9  10
ATOM     10  C   UNL     1     136.758 133.043 128.189  1.00  0.00    -0.000 C 
BRANCH  10  11
ATOM     11  C   UNL     1     136.741 132.302 126.835  1.00  0.00    -0.003 C 
ATOM     12  C   UNL     1     137.694 131.107 126.801  1.00  0.00     0.004 C 
ENDBRANCH  10  11
ENDBRANCH   9  10
ENDBRANCH   8   9
ENDBRANCH   7   8
ENDBRANCH   6   7
ENDBRANCH   5   6
ENDBRANCH   4   5
ENDBRANCH   3   4
ENDBRANCH   2   3
ENDBRANCH   1   2
BRANCH   1  13
ATOM     13  C   UNL     1     137.672 129.343 129.889  1.00  0.00     0.000 C 
BRANCH  13  14
ATOM     14  C   UNL     1     139.008 130.085 130.064  1.00  0.00     0.000 C 
BRANCH  14  15
ATOM     15  C   UNL     1     138.844 131.474 130.709  1.00  0.00     0.000 C 
BRANCH  15  16
ATOM     16  C   UNL     1     139.967 132.482 130.403  1.00  0.00     0.000 C 
BRANCH  16  17
ATOM     17  C   UNL     1     140.049 133.620 131.435  1.00  0.00     0.000 C 
BRANCH  17  18
ATOM     18  C   UNL     1     140.019 135.012 130.781  1.00  0.00     0.000 C 
BRANCH  18  19
ATOM     19  C   UNL     1     139.379 134.998 129.384  1.00  0.00     0.000 C 
BRANCH  19  20
ATOM     20  C   UNL     1     138.652 136.323 129.103  1.00  0.00     0.006 C 
BRANCH  20  21
ATOM     21  C   UNL     1     138.609 137.235 130.337  1.00  0.00     0.053 C 
BRANCH  21  22
ATOM     22  C   UNL     1     137.355 138.052 130.381  1.00  0.00     0.041 C 
ATOM     23  O   UNL     1     136.238 137.491 130.534  1.00  0.00    -0.550 OA
ATOM     24  O   UNL     1     137.417 139.430 130.221  1.00  0.00    -0.550 OA
ENDBRANCH  21  22
ENDBRANCH  20  21
ENDBRANCH  19  20
ENDBRANCH  18  19
ENDBRANCH  17  18
ENDBRANCH  16  17
ENDBRANCH  15  16
ENDBRANCH  14  15
ENDBRANCH  13  14
ENDBRANCH   1  13
TORSDOF 20
ENDMDL
MODEL 9
REMARK VINA RESULT:    -4.565      1.237      3.172
REMARK INTER + INTRA:         -13.404
REMARK INTER:                 -10.166
REMARK INTRA:                  -3.239
REMARK UNBOUND:                -3.502
REMARK SMILES CCCCCCCCCCCCCCCCCCCCCC(=O)[O-]
REMARK SMILES IDX 12 1 11 2 10 3 9 4 8 5 7 6 6 7 5 8 4 9 3 10 2 11 1 12 13 13
REMARK SMILES IDX 14 14 15 15 16 16 17 17 18 18 19 19 20 20 21 21 22 22 23 23
REMARK SMILES IDX 24 24
REMARK H PARENT
REMARK Flexibility Score: inf
ROOT
ATOM      1  C   UNL     1     134.768 132.351 130.620  1.00  0.00     0.000 C 
ENDROOT
BRANCH   1   2
ATOM      2  C   UNL     1     135.118 132.746 132.067  1.00  0.00     0.000 C 
BRANCH   2   3
ATOM      3  C   UNL     1     136.585 132.471 132.429  1.00  0.00     0.000 C 
BRANCH   3   4
ATOM      4  C   UNL     1     137.534 133.111 131.404  1.00  0.00    -0.000 C 
BRANCH   4   5
ATOM      5  C   UNL     1     139.003 132.714 131.621  1.00  0.00    -0.000 C 
BRANCH   5   6
ATOM      6  C   UNL     1     139.942 133.316 130.561  1.00  0.00    -0.000 C 
BRANCH   6   7
ATOM      7  C   UNL     1     139.328 134.529 129.840  1.00  0.00    -0.000 C 
BRANCH   7   8
ATOM      8  C   UNL     1     139.981 135.889 130.166  1.00  0.00    -0.000 C 
BRANCH   8   9
ATOM      9  C   UNL     1     139.067 136.902 130.880  1.00  0.00    -0.000 C 
BRANCH   9  10
ATOM     10  C   UNL     1     137.587 136.486 130.979  1.00  0.00    -0.000 C 
BRANCH  10  11
ATOM     11  C   UNL     1     136.616 137.472 130.296  1.00  0.00    -0.003 C 
ATOM     12  C   UNL     1     137.147 138.906 130.271  1.00  0.00     0.004 C 
ENDBRANCH  10  11
ENDBRANCH   9  10
ENDBRANCH   8   9
ENDBRANCH   7   8
ENDBRANCH   6   7
ENDBRANCH   5   6
ENDBRANCH   4   5
ENDBRANCH   3   4
ENDBRANCH   2   3
ENDBRANCH   1   2
BRANCH   1  13
ATOM     13  C   UNL     1     133.953 133.394 129.833  1.00  0.00     0.000 C 
BRANCH  13  14
ATOM     14  C   UNL     1     134.836 134.415 129.097  1.00  0.00     0.000 C 
BRANCH  14  15
ATOM     15  C   UNL     1     136.202 133.838 128.680  1.00  0.00     0.000 C 
BRANCH  15  16
ATOM     16  C   UNL     1     136.352 133.508 127.184  1.00  0.00     0.000 C 
BRANCH  16  17
ATOM     17  C   UNL     1     136.965 132.120 126.933  1.00  0.00     0.000 C 
BRANCH  17  18
ATOM     18  C   UNL     1     137.080 131.286 128.221  1.00  0.00     0.000 C 
BRANCH  18  19
ATOM     19  C   UNL     1     138.454 130.617 128.375  1.00  0.00     0.000 C 
BRANCH  19  20
ATOM     20  C   UNL     1     138.377 129.426 129.343  1.00  0.00     0.006 C 
BRANCH  20  21
ATOM     21  C   UNL     1     137.286 129.611 130.406  1.00  0.00     0.053 C 
BRANCH  21  22
ATOM     22  C   UNL     1     136.179 128.616 130.245  1.00  0.00     0.041 C 
ATOM     23  O   UNL     1     135.033 128.994 129.883  1.00  0.00    -0.550 OA
ATOM     24  O   UNL     1     136.404 127.274 130.525  1.00  0.00    -0.550 OA
ENDBRANCH  21  22
ENDBRANCH  20  21
ENDBRANCH  19  20
ENDBRANCH  18  19
ENDBRANCH  17  18
ENDBRANCH  16  17
ENDBRANCH  15  16
ENDBRANCH  14  15
ENDBRANCH  13  14
ENDBRANCH   1  13
TORSDOF 20
ENDMDL
