MODEL 1
REMARK VINA RESULT:    -5.125      0.000      0.000
REMARK INTER + INTRA:          -6.497
REMARK INTER:                  -6.173
REMARK INTRA:                  -0.324
REMARK UNBOUND:                -0.324
REMARK SMILES O=c1c(O)c(-c2ccc(O)c(O)c2)oc2cc(O)cc(O)c12
REMARK SMILES IDX 5 1 3 2 2 3 1 4 22 5 20 6 19 7 17 8 16 9 15 10 14 11 6 12
REMARK SMILES IDX 7 13 8 14 9 15 13 16 11 17 10 18 12 20 4 22 21 24 18 26
REMARK H PARENT 10 19 12 21 4 23 21 25 18 27
REMARK Flexibility Score: inf
ROOT
ATOM      1  C   UNL     1     141.681 147.366 137.096  1.00  0.00     0.180 A 
ATOM      2  C   UNL     1     140.761 148.072 136.300  1.00  0.00     0.208 A 
ATOM      3  C   UNL     1     140.721 149.472 136.386  1.00  0.00     0.238 A 
ATOM      4  O   UNL     1     139.934 150.102 135.631  1.00  0.00    -0.285 OA
ATOM      5  C   UNL     1     141.588 150.150 137.277  1.00  0.00     0.111 A 
ATOM      6  C   UNL     1     141.605 151.563 137.474  1.00  0.00     0.134 A 
ATOM      7  C   UNL     1     142.593 152.135 138.285  1.00  0.00     0.093 A 
ATOM      8  C   UNL     1     143.524 151.339 138.956  1.00  0.00     0.123 A 
ATOM      9  C   UNL     1     143.478 149.955 138.817  1.00  0.00     0.094 A 
ATOM     10  C   UNL     1     142.527 149.356 137.987  1.00  0.00     0.146 A 
ATOM     11  O   UNL     1     142.526 148.034 137.873  1.00  0.00    -0.452 OA
ENDROOT
BRANCH   1  12
ATOM     12  C   UNL     1     141.766 145.888 137.080  1.00  0.00     0.025 A 
ATOM     13  C   UNL     1     142.611 145.215 136.180  1.00  0.00     0.016 A 
ATOM     14  C   UNL     1     142.657 143.818 136.165  1.00  0.00     0.051 A 
ATOM     15  C   UNL     1     141.853 143.074 137.039  1.00  0.00     0.157 A 
ATOM     16  C   UNL     1     140.946 145.138 137.939  1.00  0.00     0.062 A 
ATOM     17  C   UNL     1     140.991 143.739 137.927  1.00  0.00     0.158 A 
BRANCH  15  18
ATOM     18  O   UNL     1     141.903 141.681 137.024  1.00  0.00    -0.504 OA
ATOM     19  H   UNL     1     141.263 141.134 136.459  1.00  0.00     0.293 HD
ENDBRANCH  15  18
BRANCH  17  20
ATOM     20  O   UNL     1     140.173 143.029 138.805  1.00  0.00    -0.504 OA
ATOM     21  H   UNL     1     139.233 142.748 138.556  1.00  0.00     0.293 HD
ENDBRANCH  17  20
ENDBRANCH   1  12
BRANCH   2  22
ATOM     22  O   UNL     1     139.930 147.386 135.410  1.00  0.00    -0.502 OA
ATOM     23  H   UNL     1     138.996 147.703 135.183  1.00  0.00     0.293 HD
ENDBRANCH   2  22
BRANCH   6  24
ATOM     24  O   UNL     1     140.663 152.439 136.925  1.00  0.00    -0.507 OA
ATOM     25  H   UNL     1     140.881 153.334 136.515  1.00  0.00     0.293 HD
ENDBRANCH   6  24
BRANCH   8  26
ATOM     26  O   UNL     1     144.494 151.916 139.772  1.00  0.00    -0.508 OA
ATOM     27  H   UNL     1     145.227 151.362 140.200  1.00  0.00     0.293 HD
ENDBRANCH   8  26
TORSDOF 6
ENDMDL
MODEL 2
REMARK VINA RESULT:    -5.121      8.484     11.832
REMARK INTER + INTRA:          -6.493
REMARK INTER:                  -6.169
REMARK INTRA:                  -0.324
REMARK UNBOUND:                -0.324
REMARK SMILES O=c1c(O)c(-c2ccc(O)c(O)c2)oc2cc(O)cc(O)c12
REMARK SMILES IDX 5 1 3 2 2 3 1 4 22 5 20 6 19 7 17 8 16 9 15 10 14 11 6 12
REMARK SMILES IDX 7 13 8 14 9 15 13 16 11 17 10 18 12 20 4 22 21 24 18 26
REMARK H PARENT 10 19 12 21 4 23 21 25 18 27
REMARK Flexibility Score: inf
ROOT
ATOM      1  C   UNL     1     150.977 145.321 137.090  1.00  0.00     0.180 A 
ATOM      2  C   UNL     1     151.898 144.617 136.294  1.00  0.00     0.208 A 
ATOM      3  C   UNL     1     151.932 143.215 136.371  1.00  0.00     0.238 A 
ATOM      4  O   UNL     1     152.720 142.587 135.616  1.00  0.00    -0.285 OA
ATOM      5  C   UNL     1     151.058 142.536 137.254  1.00  0.00     0.111 A 
ATOM      6  C   UNL     1     151.035 141.121 137.442  1.00  0.00     0.134 A 
ATOM      7  C   UNL     1     150.040 140.548 138.244  1.00  0.00     0.093 A 
ATOM      8  C   UNL     1     149.109 141.344 138.915  1.00  0.00     0.123 A 
ATOM      9  C   UNL     1     149.160 142.729 138.785  1.00  0.00     0.094 A 
ATOM     10  C   UNL     1     150.118 143.329 137.964  1.00  0.00     0.146 A 
ATOM     11  O   UNL     1     150.125 144.652 137.858  1.00  0.00    -0.452 OA
ENDROOT
BRANCH   1  12
ATOM     12  C   UNL     1     150.898 146.800 137.082  1.00  0.00     0.025 A 
ATOM     13  C   UNL     1     150.065 147.482 136.178  1.00  0.00     0.016 A 
ATOM     14  C   UNL     1     150.024 148.879 136.172  1.00  0.00     0.051 A 
ATOM     15  C   UNL     1     150.822 149.614 137.059  1.00  0.00     0.157 A 
ATOM     16  C   UNL     1     151.711 147.540 137.954  1.00  0.00     0.062 A 
ATOM     17  C   UNL     1     151.672 148.940 137.952  1.00  0.00     0.158 A 
BRANCH  15  18
ATOM     18  O   UNL     1     150.778 151.007 137.052  1.00  0.00    -0.504 OA
ATOM     19  H   UNL     1     150.410 151.530 137.839  1.00  0.00     0.293 HD
ENDBRANCH  15  18
BRANCH  17  20
ATOM     20  O   UNL     1     152.484 149.641 138.842  1.00  0.00    -0.504 OA
ATOM     21  H   UNL     1     153.110 149.172 139.484  1.00  0.00     0.293 HD
ENDBRANCH  17  20
ENDBRANCH   1  12
BRANCH   2  22
ATOM     22  O   UNL     1     152.736 145.305 135.413  1.00  0.00    -0.502 OA
ATOM     23  H   UNL     1     153.594 145.751 135.714  1.00  0.00     0.293 HD
ENDBRANCH   2  22
BRANCH   6  24
ATOM     24  O   UNL     1     151.975 140.245 136.892  1.00  0.00    -0.507 OA
ATOM     25  H   UNL     1     151.761 139.507 136.240  1.00  0.00     0.293 HD
ENDBRANCH   6  24
BRANCH   8  26
ATOM     26  O   UNL     1     148.132 140.765 139.723  1.00  0.00    -0.508 OA
ATOM     27  H   UNL     1     147.601 141.314 140.389  1.00  0.00     0.293 HD
ENDBRANCH   8  26
TORSDOF 6
ENDMDL
MODEL 3
REMARK VINA RESULT:    -5.115      5.616      8.363
REMARK INTER + INTRA:          -6.485
REMARK INTER:                  -6.162
REMARK INTRA:                  -0.323
REMARK UNBOUND:                -0.324
REMARK SMILES O=c1c(O)c(-c2ccc(O)c(O)c2)oc2cc(O)cc(O)c12
REMARK SMILES IDX 5 1 3 2 2 3 1 4 22 5 20 6 19 7 17 8 16 9 15 10 14 11 6 12
REMARK SMILES IDX 7 13 8 14 9 15 13 16 11 17 10 18 12 20 4 22 21 24 18 26
REMARK H PARENT 10 19 12 21 4 23 21 25 18 27
REMARK Flexibility Score: inf
ROOT
ATOM      1  C   UNL     1     147.369 150.938 137.113  1.00  0.00     0.180 A 
ATOM      2  C   UNL     1     148.078 151.871 136.335  1.00  0.00     0.208 A 
ATOM      3  C   UNL     1     149.479 151.908 136.426  1.00  0.00     0.238 A 
ATOM      4  O   UNL     1     150.112 152.707 135.687  1.00  0.00    -0.285 OA
ATOM      5  C   UNL     1     150.152 151.025 137.305  1.00  0.00     0.111 A 
ATOM      6  C   UNL     1     151.565 151.004 137.507  1.00  0.00     0.134 A 
ATOM      7  C   UNL     1     152.133 150.001 138.303  1.00  0.00     0.093 A 
ATOM      8  C   UNL     1     151.334 149.059 138.954  1.00  0.00     0.123 A 
ATOM      9  C   UNL     1     149.950 149.109 138.811  1.00  0.00     0.094 A 
ATOM     10  C   UNL     1     149.355 150.075 137.996  1.00  0.00     0.146 A 
ATOM     11  O   UNL     1     148.033 150.079 137.877  1.00  0.00    -0.452 OA
ENDROOT
BRANCH   1  12
ATOM     12  C   UNL     1     145.891 150.855 137.089  1.00  0.00     0.025 A 
ATOM     13  C   UNL     1     145.221 150.015 136.183  1.00  0.00     0.016 A 
ATOM     14  C   UNL     1     143.824 149.970 136.162  1.00  0.00     0.051 A 
ATOM     15  C   UNL     1     143.078 150.771 137.036  1.00  0.00     0.157 A 
ATOM     16  C   UNL     1     145.139 151.671 137.949  1.00  0.00     0.062 A 
ATOM     17  C   UNL     1     143.739 151.628 137.931  1.00  0.00     0.158 A 
BRANCH  15  18
ATOM     18  O   UNL     1     141.685 150.723 137.015  1.00  0.00    -0.504 OA
ATOM     19  H   UNL     1     141.183 149.846 137.101  1.00  0.00     0.293 HD
ENDBRANCH  15  18
BRANCH  17  20
ATOM     20  O   UNL     1     143.026 152.443 138.809  1.00  0.00    -0.504 OA
ATOM     21  H   UNL     1     142.883 152.194 139.780  1.00  0.00     0.293 HD
ENDBRANCH  17  20
ENDBRANCH   1  12
BRANCH   2  22
ATOM     22  O   UNL     1     147.396 152.718 135.457  1.00  0.00    -0.502 OA
ATOM     23  H   UNL     1     147.268 152.497 134.478  1.00  0.00     0.293 HD
ENDBRANCH   2  22
BRANCH   6  24
ATOM     24  O   UNL     1     152.443 151.953 136.977  1.00  0.00    -0.507 OA
ATOM     25  H   UNL     1     152.961 151.843 136.119  1.00  0.00     0.293 HD
ENDBRANCH   6  24
BRANCH   8  26
ATOM     26  O   UNL     1     151.907 148.075 139.756  1.00  0.00    -0.508 OA
ATOM     27  H   UNL     1     151.368 147.288 140.099  1.00  0.00     0.293 HD
ENDBRANCH   8  26
TORSDOF 6
ENDMDL
MODEL 4
REMARK VINA RESULT:    -5.110      5.615      8.371
REMARK INTER + INTRA:          -6.479
REMARK INTER:                  -6.157
REMARK INTRA:                  -0.323
REMARK UNBOUND:                -0.324
REMARK SMILES O=c1c(O)c(-c2ccc(O)c(O)c2)oc2cc(O)cc(O)c12
REMARK SMILES IDX 5 1 3 2 2 3 1 4 22 5 20 6 19 7 17 8 16 9 15 10 14 11 6 12
REMARK SMILES IDX 7 13 8 14 9 15 13 16 11 17 10 18 12 20 4 22 21 24 18 26
REMARK H PARENT 10 19 12 21 4 23 21 25 18 27
REMARK Flexibility Score: inf
ROOT
ATOM      1  C   UNL     1     145.280 141.666 137.121  1.00  0.00     0.180 A 
ATOM      2  C   UNL     1     144.582 140.755 136.308  1.00  0.00     0.208 A 
ATOM      3  C   UNL     1     143.179 140.724 136.371  1.00  0.00     0.238 A 
ATOM      4  O   UNL     1     142.557 139.946 135.602  1.00  0.00    -0.285 OA
ATOM      5  C   UNL     1     142.493 141.590 137.257  1.00  0.00     0.111 A 
ATOM      6  C   UNL     1     141.077 141.615 137.432  1.00  0.00     0.134 A 
ATOM      7  C   UNL     1     140.499 142.602 138.239  1.00  0.00     0.093 A 
ATOM      8  C   UNL     1     141.290 143.524 138.928  1.00  0.00     0.123 A 
ATOM      9  C   UNL     1     142.676 143.470 138.810  1.00  0.00     0.094 A 
ATOM     10  C   UNL     1     143.282 142.520 137.985  1.00  0.00     0.146 A 
ATOM     11  O   UNL     1     144.606 142.511 137.892  1.00  0.00    -0.452 OA
ENDROOT
BRANCH   1  12
ATOM     12  C   UNL     1     146.759 141.742 137.128  1.00  0.00     0.025 A 
ATOM     13  C   UNL     1     147.451 142.598 136.254  1.00  0.00     0.016 A 
ATOM     14  C   UNL     1     148.848 142.636 136.262  1.00  0.00     0.051 A 
ATOM     15  C   UNL     1     149.573 141.811 137.132  1.00  0.00     0.157 A 
ATOM     16  C   UNL     1     147.490 140.902 137.983  1.00  0.00     0.062 A 
ATOM     17  C   UNL     1     148.890 140.938 137.994  1.00  0.00     0.158 A 
BRANCH  15  18
ATOM     18  O   UNL     1     150.967 141.852 137.139  1.00  0.00    -0.504 OA
ATOM     19  H   UNL     1     151.510 141.571 136.330  1.00  0.00     0.293 HD
ENDBRANCH  15  18
BRANCH  17  20
ATOM     20  O   UNL     1     149.582 140.099 138.867  1.00  0.00    -0.504 OA
ATOM     21  H   UNL     1     149.225 139.866 139.785  1.00  0.00     0.293 HD
ENDBRANCH  17  20
ENDBRANCH   1  12
BRANCH   2  22
ATOM     22  O   UNL     1     145.276 139.926 135.425  1.00  0.00    -0.502 OA
ATOM     23  H   UNL     1     145.964 140.280 134.771  1.00  0.00     0.293 HD
ENDBRANCH   2  22
BRANCH   6  24
ATOM     24  O   UNL     1     140.204 140.683 136.863  1.00  0.00    -0.507 OA
ATOM     25  H   UNL     1     139.989 139.780 137.259  1.00  0.00     0.293 HD
ENDBRANCH   6  24
BRANCH   8  26
ATOM     26  O   UNL     1     140.706 144.493 139.741  1.00  0.00    -0.508 OA
ATOM     27  H   UNL     1     139.742 144.779 139.617  1.00  0.00     0.293 HD
ENDBRANCH   8  26
TORSDOF 6
ENDMDL
MODEL 5
REMARK VINA RESULT:    -4.889      1.798      2.797
REMARK INTER + INTRA:          -6.214
REMARK INTER:                  -5.978
REMARK INTRA:                  -0.236
REMARK UNBOUND:                -0.324
REMARK SMILES O=c1c(O)c(-c2ccc(O)c(O)c2)oc2cc(O)cc(O)c12
REMARK SMILES IDX 5 1 3 2 2 3 1 4 22 5 20 6 19 7 17 8 16 9 15 10 14 11 6 12
REMARK SMILES IDX 7 13 8 14 9 15 13 16 11 17 10 18 12 20 4 22 21 24 18 26
REMARK H PARENT 10 19 12 21 4 23 21 25 18 27
REMARK Flexibility Score: inf
ROOT
ATOM      1  C   UNL     1     141.208 145.053 136.926  1.00  0.00     0.180 A 
ATOM      2  C   UNL     1     140.018 145.718 136.581  1.00  0.00     0.208 A 
ATOM      3  C   UNL     1     139.991 147.121 136.602  1.00  0.00     0.238 A 
ATOM      4  O   UNL     1     138.940 147.711 136.240  1.00  0.00    -0.285 OA
ATOM      5  C   UNL     1     141.148 147.843 136.984  1.00  0.00     0.111 A 
ATOM      6  C   UNL     1     141.221 149.265 137.080  1.00  0.00     0.134 A 
ATOM      7  C   UNL     1     142.453 149.877 137.341  1.00  0.00     0.093 A 
ATOM      8  C   UNL     1     143.601 149.115 137.574  1.00  0.00     0.123 A 
ATOM      9  C   UNL     1     143.527 147.725 137.541  1.00  0.00     0.094 A 
ATOM     10  C   UNL     1     142.320 147.086 137.248  1.00  0.00     0.146 A 
ATOM     11  O   UNL     1     142.295 145.759 137.215  1.00  0.00    -0.452 OA
ENDROOT
BRANCH   1  12
ATOM     12  C   UNL     1     141.308 143.576 136.950  1.00  0.00     0.025 A 
ATOM     13  C   UNL     1     141.410 142.870 138.162  1.00  0.00     0.016 A 
ATOM     14  C   UNL     1     141.527 141.478 138.161  1.00  0.00     0.051 A 
ATOM     15  C   UNL     1     141.557 140.772 136.950  1.00  0.00     0.157 A 
ATOM     16  C   UNL     1     141.360 142.866 135.740  1.00  0.00     0.062 A 
ATOM     17  C   UNL     1     141.477 141.471 135.734  1.00  0.00     0.158 A 
BRANCH  15  18
ATOM     18  O   UNL     1     141.673 139.383 136.951  1.00  0.00    -0.504 OA
ATOM     19  H   UNL     1     141.913 138.871 137.793  1.00  0.00     0.293 HD
ENDBRANCH  15  18
BRANCH  17  20
ATOM     20  O   UNL     1     141.511 140.800 134.513  1.00  0.00    -0.504 OA
ATOM     21  H   UNL     1     142.209 140.097 134.305  1.00  0.00     0.293 HD
ENDBRANCH  17  20
ENDBRANCH   1  12
BRANCH   2  22
ATOM     22  O   UNL     1     138.895 144.987 136.186  1.00  0.00    -0.502 OA
ATOM     23  H   UNL     1     138.350 145.227 135.367  1.00  0.00     0.293 HD
ENDBRANCH   2  22
BRANCH   6  24
ATOM     24  O   UNL     1     140.117 150.113 136.957  1.00  0.00    -0.507 OA
ATOM     25  H   UNL     1     139.880 150.633 136.125  1.00  0.00     0.293 HD
ENDBRANCH   6  24
BRANCH   8  26
ATOM     26  O   UNL     1     144.819 149.732 137.848  1.00  0.00    -0.508 OA
ATOM     27  H   UNL     1     145.298 150.294 137.154  1.00  0.00     0.293 HD
ENDBRANCH   8  26
TORSDOF 6
ENDMDL
MODEL 6
REMARK VINA RESULT:    -4.772      6.205      9.961
REMARK INTER + INTRA:          -6.073
REMARK INTER:                  -5.849
REMARK INTRA:                  -0.224
REMARK UNBOUND:                -0.324
REMARK SMILES O=c1c(O)c(-c2ccc(O)c(O)c2)oc2cc(O)cc(O)c12
REMARK SMILES IDX 5 1 3 2 2 3 1 4 22 5 20 6 19 7 17 8 16 9 15 10 14 11 6 12
REMARK SMILES IDX 7 13 8 14 9 15 13 16 11 17 10 18 12 20 4 22 21 24 18 26
REMARK H PARENT 10 19 12 21 4 23 21 25 18 27
REMARK Flexibility Score: inf
ROOT
ATOM      1  C   UNL     1     147.299 140.813 136.867  1.00  0.00     0.180 A 
ATOM      2  C   UNL     1     146.674 139.631 136.429  1.00  0.00     0.208 A 
ATOM      3  C   UNL     1     145.272 139.580 136.384  1.00  0.00     0.238 A 
ATOM      4  O   UNL     1     144.719 138.540 135.939  1.00  0.00    -0.285 OA
ATOM      5  C   UNL     1     144.511 140.702 136.793  1.00  0.00     0.111 A 
ATOM      6  C   UNL     1     143.085 140.745 136.827  1.00  0.00     0.134 A 
ATOM      7  C   UNL     1     142.438 141.950 137.125  1.00  0.00     0.093 A 
ATOM      8  C   UNL     1     143.166 143.096 137.453  1.00  0.00     0.123 A 
ATOM      9  C   UNL     1     144.557 143.048 137.481  1.00  0.00     0.094 A 
ATOM     10  C   UNL     1     145.232 141.870 137.154  1.00  0.00     0.146 A 
ATOM     11  O   UNL     1     146.560 141.870 137.181  1.00  0.00    -0.452 OA
ENDROOT
BRANCH   1  12
ATOM     12  C   UNL     1     148.771 140.936 136.965  1.00  0.00     0.025 A 
ATOM     13  C   UNL     1     149.417 141.013 138.211  1.00  0.00     0.016 A 
ATOM     14  C   UNL     1     150.805 141.153 138.280  1.00  0.00     0.051 A 
ATOM     15  C   UNL     1     151.567 141.232 137.106  1.00  0.00     0.157 A 
ATOM     16  C   UNL     1     149.536 141.037 135.792  1.00  0.00     0.062 A 
ATOM     17  C   UNL     1     150.928 141.177 135.857  1.00  0.00     0.158 A 
BRANCH  15  18
ATOM     18  O   UNL     1     152.952 141.371 137.177  1.00  0.00    -0.504 OA
ATOM     19  H   UNL     1     153.553 141.098 136.407  1.00  0.00     0.293 HD
ENDBRANCH  15  18
BRANCH  17  20
ATOM     20  O   UNL     1     151.656 141.260 134.670  1.00  0.00    -0.504 OA
ATOM     21  H   UNL     1     152.665 141.189 134.652  1.00  0.00     0.293 HD
ENDBRANCH  17  20
ENDBRANCH   1  12
BRANCH   2  22
ATOM     22  O   UNL     1     147.444 138.544 136.008  1.00  0.00    -0.502 OA
ATOM     23  H   UNL     1     147.110 137.589 136.057  1.00  0.00     0.293 HD
ENDBRANCH   2  22
BRANCH   6  24
ATOM     24  O   UNL     1     142.265 139.634 136.606  1.00  0.00    -0.507 OA
ATOM     25  H   UNL     1     141.319 139.541 136.944  1.00  0.00     0.293 HD
ENDBRANCH   6  24
BRANCH   8  26
ATOM     26  O   UNL     1     142.513 144.288 137.764  1.00  0.00    -0.508 OA
ATOM     27  H   UNL     1     141.972 144.792 137.071  1.00  0.00     0.293 HD
ENDBRANCH   8  26
TORSDOF 6
ENDMDL
MODEL 7
REMARK VINA RESULT:    -4.761      6.158      8.323
REMARK INTER + INTRA:          -6.059
REMARK INTER:                  -5.729
REMARK INTRA:                  -0.330
REMARK UNBOUND:                -0.324
REMARK SMILES O=c1c(O)c(-c2ccc(O)c(O)c2)oc2cc(O)cc(O)c12
REMARK SMILES IDX 5 1 3 2 2 3 1 4 22 5 20 6 19 7 17 8 16 9 15 10 14 11 6 12
REMARK SMILES IDX 7 13 8 14 9 15 13 16 11 17 10 18 12 20 4 22 21 24 18 26
REMARK H PARENT 10 19 12 21 4 23 21 25 18 27
REMARK Flexibility Score: inf
ROOT
ATOM      1  C   UNL     1     145.412 142.401 137.227  1.00  0.00     0.180 A 
ATOM      2  C   UNL     1     145.868 143.709 136.988  1.00  0.00     0.208 A 
ATOM      3  C   UNL     1     147.225 144.004 137.191  1.00  0.00     0.238 A 
ATOM      4  O   UNL     1     147.638 145.163 136.923  1.00  0.00    -0.285 OA
ATOM      5  C   UNL     1     148.107 142.994 137.645  1.00  0.00     0.111 A 
ATOM      6  C   UNL     1     149.493 143.192 137.923  1.00  0.00     0.134 A 
ATOM      7  C   UNL     1     150.297 142.091 138.242  1.00  0.00     0.093 A 
ATOM      8  C   UNL     1     149.751 140.810 138.357  1.00  0.00     0.123 A 
ATOM      9  C   UNL     1     148.389 140.617 138.147  1.00  0.00     0.094 A 
ATOM     10  C   UNL     1     147.567 141.689 137.791  1.00  0.00     0.146 A 
ATOM     11  O   UNL     1     146.275 141.459 137.588  1.00  0.00    -0.452 OA
ENDROOT
BRANCH   1  12
ATOM     12  C   UNL     1     143.991 142.018 137.059  1.00  0.00     0.025 A 
ATOM     13  C   UNL     1     143.057 142.202 138.093  1.00  0.00     0.016 A 
ATOM     14  C   UNL     1     141.727 141.811 137.922  1.00  0.00     0.051 A 
ATOM     15  C   UNL     1     141.313 141.220 136.721  1.00  0.00     0.157 A 
ATOM     16  C   UNL     1     143.576 141.406 135.865  1.00  0.00     0.062 A 
ATOM     17  C   UNL     1     142.243 141.014 135.689  1.00  0.00     0.158 A 
BRANCH  15  18
ATOM     18  O   UNL     1     139.984 140.833 136.551  1.00  0.00    -0.504 OA
ATOM     19  H   UNL     1     139.283 141.019 137.259  1.00  0.00     0.293 HD
ENDBRANCH  15  18
BRANCH  17  20
ATOM     20  O   UNL     1     141.865 140.423 134.485  1.00  0.00    -0.504 OA
ATOM     21  H   UNL     1     142.464 140.434 133.668  1.00  0.00     0.293 HD
ENDBRANCH  17  20
ENDBRANCH   1  12
BRANCH   2  22
ATOM     22  O   UNL     1     144.986 144.686 136.518  1.00  0.00    -0.502 OA
ATOM     23  H   UNL     1     144.266 145.095 137.101  1.00  0.00     0.293 HD
ENDBRANCH   2  22
BRANCH   6  24
ATOM     24  O   UNL     1     150.117 144.443 137.927  1.00  0.00    -0.507 OA
ATOM     25  H   UNL     1     149.971 145.160 137.233  1.00  0.00     0.293 HD
ENDBRANCH   6  24
BRANCH   8  26
ATOM     26  O   UNL     1     150.556 139.723 138.691  1.00  0.00    -0.508 OA
ATOM     27  H   UNL     1     151.530 139.842 138.947  1.00  0.00     0.293 HD
ENDBRANCH   8  26
TORSDOF 6
ENDMDL
MODEL 8
REMARK VINA RESULT:    -4.700      5.012      7.459
REMARK INTER + INTRA:          -5.985
REMARK INTER:                  -5.765
REMARK INTRA:                  -0.221
REMARK UNBOUND:                -0.324
REMARK SMILES O=c1c(O)c(-c2ccc(O)c(O)c2)oc2cc(O)cc(O)c12
REMARK SMILES IDX 5 1 3 2 2 3 1 4 22 5 20 6 19 7 17 8 16 9 15 10 14 11 6 12
REMARK SMILES IDX 7 13 8 14 9 15 13 16 11 17 10 18 12 20 4 22 21 24 18 26
REMARK H PARENT 10 19 12 21 4 23 21 25 18 27
REMARK Flexibility Score: inf
ROOT
ATOM      1  C   UNL     1     145.382 151.687 136.917  1.00  0.00     0.180 A 
ATOM      2  C   UNL     1     146.027 152.840 136.436  1.00  0.00     0.208 A 
ATOM      3  C   UNL     1     147.430 152.869 136.401  1.00  0.00     0.238 A 
ATOM      4  O   UNL     1     148.002 153.882 135.919  1.00  0.00    -0.285 OA
ATOM      5  C   UNL     1     148.171 151.753 136.862  1.00  0.00     0.111 A 
ATOM      6  C   UNL     1     149.596 151.690 136.909  1.00  0.00     0.134 A 
ATOM      7  C   UNL     1     150.222 150.488 137.262  1.00  0.00     0.093 A 
ATOM      8  C   UNL     1     149.474 149.368 137.630  1.00  0.00     0.123 A 
ATOM      9  C   UNL     1     148.084 149.438 137.644  1.00  0.00     0.094 A 
ATOM     10  C   UNL     1     147.429 150.611 137.263  1.00  0.00     0.146 A 
ATOM     11  O   UNL     1     146.102 150.632 137.280  1.00  0.00    -0.452 OA
ENDROOT
BRANCH   1  12
ATOM     12  C   UNL     1     143.907 151.589 137.007  1.00  0.00     0.025 A 
ATOM     13  C   UNL     1     143.250 151.569 138.250  1.00  0.00     0.016 A 
ATOM     14  C   UNL     1     141.859 151.452 138.313  1.00  0.00     0.051 A 
ATOM     15  C   UNL     1     141.105 151.341 137.137  1.00  0.00     0.157 A 
ATOM     16  C   UNL     1     143.149 151.456 135.833  1.00  0.00     0.062 A 
ATOM     17  C   UNL     1     141.755 151.339 135.891  1.00  0.00     0.158 A 
BRANCH  15  18
ATOM     18  O   UNL     1     139.718 151.226 137.201  1.00  0.00    -0.504 OA
ATOM     19  H   UNL     1     139.267 150.623 137.880  1.00  0.00     0.293 HD
ENDBRANCH  15  18
BRANCH  17  20
ATOM     20  O   UNL     1     141.035 151.223 134.703  1.00  0.00    -0.504 OA
ATOM     21  H   UNL     1     140.299 150.538 134.584  1.00  0.00     0.293 HD
ENDBRANCH  17  20
ENDBRANCH   1  12
BRANCH   2  22
ATOM     22  O   UNL     1     145.278 153.920 135.965  1.00  0.00    -0.502 OA
ATOM     23  H   UNL     1     144.648 154.446 136.559  1.00  0.00     0.293 HD
ENDBRANCH   2  22
BRANCH   6  24
ATOM     24  O   UNL     1     150.434 152.779 136.651  1.00  0.00    -0.507 OA
ATOM     25  H   UNL     1     150.797 153.405 137.353  1.00  0.00     0.293 HD
ENDBRANCH   6  24
BRANCH   8  26
ATOM     26  O   UNL     1     150.107 148.181 137.993  1.00  0.00    -0.508 OA
ATOM     27  H   UNL     1     150.040 147.810 138.934  1.00  0.00     0.293 HD
ENDBRANCH   8  26
TORSDOF 6
ENDMDL
MODEL 9
REMARK VINA RESULT:    -4.692      8.799     12.040
REMARK INTER + INTRA:          -5.975
REMARK INTER:                  -5.743
REMARK INTRA:                  -0.233
REMARK UNBOUND:                -0.324
REMARK SMILES O=c1c(O)c(-c2ccc(O)c(O)c2)oc2cc(O)cc(O)c12
REMARK SMILES IDX 5 1 3 2 2 3 1 4 22 5 20 6 19 7 17 8 16 9 15 10 14 11 6 12
REMARK SMILES IDX 7 13 8 14 9 15 13 16 11 17 10 18 12 20 4 22 21 24 18 26
REMARK H PARENT 10 19 12 21 4 23 21 25 18 27
REMARK Flexibility Score: inf
ROOT
ATOM      1  C   UNL     1     151.669 147.271 136.949  1.00  0.00     0.180 A 
ATOM      2  C   UNL     1     152.828 146.604 136.512  1.00  0.00     0.208 A 
ATOM      3  C   UNL     1     152.846 145.200 136.512  1.00  0.00     0.238 A 
ATOM      4  O   UNL     1     153.865 144.609 136.068  1.00  0.00    -0.285 OA
ATOM      5  C   UNL     1     151.714 144.480 136.965  1.00  0.00     0.111 A 
ATOM      6  C   UNL     1     151.637 143.057 137.046  1.00  0.00     0.134 A 
ATOM      7  C   UNL     1     150.423 142.449 137.385  1.00  0.00     0.093 A 
ATOM      8  C   UNL     1     149.300 143.215 137.709  1.00  0.00     0.123 A 
ATOM      9  C   UNL     1     149.381 144.605 137.690  1.00  0.00     0.094 A 
ATOM     10  C   UNL     1     150.569 145.241 137.321  1.00  0.00     0.146 A 
ATOM     11  O   UNL     1     150.600 146.568 137.305  1.00  0.00    -0.452 OA
ENDROOT
BRANCH   1  12
ATOM     12  C   UNL     1     151.582 148.748 137.001  1.00  0.00     0.025 A 
ATOM     13  C   UNL     1     151.564 149.437 138.226  1.00  0.00     0.016 A 
ATOM     14  C   UNL     1     151.457 150.830 138.252  1.00  0.00     0.051 A 
ATOM     15  C   UNL     1     151.354 151.554 137.056  1.00  0.00     0.157 A 
ATOM     16  C   UNL     1     151.457 149.476 135.806  1.00  0.00     0.062 A 
ATOM     17  C   UNL     1     151.350 150.872 135.828  1.00  0.00     0.158 A 
BRANCH  15  18
ATOM     18  O   UNL     1     151.249 152.943 137.085  1.00  0.00    -0.504 OA
ATOM     19  H   UNL     1     150.685 153.446 136.409  1.00  0.00     0.293 HD
ENDBRANCH  15  18
BRANCH  17  20
ATOM     20  O   UNL     1     151.241 151.561 134.622  1.00  0.00    -0.504 OA
ATOM     21  H   UNL     1     150.768 151.168 133.818  1.00  0.00     0.293 HD
ENDBRANCH  17  20
ENDBRANCH   1  12
BRANCH   2  22
ATOM     22  O   UNL     1     153.925 147.333 136.048  1.00  0.00    -0.502 OA
ATOM     23  H   UNL     1     153.851 148.013 135.301  1.00  0.00     0.293 HD
ENDBRANCH   2  22
BRANCH   6  24
ATOM     24  O   UNL     1     152.724 142.204 136.833  1.00  0.00    -0.507 OA
ATOM     25  H   UNL     1     152.765 141.491 136.122  1.00  0.00     0.293 HD
ENDBRANCH   6  24
BRANCH   8  26
ATOM     26  O   UNL     1     148.099 142.601 138.060  1.00  0.00    -0.508 OA
ATOM     27  H   UNL     1     148.030 141.995 138.869  1.00  0.00     0.293 HD
ENDBRANCH   8  26
TORSDOF 6
ENDMDL
