MODEL 1
REMARK VINA RESULT:    -3.409      0.000      0.000
REMARK INTER + INTRA:          -3.627
REMARK INTER:                  -3.609
REMARK INTRA:                  -0.018
REMARK UNBOUND:                -0.018
REMARK SMILES O=C([O-])c1cccnc1
REMARK SMILES IDX 4 1 5 2 9 3 6 4 8 5 7 6 2 7 1 8 3 9
REMARK H PARENT
REMARK Flexibility Score: inf
ROOT
ATOM      1  C   UNL     1     -93.170 146.564 239.069  1.00  0.00     0.016 A 
ATOM      2  C   UNL     1     -93.657 147.878 238.977  1.00  0.00     0.013 A 
ATOM      3  C   UNL     1     -93.579 145.774 240.157  1.00  0.00     0.120 A 
ATOM      4  C   UNL     1     -94.526 148.373 239.950  1.00  0.00     0.021 A 
ATOM      5  N   UNL     1     -94.426 146.281 241.093  1.00  0.00    -0.264 NA
ATOM      6  C   UNL     1     -94.904 147.551 241.013  1.00  0.00     0.111 A 
ENDROOT
BRANCH   1   7
ATOM      7  C   UNL     1     -92.249 146.029 238.043  1.00  0.00     0.073 C 
ATOM      8  O   UNL     1     -91.122 145.568 238.371  1.00  0.00    -0.545 OA
ATOM      9  O   UNL     1     -92.613 146.027 236.702  1.00  0.00    -0.545 OA
ENDBRANCH   1   7
TORSDOF 1
ENDMDL
MODEL 2
REMARK VINA RESULT:    -3.370      2.387      3.119
REMARK INTER + INTRA:          -3.585
REMARK INTER:                  -3.561
REMARK INTRA:                  -0.023
REMARK UNBOUND:                -0.018
REMARK SMILES O=C([O-])c1cccnc1
REMARK SMILES IDX 4 1 5 2 9 3 6 4 8 5 7 6 2 7 1 8 3 9
REMARK H PARENT
REMARK Flexibility Score: inf
ROOT
ATOM      1  C   UNL     1     -95.149 147.882 240.796  1.00  0.00     0.016 A 
ATOM      2  C   UNL     1     -95.491 149.244 240.766  1.00  0.00     0.013 A 
ATOM      3  C   UNL     1     -95.899 147.022 241.617  1.00  0.00     0.120 A 
ATOM      4  C   UNL     1     -96.552 149.716 241.540  1.00  0.00     0.021 A 
ATOM      5  N   UNL     1     -96.928 147.508 242.362  1.00  0.00    -0.264 NA
ATOM      6  C   UNL     1     -97.267 148.824 242.341  1.00  0.00     0.111 A 
ENDROOT
BRANCH   1   7
ATOM      7  C   UNL     1     -94.027 147.370 239.979  1.00  0.00     0.073 C 
ATOM      8  O   UNL     1     -93.561 148.055 239.030  1.00  0.00    -0.545 OA
ATOM      9  O   UNL     1     -93.472 146.125 240.249  1.00  0.00    -0.545 OA
ENDBRANCH   1   7
TORSDOF 1
ENDMDL
MODEL 3
REMARK VINA RESULT:    -3.289      0.370      1.135
REMARK INTER + INTRA:          -3.499
REMARK INTER:                  -3.481
REMARK INTRA:                  -0.019
REMARK UNBOUND:                -0.018
REMARK SMILES O=C([O-])c1cccnc1
REMARK SMILES IDX 4 1 5 2 9 3 6 4 8 5 7 6 2 7 1 8 3 9
REMARK H PARENT
REMARK Flexibility Score: inf
ROOT
ATOM      1  C   UNL     1     -93.475 146.790 239.038  1.00  0.00     0.016 A 
ATOM      2  C   UNL     1     -93.973 148.102 238.989  1.00  0.00     0.013 A 
ATOM      3  C   UNL     1     -93.797 145.994 240.151  1.00  0.00     0.120 A 
ATOM      4  C   UNL     1     -94.768 148.589 240.029  1.00  0.00     0.021 A 
ATOM      5  N   UNL     1     -94.572 146.492 241.151  1.00  0.00    -0.264 NA
ATOM      6  C   UNL     1     -95.060 147.760 241.113  1.00  0.00     0.111 A 
ENDROOT
BRANCH   1   7
ATOM      7  C   UNL     1     -92.632 146.264 237.943  1.00  0.00     0.073 C 
ATOM      8  O   UNL     1     -93.039 146.295 236.750  1.00  0.00    -0.545 OA
ATOM      9  O   UNL     1     -91.379 145.728 238.214  1.00  0.00    -0.545 OA
ENDBRANCH   1   7
TORSDOF 1
ENDMDL
MODEL 4
REMARK VINA RESULT:    -3.275      3.593      4.330
REMARK INTER + INTRA:          -3.485
REMARK INTER:                  -3.463
REMARK INTRA:                  -0.022
REMARK UNBOUND:                -0.018
REMARK SMILES O=C([O-])c1cccnc1
REMARK SMILES IDX 4 1 5 2 9 3 6 4 8 5 7 6 2 7 1 8 3 9
REMARK H PARENT
REMARK Flexibility Score: inf
ROOT
ATOM      1  C   UNL     1     -95.243 147.971 240.717  1.00  0.00     0.016 A 
ATOM      2  C   UNL     1     -94.805 148.576 239.528  1.00  0.00     0.013 A 
ATOM      3  C   UNL     1     -94.679 146.737 241.086  1.00  0.00     0.120 A 
ATOM      4  C   UNL     1     -93.833 147.955 238.742  1.00  0.00     0.021 A 
ATOM      5  N   UNL     1     -93.734 146.152 240.302  1.00  0.00    -0.264 NA
ATOM      6  C   UNL     1     -93.303 146.729 239.150  1.00  0.00     0.111 A 
ENDROOT
BRANCH   1   7
ATOM      7  C   UNL     1     -96.272 148.620 241.558  1.00  0.00     0.073 C 
ATOM      8  O   UNL     1     -97.003 147.933 242.321  1.00  0.00    -0.545 OA
ATOM      9  O   UNL     1     -96.447 149.998 241.518  1.00  0.00    -0.545 OA
ENDBRANCH   1   7
TORSDOF 1
ENDMDL
MODEL 5
REMARK VINA RESULT:    -3.248      4.728      5.698
REMARK INTER + INTRA:          -3.456
REMARK INTER:                  -3.438
REMARK INTRA:                  -0.018
REMARK UNBOUND:                -0.018
REMARK SMILES O=C([O-])c1cccnc1
REMARK SMILES IDX 4 1 5 2 9 3 6 4 8 5 7 6 2 7 1 8 3 9
REMARK H PARENT
REMARK Flexibility Score: inf
ROOT
ATOM      1  C   UNL     1     -96.810 148.898 241.786  1.00  0.00     0.016 A 
ATOM      2  C   UNL     1     -95.730 149.373 241.024  1.00  0.00     0.013 A 
ATOM      3  C   UNL     1     -96.806 147.550 242.183  1.00  0.00     0.120 A 
ATOM      4  C   UNL     1     -94.687 148.514 240.677  1.00  0.00     0.021 A 
ATOM      5  N   UNL     1     -95.777 146.733 241.830  1.00  0.00    -0.264 NA
ATOM      6  C   UNL     1     -94.728 147.183 241.093  1.00  0.00     0.111 A 
ENDROOT
BRANCH   1   7
ATOM      7  C   UNL     1     -97.921 149.800 242.161  1.00  0.00     0.073 C 
ATOM      8  O   UNL     1     -98.219 149.980 243.373  1.00  0.00    -0.545 OA
ATOM      9  O   UNL     1     -98.653 150.460 241.182  1.00  0.00    -0.545 OA
ENDBRANCH   1   7
TORSDOF 1
ENDMDL
MODEL 6
REMARK VINA RESULT:    -3.244      2.441      3.005
REMARK INTER + INTRA:          -3.452
REMARK INTER:                  -3.434
REMARK INTRA:                  -0.018
REMARK UNBOUND:                -0.018
REMARK SMILES O=C([O-])c1cccnc1
REMARK SMILES IDX 4 1 5 2 9 3 6 4 8 5 7 6 2 7 1 8 3 9
REMARK H PARENT
REMARK Flexibility Score: inf
ROOT
ATOM      1  C   UNL     1     -93.557 146.980 238.298  1.00  0.00     0.016 A 
ATOM      2  C   UNL     1     -94.215 148.140 238.738  1.00  0.00     0.013 A 
ATOM      3  C   UNL     1     -93.680 146.613 236.947  1.00  0.00     0.120 A 
ATOM      4  C   UNL     1     -94.969 148.900 237.842  1.00  0.00     0.021 A 
ATOM      5  N   UNL     1     -94.422 147.370 236.095  1.00  0.00    -0.264 NA
ATOM      6  C   UNL     1     -95.063 148.495 236.510  1.00  0.00     0.111 A 
ENDROOT
BRANCH   1   7
ATOM      7  C   UNL     1     -92.755 146.167 239.238  1.00  0.00     0.073 C 
ATOM      8  O   UNL     1     -91.526 145.977 239.033  1.00  0.00    -0.545 OA
ATOM      9  O   UNL     1     -93.346 145.601 240.361  1.00  0.00    -0.545 OA
ENDBRANCH   1   7
TORSDOF 1
ENDMDL
MODEL 7
REMARK VINA RESULT:    -3.177      3.987      4.915
REMARK INTER + INTRA:          -3.381
REMARK INTER:                  -3.364
REMARK INTRA:                  -0.017
REMARK UNBOUND:                -0.018
REMARK SMILES O=C([O-])c1cccnc1
REMARK SMILES IDX 4 1 5 2 9 3 6 4 8 5 7 6 2 7 1 8 3 9
REMARK H PARENT
REMARK Flexibility Score: inf
ROOT
ATOM      1  C   UNL     1     -95.708 148.642 240.327  1.00  0.00     0.016 A 
ATOM      2  C   UNL     1     -94.354 148.338 240.540  1.00  0.00     0.013 A 
ATOM      3  C   UNL     1     -96.222 148.528 239.024  1.00  0.00     0.120 A 
ATOM      4  C   UNL     1     -93.550 147.935 239.473  1.00  0.00     0.021 A 
ATOM      5  N   UNL     1     -95.417 148.134 238.001  1.00  0.00    -0.264 NA
ATOM      6  C   UNL     1     -94.105 147.838 238.196  1.00  0.00     0.111 A 
ENDROOT
BRANCH   1   7
ATOM      7  C   UNL     1     -96.570 149.069 241.451  1.00  0.00     0.073 C 
ATOM      8  O   UNL     1     -96.995 150.254 241.518  1.00  0.00    -0.545 OA
ATOM      9  O   UNL     1     -96.923 148.169 242.449  1.00  0.00    -0.545 OA
ENDBRANCH   1   7
TORSDOF 1
ENDMDL
MODEL 8
REMARK VINA RESULT:    -2.992      2.772      3.872
REMARK INTER + INTRA:          -3.185
REMARK INTER:                  -3.162
REMARK INTRA:                  -0.023
REMARK UNBOUND:                -0.018
REMARK SMILES O=C([O-])c1cccnc1
REMARK SMILES IDX 4 1 5 2 9 3 6 4 8 5 7 6 2 7 1 8 3 9
REMARK H PARENT
REMARK Flexibility Score: inf
ROOT
ATOM      1  C   UNL     1     -93.524 147.091 238.492  1.00  0.00     0.016 A 
ATOM      2  C   UNL     1     -93.904 147.019 237.142  1.00  0.00     0.013 A 
ATOM      3  C   UNL     1     -92.383 146.380 238.904  1.00  0.00     0.120 A 
ATOM      4  C   UNL     1     -93.156 146.257 236.243  1.00  0.00     0.021 A 
ATOM      5  N   UNL     1     -91.672 145.644 238.008  1.00  0.00    -0.264 NA
ATOM      6  C   UNL     1     -92.032 145.568 236.699  1.00  0.00     0.111 A 
ENDROOT
BRANCH   1   7
ATOM      7  C   UNL     1     -94.308 147.896 239.454  1.00  0.00     0.073 C 
ATOM      8  O   UNL     1     -95.011 148.864 239.056  1.00  0.00    -0.545 OA
ATOM      9  O   UNL     1     -94.279 147.597 240.810  1.00  0.00    -0.545 OA
ENDBRANCH   1   7
TORSDOF 1
ENDMDL
MODEL 9
REMARK VINA RESULT:    -2.953      1.701      2.045
REMARK INTER + INTRA:          -3.143
REMARK INTER:                  -3.120
REMARK INTRA:                  -0.023
REMARK UNBOUND:                -0.018
REMARK SMILES O=C([O-])c1cccnc1
REMARK SMILES IDX 4 1 5 2 9 3 6 4 8 5 7 6 2 7 1 8 3 9
REMARK H PARENT
REMARK Flexibility Score: inf
ROOT
ATOM      1  C   UNL     1     -94.234 147.464 238.970  1.00  0.00     0.016 A 
ATOM      2  C   UNL     1     -94.079 148.104 240.210  1.00  0.00     0.013 A 
ATOM      3  C   UNL     1     -95.460 147.600 238.295  1.00  0.00     0.120 A 
ATOM      4  C   UNL     1     -95.128 148.853 240.747  1.00  0.00     0.021 A 
ATOM      5  N   UNL     1     -96.466 148.335 238.841  1.00  0.00    -0.264 NA
ATOM      6  C   UNL     1     -96.327 148.958 240.041  1.00  0.00     0.111 A 
ENDROOT
BRANCH   1   7
ATOM      7  C   UNL     1     -93.129 146.669 238.390  1.00  0.00     0.073 C 
ATOM      8  O   UNL     1     -92.203 146.229 239.124  1.00  0.00    -0.545 OA
ATOM      9  O   UNL     1     -93.098 146.395 237.028  1.00  0.00    -0.545 OA
ENDBRANCH   1   7
TORSDOF 1
ENDMDL
