MODEL 1
REMARK VINA RESULT:    -2.347      0.000      0.000
REMARK INTER + INTRA:          -2.347
REMARK INTER:                  -2.347
REMARK INTRA:                   0.000
REMARK UNBOUND:                 0.000
REMARK SMILES CC(=O)[O-]
REMARK SMILES IDX 1 1 2 2 3 3 4 4
REMARK H PARENT
REMARK Flexibility Score: inf
ROOT
ATOM      1  C   UNL     1     -33.756  -5.389  -1.471  1.00  0.00     0.063 C 
ATOM      2  C   UNL     1     -33.718  -4.056  -2.138  1.00  0.00     0.038 C 
ATOM      3  O   UNL     1     -33.142  -3.921  -3.248  1.00  0.00    -0.550 OA
ATOM      4  O   UNL     1     -34.367  -2.971  -1.561  1.00  0.00    -0.550 OA
ENDROOT
TORSDOF 0
ENDMDL
MODEL 2
REMARK VINA RESULT:    -2.323      0.100      1.622
REMARK INTER + INTRA:          -2.323
REMARK INTER:                  -2.323
REMARK INTRA:                   0.000
REMARK UNBOUND:                 0.000
REMARK SMILES CC(=O)[O-]
REMARK SMILES IDX 1 1 2 2 3 3 4 4
REMARK H PARENT
REMARK Flexibility Score: inf
ROOT
ATOM      1  C   UNL     1     -33.778  -5.367  -1.391  1.00  0.00     0.063 C 
ATOM      2  C   UNL     1     -33.743  -4.065  -2.115  1.00  0.00     0.038 C 
ATOM      3  O   UNL     1     -34.324  -3.058  -1.633  1.00  0.00    -0.550 OA
ATOM      4  O   UNL     1     -33.024  -3.945  -3.298  1.00  0.00    -0.550 OA
ENDROOT
TORSDOF 0
ENDMDL
MODEL 3
REMARK VINA RESULT:    -2.308      8.803      9.175
REMARK INTER + INTRA:          -2.308
REMARK INTER:                  -2.308
REMARK INTRA:                   0.000
REMARK UNBOUND:                 0.000
REMARK SMILES CC(=O)[O-]
REMARK SMILES IDX 1 1 2 2 3 3 4 4
REMARK H PARENT
REMARK Flexibility Score: inf
ROOT
ATOM      1  C   UNL     1     -25.934  -4.539  -2.913  1.00  0.00     0.063 C 
ATOM      2  C   UNL     1     -24.973  -5.651  -2.665  1.00  0.00     0.038 C 
ATOM      3  O   UNL     1     -24.581  -5.897  -1.494  1.00  0.00    -0.550 OA
ATOM      4  O   UNL     1     -24.549  -6.453  -3.717  1.00  0.00    -0.550 OA
ENDROOT
TORSDOF 0
ENDMDL
MODEL 4
REMARK VINA RESULT:    -2.283     12.029     12.456
REMARK INTER + INTRA:          -2.283
REMARK INTER:                  -2.283
REMARK INTRA:                   0.000
REMARK UNBOUND:                 0.000
REMARK SMILES CC(=O)[O-]
REMARK SMILES IDX 1 1 2 2 3 3 4 4
REMARK H PARENT
REMARK Flexibility Score: inf
ROOT
ATOM      1  C   UNL     1     -23.101  -3.512  -9.708  1.00  0.00     0.063 C 
ATOM      2  C   UNL     1     -23.938  -4.708  -9.406  1.00  0.00     0.038 C 
ATOM      3  O   UNL     1     -25.078  -4.829  -9.925  1.00  0.00    -0.550 OA
ATOM      4  O   UNL     1     -23.440  -5.719  -8.593  1.00  0.00    -0.550 OA
ENDROOT
TORSDOF 0
ENDMDL
MODEL 5
REMARK VINA RESULT:    -2.277      1.361      1.930
REMARK INTER + INTRA:          -2.277
REMARK INTER:                  -2.277
REMARK INTRA:                   0.000
REMARK UNBOUND:                 0.000
REMARK SMILES CC(=O)[O-]
REMARK SMILES IDX 1 1 2 2 3 3 4 4
REMARK H PARENT
REMARK Flexibility Score: inf
ROOT
ATOM      1  C   UNL     1     -33.163  -4.375  -3.010  1.00  0.00     0.063 C 
ATOM      2  C   UNL     1     -34.047  -4.166  -1.828  1.00  0.00     0.038 C 
ATOM      3  O   UNL     1     -34.396  -3.003  -1.498  1.00  0.00    -0.550 OA
ATOM      4  O   UNL     1     -34.533  -5.259  -1.121  1.00  0.00    -0.550 OA
ENDROOT
TORSDOF 0
ENDMDL
MODEL 6
REMARK VINA RESULT:    -2.215      1.402      2.057
REMARK INTER + INTRA:          -2.215
REMARK INTER:                  -2.215
REMARK INTRA:                   0.000
REMARK UNBOUND:                 0.000
REMARK SMILES CC(=O)[O-]
REMARK SMILES IDX 1 1 2 2 3 3 4 4
REMARK H PARENT
REMARK Flexibility Score: inf
ROOT
ATOM      1  C   UNL     1     -34.399  -3.203  -1.322  1.00  0.00     0.063 C 
ATOM      2  C   UNL     1     -33.639  -4.311  -1.968  1.00  0.00     0.038 C 
ATOM      3  O   UNL     1     -33.613  -5.453  -1.438  1.00  0.00    -0.550 OA
ATOM      4  O   UNL     1     -33.002  -4.101  -3.185  1.00  0.00    -0.550 OA
ENDROOT
TORSDOF 0
ENDMDL
MODEL 7
REMARK VINA RESULT:    -2.211      1.497      1.643
REMARK INTER + INTRA:          -2.211
REMARK INTER:                  -2.211
REMARK INTRA:                   0.000
REMARK UNBOUND:                 0.000
REMARK SMILES CC(=O)[O-]
REMARK SMILES IDX 1 1 2 2 3 3 4 4
REMARK H PARENT
REMARK Flexibility Score: inf
ROOT
ATOM      1  C   UNL     1     -33.723  -3.658  -1.122  1.00  0.00     0.063 C 
ATOM      2  C   UNL     1     -33.632  -4.345  -2.442  1.00  0.00     0.038 C 
ATOM      3  O   UNL     1     -32.759  -3.994  -3.278  1.00  0.00    -0.550 OA
ATOM      4  O   UNL     1     -34.474  -5.411  -2.731  1.00  0.00    -0.550 OA
ENDROOT
TORSDOF 0
ENDMDL
MODEL 8
REMARK VINA RESULT:    -1.903     12.465     12.866
REMARK INTER + INTRA:          -1.903
REMARK INTER:                  -1.903
REMARK INTRA:                   0.000
REMARK UNBOUND:                 0.000
REMARK SMILES CC(=O)[O-]
REMARK SMILES IDX 1 1 2 2 3 3 4 4
REMARK H PARENT
REMARK Flexibility Score: inf
ROOT
ATOM      1  C   UNL     1     -25.426   1.823  -9.644  1.00  0.00     0.063 C 
ATOM      2  C   UNL     1     -24.479   1.830  -8.493  1.00  0.00     0.038 C 
ATOM      3  O   UNL     1     -24.327   0.796  -7.793  1.00  0.00    -0.550 OA
ATOM      4  O   UNL     1     -23.720   2.962  -8.223  1.00  0.00    -0.550 OA
ENDROOT
TORSDOF 0
ENDMDL
MODEL 9
REMARK VINA RESULT:    -1.873     13.266     13.742
REMARK INTER + INTRA:          -1.873
REMARK INTER:                  -1.873
REMARK INTRA:                   0.000
REMARK UNBOUND:                 0.000
REMARK SMILES CC(=O)[O-]
REMARK SMILES IDX 1 1 2 2 3 3 4 4
REMARK H PARENT
REMARK Flexibility Score: inf
ROOT
ATOM      1  C   UNL     1     -22.543  -1.246  -9.999  1.00  0.00     0.063 C 
ATOM      2  C   UNL     1     -23.292   0.026  -9.790  1.00  0.00     0.038 C 
ATOM      3  O   UNL     1     -23.680   0.348  -8.637  1.00  0.00    -0.550 OA
ATOM      4  O   UNL     1     -23.514   0.887 -10.857  1.00  0.00    -0.550 OA
ENDROOT
TORSDOF 0
ENDMDL
