MODEL 1
REMARK VINA RESULT:    -4.825      0.000      0.000
REMARK INTER + INTRA:          -7.415
REMARK INTER:                  -6.517
REMARK INTRA:                  -0.898
REMARK UNBOUND:                -0.898
REMARK SMILES CC(=O)CCC=C(C)CCC=C(C)C
REMARK SMILES IDX 7 1 6 2 8 3 9 4 10 5 11 6 13 7 12 8 14 9 5 10 4 11 2 12 3 13
REMARK SMILES IDX 1 14
REMARK H PARENT
REMARK Flexibility Score: inf
ROOT
ATOM      1  C   UNL     1      -7.306  -0.996   9.996  1.00  0.00    -0.077 C 
ATOM      2  C   UNL     1      -6.004  -0.639   9.913  1.00  0.00    -0.028 C 
ATOM      3  C   UNL     1      -7.728  -2.423  10.263  1.00  0.00     0.039 C 
ENDROOT
BRANCH   1   4
ATOM      4  C   UNL     1      -8.370   0.060   9.796  1.00  0.00     0.034 C 
BRANCH   4   5
ATOM      5  C   UNL     1      -9.484  -0.455   8.878  1.00  0.00     0.032 C 
BRANCH   5   6
ATOM      6  C   UNL     1      -9.326   0.095   7.483  1.00  0.00    -0.028 C 
ATOM      7  C   UNL     1      -8.619   0.125   5.129  1.00  0.00     0.039 C 
ATOM      8  C   UNL     1      -8.659  -0.529   6.487  1.00  0.00    -0.080 C 
ATOM      9  C   UNL     1      -7.946  -1.843   6.701  1.00  0.00     0.039 C 
ENDBRANCH   5   6
ENDBRANCH   4   5
ENDBRANCH   1   4
BRANCH   2  10
ATOM     10  C   UNL     1      -4.841  -1.577  10.138  1.00  0.00     0.035 C 
BRANCH  10  11
ATOM     11  C   UNL     1      -4.499  -2.372   8.871  1.00  0.00     0.079 C 
BRANCH  11  12
ATOM     12  C   UNL     1      -4.211  -3.818   9.186  1.00  0.00     0.130 C 
ATOM     13  O   UNL     1      -3.776  -4.550   8.310  1.00  0.00    -0.300 OA
ATOM     14  C   UNL     1      -4.449  -4.379  10.556  1.00  0.00     0.087 C 
ENDBRANCH  11  12
ENDBRANCH  10  11
ENDBRANCH   2  10
TORSDOF 6
ENDMDL
MODEL 2
REMARK VINA RESULT:    -4.786      2.618      4.990
REMARK INTER + INTRA:          -7.363
REMARK INTER:                  -6.316
REMARK INTRA:                  -1.047
REMARK UNBOUND:                -0.898
REMARK SMILES CC(=O)CCC=C(C)CCC=C(C)C
REMARK SMILES IDX 7 1 6 2 8 3 9 4 10 5 11 6 13 7 12 8 14 9 5 10 4 11 2 12 3 13
REMARK SMILES IDX 1 14
REMARK H PARENT
REMARK Flexibility Score: inf
ROOT
ATOM      1  C   UNL     1      -6.119  -2.223   9.913  1.00  0.00    -0.077 C 
ATOM      2  C   UNL     1      -5.846  -0.956   9.528  1.00  0.00    -0.028 C 
ATOM      3  C   UNL     1      -7.520  -2.670  10.261  1.00  0.00     0.039 C 
ENDROOT
BRANCH   1   4
ATOM      4  C   UNL     1      -4.983  -3.218  10.017  1.00  0.00     0.034 C 
BRANCH   4   5
ATOM      5  C   UNL     1      -4.174  -3.258   8.716  1.00  0.00     0.032 C 
BRANCH   5   6
ATOM      6  C   UNL     1      -4.542  -4.468   7.894  1.00  0.00    -0.028 C 
ATOM      7  C   UNL     1      -5.734  -5.756   6.174  1.00  0.00     0.039 C 
ATOM      8  C   UNL     1      -5.505  -4.482   6.946  1.00  0.00    -0.080 C 
ATOM      9  C   UNL     1      -6.359  -3.271   6.654  1.00  0.00     0.039 C 
ENDBRANCH   5   6
ENDBRANCH   4   5
ENDBRANCH   1   4
BRANCH   2  10
ATOM     10  C   UNL     1      -6.885   0.125   9.337  1.00  0.00     0.035 C 
BRANCH  10  11
ATOM     11  C   UNL     1      -7.451   0.123   7.911  1.00  0.00     0.079 C 
BRANCH  11  12
ATOM     12  C   UNL     1      -8.957   0.061   7.913  1.00  0.00     0.130 C 
ATOM     13  O   UNL     1      -9.558  -0.027   6.852  1.00  0.00    -0.300 OA
ATOM     14  C   UNL     1      -9.737   0.107   9.193  1.00  0.00     0.087 C 
ENDBRANCH  11  12
ENDBRANCH  10  11
ENDBRANCH   2  10
TORSDOF 6
ENDMDL
MODEL 3
REMARK VINA RESULT:    -4.716      1.028      1.614
REMARK INTER + INTRA:          -7.268
REMARK INTER:                  -6.218
REMARK INTRA:                  -1.049
REMARK UNBOUND:                -0.898
REMARK SMILES CC(=O)CCC=C(C)CCC=C(C)C
REMARK SMILES IDX 7 1 6 2 8 3 9 4 10 5 11 6 13 7 12 8 14 9 5 10 4 11 2 12 3 13
REMARK SMILES IDX 1 14
REMARK H PARENT
REMARK Flexibility Score: inf
ROOT
ATOM      1  C   UNL     1      -6.433  -0.545   9.651  1.00  0.00    -0.077 C 
ATOM      2  C   UNL     1      -6.171  -1.718  10.272  1.00  0.00    -0.028 C 
ATOM      3  C   UNL     1      -5.424   0.125   8.747  1.00  0.00     0.039 C 
ENDROOT
BRANCH   1   4
ATOM      4  C   UNL     1      -7.769   0.125   9.885  1.00  0.00     0.034 C 
BRANCH   4   5
ATOM      5  C   UNL     1      -8.889  -0.621   9.151  1.00  0.00     0.032 C 
BRANCH   5   6
ATOM      6  C   UNL     1      -9.069  -0.079   7.755  1.00  0.00    -0.028 C 
ATOM      7  C   UNL     1      -8.907  -0.046   5.303  1.00  0.00     0.039 C 
ATOM      8  C   UNL     1      -8.616  -0.687   6.636  1.00  0.00    -0.080 C 
ATOM      9  C   UNL     1      -7.821  -1.970   6.688  1.00  0.00     0.039 C 
ENDBRANCH   5   6
ENDBRANCH   4   5
ENDBRANCH   1   4
BRANCH   2  10
ATOM     10  C   UNL     1      -4.902  -2.518  10.093  1.00  0.00     0.035 C 
BRANCH  10  11
ATOM     11  C   UNL     1      -5.191  -3.936   9.585  1.00  0.00     0.079 C 
BRANCH  11  12
ATOM     12  C   UNL     1      -4.471  -4.219   8.291  1.00  0.00     0.130 C 
ATOM     13  O   UNL     1      -3.254  -4.122   8.245  1.00  0.00    -0.300 OA
ATOM     14  C   UNL     1      -5.220  -4.615   7.053  1.00  0.00     0.087 C 
ENDBRANCH  11  12
ENDBRANCH  10  11
ENDBRANCH   2  10
TORSDOF 6
ENDMDL
MODEL 4
REMARK VINA RESULT:    -4.434      1.610      3.179
REMARK INTER + INTRA:          -6.887
REMARK INTER:                  -6.005
REMARK INTRA:                  -0.882
REMARK UNBOUND:                -0.898
REMARK SMILES CC(=O)CCC=C(C)CCC=C(C)C
REMARK SMILES IDX 7 1 6 2 8 3 9 4 10 5 11 6 13 7 12 8 14 9 5 10 4 11 2 12 3 13
REMARK SMILES IDX 1 14
REMARK H PARENT
REMARK Flexibility Score: inf
ROOT
ATOM      1  C   UNL     1      -6.288  -3.156   7.043  1.00  0.00    -0.077 C 
ATOM      2  C   UNL     1      -5.458  -2.538   7.914  1.00  0.00    -0.028 C 
ATOM      3  C   UNL     1      -5.995  -4.536   6.501  1.00  0.00     0.039 C 
ENDROOT
BRANCH   1   4
ATOM      4  C   UNL     1      -7.535  -2.435   6.582  1.00  0.00     0.034 C 
BRANCH   4   5
ATOM      5  C   UNL     1      -7.513  -0.969   7.026  1.00  0.00     0.032 C 
BRANCH   5   6
ATOM      6  C   UNL     1      -8.536  -0.721   8.106  1.00  0.00    -0.028 C 
ATOM      7  C   UNL     1      -9.377  -0.028  10.309  1.00  0.00     0.039 C 
ATOM      8  C   UNL     1      -8.243  -0.268   9.345  1.00  0.00    -0.080 C 
ATOM      9  C   UNL     1      -6.822  -0.013   9.790  1.00  0.00     0.039 C 
ENDBRANCH   5   6
ENDBRANCH   4   5
ENDBRANCH   1   4
BRANCH   2  10
ATOM     10  C   UNL     1      -4.207  -3.156   8.493  1.00  0.00     0.035 C 
BRANCH  10  11
ATOM     11  C   UNL     1      -4.165  -3.029  10.021  1.00  0.00     0.079 C 
BRANCH  11  12
ATOM     12  C   UNL     1      -4.713  -4.262  10.695  1.00  0.00     0.130 C 
ATOM     13  O   UNL     1      -3.954  -5.170  11.000  1.00  0.00    -0.300 OA
ATOM     14  C   UNL     1      -6.175  -4.400  10.997  1.00  0.00     0.087 C 
ENDBRANCH  11  12
ENDBRANCH  10  11
ENDBRANCH   2  10
TORSDOF 6
ENDMDL
MODEL 5
REMARK VINA RESULT:    -4.218      1.517      2.810
REMARK INTER + INTRA:          -6.596
REMARK INTER:                  -5.670
REMARK INTRA:                  -0.926
REMARK UNBOUND:                -0.898
REMARK SMILES CC(=O)CCC=C(C)CCC=C(C)C
REMARK SMILES IDX 7 1 6 2 8 3 9 4 10 5 11 6 13 7 12 8 14 9 5 10 4 11 2 12 3 13
REMARK SMILES IDX 1 14
REMARK H PARENT
REMARK Flexibility Score: inf
ROOT
ATOM      1  C   UNL     1      -5.564  -2.334   9.981  1.00  0.00    -0.077 C 
ATOM      2  C   UNL     1      -4.421  -2.803   9.430  1.00  0.00    -0.028 C 
ATOM      3  C   UNL     1      -6.764  -3.223  10.211  1.00  0.00     0.039 C 
ENDROOT
BRANCH   1   4
ATOM      4  C   UNL     1      -5.649  -0.872  10.359  1.00  0.00     0.034 C 
BRANCH   4   5
ATOM      5  C   UNL     1      -6.223  -0.043   9.205  1.00  0.00     0.032 C 
BRANCH   5   6
ATOM      6  C   UNL     1      -7.715   0.119   9.352  1.00  0.00    -0.028 C 
ATOM      7  C   UNL     1     -10.069   0.125   8.648  1.00  0.00     0.039 C 
ATOM      8  C   UNL     1      -8.601  -0.026   8.342  1.00  0.00    -0.080 C 
ATOM      9  C   UNL     1      -8.162  -0.316   6.926  1.00  0.00     0.039 C 
ENDBRANCH   5   6
ENDBRANCH   4   5
ENDBRANCH   1   4
BRANCH   2  10
ATOM     10  C   UNL     1      -4.181  -4.246   9.049  1.00  0.00     0.035 C 
BRANCH  10  11
ATOM     11  C   UNL     1      -4.021  -4.414   7.533  1.00  0.00     0.079 C 
BRANCH  11  12
ATOM     12  C   UNL     1      -5.346  -4.672   6.861  1.00  0.00     0.130 C 
ATOM     13  O   UNL     1      -5.647  -5.812   6.540  1.00  0.00    -0.300 OA
ATOM     14  C   UNL     1      -6.305  -3.555   6.575  1.00  0.00     0.087 C 
ENDBRANCH  11  12
ENDBRANCH  10  11
ENDBRANCH   2  10
TORSDOF 6
ENDMDL
MODEL 6
REMARK VINA RESULT:    -3.974      1.597      4.560
REMARK INTER + INTRA:          -6.266
REMARK INTER:                  -5.993
REMARK INTRA:                  -0.273
REMARK UNBOUND:                -0.898
REMARK SMILES CC(=O)CCC=C(C)CCC=C(C)C
REMARK SMILES IDX 7 1 6 2 8 3 9 4 10 5 11 6 13 7 12 8 14 9 5 10 4 11 2 12 3 13
REMARK SMILES IDX 1 14
REMARK H PARENT
REMARK Flexibility Score: inf
ROOT
ATOM      1  C   UNL     1      -7.187  -0.082   9.254  1.00  0.00    -0.077 C 
ATOM      2  C   UNL     1      -7.100  -0.261   7.916  1.00  0.00    -0.028 C 
ATOM      3  C   UNL     1      -8.518  -0.005   9.965  1.00  0.00     0.039 C 
ENDROOT
BRANCH   1   4
ATOM      4  C   UNL     1      -5.914   0.065  10.058  1.00  0.00     0.034 C 
BRANCH   4   5
ATOM      5  C   UNL     1      -5.484  -1.281  10.650  1.00  0.00     0.032 C 
BRANCH   5   6
ATOM      6  C   UNL     1      -4.550  -2.006   9.714  1.00  0.00    -0.028 C 
ATOM      7  C   UNL     1      -3.448  -3.935   8.663  1.00  0.00     0.039 C 
ATOM      8  C   UNL     1      -4.389  -3.347   9.683  1.00  0.00    -0.080 C 
ATOM      9  C   UNL     1      -5.108  -4.263  10.646  1.00  0.00     0.039 C 
ENDBRANCH   5   6
ENDBRANCH   4   5
ENDBRANCH   1   4
BRANCH   2  10
ATOM     10  C   UNL     1      -8.283  -0.469   6.999  1.00  0.00     0.035 C 
BRANCH  10  11
ATOM     11  C   UNL     1      -8.184  -1.796   6.236  1.00  0.00     0.079 C 
BRANCH  11  12
ATOM     12  C   UNL     1      -7.321  -2.793   6.967  1.00  0.00     0.130 C 
ATOM     13  O   UNL     1      -7.510  -2.996   8.157  1.00  0.00    -0.300 OA
ATOM     14  C   UNL     1      -6.229  -3.543   6.263  1.00  0.00     0.087 C 
ENDBRANCH  11  12
ENDBRANCH  10  11
ENDBRANCH   2  10
TORSDOF 6
ENDMDL
MODEL 7
REMARK VINA RESULT:    -3.964      2.482      5.340
REMARK INTER + INTRA:          -6.252
REMARK INTER:                  -6.239
REMARK INTRA:                  -0.013
REMARK UNBOUND:                -0.898
REMARK SMILES CC(=O)CCC=C(C)CCC=C(C)C
REMARK SMILES IDX 7 1 6 2 8 3 9 4 10 5 11 6 13 7 12 8 14 9 5 10 4 11 2 12 3 13
REMARK SMILES IDX 1 14
REMARK H PARENT
REMARK Flexibility Score: inf
ROOT
ATOM      1  C   UNL     1      -7.205  -2.020   6.619  1.00  0.00    -0.077 C 
ATOM      2  C   UNL     1      -6.591  -1.197   7.500  1.00  0.00    -0.028 C 
ATOM      3  C   UNL     1      -8.601  -1.747   6.110  1.00  0.00     0.039 C 
ENDROOT
BRANCH   1   4
ATOM      4  C   UNL     1      -6.480  -3.261   6.148  1.00  0.00     0.034 C 
BRANCH   4   5
ATOM      5  C   UNL     1      -6.316  -4.265   7.294  1.00  0.00     0.032 C 
BRANCH   5   6
ATOM      6  C   UNL     1      -5.961  -3.559   8.578  1.00  0.00    -0.028 C 
ATOM      7  C   UNL     1      -4.509  -2.750  10.388  1.00  0.00     0.039 C 
ATOM      8  C   UNL     1      -4.722  -3.532   9.118  1.00  0.00    -0.080 C 
ATOM      9  C   UNL     1      -3.562  -4.273   8.496  1.00  0.00     0.039 C 
ENDBRANCH   5   6
ENDBRANCH   4   5
ENDBRANCH   1   4
BRANCH   2  10
ATOM     10  C   UNL     1      -7.175   0.096   8.017  1.00  0.00     0.035 C 
BRANCH  10  11
ATOM     11  C   UNL     1      -7.224   0.125   9.550  1.00  0.00     0.079 C 
BRANCH  11  12
ATOM     12  C   UNL     1      -8.642   0.075  10.060  1.00  0.00     0.130 C 
ATOM     13  O   UNL     1      -8.853   0.124  11.262  1.00  0.00    -0.300 OA
ATOM     14  C   UNL     1      -9.805  -0.036   9.119  1.00  0.00     0.087 C 
ENDBRANCH  11  12
ENDBRANCH  10  11
ENDBRANCH   2  10
TORSDOF 6
ENDMDL
MODEL 8
REMARK VINA RESULT:    -3.022     20.216     21.100
REMARK INTER + INTRA:          -4.980
REMARK INTER:                  -4.064
REMARK INTRA:                  -0.916
REMARK UNBOUND:                -0.898
REMARK SMILES CC(=O)CCC=C(C)CCC=C(C)C
REMARK SMILES IDX 7 1 6 2 8 3 9 4 10 5 11 6 13 7 12 8 14 9 5 10 4 11 2 12 3 13
REMARK SMILES IDX 1 14
REMARK H PARENT
REMARK Flexibility Score: inf
ROOT
ATOM      1  C   UNL     1     -18.117 -19.009  11.071  1.00  0.00    -0.077 C 
ATOM      2  C   UNL     1     -18.527 -18.379  12.196  1.00  0.00    -0.028 C 
ATOM      3  C   UNL     1     -16.697 -19.496  10.899  1.00  0.00     0.039 C 
ENDROOT
BRANCH   1   4
ATOM      4  C   UNL     1     -19.106 -19.213   9.944  1.00  0.00     0.034 C 
BRANCH   4   5
ATOM      5  C   UNL     1     -20.513 -18.778  10.368  1.00  0.00     0.032 C 
BRANCH   5   6
ATOM      6  C   UNL     1     -21.029 -17.684   9.468  1.00  0.00    -0.028 C 
ATOM      7  C   UNL     1     -21.783 -15.426   8.855  1.00  0.00     0.039 C 
ATOM      8  C   UNL     1     -21.312 -16.428   9.878  1.00  0.00    -0.080 C 
ATOM      9  C   UNL     1     -21.187 -16.011  11.325  1.00  0.00     0.039 C 
ENDBRANCH   5   6
ENDBRANCH   4   5
ENDBRANCH   1   4
BRANCH   2  10
ATOM     10  C   UNL     1     -17.663 -18.151  13.414  1.00  0.00     0.035 C 
BRANCH  10  11
ATOM     11  C   UNL     1     -18.269 -17.099  14.352  1.00  0.00     0.079 C 
BRANCH  11  12
ATOM     12  C   UNL     1     -19.516 -17.611  15.027  1.00  0.00     0.130 C 
ATOM     13  O   UNL     1     -19.478 -18.667  15.642  1.00  0.00    -0.300 OA
ATOM     14  C   UNL     1     -20.808 -16.852  14.958  1.00  0.00     0.087 C 
ENDBRANCH  11  12
ENDBRANCH  10  11
ENDBRANCH   2  10
TORSDOF 6
ENDMDL
