MODEL 1
REMARK VINA RESULT:     2.015      0.000      0.000
REMARK INTER + INTRA:           2.074
REMARK INTER:                   2.074
REMARK INTRA:                   0.000
REMARK UNBOUND:                 0.000
REMARK SMILES Cc1ccccc1O
REMARK SMILES IDX 1 1 2 2 3 3 4 4 5 5 6 6 7 7 8 8
REMARK H PARENT 8 9
REMARK Flexibility Score: inf
ROOT
ATOM      1  C   UNL     1      15.110  54.705  62.087  1.00  0.00     0.048 C 
ATOM      2  C   UNL     1      15.262  53.283  61.624  1.00  0.00    -0.009 A 
ATOM      3  C   UNL     1      16.170  52.981  60.594  1.00  0.00     0.007 A 
ATOM      4  C   UNL     1      16.326  51.665  60.150  1.00  0.00     0.001 A 
ATOM      5  C   UNL     1      15.579  50.638  60.728  1.00  0.00     0.004 A 
ATOM      6  C   UNL     1      14.674  50.924  61.753  1.00  0.00     0.046 A 
ATOM      7  C   UNL     1      14.507  52.237  62.208  1.00  0.00     0.118 A 
ENDROOT
BRANCH   7   8
ATOM      8  O   UNL     1      13.590  52.472  63.234  1.00  0.00    -0.508 OA
ATOM      9  H   UNL     1      13.371  53.398  63.578  1.00  0.00     0.293 HD
ENDBRANCH   7   8
TORSDOF 1
ENDMDL
MODEL 2
REMARK VINA RESULT:     2.357      1.897      2.380
REMARK INTER + INTRA:           2.426
REMARK INTER:                   2.426
REMARK INTRA:                   0.000
REMARK UNBOUND:                 0.000
REMARK SMILES Cc1ccccc1O
REMARK SMILES IDX 1 1 2 2 3 3 4 4 5 5 6 6 7 7 8 8
REMARK H PARENT 8 9
REMARK Flexibility Score: inf
ROOT
ATOM      1  C   UNL     1      15.139  54.724  62.389  1.00  0.00     0.048 C 
ATOM      2  C   UNL     1      15.285  53.529  61.489  1.00  0.00    -0.009 A 
ATOM      3  C   UNL     1      15.450  52.251  62.053  1.00  0.00     0.007 A 
ATOM      4  C   UNL     1      15.587  51.127  61.233  1.00  0.00     0.001 A 
ATOM      5  C   UNL     1      15.560  51.266  59.845  1.00  0.00     0.004 A 
ATOM      6  C   UNL     1      15.395  52.529  59.272  1.00  0.00     0.046 A 
ATOM      7  C   UNL     1      15.257  53.663  60.080  1.00  0.00     0.118 A 
ENDROOT
BRANCH   7   8
ATOM      8  O   UNL     1      15.095  54.903  59.460  1.00  0.00    -0.508 OA
ATOM      9  H   UNL     1      14.648  55.016  58.559  1.00  0.00     0.293 HD
ENDBRANCH   7   8
TORSDOF 1
ENDMDL
MODEL 3
REMARK VINA RESULT:     2.834      1.991      2.381
REMARK INTER + INTRA:           2.917
REMARK INTER:                   2.917
REMARK INTRA:                   0.000
REMARK UNBOUND:                 0.000
REMARK SMILES Cc1ccccc1O
REMARK SMILES IDX 1 1 2 2 3 3 4 4 5 5 6 6 7 7 8 8
REMARK H PARENT 8 9
REMARK Flexibility Score: inf
ROOT
ATOM      1  C   UNL     1      15.436  54.736  62.725  1.00  0.00     0.048 C 
ATOM      2  C   UNL     1      15.847  53.524  61.937  1.00  0.00    -0.009 A 
ATOM      3  C   UNL     1      14.897  52.856  61.143  1.00  0.00     0.007 A 
ATOM      4  C   UNL     1      15.260  51.728  60.402  1.00  0.00     0.001 A 
ATOM      5  C   UNL     1      16.572  51.254  60.446  1.00  0.00     0.004 A 
ATOM      6  C   UNL     1      17.525  51.908  61.229  1.00  0.00     0.046 A 
ATOM      7  C   UNL     1      17.176  53.039  61.976  1.00  0.00     0.118 A 
ENDROOT
BRANCH   7   8
ATOM      8  O   UNL     1      18.165  53.657  62.744  1.00  0.00    -0.508 OA
ATOM      9  H   UNL     1      17.965  54.381  63.423  1.00  0.00     0.293 HD
ENDBRANCH   7   8
TORSDOF 1
ENDMDL
MODEL 4
REMARK VINA RESULT:     2.866      1.162      3.003
REMARK INTER + INTRA:           2.950
REMARK INTER:                   2.950
REMARK INTRA:                   0.000
REMARK UNBOUND:                 0.000
REMARK SMILES Cc1ccccc1O
REMARK SMILES IDX 1 1 2 2 3 3 4 4 5 5 6 6 7 7 8 8
REMARK H PARENT 8 9
REMARK Flexibility Score: inf
ROOT
ATOM      1  C   UNL     1      15.642  51.825  60.692  1.00  0.00     0.048 C 
ATOM      2  C   UNL     1      15.494  52.967  61.658  1.00  0.00    -0.009 A 
ATOM      3  C   UNL     1      16.384  54.054  61.592  1.00  0.00     0.007 A 
ATOM      4  C   UNL     1      16.263  55.125  62.481  1.00  0.00     0.001 A 
ATOM      5  C   UNL     1      15.254  55.124  63.445  1.00  0.00     0.004 A 
ATOM      6  C   UNL     1      14.363  54.051  63.522  1.00  0.00     0.046 A 
ATOM      7  C   UNL     1      14.472  52.972  62.638  1.00  0.00     0.118 A 
ENDROOT
BRANCH   7   8
ATOM      8  O   UNL     1      13.557  51.924  62.755  1.00  0.00    -0.508 OA
ATOM      9  H   UNL     1      13.811  50.952  62.630  1.00  0.00     0.293 HD
ENDBRANCH   7   8
TORSDOF 1
ENDMDL
MODEL 5
REMARK VINA RESULT:     3.246      2.154      3.684
REMARK INTER + INTRA:           3.341
REMARK INTER:                   3.341
REMARK INTRA:                   0.000
REMARK UNBOUND:                 0.000
REMARK SMILES Cc1ccccc1O
REMARK SMILES IDX 1 1 2 2 3 3 4 4 5 5 6 6 7 7 8 8
REMARK H PARENT 8 9
REMARK Flexibility Score: inf
ROOT
ATOM      1  C   UNL     1      16.825  51.748  60.812  1.00  0.00     0.048 C 
ATOM      2  C   UNL     1      16.256  52.927  61.551  1.00  0.00    -0.009 A 
ATOM      3  C   UNL     1      14.923  53.312  61.324  1.00  0.00     0.007 A 
ATOM      4  C   UNL     1      14.376  54.405  62.001  1.00  0.00     0.001 A 
ATOM      5  C   UNL     1      15.151  55.125  62.910  1.00  0.00     0.004 A 
ATOM      6  C   UNL     1      16.477  54.753  63.146  1.00  0.00     0.046 A 
ATOM      7  C   UNL     1      17.039  53.661  62.475  1.00  0.00     0.118 A 
ENDROOT
BRANCH   7   8
ATOM      8  O   UNL     1      18.368  53.329  62.745  1.00  0.00    -0.508 OA
ATOM      9  H   UNL     1      19.152  53.861  62.391  1.00  0.00     0.293 HD
ENDBRANCH   7   8
TORSDOF 1
ENDMDL
MODEL 6
REMARK VINA RESULT:     3.274      1.798      3.591
REMARK INTER + INTRA:           3.370
REMARK INTER:                   3.370
REMARK INTRA:                   0.000
REMARK UNBOUND:                 0.000
REMARK SMILES Cc1ccccc1O
REMARK SMILES IDX 1 1 2 2 3 3 4 4 5 5 6 6 7 7 8 8
REMARK H PARENT 8 9
REMARK Flexibility Score: inf
ROOT
ATOM      1  C   UNL     1      14.752  50.840  61.625  1.00  0.00     0.048 C 
ATOM      2  C   UNL     1      14.858  52.334  61.751  1.00  0.00    -0.009 A 
ATOM      3  C   UNL     1      14.410  52.966  62.924  1.00  0.00     0.007 A 
ATOM      4  C   UNL     1      14.500  54.354  63.060  1.00  0.00     0.001 A 
ATOM      5  C   UNL     1      15.037  55.125  62.029  1.00  0.00     0.004 A 
ATOM      6  C   UNL     1      15.486  54.510  60.858  1.00  0.00     0.046 A 
ATOM      7  C   UNL     1      15.402  53.121  60.708  1.00  0.00     0.118 A 
ENDROOT
BRANCH   7   8
ATOM      8  O   UNL     1      15.865  52.554  59.519  1.00  0.00    -0.508 OA
ATOM      9  H   UNL     1      16.815  52.666  59.186  1.00  0.00     0.293 HD
ENDBRANCH   7   8
TORSDOF 1
ENDMDL
MODEL 7
REMARK VINA RESULT:     4.807      1.862      2.392
REMARK INTER + INTRA:           4.948
REMARK INTER:                   4.948
REMARK INTRA:                   0.000
REMARK UNBOUND:                 0.000
REMARK SMILES Cc1ccccc1O
REMARK SMILES IDX 1 1 2 2 3 3 4 4 5 5 6 6 7 7 8 8
REMARK H PARENT 8 9
REMARK Flexibility Score: inf
ROOT
ATOM      1  C   UNL     1      18.649  52.965  62.392  1.00  0.00     0.048 C 
ATOM      2  C   UNL     1      17.370  52.593  61.695  1.00  0.00    -0.009 A 
ATOM      3  C   UNL     1      17.349  51.488  60.826  1.00  0.00     0.007 A 
ATOM      4  C   UNL     1      16.170  51.126  60.169  1.00  0.00     0.001 A 
ATOM      5  C   UNL     1      15.001  51.861  60.371  1.00  0.00     0.004 A 
ATOM      6  C   UNL     1      15.009  52.961  61.232  1.00  0.00     0.046 A 
ATOM      7  C   UNL     1      16.182  53.335  61.897  1.00  0.00     0.118 A 
ENDROOT
BRANCH   7   8
ATOM      8  O   UNL     1      16.138  54.441  62.747  1.00  0.00    -0.508 OA
ATOM      9  H   UNL     1      15.343  54.654  63.337  1.00  0.00     0.293 HD
ENDBRANCH   7   8
TORSDOF 1
ENDMDL
