MODEL 1
REMARK VINA RESULT:    -3.215      0.000      0.000
REMARK INTER + INTRA:          -4.861
REMARK INTER:                  -4.530
REMARK INTRA:                  -0.331
REMARK UNBOUND:                -0.331
REMARK SMILES C=CCCCCCCC(=O)[O-]
REMARK SMILES IDX 6 1 7 2 8 3 9 4 10 5 11 6 5 7 4 8 3 9 2 10 1 11
REMARK H PARENT
REMARK Flexibility Score: inf
ROOT
ATOM      1  C   UNL     1      63.895  31.559  59.560  1.00  0.00     0.000 C 
ENDROOT
BRANCH   1   2
ATOM      2  C   UNL     1      63.726  30.137  60.117  1.00  0.00     0.006 C 
BRANCH   2   3
ATOM      3  C   UNL     1      64.659  29.863  61.304  1.00  0.00     0.053 C 
BRANCH   3   4
ATOM      4  C   UNL     1      65.702  28.843  60.965  1.00  0.00     0.041 C 
ATOM      5  O   UNL     1      65.382  27.637  60.803  1.00  0.00    -0.550 OA
ATOM      6  O   UNL     1      67.024  29.232  60.797  1.00  0.00    -0.550 OA
ENDBRANCH   3   4
ENDBRANCH   2   3
ENDBRANCH   1   2
BRANCH   1   7
ATOM      7  C   UNL     1      64.952  32.338  60.355  1.00  0.00     0.000 C 
BRANCH   7   8
ATOM      8  C   UNL     1      64.795  33.861  60.214  1.00  0.00     0.004 C 
BRANCH   8   9
ATOM      9  C   UNL     1      65.121  34.611  61.514  1.00  0.00     0.027 C 
BRANCH   9  10
ATOM     10  C   UNL     1      64.133  35.717  61.763  1.00  0.00    -0.035 C 
ATOM     11  C   UNL     1      63.008  35.831  61.050  1.00  0.00     0.004 C 
ENDBRANCH   9  10
ENDBRANCH   8   9
ENDBRANCH   7   8
ENDBRANCH   1   7
TORSDOF 7
ENDMDL
MODEL 2
REMARK VINA RESULT:    -3.186      1.788      2.272
REMARK INTER + INTRA:          -4.821
REMARK INTER:                  -4.537
REMARK INTRA:                  -0.284
REMARK UNBOUND:                -0.331
REMARK SMILES C=CCCCCCCC(=O)[O-]
REMARK SMILES IDX 6 1 7 2 8 3 9 4 10 5 11 6 5 7 4 8 3 9 2 10 1 11
REMARK H PARENT
REMARK Flexibility Score: inf
ROOT
ATOM      1  C   UNL     1      65.133  31.928  61.004  1.00  0.00     0.000 C 
ENDROOT
BRANCH   1   2
ATOM      2  C   UNL     1      64.317  30.811  60.336  1.00  0.00     0.006 C 
BRANCH   2   3
ATOM      3  C   UNL     1      64.321  29.516  61.159  1.00  0.00     0.053 C 
BRANCH   3   4
ATOM      4  C   UNL     1      62.970  28.871  61.182  1.00  0.00     0.041 C 
ATOM      5  O   UNL     1      62.806  27.762  61.755  1.00  0.00    -0.550 OA
ATOM      6  O   UNL     1      61.884  29.510  60.598  1.00  0.00    -0.550 OA
ENDBRANCH   3   4
ENDBRANCH   2   3
ENDBRANCH   1   2
BRANCH   1   7
ATOM      7  C   UNL     1      64.741  33.303  60.446  1.00  0.00     0.000 C 
BRANCH   7   8
ATOM      8  C   UNL     1      65.095  34.453  61.403  1.00  0.00     0.004 C 
BRANCH   8   9
ATOM      9  C   UNL     1      64.024  35.555  61.424  1.00  0.00     0.027 C 
BRANCH   9  10
ATOM     10  C   UNL     1      62.968  35.304  60.384  1.00  0.00    -0.035 C 
ATOM     11  C   UNL     1      61.879  36.073  60.286  1.00  0.00     0.004 C 
ENDBRANCH   9  10
ENDBRANCH   8   9
ENDBRANCH   7   8
ENDBRANCH   1   7
TORSDOF 7
ENDMDL
MODEL 3
REMARK VINA RESULT:    -3.176     12.719     14.422
REMARK INTER + INTRA:          -4.806
REMARK INTER:                  -4.438
REMARK INTRA:                  -0.368
REMARK UNBOUND:                -0.331
REMARK SMILES C=CCCCCCCC(=O)[O-]
REMARK SMILES IDX 6 1 7 2 8 3 9 4 10 5 11 6 5 7 4 8 3 9 2 10 1 11
REMARK H PARENT
REMARK Flexibility Score: inf
ROOT
ATOM      1  C   UNL     1      58.069  26.515  51.280  1.00  0.00     0.000 C 
ENDROOT
BRANCH   1   2
ATOM      2  C   UNL     1      59.556  26.559  50.901  1.00  0.00     0.006 C 
BRANCH   2   3
ATOM      3  C   UNL     1      59.874  25.678  49.686  1.00  0.00     0.053 C 
BRANCH   3   4
ATOM      4  C   UNL     1      60.833  24.581  50.033  1.00  0.00     0.041 C 
ATOM      5  O   UNL     1      62.033  24.849  50.301  1.00  0.00    -0.550 OA
ATOM      6  O   UNL     1      60.392  23.266  50.090  1.00  0.00    -0.550 OA
ENDBRANCH   3   4
ENDBRANCH   2   3
ENDBRANCH   1   2
BRANCH   1   7
ATOM      7  C   UNL     1      57.313  25.491  50.421  1.00  0.00     0.000 C 
BRANCH   7   8
ATOM      8  C   UNL     1      55.789  25.578  50.600  1.00  0.00     0.004 C 
BRANCH   8   9
ATOM      9  C   UNL     1      55.035  25.555  49.261  1.00  0.00     0.027 C 
BRANCH   9  10
ATOM     10  C   UNL     1      54.150  26.762  49.117  1.00  0.00    -0.035 C 
ATOM     11  C   UNL     1      54.211  27.787  49.972  1.00  0.00     0.004 C 
ENDBRANCH   9  10
ENDBRANCH   8   9
ENDBRANCH   7   8
ENDBRANCH   1   7
TORSDOF 7
ENDMDL
MODEL 4
REMARK VINA RESULT:    -3.155     13.206     14.703
REMARK INTER + INTRA:          -4.777
REMARK INTER:                  -4.332
REMARK INTRA:                  -0.445
REMARK UNBOUND:                -0.331
REMARK SMILES C=CCCCCCCC(=O)[O-]
REMARK SMILES IDX 6 1 7 2 8 3 9 4 10 5 11 6 5 7 4 8 3 9 2 10 1 11
REMARK H PARENT
REMARK Flexibility Score: inf
ROOT
ATOM      1  C   UNL     1      57.883  26.375  51.201  1.00  0.00     0.000 C 
ENDROOT
BRANCH   1   2
ATOM      2  C   UNL     1      56.358  26.548  51.135  1.00  0.00     0.006 C 
BRANCH   2   3
ATOM      3  C   UNL     1      55.697  25.534  50.192  1.00  0.00     0.053 C 
BRANCH   3   4
ATOM      4  C   UNL     1      54.718  26.192  49.270  1.00  0.00     0.041 C 
ATOM      5  O   UNL     1      54.228  25.552  48.303  1.00  0.00    -0.550 OA
ATOM      6  O   UNL     1      54.323  27.504  49.497  1.00  0.00    -0.550 OA
ENDBRANCH   3   4
ENDBRANCH   2   3
ENDBRANCH   1   2
BRANCH   1   7
ATOM      7  C   UNL     1      58.336  25.178  50.354  1.00  0.00     0.000 C 
BRANCH   7   8
ATOM      8  C   UNL     1      59.552  25.504  49.471  1.00  0.00     0.004 C 
BRANCH   8   9
ATOM      9  C   UNL     1      60.706  26.135  50.264  1.00  0.00     0.027 C 
BRANCH   9  10
ATOM     10  C   UNL     1      61.233  27.361  49.571  1.00  0.00    -0.035 C 
ATOM     11  C   UNL     1      60.852  28.592  49.927  1.00  0.00     0.004 C 
ENDBRANCH   9  10
ENDBRANCH   8   9
ENDBRANCH   7   8
ENDBRANCH   1   7
TORSDOF 7
ENDMDL
MODEL 5
REMARK VINA RESULT:    -3.148     12.558     14.105
REMARK INTER + INTRA:          -4.767
REMARK INTER:                  -4.388
REMARK INTRA:                  -0.379
REMARK UNBOUND:                -0.331
REMARK SMILES C=CCCCCCCC(=O)[O-]
REMARK SMILES IDX 6 1 7 2 8 3 9 4 10 5 11 6 5 7 4 8 3 9 2 10 1 11
REMARK H PARENT
REMARK Flexibility Score: inf
ROOT
ATOM      1  C   UNL     1      58.412  25.223  49.921  1.00  0.00     0.000 C 
ENDROOT
BRANCH   1   2
ATOM      2  C   UNL     1      59.916  25.440  49.697  1.00  0.00     0.006 C 
BRANCH   2   3
ATOM      3  C   UNL     1      60.491  26.526  50.616  1.00  0.00     0.053 C 
BRANCH   3   4
ATOM      4  C   UNL     1      61.242  27.565  49.842  1.00  0.00     0.041 C 
ATOM      5  O   UNL     1      60.785  28.733  49.738  1.00  0.00    -0.550 OA
ATOM      6  O   UNL     1      62.464  27.251  49.261  1.00  0.00    -0.550 OA
ENDBRANCH   3   4
ENDBRANCH   2   3
ENDBRANCH   1   2
BRANCH   1   7
ATOM      7  C   UNL     1      57.886  26.137  51.037  1.00  0.00     0.000 C 
BRANCH   7   8
ATOM      8  C   UNL     1      56.353  26.109  51.151  1.00  0.00     0.004 C 
BRANCH   8   9
ATOM      9  C   UNL     1      55.671  25.687  49.842  1.00  0.00     0.027 C 
BRANCH   9  10
ATOM     10  C   UNL     1      54.369  26.415  49.649  1.00  0.00    -0.035 C 
ATOM     11  C   UNL     1      54.257  27.729  49.869  1.00  0.00     0.004 C 
ENDBRANCH   9  10
ENDBRANCH   8   9
ENDBRANCH   7   8
ENDBRANCH   1   7
TORSDOF 7
ENDMDL
MODEL 6
REMARK VINA RESULT:    -3.145      1.874      2.181
REMARK INTER + INTRA:          -4.762
REMARK INTER:                  -4.457
REMARK INTRA:                  -0.305
REMARK UNBOUND:                -0.331
REMARK SMILES C=CCCCCCCC(=O)[O-]
REMARK SMILES IDX 6 1 7 2 8 3 9 4 10 5 11 6 5 7 4 8 3 9 2 10 1 11
REMARK H PARENT
REMARK Flexibility Score: inf
ROOT
ATOM      1  C   UNL     1      65.427  31.432  59.707  1.00  0.00     0.000 C 
ENDROOT
BRANCH   1   2
ATOM      2  C   UNL     1      64.938  30.961  61.085  1.00  0.00     0.006 C 
BRANCH   2   3
ATOM      3  C   UNL     1      64.723  29.443  61.139  1.00  0.00     0.053 C 
BRANCH   3   4
ATOM      4  C   UNL     1      63.268  29.087  61.100  1.00  0.00     0.041 C 
ATOM      5  O   UNL     1      62.828  28.140  61.802  1.00  0.00    -0.550 OA
ATOM      6  O   UNL     1      62.394  29.824  60.311  1.00  0.00    -0.550 OA
ENDBRANCH   3   4
ENDBRANCH   2   3
ENDBRANCH   1   2
BRANCH   1   7
ATOM      7  C   UNL     1      65.136  32.925  59.503  1.00  0.00     0.000 C 
BRANCH   7   8
ATOM      8  C   UNL     1      64.887  33.666  60.827  1.00  0.00     0.004 C 
BRANCH   8   9
ATOM      9  C   UNL     1      64.010  34.915  60.649  1.00  0.00     0.027 C 
BRANCH   9  10
ATOM     10  C   UNL     1      64.107  35.820  61.845  1.00  0.00    -0.035 C 
ATOM     11  C   UNL     1      65.178  35.819  62.645  1.00  0.00     0.004 C 
ENDBRANCH   9  10
ENDBRANCH   8   9
ENDBRANCH   7   8
ENDBRANCH   1   7
TORSDOF 7
ENDMDL
MODEL 7
REMARK VINA RESULT:    -2.984      3.172      5.452
REMARK INTER + INTRA:          -4.536
REMARK INTER:                  -4.128
REMARK INTRA:                  -0.408
REMARK UNBOUND:                -0.331
REMARK SMILES C=CCCCCCCC(=O)[O-]
REMARK SMILES IDX 6 1 7 2 8 3 9 4 10 5 11 6 5 7 4 8 3 9 2 10 1 11
REMARK H PARENT
REMARK Flexibility Score: inf
ROOT
ATOM      1  C   UNL     1      64.778  30.902  60.272  1.00  0.00     0.000 C 
ENDROOT
BRANCH   1   2
ATOM      2  C   UNL     1      65.124  32.220  60.980  1.00  0.00     0.006 C 
BRANCH   2   3
ATOM      3  C   UNL     1      64.648  33.447  60.191  1.00  0.00     0.053 C 
BRANCH   3   4
ATOM      4  C   UNL     1      64.511  34.652  61.070  1.00  0.00     0.041 C 
ATOM      5  O   UNL     1      63.438  35.311  61.080  1.00  0.00    -0.550 OA
ATOM      6  O   UNL     1      65.557  35.028  61.901  1.00  0.00    -0.550 OA
ENDBRANCH   3   4
ENDBRANCH   2   3
ENDBRANCH   1   2
BRANCH   1   7
ATOM      7  C   UNL     1      64.774  29.730  61.265  1.00  0.00     0.000 C 
BRANCH   7   8
ATOM      8  C   UNL     1      63.742  28.650  60.901  1.00  0.00     0.004 C 
BRANCH   8   9
ATOM      9  C   UNL     1      62.325  29.001  61.380  1.00  0.00     0.027 C 
BRANCH   9  10
ATOM     10  C   UNL     1      61.354  29.024  60.232  1.00  0.00    -0.035 C 
ATOM     11  C   UNL     1      61.228  30.092  59.437  1.00  0.00     0.004 C 
ENDBRANCH   9  10
ENDBRANCH   8   9
ENDBRANCH   7   8
ENDBRANCH   1   7
TORSDOF 7
ENDMDL
MODEL 8
REMARK VINA RESULT:    -2.965      3.255      5.560
REMARK INTER + INTRA:          -4.509
REMARK INTER:                  -4.172
REMARK INTRA:                  -0.337
REMARK UNBOUND:                -0.331
REMARK SMILES C=CCCCCCCC(=O)[O-]
REMARK SMILES IDX 6 1 7 2 8 3 9 4 10 5 11 6 5 7 4 8 3 9 2 10 1 11
REMARK H PARENT
REMARK Flexibility Score: inf
ROOT
ATOM      1  C   UNL     1      63.899  32.384  58.762  1.00  0.00     0.000 C 
ENDROOT
BRANCH   1   2
ATOM      2  C   UNL     1      63.722  33.630  59.642  1.00  0.00     0.006 C 
BRANCH   2   3
ATOM      3  C   UNL     1      64.920  33.861  60.572  1.00  0.00     0.053 C 
BRANCH   3   4
ATOM      4  C   UNL     1      64.682  35.006  61.508  1.00  0.00     0.041 C 
ATOM      5  O   UNL     1      65.609  35.419  62.253  1.00  0.00    -0.550 OA
ATOM      6  O   UNL     1      63.445  35.635  61.536  1.00  0.00    -0.550 OA
ENDBRANCH   3   4
ENDBRANCH   2   3
ENDBRANCH   1   2
BRANCH   1   7
ATOM      7  C   UNL     1      63.470  31.116  59.513  1.00  0.00     0.000 C 
BRANCH   7   8
ATOM      8  C   UNL     1      64.667  30.299  60.027  1.00  0.00     0.004 C 
BRANCH   8   9
ATOM      9  C   UNL     1      64.404  29.665  61.400  1.00  0.00     0.027 C 
BRANCH   9  10
ATOM     10  C   UNL     1      63.026  29.065  61.466  1.00  0.00    -0.035 C 
ATOM     11  C   UNL     1      62.835  27.744  61.533  1.00  0.00     0.004 C 
ENDBRANCH   9  10
ENDBRANCH   8   9
ENDBRANCH   7   8
ENDBRANCH   1   7
TORSDOF 7
ENDMDL
MODEL 9
REMARK VINA RESULT:    -2.964      3.164      5.867
REMARK INTER + INTRA:          -4.508
REMARK INTER:                  -4.170
REMARK INTRA:                  -0.339
REMARK UNBOUND:                -0.331
REMARK SMILES C=CCCCCCCC(=O)[O-]
REMARK SMILES IDX 6 1 7 2 8 3 9 4 10 5 11 6 5 7 4 8 3 9 2 10 1 11
REMARK H PARENT
REMARK Flexibility Score: inf
ROOT
ATOM      1  C   UNL     1      64.553  32.218  59.836  1.00  0.00     0.000 C 
ENDROOT
BRANCH   1   2
ATOM      2  C   UNL     1      65.045  33.671  59.910  1.00  0.00     0.006 C 
BRANCH   2   3
ATOM      3  C   UNL     1      63.985  34.615  60.492  1.00  0.00     0.053 C 
BRANCH   3   4
ATOM      4  C   UNL     1      64.532  35.433  61.622  1.00  0.00     0.041 C 
ATOM      5  O   UNL     1      63.761  36.125  62.336  1.00  0.00    -0.550 OA
ATOM      6  O   UNL     1      65.891  35.404  61.906  1.00  0.00    -0.550 OA
ENDBRANCH   3   4
ENDBRANCH   2   3
ENDBRANCH   1   2
BRANCH   1   7
ATOM      7  C   UNL     1      65.119  31.386  60.996  1.00  0.00     0.000 C 
BRANCH   7   8
ATOM      8  C   UNL     1      64.330  30.089  61.234  1.00  0.00     0.004 C 
BRANCH   8   9
ATOM      9  C   UNL     1      65.140  28.832  60.882  1.00  0.00     0.027 C 
BRANCH   9  10
ATOM     10  C   UNL     1      66.584  29.170  60.633  1.00  0.00    -0.035 C 
ATOM     11  C   UNL     1      67.577  28.400  61.089  1.00  0.00     0.004 C 
ENDBRANCH   9  10
ENDBRANCH   8   9
ENDBRANCH   7   8
ENDBRANCH   1   7
TORSDOF 7
ENDMDL
