MODEL 1
REMARK VINA RESULT:    -5.193      0.000      0.000
REMARK INTER + INTRA:         -10.609
REMARK INTER:                  -9.444
REMARK INTRA:                  -1.165
REMARK UNBOUND:                -1.165
REMARK SMILES CCCCCCCCCCCCCC[C@@H](C)C(=O)[O-]
REMARK SMILES IDX 9 1 10 2 11 3 12 4 13 5 14 6 15 7 16 8 17 9 18 10 19 11 8 12
REMARK SMILES IDX 7 13 6 14 5 15 4 16 3 17 2 18 1 19
REMARK H PARENT
REMARK Flexibility Score: inf
ROOT
ATOM      1  C   UNL     1      27.623   2.593  29.340  1.00  0.00     0.000 C 
ENDROOT
BRANCH   1   2
ATOM      2  C   UNL     1      27.996   2.599  30.834  1.00  0.00     0.000 C 
BRANCH   2   3
ATOM      3  C   UNL     1      29.211   1.728  31.211  1.00  0.00     0.000 C 
BRANCH   3   4
ATOM      4  C   UNL     1      29.771   0.857  30.069  1.00  0.00     0.000 C 
BRANCH   4   5
ATOM      5  C   UNL     1      29.954  -0.633  30.417  1.00  0.00     0.001 C 
BRANCH   5   6
ATOM      6  C   UNL     1      28.877  -1.576  29.841  1.00  0.00     0.009 C 
BRANCH   6   7
ATOM      7  C   UNL     1      27.640  -1.762  30.749  1.00  0.00     0.032 C 
ATOM      8  C   UNL     1      26.502  -0.842  30.296  1.00  0.00     0.014 C 
BRANCH   7   9
ATOM      9  C   UNL     1      27.168  -3.190  30.750  1.00  0.00     0.044 C 
ATOM     10  O   UNL     1      28.003  -4.132  30.805  1.00  0.00    -0.550 OA
ATOM     11  O   UNL     1      25.810  -3.482  30.689  1.00  0.00    -0.550 OA
ENDBRANCH   7   9
ENDBRANCH   6   7
ENDBRANCH   5   6
ENDBRANCH   4   5
ENDBRANCH   3   4
ENDBRANCH   2   3
ENDBRANCH   1   2
BRANCH   1  12
ATOM     12  C   UNL     1      27.353   4.002  28.786  1.00  0.00     0.000 C 
BRANCH  12  13
ATOM     13  C   UNL     1      27.822   5.119  29.737  1.00  0.00    -0.000 C 
BRANCH  13  14
ATOM     14  C   UNL     1      26.855   6.313  29.880  1.00  0.00    -0.000 C 
BRANCH  14  15
ATOM     15  C   UNL     1      27.183   7.285  31.027  1.00  0.00    -0.000 C 
BRANCH  15  16
ATOM     16  C   UNL     1      26.779   8.734  30.714  1.00  0.00    -0.000 C 
BRANCH  16  17
ATOM     17  C   UNL     1      28.010   9.589  30.391  1.00  0.00    -0.000 C 
BRANCH  17  18
ATOM     18  C   UNL     1      28.494   9.338  28.958  1.00  0.00    -0.003 C 
ATOM     19  C   UNL     1      28.306  10.578  28.088  1.00  0.00     0.004 C 
ENDBRANCH  17  18
ENDBRANCH  16  17
ENDBRANCH  15  16
ENDBRANCH  14  15
ENDBRANCH  13  14
ENDBRANCH  12  13
ENDBRANCH   1  12
TORSDOF 14
ENDMDL
MODEL 2
REMARK VINA RESULT:    -5.172      1.512      2.445
REMARK INTER + INTRA:         -10.569
REMARK INTER:                  -9.520
REMARK INTRA:                  -1.049
REMARK UNBOUND:                -1.165
REMARK SMILES CCCCCCCCCCCCCC[C@@H](C)C(=O)[O-]
REMARK SMILES IDX 9 1 10 2 11 3 12 4 13 5 14 6 15 7 16 8 17 9 18 10 19 11 8 12
REMARK SMILES IDX 7 13 6 14 5 15 4 16 3 17 2 18 1 19
REMARK H PARENT
REMARK Flexibility Score: inf
ROOT
ATOM      1  C   UNL     1      27.656   2.693  29.369  1.00  0.00     0.000 C 
ENDROOT
BRANCH   1   2
ATOM      2  C   UNL     1      26.857   1.445  28.950  1.00  0.00     0.000 C 
BRANCH   2   3
ATOM      3  C   UNL     1      26.256   0.629  30.112  1.00  0.00     0.000 C 
BRANCH   3   4
ATOM      4  C   UNL     1      27.017   0.736  31.448  1.00  0.00     0.000 C 
BRANCH   4   5
ATOM      5  C   UNL     1      27.902  -0.479  31.791  1.00  0.00     0.001 C 
BRANCH   5   6
ATOM      6  C   UNL     1      27.879  -1.618  30.751  1.00  0.00     0.009 C 
BRANCH   6   7
ATOM      7  C   UNL     1      29.098  -1.641  29.801  1.00  0.00     0.032 C 
ATOM      8  C   UNL     1      30.097  -0.546  30.188  1.00  0.00     0.014 C 
BRANCH   7   9
ATOM      9  C   UNL     1      29.782  -2.980  29.816  1.00  0.00     0.044 C 
ATOM     10  O   UNL     1      31.026  -3.052  29.998  1.00  0.00    -0.550 OA
ATOM     11  O   UNL     1      29.050  -4.146  29.628  1.00  0.00    -0.550 OA
ENDBRANCH   7   9
ENDBRANCH   6   7
ENDBRANCH   5   6
ENDBRANCH   4   5
ENDBRANCH   3   4
ENDBRANCH   2   3
ENDBRANCH   1   2
BRANCH   1  12
ATOM     12  C   UNL     1      27.138   3.983  28.711  1.00  0.00     0.000 C 
BRANCH  12  13
ATOM     13  C   UNL     1      27.860   5.245  29.216  1.00  0.00    -0.000 C 
BRANCH  13  14
ATOM     14  C   UNL     1      27.560   5.637  30.678  1.00  0.00    -0.000 C 
BRANCH  14  15
ATOM     15  C   UNL     1      27.173   7.111  30.893  1.00  0.00    -0.000 C 
BRANCH  15  16
ATOM     16  C   UNL     1      27.920   8.067  29.950  1.00  0.00    -0.000 C 
BRANCH  16  17
ATOM     17  C   UNL     1      27.849   9.509  30.463  1.00  0.00    -0.000 C 
BRANCH  17  18
ATOM     18  C   UNL     1      26.406   9.904  30.797  1.00  0.00    -0.003 C 
ATOM     19  C   UNL     1      26.348  10.778  32.048  1.00  0.00     0.004 C 
ENDBRANCH  17  18
ENDBRANCH  16  17
ENDBRANCH  15  16
ENDBRANCH  14  15
ENDBRANCH  13  14
ENDBRANCH  12  13
ENDBRANCH   1  12
TORSDOF 14
ENDMDL
MODEL 3
REMARK VINA RESULT:    -5.170      4.793      9.367
REMARK INTER + INTRA:         -10.567
REMARK INTER:                  -9.226
REMARK INTRA:                  -1.341
REMARK UNBOUND:                -1.165
REMARK SMILES CCCCCCCCCCCCCC[C@@H](C)C(=O)[O-]
REMARK SMILES IDX 9 1 10 2 11 3 12 4 13 5 14 6 15 7 16 8 17 9 18 10 19 11 8 12
REMARK SMILES IDX 7 13 6 14 5 15 4 16 3 17 2 18 1 19
REMARK H PARENT
REMARK Flexibility Score: inf
ROOT
ATOM      1  C   UNL     1      27.940   3.034  31.095  1.00  0.00     0.000 C 
ENDROOT
BRANCH   1   2
ATOM      2  C   UNL     1      27.795   3.443  29.617  1.00  0.00     0.000 C 
BRANCH   2   3
ATOM      3  C   UNL     1      27.519   4.940  29.373  1.00  0.00     0.000 C 
BRANCH   3   4
ATOM      4  C   UNL     1      28.092   5.892  30.442  1.00  0.00     0.000 C 
BRANCH   4   5
ATOM      5  C   UNL     1      28.084   7.384  30.054  1.00  0.00     0.001 C 
BRANCH   5   6
ATOM      6  C   UNL     1      27.019   8.240  30.771  1.00  0.00     0.009 C 
BRANCH   6   7
ATOM      7  C   UNL     1      26.679   9.567  30.057  1.00  0.00     0.032 C 
ATOM      8  C   UNL     1      25.841  10.467  30.971  1.00  0.00     0.014 C 
BRANCH   7   9
ATOM      9  C   UNL     1      27.923  10.296  29.631  1.00  0.00     0.044 C 
ATOM     10  O   UNL     1      28.647  10.867  30.489  1.00  0.00    -0.550 OA
ATOM     11  O   UNL     1      28.284  10.347  28.289  1.00  0.00    -0.550 OA
ENDBRANCH   7   9
ENDBRANCH   6   7
ENDBRANCH   5   6
ENDBRANCH   4   5
ENDBRANCH   3   4
ENDBRANCH   2   3
ENDBRANCH   1   2
BRANCH   1  12
ATOM     12  C   UNL     1      29.130   2.091  31.340  1.00  0.00     0.000 C 
BRANCH  12  13
ATOM     13  C   UNL     1      29.527   1.291  30.086  1.00  0.00    -0.000 C 
BRANCH  13  14
ATOM     14  C   UNL     1      30.101  -0.116  30.354  1.00  0.00    -0.000 C 
BRANCH  14  15
ATOM     15  C   UNL     1      29.094  -1.271  30.209  1.00  0.00    -0.000 C 
BRANCH  15  16
ATOM     16  C   UNL     1      27.877  -1.121  31.134  1.00  0.00    -0.000 C 
BRANCH  16  17
ATOM     17  C   UNL     1      26.569  -1.255  30.346  1.00  0.00    -0.000 C 
BRANCH  17  18
ATOM     18  C   UNL     1      26.001   0.121  29.984  1.00  0.00    -0.003 C 
ATOM     19  C   UNL     1      26.294   0.474  28.528  1.00  0.00     0.004 C 
ENDBRANCH  17  18
ENDBRANCH  16  17
ENDBRANCH  15  16
ENDBRANCH  14  15
ENDBRANCH  13  14
ENDBRANCH  12  13
ENDBRANCH   1  12
TORSDOF 14
ENDMDL
MODEL 4
REMARK VINA RESULT:    -5.135      4.770      9.281
REMARK INTER + INTRA:         -10.503
REMARK INTER:                  -9.168
REMARK INTRA:                  -1.335
REMARK UNBOUND:                -1.165
REMARK SMILES CCCCCCCCCCCCCC[C@@H](C)C(=O)[O-]
REMARK SMILES IDX 9 1 10 2 11 3 12 4 13 5 14 6 15 7 16 8 17 9 18 10 19 11 8 12
REMARK SMILES IDX 7 13 6 14 5 15 4 16 3 17 2 18 1 19
REMARK H PARENT
REMARK Flexibility Score: inf
ROOT
ATOM      1  C   UNL     1      27.535   3.420  29.225  1.00  0.00     0.000 C 
ENDROOT
BRANCH   1   2
ATOM      2  C   UNL     1      27.980   3.802  30.649  1.00  0.00     0.000 C 
BRANCH   2   3
ATOM      3  C   UNL     1      27.726   5.270  31.046  1.00  0.00     0.000 C 
BRANCH   3   4
ATOM      4  C   UNL     1      27.361   6.209  29.878  1.00  0.00     0.000 C 
BRANCH   4   5
ATOM      5  C   UNL     1      26.955   7.636  30.294  1.00  0.00     0.001 C 
BRANCH   5   6
ATOM      6  C   UNL     1      28.130   8.580  30.624  1.00  0.00     0.009 C 
BRANCH   6   7
ATOM      7  C   UNL     1      27.815  10.081  30.435  1.00  0.00     0.032 C 
ATOM      8  C   UNL     1      27.611  10.401  28.951  1.00  0.00     0.014 C 
BRANCH   7   9
ATOM      9  C   UNL     1      26.596  10.490  31.214  1.00  0.00     0.044 C 
ATOM     10  O   UNL     1      26.571  10.357  32.466  1.00  0.00    -0.550 OA
ATOM     11  O   UNL     1      25.488  11.018  30.561  1.00  0.00    -0.550 OA
ENDBRANCH   7   9
ENDBRANCH   6   7
ENDBRANCH   5   6
ENDBRANCH   4   5
ENDBRANCH   3   4
ENDBRANCH   2   3
ENDBRANCH   1   2
BRANCH   1  12
ATOM     12  C   UNL     1      27.820   1.948  28.885  1.00  0.00     0.000 C 
BRANCH  12  13
ATOM     13  C   UNL     1      26.541   1.094  28.804  1.00  0.00    -0.000 C 
BRANCH  13  14
ATOM     14  C   UNL     1      26.115   0.417  30.123  1.00  0.00    -0.000 C 
BRANCH  14  15
ATOM     15  C   UNL     1      26.641  -1.016  30.322  1.00  0.00    -0.000 C 
BRANCH  15  16
ATOM     16  C   UNL     1      28.039  -1.054  30.958  1.00  0.00    -0.000 C 
BRANCH  16  17
ATOM     17  C   UNL     1      28.223   0.103  31.946  1.00  0.00    -0.000 C 
BRANCH  17  18
ATOM     18  C   UNL     1      29.675   0.592  31.956  1.00  0.00    -0.003 C 
ATOM     19  C   UNL     1      30.360   0.318  30.620  1.00  0.00     0.004 C 
ENDBRANCH  17  18
ENDBRANCH  16  17
ENDBRANCH  15  16
ENDBRANCH  14  15
ENDBRANCH  13  14
ENDBRANCH  12  13
ENDBRANCH   1  12
TORSDOF 14
ENDMDL
MODEL 5
REMARK VINA RESULT:    -5.132      4.086     10.498
REMARK INTER + INTRA:         -10.497
REMARK INTER:                  -9.258
REMARK INTRA:                  -1.239
REMARK UNBOUND:                -1.165
REMARK SMILES CCCCCCCCCCCCCC[C@@H](C)C(=O)[O-]
REMARK SMILES IDX 9 1 10 2 11 3 12 4 13 5 14 6 15 7 16 8 17 9 18 10 19 11 8 12
REMARK SMILES IDX 7 13 6 14 5 15 4 16 3 17 2 18 1 19
REMARK H PARENT
REMARK Flexibility Score: inf
ROOT
ATOM      1  C   UNL     1      27.759  -1.742  31.034  1.00  0.00     0.000 C 
ENDROOT
BRANCH   1   2
ATOM      2  C   UNL     1      28.756  -1.393  29.913  1.00  0.00     0.000 C 
BRANCH   2   3
ATOM      3  C   UNL     1      30.041  -0.679  30.376  1.00  0.00     0.000 C 
BRANCH   3   4
ATOM      4  C   UNL     1      29.993   0.861  30.306  1.00  0.00     0.000 C 
BRANCH   4   5
ATOM      5  C   UNL     1      29.130   1.534  31.392  1.00  0.00     0.001 C 
BRANCH   5   6
ATOM      6  C   UNL     1      27.747   2.026  30.917  1.00  0.00     0.009 C 
BRANCH   6   7
ATOM      7  C   UNL     1      27.633   2.233  29.391  1.00  0.00     0.032 C 
ATOM      8  C   UNL     1      26.600   1.271  28.796  1.00  0.00     0.014 C 
BRANCH   7   9
ATOM      9  C   UNL     1      27.259   3.651  29.055  1.00  0.00     0.044 C 
ATOM     10  O   UNL     1      26.403   3.883  28.160  1.00  0.00    -0.550 OA
ATOM     11  O   UNL     1      27.852   4.713  29.726  1.00  0.00    -0.550 OA
ENDBRANCH   7   9
ENDBRANCH   6   7
ENDBRANCH   5   6
ENDBRANCH   4   5
ENDBRANCH   3   4
ENDBRANCH   2   3
ENDBRANCH   1   2
BRANCH   1  12
ATOM     12  C   UNL     1      26.929  -2.999  30.725  1.00  0.00     0.000 C 
BRANCH  12  13
ATOM     13  C   UNL     1      27.644  -4.302  31.124  1.00  0.00    -0.000 C 
BRANCH  13  14
ATOM     14  C   UNL     1      27.758  -5.362  30.008  1.00  0.00    -0.000 C 
BRANCH  14  15
ATOM     15  C   UNL     1      29.003  -6.263  30.087  1.00  0.00    -0.000 C 
BRANCH  15  16
ATOM     16  C   UNL     1      28.863  -7.547  29.255  1.00  0.00    -0.000 C 
BRANCH  16  17
ATOM     17  C   UNL     1      28.290  -8.688  30.103  1.00  0.00    -0.000 C 
BRANCH  17  18
ATOM     18  C   UNL     1      29.102  -8.882  31.388  1.00  0.00    -0.003 C 
ATOM     19  C   UNL     1      28.225  -8.720  32.626  1.00  0.00     0.004 C 
ENDBRANCH  17  18
ENDBRANCH  16  17
ENDBRANCH  15  16
ENDBRANCH  14  15
ENDBRANCH  13  14
ENDBRANCH  12  13
ENDBRANCH   1  12
TORSDOF 14
ENDMDL
MODEL 6
REMARK VINA RESULT:    -5.119      4.089      9.678
REMARK INTER + INTRA:         -10.474
REMARK INTER:                  -9.216
REMARK INTRA:                  -1.258
REMARK UNBOUND:                -1.165
REMARK SMILES CCCCCCCCCCCCCC[C@@H](C)C(=O)[O-]
REMARK SMILES IDX 9 1 10 2 11 3 12 4 13 5 14 6 15 7 16 8 17 9 18 10 19 11 8 12
REMARK SMILES IDX 7 13 6 14 5 15 4 16 3 17 2 18 1 19
REMARK H PARENT
REMARK Flexibility Score: inf
ROOT
ATOM      1  C   UNL     1      27.889  -0.187  31.876  1.00  0.00     0.000 C 
ENDROOT
BRANCH   1   2
ATOM      2  C   UNL     1      26.930   0.859  31.279  1.00  0.00     0.000 C 
BRANCH   2   3
ATOM      3  C   UNL     1      26.531   0.621  29.809  1.00  0.00     0.000 C 
BRANCH   3   4
ATOM      4  C   UNL     1      26.882   1.770  28.843  1.00  0.00     0.000 C 
BRANCH   4   5
ATOM      5  C   UNL     1      27.871   2.811  29.403  1.00  0.00     0.001 C 
BRANCH   5   6
ATOM      6  C   UNL     1      27.476   4.283  29.165  1.00  0.00     0.009 C 
BRANCH   6   7
ATOM      7  C   UNL     1      27.255   5.102  30.456  1.00  0.00     0.032 C 
ATOM      8  C   UNL     1      28.121   4.551  31.593  1.00  0.00     0.014 C 
BRANCH   7   9
ATOM      9  C   UNL     1      27.565   6.558  30.244  1.00  0.00     0.044 C 
ATOM     10  O   UNL     1      28.369   6.908  29.339  1.00  0.00    -0.550 OA
ATOM     11  O   UNL     1      26.969   7.528  31.042  1.00  0.00    -0.550 OA
ENDBRANCH   7   9
ENDBRANCH   6   7
ENDBRANCH   5   6
ENDBRANCH   4   5
ENDBRANCH   3   4
ENDBRANCH   2   3
ENDBRANCH   1   2
BRANCH   1  12
ATOM     12  C   UNL     1      29.367   0.126  31.589  1.00  0.00     0.000 C 
BRANCH  12  13
ATOM     13  C   UNL     1      29.911  -0.629  30.363  1.00  0.00    -0.000 C 
BRANCH  13  14
ATOM     14  C   UNL     1      29.126  -1.896  29.965  1.00  0.00    -0.000 C 
BRANCH  14  15
ATOM     15  C   UNL     1      29.984  -3.156  29.752  1.00  0.00    -0.000 C 
BRANCH  15  16
ATOM     16  C   UNL     1      29.142  -4.407  29.456  1.00  0.00    -0.000 C 
BRANCH  16  17
ATOM     17  C   UNL     1      29.253  -5.424  30.597  1.00  0.00    -0.000 C 
BRANCH  17  18
ATOM     18  C   UNL     1      28.271  -6.584  30.397  1.00  0.00    -0.003 C 
ATOM     19  C   UNL     1      29.004  -7.871  30.028  1.00  0.00     0.004 C 
ENDBRANCH  17  18
ENDBRANCH  16  17
ENDBRANCH  15  16
ENDBRANCH  14  15
ENDBRANCH  13  14
ENDBRANCH  12  13
ENDBRANCH   1  12
TORSDOF 14
ENDMDL
MODEL 7
REMARK VINA RESULT:    -5.044      1.931      3.036
REMARK INTER + INTRA:         -10.337
REMARK INTER:                  -9.401
REMARK INTRA:                  -0.936
REMARK UNBOUND:                -1.165
REMARK SMILES CCCCCCCCCCCCCC[C@@H](C)C(=O)[O-]
REMARK SMILES IDX 9 1 10 2 11 3 12 4 13 5 14 6 15 7 16 8 17 9 18 10 19 11 8 12
REMARK SMILES IDX 7 13 6 14 5 15 4 16 3 17 2 18 1 19
REMARK H PARENT
REMARK Flexibility Score: inf
ROOT
ATOM      1  C   UNL     1      27.603   4.874  30.670  1.00  0.00     0.000 C 
ENDROOT
BRANCH   1   2
ATOM      2  C   UNL     1      27.623   4.139  29.317  1.00  0.00     0.000 C 
BRANCH   2   3
ATOM      3  C   UNL     1      27.920   2.629  29.393  1.00  0.00     0.000 C 
BRANCH   3   4
ATOM      4  C   UNL     1      26.820   1.716  28.814  1.00  0.00     0.000 C 
BRANCH   4   5
ATOM      5  C   UNL     1      26.402   0.544  29.724  1.00  0.00     0.001 C 
BRANCH   5   6
ATOM      6  C   UNL     1      26.890   0.644  31.184  1.00  0.00     0.009 C 
BRANCH   6   7
ATOM      7  C   UNL     1      27.875  -0.468  31.606  1.00  0.00     0.032 C 
ATOM      8  C   UNL     1      27.607  -1.750  30.810  1.00  0.00     0.014 C 
BRANCH   7   9
ATOM      9  C   UNL     1      29.304  -0.041  31.410  1.00  0.00     0.044 C 
ATOM     10  O   UNL     1      29.827   0.794  32.195  1.00  0.00    -0.550 OA
ATOM     11  O   UNL     1      30.057  -0.563  30.365  1.00  0.00    -0.550 OA
ENDBRANCH   7   9
ENDBRANCH   6   7
ENDBRANCH   5   6
ENDBRANCH   4   5
ENDBRANCH   3   4
ENDBRANCH   2   3
ENDBRANCH   1   2
BRANCH   1  12
ATOM     12  C   UNL     1      28.385   6.198  30.643  1.00  0.00     0.000 C 
BRANCH  12  13
ATOM     13  C   UNL     1      27.632   7.323  29.911  1.00  0.00    -0.000 C 
BRANCH  13  14
ATOM     14  C   UNL     1      26.914   8.340  30.823  1.00  0.00    -0.000 C 
BRANCH  14  15
ATOM     15  C   UNL     1      27.546   9.742  30.862  1.00  0.00    -0.000 C 
BRANCH  15  16
ATOM     16  C   UNL     1      28.494  10.002  29.682  1.00  0.00    -0.000 C 
BRANCH  16  17
ATOM     17  C   UNL     1      27.878  10.998  28.693  1.00  0.00    -0.000 C 
BRANCH  17  18
ATOM     18  C   UNL     1      28.395  10.753  27.271  1.00  0.00    -0.003 C 
ATOM     19  C   UNL     1      27.342  11.125  26.230  1.00  0.00     0.004 C 
ENDBRANCH  17  18
ENDBRANCH  16  17
ENDBRANCH  15  16
ENDBRANCH  14  15
ENDBRANCH  13  14
ENDBRANCH  12  13
ENDBRANCH   1  12
TORSDOF 14
ENDMDL
MODEL 8
REMARK VINA RESULT:    -5.034      2.409      3.679
REMARK INTER + INTRA:         -10.318
REMARK INTER:                  -9.469
REMARK INTRA:                  -0.849
REMARK UNBOUND:                -1.165
REMARK SMILES CCCCCCCCCCCCCC[C@@H](C)C(=O)[O-]
REMARK SMILES IDX 9 1 10 2 11 3 12 4 13 5 14 6 15 7 16 8 17 9 18 10 19 11 8 12
REMARK SMILES IDX 7 13 6 14 5 15 4 16 3 17 2 18 1 19
REMARK H PARENT
REMARK Flexibility Score: inf
ROOT
ATOM      1  C   UNL     1      27.226   5.426  30.112  1.00  0.00     0.000 C 
ENDROOT
BRANCH   1   2
ATOM      2  C   UNL     1      27.520   4.331  29.069  1.00  0.00     0.000 C 
BRANCH   2   3
ATOM      3  C   UNL     1      27.810   2.932  29.648  1.00  0.00     0.000 C 
BRANCH   3   4
ATOM      4  C   UNL     1      27.096   1.768  28.932  1.00  0.00     0.000 C 
BRANCH   4   5
ATOM      5  C   UNL     1      26.428   0.741  29.867  1.00  0.00     0.001 C 
BRANCH   5   6
ATOM      6  C   UNL     1      26.956   0.737  31.317  1.00  0.00     0.009 C 
BRANCH   6   7
ATOM      7  C   UNL     1      27.956  -0.399  31.629  1.00  0.00     0.032 C 
ATOM      8  C   UNL     1      27.627  -1.643  30.797  1.00  0.00     0.014 C 
BRANCH   7   9
ATOM      9  C   UNL     1      29.374   0.027  31.366  1.00  0.00     0.044 C 
ATOM     10  O   UNL     1      29.922  -0.246  30.265  1.00  0.00    -0.550 OA
ATOM     11  O   UNL     1      30.090   0.724  32.332  1.00  0.00    -0.550 OA
ENDBRANCH   7   9
ENDBRANCH   6   7
ENDBRANCH   5   6
ENDBRANCH   4   5
ENDBRANCH   3   4
ENDBRANCH   2   3
ENDBRANCH   1   2
BRANCH   1  12
ATOM     12  C   UNL     1      28.177   6.629  29.999  1.00  0.00     0.000 C 
BRANCH  12  13
ATOM     13  C   UNL     1      27.456   7.979  30.169  1.00  0.00    -0.000 C 
BRANCH  13  14
ATOM     14  C   UNL     1      28.207   9.204  29.606  1.00  0.00    -0.000 C 
BRANCH  14  15
ATOM     15  C   UNL     1      27.499  10.555  29.809  1.00  0.00    -0.000 C 
BRANCH  15  16
ATOM     16  C   UNL     1      26.467  10.521  30.947  1.00  0.00    -0.000 C 
BRANCH  16  17
ATOM     17  C   UNL     1      27.051  11.116  32.233  1.00  0.00    -0.000 C 
BRANCH  17  18
ATOM     18  C   UNL     1      26.337  10.560  33.470  1.00  0.00    -0.003 C 
ATOM     19  C   UNL     1      27.034  11.000  34.755  1.00  0.00     0.004 C 
ENDBRANCH  17  18
ENDBRANCH  16  17
ENDBRANCH  15  16
ENDBRANCH  14  15
ENDBRANCH  13  14
ENDBRANCH  12  13
ENDBRANCH   1  12
TORSDOF 14
ENDMDL
MODEL 9
REMARK VINA RESULT:    -4.986      2.281      3.301
REMARK INTER + INTRA:         -10.232
REMARK INTER:                  -9.495
REMARK INTRA:                  -0.736
REMARK UNBOUND:                -1.165
REMARK SMILES CCCCCCCCCCCCCC[C@@H](C)C(=O)[O-]
REMARK SMILES IDX 9 1 10 2 11 3 12 4 13 5 14 6 15 7 16 8 17 9 18 10 19 11 8 12
REMARK SMILES IDX 7 13 6 14 5 15 4 16 3 17 2 18 1 19
REMARK H PARENT
REMARK Flexibility Score: inf
ROOT
ATOM      1  C   UNL     1      27.609   5.006  31.260  1.00  0.00     0.000 C 
ENDROOT
BRANCH   1   2
ATOM      2  C   UNL     1      28.580   4.002  31.908  1.00  0.00     0.000 C 
BRANCH   2   3
ATOM      3  C   UNL     1      28.390   2.533  31.478  1.00  0.00     0.000 C 
BRANCH   3   4
ATOM      4  C   UNL     1      29.531   1.581  31.887  1.00  0.00     0.000 C 
BRANCH   4   5
ATOM      5  C   UNL     1      29.649   0.303  31.031  1.00  0.00     0.001 C 
BRANCH   5   6
ATOM      6  C   UNL     1      29.018   0.397  29.627  1.00  0.00     0.009 C 
BRANCH   6   7
ATOM      7  C   UNL     1      27.803  -0.532  29.410  1.00  0.00     0.032 C 
ATOM      8  C   UNL     1      27.653  -1.500  30.588  1.00  0.00     0.014 C 
BRANCH   7   9
ATOM      9  C   UNL     1      26.533   0.255  29.236  1.00  0.00     0.044 C 
ATOM     10  O   UNL     1      26.351   0.940  28.195  1.00  0.00    -0.550 OA
ATOM     11  O   UNL     1      25.552   0.233  30.221  1.00  0.00    -0.550 OA
ENDBRANCH   7   9
ENDBRANCH   6   7
ENDBRANCH   5   6
ENDBRANCH   4   5
ENDBRANCH   3   4
ENDBRANCH   2   3
ENDBRANCH   1   2
BRANCH   1  12
ATOM     12  C   UNL     1      28.321   6.248  30.697  1.00  0.00     0.000 C 
BRANCH  12  13
ATOM     13  C   UNL     1      27.341   7.344  30.242  1.00  0.00    -0.000 C 
BRANCH  13  14
ATOM     14  C   UNL     1      27.996   8.623  29.679  1.00  0.00    -0.000 C 
BRANCH  14  15
ATOM     15  C   UNL     1      27.727   9.905  30.487  1.00  0.00    -0.000 C 
BRANCH  15  16
ATOM     16  C   UNL     1      26.312   9.946  31.086  1.00  0.00    -0.000 C 
BRANCH  16  17
ATOM     17  C   UNL     1      26.347   9.667  32.593  1.00  0.00    -0.000 C 
BRANCH  17  18
ATOM     18  C   UNL     1      26.551  10.962  33.387  1.00  0.00    -0.003 C 
ATOM     19  C   UNL     1      26.432  10.713  34.889  1.00  0.00     0.004 C 
ENDBRANCH  17  18
ENDBRANCH  16  17
ENDBRANCH  15  16
ENDBRANCH  14  15
ENDBRANCH  13  14
ENDBRANCH  12  13
ENDBRANCH   1  12
TORSDOF 14
ENDMDL
