MODEL 1
REMARK VINA RESULT:    -5.390      0.000      0.000
REMARK INTER + INTRA:          -5.390
REMARK INTER:                  -5.390
REMARK INTRA:                   0.000
REMARK UNBOUND:                 0.000
REMARK SMILES O=c1ccc2ccccc2o1
REMARK SMILES IDX 7 1 8 2 9 3 10 4 5 5 6 6 4 7 3 8 2 9 1 10 11 11
REMARK H PARENT
REMARK Flexibility Score: inf
ROOT
ATOM      1  C   UNL     1      40.165  25.266  20.394  1.00  0.00     0.001 A 
ATOM      2  C   UNL     1      38.874  25.093  20.906  1.00  0.00     0.004 A 
ATOM      3  C   UNL     1      38.388  25.956  21.894  1.00  0.00     0.048 A 
ATOM      4  C   UNL     1      39.192  26.996  22.374  1.00  0.00     0.138 A 
ATOM      5  C   UNL     1      40.496  27.171  21.856  1.00  0.00     0.018 A 
ATOM      6  C   UNL     1      40.977  26.302  20.866  1.00  0.00     0.012 A 
ATOM      7  C   UNL     1      41.276  28.219  22.354  1.00  0.00     0.019 A 
ATOM      8  C   UNL     1      40.750  29.055  23.340  1.00  0.00     0.094 A 
ATOM      9  C   UNL     1      39.451  28.822  23.804  1.00  0.00     0.336 A 
ATOM     10  O   UNL     1      38.958  29.566  24.693  1.00  0.00    -0.246 OA
ATOM     11  O   UNL     1      38.729  27.818  23.313  1.00  0.00    -0.423 OA
ENDROOT
TORSDOF 0
ENDMDL
MODEL 2
REMARK VINA RESULT:    -5.257     11.051     12.128
REMARK INTER + INTRA:          -5.257
REMARK INTER:                  -5.257
REMARK INTRA:                   0.000
REMARK UNBOUND:                 0.000
REMARK SMILES O=c1ccc2ccccc2o1
REMARK SMILES IDX 7 1 8 2 9 3 10 4 5 5 6 6 4 7 3 8 2 9 1 10 11 11
REMARK H PARENT
REMARK Flexibility Score: inf
ROOT
ATOM      1  C   UNL     1      29.073  30.287  17.317  1.00  0.00     0.001 A 
ATOM      2  C   UNL     1      29.455  30.183  18.659  1.00  0.00     0.004 A 
ATOM      3  C   UNL     1      29.556  28.927  19.267  1.00  0.00     0.048 A 
ATOM      4  C   UNL     1      29.274  27.769  18.533  1.00  0.00     0.138 A 
ATOM      5  C   UNL     1      28.888  27.874  17.177  1.00  0.00     0.018 A 
ATOM      6  C   UNL     1      28.790  29.136  16.574  1.00  0.00     0.012 A 
ATOM      7  C   UNL     1      28.613  26.700  16.470  1.00  0.00     0.019 A 
ATOM      8  C   UNL     1      28.726  25.469  17.117  1.00  0.00     0.094 A 
ATOM      9  C   UNL     1      29.113  25.442  18.461  1.00  0.00     0.336 A 
ATOM     10  O   UNL     1      29.221  24.341  19.062  1.00  0.00    -0.246 OA
ATOM     11  O   UNL     1      29.370  26.574  19.112  1.00  0.00    -0.423 OA
ENDROOT
TORSDOF 0
ENDMDL
MODEL 3
REMARK VINA RESULT:    -5.175     10.907     11.769
REMARK INTER + INTRA:          -5.175
REMARK INTER:                  -5.175
REMARK INTRA:                   0.000
REMARK UNBOUND:                 0.000
REMARK SMILES O=c1ccc2ccccc2o1
REMARK SMILES IDX 7 1 8 2 9 3 10 4 5 5 6 6 4 7 3 8 2 9 1 10 11 11
REMARK H PARENT
REMARK Flexibility Score: inf
ROOT
ATOM      1  C   UNL     1      28.636  27.203  17.624  1.00  0.00     0.001 A 
ATOM      2  C   UNL     1      29.149  27.344  18.919  1.00  0.00     0.004 A 
ATOM      3  C   UNL     1      29.589  28.593  19.370  1.00  0.00     0.048 A 
ATOM      4  C   UNL     1      29.518  29.707  18.526  1.00  0.00     0.138 A 
ATOM      5  C   UNL     1      29.000  29.565  17.218  1.00  0.00     0.018 A 
ATOM      6  C   UNL     1      28.560  28.310  16.773  1.00  0.00     0.012 A 
ATOM      7  C   UNL     1      28.941  30.696  16.399  1.00  0.00     0.019 A 
ATOM      8  C   UNL     1      29.391  31.922  16.890  1.00  0.00     0.094 A 
ATOM      9  C   UNL     1      29.892  31.987  18.195  1.00  0.00     0.336 A 
ATOM     10  O   UNL     1      30.303  33.084  18.657  1.00  0.00    -0.246 OA
ATOM     11  O   UNL     1      29.937  30.895  18.955  1.00  0.00    -0.423 OA
ENDROOT
TORSDOF 0
ENDMDL
MODEL 4
REMARK VINA RESULT:    -5.164     11.340     12.547
REMARK INTER + INTRA:          -5.164
REMARK INTER:                  -5.164
REMARK INTRA:                   0.000
REMARK UNBOUND:                 0.000
REMARK SMILES O=c1ccc2ccccc2o1
REMARK SMILES IDX 7 1 8 2 9 3 10 4 5 5 6 6 4 7 3 8 2 9 1 10 11 11
REMARK H PARENT
REMARK Flexibility Score: inf
ROOT
ATOM      1  C   UNL     1      34.832  26.426  31.805  1.00  0.00     0.001 A 
ATOM      2  C   UNL     1      34.328  25.123  31.717  1.00  0.00     0.004 A 
ATOM      3  C   UNL     1      32.947  24.902  31.697  1.00  0.00     0.048 A 
ATOM      4  C   UNL     1      32.063  25.985  31.765  1.00  0.00     0.138 A 
ATOM      5  C   UNL     1      32.572  27.301  31.853  1.00  0.00     0.018 A 
ATOM      6  C   UNL     1      33.957  27.516  31.873  1.00  0.00     0.012 A 
ATOM      7  C   UNL     1      31.664  28.363  31.919  1.00  0.00     0.019 A 
ATOM      8  C   UNL     1      30.295  28.095  31.896  1.00  0.00     0.094 A 
ATOM      9  C   UNL     1      29.865  26.767  31.807  1.00  0.00     0.336 A 
ATOM     10  O   UNL     1      28.633  26.505  31.785  1.00  0.00    -0.246 OA
ATOM     11  O   UNL     1      30.749  25.774  31.745  1.00  0.00    -0.423 OA
ENDROOT
TORSDOF 0
ENDMDL
MODEL 5
REMARK VINA RESULT:    -5.079     11.286     11.811
REMARK INTER + INTRA:          -5.079
REMARK INTER:                  -5.079
REMARK INTRA:                   0.000
REMARK UNBOUND:                 0.000
REMARK SMILES O=c1ccc2ccccc2o1
REMARK SMILES IDX 7 1 8 2 9 3 10 4 5 5 6 6 4 7 3 8 2 9 1 10 11 11
REMARK H PARENT
REMARK Flexibility Score: inf
ROOT
ATOM      1  C   UNL     1      28.801  25.535  17.763  1.00  0.00     0.001 A 
ATOM      2  C   UNL     1      28.633  25.935  16.433  1.00  0.00     0.004 A 
ATOM      3  C   UNL     1      28.740  27.286  16.085  1.00  0.00     0.048 A 
ATOM      4  C   UNL     1      29.017  28.243  17.069  1.00  0.00     0.138 A 
ATOM      5  C   UNL     1      29.188  27.839  18.413  1.00  0.00     0.018 A 
ATOM      6  C   UNL     1      29.078  26.483  18.754  1.00  0.00     0.012 A 
ATOM      7  C   UNL     1      29.463  28.817  19.373  1.00  0.00     0.019 A 
ATOM      8  C   UNL     1      29.561  30.152  18.981  1.00  0.00     0.094 A 
ATOM      9  C   UNL     1      29.380  30.478  17.632  1.00  0.00     0.336 A 
ATOM     10  O   UNL     1      29.465  31.678  17.258  1.00  0.00    -0.246 OA
ATOM     11  O   UNL     1      29.119  29.528  16.738  1.00  0.00    -0.423 OA
ENDROOT
TORSDOF 0
ENDMDL
MODEL 6
REMARK VINA RESULT:    -4.937      1.762      3.877
REMARK INTER + INTRA:          -4.937
REMARK INTER:                  -4.937
REMARK INTRA:                   0.000
REMARK UNBOUND:                 0.000
REMARK SMILES O=c1ccc2ccccc2o1
REMARK SMILES IDX 7 1 8 2 9 3 10 4 5 5 6 6 4 7 3 8 2 9 1 10 11 11
REMARK H PARENT
REMARK Flexibility Score: inf
ROOT
ATOM      1  C   UNL     1      41.124  28.631  22.900  1.00  0.00     0.001 A 
ATOM      2  C   UNL     1      39.855  28.640  23.490  1.00  0.00     0.004 A 
ATOM      3  C   UNL     1      38.854  27.782  23.020  1.00  0.00     0.048 A 
ATOM      4  C   UNL     1      39.121  26.911  21.957  1.00  0.00     0.138 A 
ATOM      5  C   UNL     1      40.403  26.902  21.362  1.00  0.00     0.018 A 
ATOM      6  C   UNL     1      41.401  27.765  21.837  1.00  0.00     0.012 A 
ATOM      7  C   UNL     1      40.639  26.022  20.302  1.00  0.00     0.019 A 
ATOM      8  C   UNL     1      39.612  25.184  19.865  1.00  0.00     0.094 A 
ATOM      9  C   UNL     1      38.368  25.248  20.503  1.00  0.00     0.336 A 
ATOM     10  O   UNL     1      37.428  24.500  20.124  1.00  0.00    -0.246 OA
ATOM     11  O   UNL     1      38.169  26.095  21.510  1.00  0.00    -0.423 OA
ENDROOT
TORSDOF 0
ENDMDL
MODEL 7
REMARK VINA RESULT:    -4.924     12.307     13.817
REMARK INTER + INTRA:          -4.924
REMARK INTER:                  -4.924
REMARK INTRA:                   0.000
REMARK UNBOUND:                 0.000
REMARK SMILES O=c1ccc2ccccc2o1
REMARK SMILES IDX 7 1 8 2 9 3 10 4 5 5 6 6 4 7 3 8 2 9 1 10 11 11
REMARK H PARENT
REMARK Flexibility Score: inf
ROOT
ATOM      1  C   UNL     1      28.461  29.105  32.830  1.00  0.00     0.001 A 
ATOM      2  C   UNL     1      27.877  27.853  32.608  1.00  0.00     0.004 A 
ATOM      3  C   UNL     1      28.665  26.770  32.202  1.00  0.00     0.048 A 
ATOM      4  C   UNL     1      30.042  26.937  32.017  1.00  0.00     0.138 A 
ATOM      5  C   UNL     1      30.633  28.201  32.242  1.00  0.00     0.018 A 
ATOM      6  C   UNL     1      29.837  29.282  32.649  1.00  0.00     0.012 A 
ATOM      7  C   UNL     1      32.011  28.337  32.049  1.00  0.00     0.019 A 
ATOM      8  C   UNL     1      32.757  27.230  31.643  1.00  0.00     0.094 A 
ATOM      9  C   UNL     1      32.105  26.009  31.440  1.00  0.00     0.336 A 
ATOM     10  O   UNL     1      32.761  24.999  31.074  1.00  0.00    -0.246 OA
ATOM     11  O   UNL     1      30.792  25.907  31.631  1.00  0.00    -0.423 OA
ENDROOT
TORSDOF 0
ENDMDL
MODEL 8
REMARK VINA RESULT:    -4.901     10.898     12.142
REMARK INTER + INTRA:          -4.901
REMARK INTER:                  -4.901
REMARK INTRA:                   0.000
REMARK UNBOUND:                 0.000
REMARK SMILES O=c1ccc2ccccc2o1
REMARK SMILES IDX 7 1 8 2 9 3 10 4 5 5 6 6 4 7 3 8 2 9 1 10 11 11
REMARK H PARENT
REMARK Flexibility Score: inf
ROOT
ATOM      1  C   UNL     1      35.559  27.935  31.725  1.00  0.00     0.001 A 
ATOM      2  C   UNL     1      34.702  29.032  31.595  1.00  0.00     0.004 A 
ATOM      3  C   UNL     1      33.315  28.845  31.588  1.00  0.00     0.048 A 
ATOM      4  C   UNL     1      32.781  27.557  31.710  1.00  0.00     0.138 A 
ATOM      5  C   UNL     1      33.648  26.448  31.842  1.00  0.00     0.018 A 
ATOM      6  C   UNL     1      35.037  26.643  31.848  1.00  0.00     0.012 A 
ATOM      7  C   UNL     1      33.086  25.174  31.963  1.00  0.00     0.019 A 
ATOM      8  C   UNL     1      31.698  25.034  31.950  1.00  0.00     0.094 A 
ATOM      9  C   UNL     1      30.902  26.177  31.816  1.00  0.00     0.336 A 
ATOM     10  O   UNL     1      29.647  26.072  31.803  1.00  0.00    -0.246 OA
ATOM     11  O   UNL     1      31.462  27.379  31.703  1.00  0.00    -0.423 OA
ENDROOT
TORSDOF 0
ENDMDL
MODEL 9
REMARK VINA RESULT:    -4.852     11.604     12.998
REMARK INTER + INTRA:          -4.852
REMARK INTER:                  -4.852
REMARK INTRA:                   0.000
REMARK UNBOUND:                 0.000
REMARK SMILES O=c1ccc2ccccc2o1
REMARK SMILES IDX 7 1 8 2 9 3 10 4 5 5 6 6 4 7 3 8 2 9 1 10 11 11
REMARK H PARENT
REMARK Flexibility Score: inf
ROOT
ATOM      1  C   UNL     1      33.489  24.976  31.824  1.00  0.00     0.001 A 
ATOM      2  C   UNL     1      34.126  26.220  31.751  1.00  0.00     0.004 A 
ATOM      3  C   UNL     1      33.376  27.399  31.803  1.00  0.00     0.048 A 
ATOM      4  C   UNL     1      31.983  27.339  31.929  1.00  0.00     0.138 A 
ATOM      5  C   UNL     1      31.339  26.082  32.003  1.00  0.00     0.018 A 
ATOM      6  C   UNL     1      32.097  24.904  31.950  1.00  0.00     0.012 A 
ATOM      7  C   UNL     1      29.947  26.053  32.129  1.00  0.00     0.019 A 
ATOM      8  C   UNL     1      29.239  27.254  32.177  1.00  0.00     0.094 A 
ATOM      9  C   UNL     1      29.944  28.461  32.098  1.00  0.00     0.336 A 
ATOM     10  O   UNL     1      29.323  29.556  32.140  1.00  0.00    -0.246 OA
ATOM     11  O   UNL     1      31.269  28.461  31.979  1.00  0.00    -0.423 OA
ENDROOT
TORSDOF 0
ENDMDL
