MODEL 1
REMARK VINA RESULT:    -5.382      0.000      0.000
REMARK INTER + INTRA:          -5.382
REMARK INTER:                  -5.382
REMARK INTRA:                   0.000
REMARK UNBOUND:                 0.000
REMARK SMILES CC1=CC(=O)[C@@H]2C[C@H]1C2(C)C
REMARK SMILES IDX 1 1 2 2 3 3 4 4 5 5 6 6 7 7 8 8 9 9 10 10 11 11
REMARK H PARENT
REMARK Flexibility Score: inf
ROOT
ATOM      1  C   UNL     1       2.626   9.756  45.403  1.00  0.00     0.040 C 
ATOM      2  C   UNL     1       2.907  11.034  46.126  1.00  0.00    -0.066 C 
ATOM      3  C   UNL     1       1.994  12.044  46.163  1.00  0.00     0.047 C 
ATOM      4  C   UNL     1       2.382  13.261  46.946  1.00  0.00     0.159 C 
ATOM      5  O   UNL     1       1.609  14.245  47.086  1.00  0.00    -0.295 OA
ATOM      6  C   UNL     1       3.780  13.224  47.563  1.00  0.00     0.067 C 
ATOM      7  C   UNL     1       4.682  12.700  46.424  1.00  0.00     0.021 C 
ATOM      8  C   UNL     1       4.248  11.280  46.851  1.00  0.00     0.022 C 
ATOM      9  C   UNL     1       3.972  11.853  48.271  1.00  0.00    -0.019 C 
ATOM     10  C   UNL     1       2.781  11.267  49.081  1.00  0.00     0.012 C 
ATOM     11  C   UNL     1       5.232  11.826  49.173  1.00  0.00     0.012 C 
ENDROOT
TORSDOF 0
ENDMDL
MODEL 2
REMARK VINA RESULT:    -4.927      1.651      3.464
REMARK INTER + INTRA:          -4.927
REMARK INTER:                  -4.927
REMARK INTRA:                   0.000
REMARK UNBOUND:                 0.000
REMARK SMILES CC1=CC(=O)[C@@H]2C[C@H]1C2(C)C
REMARK SMILES IDX 1 1 2 2 3 3 4 4 5 5 6 6 7 7 8 8 9 9 10 10 11 11
REMARK H PARENT
REMARK Flexibility Score: inf
ROOT
ATOM      1  C   UNL     1       5.919  13.620  47.043  1.00  0.00     0.040 C 
ATOM      2  C   UNL     1       4.754  12.733  47.345  1.00  0.00    -0.066 C 
ATOM      3  C   UNL     1       4.469  12.347  48.620  1.00  0.00     0.047 C 
ATOM      4  C   UNL     1       3.257  11.482  48.795  1.00  0.00     0.159 C 
ATOM      5  O   UNL     1       2.868  11.092  49.927  1.00  0.00    -0.295 OA
ATOM      6  C   UNL     1       2.527  11.108  47.505  1.00  0.00     0.067 C 
ATOM      7  C   UNL     1       3.658  10.692  46.539  1.00  0.00     0.021 C 
ATOM      8  C   UNL     1       3.830  12.197  46.231  1.00  0.00     0.022 C 
ATOM      9  C   UNL     1       2.345  12.394  46.650  1.00  0.00    -0.019 C 
ATOM     10  C   UNL     1       1.954  13.714  47.375  1.00  0.00     0.012 C 
ATOM     11  C   UNL     1       1.365  12.181  45.468  1.00  0.00     0.012 C 
ENDROOT
TORSDOF 0
ENDMDL
MODEL 3
REMARK VINA RESULT:    -4.889      1.503      2.889
REMARK INTER + INTRA:          -4.889
REMARK INTER:                  -4.889
REMARK INTRA:                   0.000
REMARK UNBOUND:                 0.000
REMARK SMILES CC1=CC(=O)[C@@H]2C[C@H]1C2(C)C
REMARK SMILES IDX 1 1 2 2 3 3 4 4 5 5 6 6 7 7 8 8 9 9 10 10 11 11
REMARK H PARENT
REMARK Flexibility Score: inf
ROOT
ATOM      1  C   UNL     1       2.536  11.262  50.239  1.00  0.00     0.040 C 
ATOM      2  C   UNL     1       2.977  11.292  48.810  1.00  0.00    -0.066 C 
ATOM      3  C   UNL     1       2.177  10.825  47.811  1.00  0.00     0.047 C 
ATOM      4  C   UNL     1       2.720  10.938  46.419  1.00  0.00     0.159 C 
ATOM      5  O   UNL     1       2.061  10.577  45.410  1.00  0.00    -0.295 OA
ATOM      6  C   UNL     1       4.128  11.523  46.311  1.00  0.00     0.067 C 
ATOM      7  C   UNL     1       4.927  10.789  47.410  1.00  0.00     0.021 C 
ATOM      8  C   UNL     1       4.362  11.835  48.398  1.00  0.00     0.022 C 
ATOM      9  C   UNL     1       4.200  12.803  47.191  1.00  0.00    -0.019 C 
ATOM     10  C   UNL     1       2.984  13.774  47.185  1.00  0.00     0.012 C 
ATOM     11  C   UNL     1       5.483  13.631  46.923  1.00  0.00     0.012 C 
ENDROOT
TORSDOF 0
ENDMDL
MODEL 4
REMARK VINA RESULT:    -4.800      1.679      2.967
REMARK INTER + INTRA:          -4.800
REMARK INTER:                  -4.800
REMARK INTRA:                   0.000
REMARK UNBOUND:                 0.000
REMARK SMILES CC1=CC(=O)[C@@H]2C[C@H]1C2(C)C
REMARK SMILES IDX 1 1 2 2 3 3 4 4 5 5 6 6 7 7 8 8 9 9 10 10 11 11
REMARK H PARENT
REMARK Flexibility Score: inf
ROOT
ATOM      1  C   UNL     1       1.291  14.169  46.626  1.00  0.00     0.040 C 
ATOM      2  C   UNL     1       2.123  12.944  46.837  1.00  0.00    -0.066 C 
ATOM      3  C   UNL     1       2.182  11.957  45.900  1.00  0.00     0.047 C 
ATOM      4  C   UNL     1       3.075  10.796  46.215  1.00  0.00     0.159 C 
ATOM      5  O   UNL     1       3.242   9.840  45.413  1.00  0.00    -0.295 OA
ATOM      6  C   UNL     1       3.768  10.853  47.576  1.00  0.00     0.067 C 
ATOM      7  C   UNL     1       2.648  11.272  48.553  1.00  0.00     0.021 C 
ATOM      8  C   UNL     1       2.941  12.729  48.128  1.00  0.00     0.022 C 
ATOM      9  C   UNL     1       4.381  12.270  47.759  1.00  0.00    -0.019 C 
ATOM     10  C   UNL     1       5.075  12.938  46.538  1.00  0.00     0.012 C 
ATOM     11  C   UNL     1       5.351  12.342  48.967  1.00  0.00     0.012 C 
ENDROOT
TORSDOF 0
ENDMDL
MODEL 5
REMARK VINA RESULT:    -4.462      5.384      7.267
REMARK INTER + INTRA:          -4.462
REMARK INTER:                  -4.462
REMARK INTRA:                   0.000
REMARK UNBOUND:                 0.000
REMARK SMILES CC1=CC(=O)[C@@H]2C[C@H]1C2(C)C
REMARK SMILES IDX 1 1 2 2 3 3 4 4 5 5 6 6 7 7 8 8 9 9 10 10 11 11
REMARK H PARENT
REMARK Flexibility Score: inf
ROOT
ATOM      1  C   UNL     1       0.430  15.741  47.761  1.00  0.00     0.040 C 
ATOM      2  C   UNL     1      -0.492  15.745  46.584  1.00  0.00    -0.066 C 
ATOM      3  C   UNL     1      -1.239  14.651  46.265  1.00  0.00     0.047 C 
ATOM      4  C   UNL     1      -2.147  14.791  45.081  1.00  0.00     0.159 C 
ATOM      5  O   UNL     1      -2.914  13.865  44.710  1.00  0.00    -0.295 OA
ATOM      6  C   UNL     1      -2.078  16.136  44.358  1.00  0.00     0.067 C 
ATOM      7  C   UNL     1      -0.565  16.416  44.226  1.00  0.00     0.021 C 
ATOM      8  C   UNL     1      -0.633  16.978  45.665  1.00  0.00     0.022 C 
ATOM      9  C   UNL     1      -2.140  17.271  45.419  1.00  0.00    -0.019 C 
ATOM     10  C   UNL     1      -3.125  17.114  46.613  1.00  0.00     0.012 C 
ATOM     11  C   UNL     1      -2.373  18.664  44.779  1.00  0.00     0.012 C 
ENDROOT
TORSDOF 0
ENDMDL
MODEL 6
REMARK VINA RESULT:    -4.243      5.017      6.071
REMARK INTER + INTRA:          -4.243
REMARK INTER:                  -4.243
REMARK INTRA:                   0.000
REMARK UNBOUND:                 0.000
REMARK SMILES CC1=CC(=O)[C@@H]2C[C@H]1C2(C)C
REMARK SMILES IDX 1 1 2 2 3 3 4 4 5 5 6 6 7 7 8 8 9 9 10 10 11 11
REMARK H PARENT
REMARK Flexibility Score: inf
ROOT
ATOM      1  C   UNL     1      -2.973  12.475  45.841  1.00  0.00     0.040 C 
ATOM      2  C   UNL     1      -2.144  13.639  45.397  1.00  0.00    -0.066 C 
ATOM      3  C   UNL     1      -2.404  14.289  44.229  1.00  0.00     0.047 C 
ATOM      4  C   UNL     1      -1.522  15.458  43.910  1.00  0.00     0.159 C 
ATOM      5  O   UNL     1      -1.686  16.162  42.880  1.00  0.00    -0.295 OA
ATOM      6  C   UNL     1      -0.413  15.736  44.924  1.00  0.00     0.067 C 
ATOM      7  C   UNL     1       0.196  14.346  45.209  1.00  0.00     0.021 C 
ATOM      8  C   UNL     1      -0.948  14.150  46.229  1.00  0.00     0.022 C 
ATOM      9  C   UNL     1      -1.027  15.699  46.352  1.00  0.00    -0.019 C 
ATOM     10  C   UNL     1      -2.422  16.349  46.573  1.00  0.00     0.012 C 
ATOM     11  C   UNL     1      -0.057  16.255  47.426  1.00  0.00     0.012 C 
ENDROOT
TORSDOF 0
ENDMDL
MODEL 7
REMARK VINA RESULT:    -4.221      5.041      7.016
REMARK INTER + INTRA:          -4.221
REMARK INTER:                  -4.221
REMARK INTRA:                   0.000
REMARK UNBOUND:                 0.000
REMARK SMILES CC1=CC(=O)[C@@H]2C[C@H]1C2(C)C
REMARK SMILES IDX 1 1 2 2 3 3 4 4 5 5 6 6 7 7 8 8 9 9 10 10 11 11
REMARK H PARENT
REMARK Flexibility Score: inf
ROOT
ATOM      1  C   UNL     1       1.002  14.440  46.224  1.00  0.00     0.040 C 
ATOM      2  C   UNL     1      -0.410  14.883  46.006  1.00  0.00    -0.066 C 
ATOM      3  C   UNL     1      -0.946  15.918  46.710  1.00  0.00     0.047 C 
ATOM      4  C   UNL     1      -2.360  16.285  46.378  1.00  0.00     0.159 C 
ATOM      5  O   UNL     1      -2.953  17.247  46.932  1.00  0.00    -0.295 OA
ATOM      6  C   UNL     1      -3.031  15.411  45.318  1.00  0.00     0.067 C 
ATOM      7  C   UNL     1      -2.669  13.968  45.734  1.00  0.00     0.021 C 
ATOM      8  C   UNL     1      -1.333  14.181  44.987  1.00  0.00     0.022 C 
ATOM      9  C   UNL     1      -2.055  15.251  44.119  1.00  0.00    -0.019 C 
ATOM     10  C   UNL     1      -1.242  16.494  43.657  1.00  0.00     0.012 C 
ATOM     11  C   UNL     1      -2.745  14.634  42.875  1.00  0.00     0.012 C 
ENDROOT
TORSDOF 0
ENDMDL
MODEL 8
REMARK VINA RESULT:    -4.199      5.087      6.670
REMARK INTER + INTRA:          -4.199
REMARK INTER:                  -4.199
REMARK INTRA:                   0.000
REMARK UNBOUND:                 0.000
REMARK SMILES CC1=CC(=O)[C@@H]2C[C@H]1C2(C)C
REMARK SMILES IDX 1 1 2 2 3 3 4 4 5 5 6 6 7 7 8 8 9 9 10 10 11 11
REMARK H PARENT
REMARK Flexibility Score: inf
ROOT
ATOM      1  C   UNL     1      -1.246  18.085  43.824  1.00  0.00     0.040 C 
ATOM      2  C   UNL     1      -0.972  16.970  44.782  1.00  0.00    -0.066 C 
ATOM      3  C   UNL     1      -0.496  17.212  46.035  1.00  0.00     0.047 C 
ATOM      4  C   UNL     1      -0.292  16.014  46.910  1.00  0.00     0.159 C 
ATOM      5  O   UNL     1       0.107  16.111  48.100  1.00  0.00    -0.295 OA
ATOM      6  C   UNL     1      -0.602  14.666  46.258  1.00  0.00     0.067 C 
ATOM      7  C   UNL     1       0.074  14.753  44.872  1.00  0.00     0.021 C 
ATOM      8  C   UNL     1      -1.197  15.492  44.395  1.00  0.00     0.022 C 
ATOM      9  C   UNL     1      -1.974  14.771  45.534  1.00  0.00    -0.019 C 
ATOM     10  C   UNL     1      -3.125  15.543  46.242  1.00  0.00     0.012 C 
ATOM     11  C   UNL     1      -2.516  13.387  45.095  1.00  0.00     0.012 C 
ENDROOT
TORSDOF 0
ENDMDL
MODEL 9
REMARK VINA RESULT:    -4.167      5.280      6.934
REMARK INTER + INTRA:          -4.167
REMARK INTER:                  -4.167
REMARK INTRA:                   0.000
REMARK UNBOUND:                 0.000
REMARK SMILES CC1=CC(=O)[C@@H]2C[C@H]1C2(C)C
REMARK SMILES IDX 1 1 2 2 3 3 4 4 5 5 6 6 7 7 8 8 9 9 10 10 11 11
REMARK H PARENT
REMARK Flexibility Score: inf
ROOT
ATOM      1  C   UNL     1      -1.207  17.727  42.875  1.00  0.00     0.040 C 
ATOM      2  C   UNL     1      -1.556  16.771  43.971  1.00  0.00    -0.066 C 
ATOM      3  C   UNL     1      -2.254  15.628  43.720  1.00  0.00     0.047 C 
ATOM      4  C   UNL     1      -2.514  14.738  44.897  1.00  0.00     0.159 C 
ATOM      5  O   UNL     1      -3.115  13.637  44.786  1.00  0.00    -0.295 OA
ATOM      6  C   UNL     1      -2.000  15.260  46.238  1.00  0.00     0.067 C 
ATOM      7  C   UNL     1      -2.436  16.741  46.260  1.00  0.00     0.021 C 
ATOM      8  C   UNL     1      -1.160  17.038  45.439  1.00  0.00     0.022 C 
ATOM      9  C   UNL     1      -0.537  15.750  46.050  1.00  0.00    -0.019 C 
ATOM     10  C   UNL     1       0.418  14.903  45.161  1.00  0.00     0.012 C 
ATOM     11  C   UNL     1       0.173  16.022  47.401  1.00  0.00     0.012 C 
ENDROOT
TORSDOF 0
ENDMDL
