MODEL 1
REMARK VINA RESULT:    -4.984      0.000      0.000
REMARK INTER + INTRA:         -10.128
REMARK INTER:                  -8.481
REMARK INTRA:                  -1.648
REMARK UNBOUND:                -1.648
REMARK SMILES CCCCCCCCCCCCCC(=O)[O-]
REMARK SMILES IDX 8 1 9 2 10 3 11 4 12 5 13 6 14 7 15 8 16 9 7 10 6 11 5 12
REMARK SMILES IDX 4 13 3 14 2 15 1 16
REMARK H PARENT
REMARK Flexibility Score: inf
ROOT
ATOM      1  C   UNL     1     -16.369   3.803 -22.725  1.00  0.00     0.000 C 
ENDROOT
BRANCH   1   2
ATOM      2  C   UNL     1     -15.022   3.630 -23.444  1.00  0.00     0.000 C 
BRANCH   2   3
ATOM      3  C   UNL     1     -13.964   4.577 -22.859  1.00  0.00     0.000 C 
BRANCH   3   4
ATOM      4  C   UNL     1     -14.580   5.830 -22.217  1.00  0.00     0.000 C 
BRANCH   4   5
ATOM      5  C   UNL     1     -14.140   6.023 -20.755  1.00  0.00     0.006 C 
BRANCH   5   6
ATOM      6  C   UNL     1     -15.254   6.630 -19.891  1.00  0.00     0.053 C 
BRANCH   6   7
ATOM      7  C   UNL     1     -15.306   8.122 -20.019  1.00  0.00     0.041 C 
ATOM      8  O   UNL     1     -16.354   8.685 -20.430  1.00  0.00    -0.550 OA
ATOM      9  O   UNL     1     -14.186   8.886 -19.720  1.00  0.00    -0.550 OA
ENDBRANCH   6   7
ENDBRANCH   5   6
ENDBRANCH   4   5
ENDBRANCH   3   4
ENDBRANCH   2   3
ENDBRANCH   1   2
BRANCH   1  10
ATOM     10  C   UNL     1     -16.655   2.678 -21.717  1.00  0.00     0.000 C 
BRANCH  10  11
ATOM     11  C   UNL     1     -16.462   3.129 -20.259  1.00  0.00    -0.000 C 
BRANCH  11  12
ATOM     12  C   UNL     1     -15.297   2.403 -19.567  1.00  0.00    -0.000 C 
BRANCH  12  13
ATOM     13  C   UNL     1     -14.682   1.303 -20.449  1.00  0.00    -0.000 C 
BRANCH  13  14
ATOM     14  C   UNL     1     -14.680  -0.078 -19.769  1.00  0.00    -0.000 C 
BRANCH  14  15
ATOM     15  C   UNL     1     -15.014  -1.260 -20.697  1.00  0.00    -0.003 C 
ATOM     16  C   UNL     1     -15.681  -0.826 -22.003  1.00  0.00     0.004 C 
ENDBRANCH  14  15
ENDBRANCH  13  14
ENDBRANCH  12  13
ENDBRANCH  11  12
ENDBRANCH  10  11
ENDBRANCH   1  10
TORSDOF 12
ENDMDL
MODEL 2
REMARK VINA RESULT:    -4.869      3.649      6.105
REMARK INTER + INTRA:          -9.932
REMARK INTER:                  -8.016
REMARK INTRA:                  -1.915
REMARK UNBOUND:                -1.648
REMARK SMILES CCCCCCCCCCCCCC(=O)[O-]
REMARK SMILES IDX 8 1 9 2 10 3 11 4 12 5 13 6 14 7 15 8 16 9 7 10 6 11 5 12
REMARK SMILES IDX 4 13 3 14 2 15 1 16
REMARK H PARENT
REMARK Flexibility Score: inf
ROOT
ATOM      1  C   UNL     1     -16.212   4.731 -20.426  1.00  0.00     0.000 C 
ENDROOT
BRANCH   1   2
ATOM      2  C   UNL     1     -16.431   3.284 -19.956  1.00  0.00     0.000 C 
BRANCH   2   3
ATOM      3  C   UNL     1     -15.090   2.564 -19.757  1.00  0.00     0.000 C 
BRANCH   3   4
ATOM      4  C   UNL     1     -15.261   1.064 -19.467  1.00  0.00     0.000 C 
BRANCH   4   5
ATOM      5  C   UNL     1     -14.323   0.187 -20.315  1.00  0.00     0.006 C 
BRANCH   5   6
ATOM      6  C   UNL     1     -15.016  -1.089 -20.811  1.00  0.00     0.053 C 
BRANCH   6   7
ATOM      7  C   UNL     1     -15.574  -0.917 -22.192  1.00  0.00     0.041 C 
ATOM      8  O   UNL     1     -16.758  -0.519 -22.351  1.00  0.00    -0.550 OA
ATOM      9  O   UNL     1     -14.799  -1.231 -23.300  1.00  0.00    -0.550 OA
ENDBRANCH   6   7
ENDBRANCH   5   6
ENDBRANCH   4   5
ENDBRANCH   3   4
ENDBRANCH   2   3
ENDBRANCH   1   2
BRANCH   1  10
ATOM     10  C   UNL     1     -14.757   5.197 -20.261  1.00  0.00     0.000 C 
BRANCH  10  11
ATOM     11  C   UNL     1     -14.215   5.901 -21.517  1.00  0.00    -0.000 C 
BRANCH  11  12
ATOM     12  C   UNL     1     -15.234   5.914 -22.669  1.00  0.00    -0.000 C 
BRANCH  12  13
ATOM     13  C   UNL     1     -14.836   4.971 -23.818  1.00  0.00    -0.000 C 
BRANCH  13  14
ATOM     14  C   UNL     1     -15.817   3.798 -23.995  1.00  0.00    -0.000 C 
BRANCH  14  15
ATOM     15  C   UNL     1     -15.271   2.425 -23.567  1.00  0.00    -0.003 C 
ATOM     16  C   UNL     1     -13.803   2.470 -23.139  1.00  0.00     0.004 C 
ENDBRANCH  14  15
ENDBRANCH  13  14
ENDBRANCH  12  13
ENDBRANCH  11  12
ENDBRANCH  10  11
ENDBRANCH   1  10
TORSDOF 12
ENDMDL
MODEL 3
REMARK VINA RESULT:    -4.868      1.540      2.486
REMARK INTER + INTRA:          -9.931
REMARK INTER:                  -7.866
REMARK INTRA:                  -2.064
REMARK UNBOUND:                -1.648
REMARK SMILES CCCCCCCCCCCCCC(=O)[O-]
REMARK SMILES IDX 8 1 9 2 10 3 11 4 12 5 13 6 14 7 15 8 16 9 7 10 6 11 5 12
REMARK SMILES IDX 4 13 3 14 2 15 1 16
REMARK H PARENT
REMARK Flexibility Score: inf
ROOT
ATOM      1  C   UNL     1     -15.020   5.482 -23.623  1.00  0.00     0.000 C 
ENDROOT
BRANCH   1   2
ATOM      2  C   UNL     1     -14.160   4.810 -22.542  1.00  0.00     0.000 C 
BRANCH   2   3
ATOM      3  C   UNL     1     -13.511   5.859 -21.628  1.00  0.00     0.000 C 
BRANCH   3   4
ATOM      4  C   UNL     1     -14.145   5.899 -20.228  1.00  0.00     0.000 C 
BRANCH   4   5
ATOM      5  C   UNL     1     -15.199   7.011 -20.087  1.00  0.00     0.006 C 
BRANCH   5   6
ATOM      6  C   UNL     1     -14.797   8.287 -20.839  1.00  0.00     0.053 C 
BRANCH   6   7
ATOM      7  C   UNL     1     -14.052   9.241 -19.955  1.00  0.00     0.041 C 
ATOM      8  O   UNL     1     -14.674  10.131 -19.317  1.00  0.00    -0.550 OA
ATOM      9  O   UNL     1     -12.669   9.169 -19.864  1.00  0.00    -0.550 OA
ENDBRANCH   6   7
ENDBRANCH   5   6
ENDBRANCH   4   5
ENDBRANCH   3   4
ENDBRANCH   2   3
ENDBRANCH   1   2
BRANCH   1  10
ATOM     10  C   UNL     1     -16.523   5.433 -23.305  1.00  0.00     0.000 C 
BRANCH  10  11
ATOM     11  C   UNL     1     -16.938   4.124 -22.611  1.00  0.00    -0.000 C 
BRANCH  11  12
ATOM     12  C   UNL     1     -17.509   4.360 -21.203  1.00  0.00    -0.000 C 
BRANCH  12  13
ATOM     13  C   UNL     1     -16.785   3.532 -20.128  1.00  0.00    -0.000 C 
BRANCH  13  14
ATOM     14  C   UNL     1     -16.133   2.257 -20.692  1.00  0.00    -0.000 C 
BRANCH  14  15
ATOM     15  C   UNL     1     -14.694   1.997 -20.212  1.00  0.00    -0.003 C 
ATOM     16  C   UNL     1     -13.859   1.209 -21.222  1.00  0.00     0.004 C 
ENDBRANCH  14  15
ENDBRANCH  13  14
ENDBRANCH  12  13
ENDBRANCH  11  12
ENDBRANCH  10  11
ENDBRANCH   1  10
TORSDOF 12
ENDMDL
MODEL 4
REMARK VINA RESULT:    -4.833      3.663      5.897
REMARK INTER + INTRA:          -9.871
REMARK INTER:                  -7.953
REMARK INTRA:                  -1.919
REMARK UNBOUND:                -1.648
REMARK SMILES CCCCCCCCCCCCCC(=O)[O-]
REMARK SMILES IDX 8 1 9 2 10 3 11 4 12 5 13 6 14 7 15 8 16 9 7 10 6 11 5 12
REMARK SMILES IDX 4 13 3 14 2 15 1 16
REMARK H PARENT
REMARK Flexibility Score: inf
ROOT
ATOM      1  C   UNL     1     -16.269   4.197 -23.936  1.00  0.00     0.000 C 
ENDROOT
BRANCH   1   2
ATOM      2  C   UNL     1     -14.924   4.894 -23.679  1.00  0.00     0.000 C 
BRANCH   2   3
ATOM      3  C   UNL     1     -13.901   3.911 -23.092  1.00  0.00     0.000 C 
BRANCH   3   4
ATOM      4  C   UNL     1     -14.424   2.466 -23.049  1.00  0.00     0.000 C 
BRANCH   4   5
ATOM      5  C   UNL     1     -14.292   1.831 -21.654  1.00  0.00     0.006 C 
BRANCH   5   6
ATOM      6  C   UNL     1     -15.413   0.823 -21.369  1.00  0.00     0.053 C 
BRANCH   6   7
ATOM      7  C   UNL     1     -14.910  -0.367 -20.608  1.00  0.00     0.041 C 
ATOM      8  O   UNL     1     -14.534  -0.242 -19.414  1.00  0.00    -0.550 OA
ATOM      9  O   UNL     1     -14.824  -1.605 -21.231  1.00  0.00    -0.550 OA
ENDBRANCH   6   7
ENDBRANCH   5   6
ENDBRANCH   4   5
ENDBRANCH   3   4
ENDBRANCH   2   3
ENDBRANCH   1   2
BRANCH   1  10
ATOM     10  C   UNL     1     -17.391   4.710 -23.019  1.00  0.00     0.000 C 
BRANCH  10  11
ATOM     11  C   UNL     1     -17.646   3.780 -21.820  1.00  0.00    -0.000 C 
BRANCH  11  12
ATOM     12  C   UNL     1     -17.014   4.306 -20.521  1.00  0.00    -0.000 C 
BRANCH  12  13
ATOM     13  C   UNL     1     -16.761   5.823 -20.562  1.00  0.00    -0.000 C 
BRANCH  13  14
ATOM     14  C   UNL     1     -15.430   6.226 -19.902  1.00  0.00    -0.000 C 
BRANCH  14  15
ATOM     15  C   UNL     1     -14.500   7.079 -20.783  1.00  0.00    -0.003 C 
ATOM     16  C   UNL     1     -13.043   6.618 -20.739  1.00  0.00     0.004 C 
ENDBRANCH  14  15
ENDBRANCH  13  14
ENDBRANCH  12  13
ENDBRANCH  11  12
ENDBRANCH  10  11
ENDBRANCH   1  10
TORSDOF 12
ENDMDL
MODEL 5
REMARK VINA RESULT:    -4.830      3.531      6.418
REMARK INTER + INTRA:          -9.866
REMARK INTER:                  -8.256
REMARK INTRA:                  -1.610
REMARK UNBOUND:                -1.648
REMARK SMILES CCCCCCCCCCCCCC(=O)[O-]
REMARK SMILES IDX 8 1 9 2 10 3 11 4 12 5 13 6 14 7 15 8 16 9 7 10 6 11 5 12
REMARK SMILES IDX 4 13 3 14 2 15 1 16
REMARK H PARENT
REMARK Flexibility Score: inf
ROOT
ATOM      1  C   UNL     1     -16.208   3.367 -20.211  1.00  0.00     0.000 C 
ENDROOT
BRANCH   1   2
ATOM      2  C   UNL     1     -14.940   2.588 -19.829  1.00  0.00     0.000 C 
BRANCH   2   3
ATOM      3  C   UNL     1     -15.264   1.474 -18.823  1.00  0.00     0.000 C 
BRANCH   3   4
ATOM      4  C   UNL     1     -14.833   0.084 -19.318  1.00  0.00     0.000 C 
BRANCH   4   5
ATOM      5  C   UNL     1     -14.504   0.068 -20.821  1.00  0.00     0.006 C 
BRANCH   5   6
ATOM      6  C   UNL     1     -15.303  -1.003 -21.577  1.00  0.00     0.053 C 
BRANCH   6   7
ATOM      7  C   UNL     1     -15.791  -0.499 -22.901  1.00  0.00     0.041 C 
ATOM      8  O   UNL     1     -17.011  -0.235 -23.068  1.00  0.00    -0.550 OA
ATOM      9  O   UNL     1     -14.905  -0.357 -23.961  1.00  0.00    -0.550 OA
ENDBRANCH   6   7
ENDBRANCH   5   6
ENDBRANCH   4   5
ENDBRANCH   3   4
ENDBRANCH   2   3
ENDBRANCH   1   2
BRANCH   1  10
ATOM     10  C   UNL     1     -16.842   2.870 -21.519  1.00  0.00     0.000 C 
BRANCH  10  11
ATOM     11  C   UNL     1     -16.401   3.694 -22.741  1.00  0.00    -0.000 C 
BRANCH  11  12
ATOM     12  C   UNL     1     -15.086   3.182 -23.353  1.00  0.00    -0.000 C 
BRANCH  12  13
ATOM     13  C   UNL     1     -13.942   4.202 -23.229  1.00  0.00    -0.000 C 
BRANCH  13  14
ATOM     14  C   UNL     1     -14.377   5.508 -22.541  1.00  0.00    -0.000 C 
BRANCH  14  15
ATOM     15  C   UNL     1     -13.598   5.858 -21.260  1.00  0.00    -0.003 C 
ATOM     16  C   UNL     1     -14.051   7.173 -20.624  1.00  0.00     0.004 C 
ENDBRANCH  14  15
ENDBRANCH  13  14
ENDBRANCH  12  13
ENDBRANCH  11  12
ENDBRANCH  10  11
ENDBRANCH   1  10
TORSDOF 12
ENDMDL
MODEL 6
REMARK VINA RESULT:    -4.797      1.387      2.487
REMARK INTER + INTRA:          -9.810
REMARK INTER:                  -7.771
REMARK INTRA:                  -2.039
REMARK UNBOUND:                -1.648
REMARK SMILES CCCCCCCCCCCCCC(=O)[O-]
REMARK SMILES IDX 8 1 9 2 10 3 11 4 12 5 13 6 14 7 15 8 16 9 7 10 6 11 5 12
REMARK SMILES IDX 4 13 3 14 2 15 1 16
REMARK H PARENT
REMARK Flexibility Score: inf
ROOT
ATOM      1  C   UNL     1     -17.357   2.828 -22.753  1.00  0.00     0.000 C 
ENDROOT
BRANCH   1   2
ATOM      2  C   UNL     1     -16.618   3.003 -24.088  1.00  0.00     0.000 C 
BRANCH   2   3
ATOM      3  C   UNL     1     -15.533   4.085 -23.976  1.00  0.00     0.000 C 
BRANCH   3   4
ATOM      4  C   UNL     1     -15.333   4.575 -22.533  1.00  0.00     0.000 C 
BRANCH   4   5
ATOM      5  C   UNL     1     -13.931   5.165 -22.298  1.00  0.00     0.006 C 
BRANCH   5   6
ATOM      6  C   UNL     1     -13.787   5.774 -20.897  1.00  0.00     0.053 C 
BRANCH   6   7
ATOM      7  C   UNL     1     -14.869   6.771 -20.611  1.00  0.00     0.041 C 
ATOM      8  O   UNL     1     -15.704   6.554 -19.695  1.00  0.00    -0.550 OA
ATOM      9  O   UNL     1     -14.974   7.923 -21.379  1.00  0.00    -0.550 OA
ENDBRANCH   6   7
ENDBRANCH   5   6
ENDBRANCH   4   5
ENDBRANCH   3   4
ENDBRANCH   2   3
ENDBRANCH   1   2
BRANCH   1  10
ATOM     10  C   UNL     1     -17.767   1.370 -22.486  1.00  0.00     0.000 C 
BRANCH  10  11
ATOM     11  C   UNL     1     -16.910   0.362 -23.270  1.00  0.00    -0.000 C 
BRANCH  11  12
ATOM     12  C   UNL     1     -15.800  -0.263 -22.409  1.00  0.00    -0.000 C 
BRANCH  12  13
ATOM     13  C   UNL     1     -14.430   0.396 -22.643  1.00  0.00    -0.000 C 
BRANCH  13  14
ATOM     14  C   UNL     1     -13.945   1.215 -21.434  1.00  0.00    -0.000 C 
BRANCH  14  15
ATOM     15  C   UNL     1     -14.757   1.008 -20.142  1.00  0.00    -0.003 C 
ATOM     16  C   UNL     1     -15.266   2.317 -19.538  1.00  0.00     0.004 C 
ENDBRANCH  14  15
ENDBRANCH  13  14
ENDBRANCH  12  13
ENDBRANCH  11  12
ENDBRANCH  10  11
ENDBRANCH   1  10
TORSDOF 12
ENDMDL
MODEL 7
REMARK VINA RESULT:    -4.787      1.260      2.890
REMARK INTER + INTRA:          -9.793
REMARK INTER:                  -7.758
REMARK INTRA:                  -2.035
REMARK UNBOUND:                -1.648
REMARK SMILES CCCCCCCCCCCCCC(=O)[O-]
REMARK SMILES IDX 8 1 9 2 10 3 11 4 12 5 13 6 14 7 15 8 16 9 7 10 6 11 5 12
REMARK SMILES IDX 4 13 3 14 2 15 1 16
REMARK H PARENT
REMARK Flexibility Score: inf
ROOT
ATOM      1  C   UNL     1     -14.486   1.702 -23.328  1.00  0.00     0.000 C 
ENDROOT
BRANCH   1   2
ATOM      2  C   UNL     1     -14.714   3.175 -23.702  1.00  0.00     0.000 C 
BRANCH   2   3
ATOM      3  C   UNL     1     -13.723   4.087 -22.964  1.00  0.00     0.000 C 
BRANCH   3   4
ATOM      4  C   UNL     1     -14.353   5.423 -22.537  1.00  0.00     0.000 C 
BRANCH   4   5
ATOM      5  C   UNL     1     -13.680   6.022 -21.290  1.00  0.00     0.006 C 
BRANCH   5   6
ATOM      6  C   UNL     1     -14.699   6.643 -20.324  1.00  0.00     0.053 C 
BRANCH   6   7
ATOM      7  C   UNL     1     -14.774   8.131 -20.478  1.00  0.00     0.041 C 
ATOM      8  O   UNL     1     -14.415   8.884 -19.535  1.00  0.00    -0.550 OA
ATOM      9  O   UNL     1     -15.273   8.685 -21.649  1.00  0.00    -0.550 OA
ENDBRANCH   6   7
ENDBRANCH   5   6
ENDBRANCH   4   5
ENDBRANCH   3   4
ENDBRANCH   2   3
ENDBRANCH   1   2
BRANCH   1  10
ATOM     10  C   UNL     1     -13.998   1.523 -21.881  1.00  0.00     0.000 C 
BRANCH  10  11
ATOM     11  C   UNL     1     -15.143   1.197 -20.907  1.00  0.00    -0.000 C 
BRANCH  11  12
ATOM     12  C   UNL     1     -15.103   2.064 -19.639  1.00  0.00    -0.000 C 
BRANCH  12  13
ATOM     13  C   UNL     1     -15.985   3.319 -19.755  1.00  0.00    -0.000 C 
BRANCH  13  14
ATOM     14  C   UNL     1     -17.068   3.191 -20.841  1.00  0.00    -0.000 C 
BRANCH  14  15
ATOM     15  C   UNL     1     -17.625   4.527 -21.363  1.00  0.00    -0.003 C 
ATOM     16  C   UNL     1     -17.968   4.493 -22.852  1.00  0.00     0.004 C 
ENDBRANCH  14  15
ENDBRANCH  13  14
ENDBRANCH  12  13
ENDBRANCH  11  12
ENDBRANCH  10  11
ENDBRANCH   1  10
TORSDOF 12
ENDMDL
MODEL 8
REMARK VINA RESULT:    -4.760      3.510      6.431
REMARK INTER + INTRA:          -9.746
REMARK INTER:                  -8.106
REMARK INTRA:                  -1.640
REMARK UNBOUND:                -1.648
REMARK SMILES CCCCCCCCCCCCCC(=O)[O-]
REMARK SMILES IDX 8 1 9 2 10 3 11 4 12 5 13 6 14 7 15 8 16 9 7 10 6 11 5 12
REMARK SMILES IDX 4 13 3 14 2 15 1 16
REMARK H PARENT
REMARK Flexibility Score: inf
ROOT
ATOM      1  C   UNL     1     -15.428   2.742 -21.292  1.00  0.00     0.000 C 
ENDROOT
BRANCH   1   2
ATOM      2  C   UNL     1     -14.950   2.523 -19.849  1.00  0.00     0.000 C 
BRANCH   2   3
ATOM      3  C   UNL     1     -14.894   1.026 -19.511  1.00  0.00     0.000 C 
BRANCH   3   4
ATOM      4  C   UNL     1     -14.192   0.199 -20.600  1.00  0.00     0.000 C 
BRANCH   4   5
ATOM      5  C   UNL     1     -14.864  -1.166 -20.832  1.00  0.00     0.006 C 
BRANCH   5   6
ATOM      6  C   UNL     1     -15.097  -1.450 -22.322  1.00  0.00     0.053 C 
BRANCH   6   7
ATOM      7  C   UNL     1     -16.067  -0.480 -22.927  1.00  0.00     0.041 C 
ATOM      8  O   UNL     1     -17.261  -0.450 -22.532  1.00  0.00    -0.550 OA
ATOM      9  O   UNL     1     -15.659   0.364 -23.951  1.00  0.00    -0.550 OA
ENDBRANCH   6   7
ENDBRANCH   5   6
ENDBRANCH   4   5
ENDBRANCH   3   4
ENDBRANCH   2   3
ENDBRANCH   1   2
BRANCH   1  10
ATOM     10  C   UNL     1     -16.920   3.101 -21.378  1.00  0.00     0.000 C 
BRANCH  10  11
ATOM     11  C   UNL     1     -17.369   4.037 -20.242  1.00  0.00    -0.000 C 
BRANCH  11  12
ATOM     12  C   UNL     1     -17.279   5.521 -20.631  1.00  0.00    -0.000 C 
BRANCH  12  13
ATOM     13  C   UNL     1     -15.936   6.155 -20.231  1.00  0.00    -0.000 C 
BRANCH  13  14
ATOM     14  C   UNL     1     -15.038   6.468 -21.441  1.00  0.00    -0.000 C 
BRANCH  14  15
ATOM     15  C   UNL     1     -15.769   6.524 -22.795  1.00  0.00    -0.003 C 
ATOM     16  C   UNL     1     -15.264   5.482 -23.793  1.00  0.00     0.004 C 
ENDBRANCH  14  15
ENDBRANCH  13  14
ENDBRANCH  12  13
ENDBRANCH  11  12
ENDBRANCH  10  11
ENDBRANCH   1  10
TORSDOF 12
ENDMDL
MODEL 9
REMARK VINA RESULT:    -4.754      3.408      6.597
REMARK INTER + INTRA:          -9.737
REMARK INTER:                  -8.131
REMARK INTRA:                  -1.607
REMARK UNBOUND:                -1.648
REMARK SMILES CCCCCCCCCCCCCC(=O)[O-]
REMARK SMILES IDX 8 1 9 2 10 3 11 4 12 5 13 6 14 7 15 8 16 9 7 10 6 11 5 12
REMARK SMILES IDX 4 13 3 14 2 15 1 16
REMARK H PARENT
REMARK Flexibility Score: inf
ROOT
ATOM      1  C   UNL     1     -14.290   5.521 -22.132  1.00  0.00     0.000 C 
ENDROOT
BRANCH   1   2
ATOM      2  C   UNL     1     -15.554   4.648 -22.136  1.00  0.00     0.000 C 
BRANCH   2   3
ATOM      3  C   UNL     1     -16.095   4.460 -20.711  1.00  0.00     0.000 C 
BRANCH   3   4
ATOM      4  C   UNL     1     -16.217   2.980 -20.314  1.00  0.00     0.000 C 
BRANCH   4   5
ATOM      5  C   UNL     1     -14.942   2.439 -19.644  1.00  0.00     0.006 C 
BRANCH   5   6
ATOM      6  C   UNL     1     -14.820   0.916 -19.777  1.00  0.00     0.053 C 
BRANCH   6   7
ATOM      7  C   UNL     1     -14.855   0.479 -21.210  1.00  0.00     0.041 C 
ATOM      8  O   UNL     1     -13.982   0.889 -22.019  1.00  0.00    -0.550 OA
ATOM      9  O   UNL     1     -15.872  -0.353 -21.660  1.00  0.00    -0.550 OA
ENDBRANCH   6   7
ENDBRANCH   5   6
ENDBRANCH   4   5
ENDBRANCH   3   4
ENDBRANCH   2   3
ENDBRANCH   1   2
BRANCH   1  10
ATOM     10  C   UNL     1     -13.799   5.852 -20.714  1.00  0.00     0.000 C 
BRANCH  10  11
ATOM     11  C   UNL     1     -13.312   7.306 -20.581  1.00  0.00    -0.000 C 
BRANCH  11  12
ATOM     12  C   UNL     1     -14.432   8.265 -20.147  1.00  0.00    -0.000 C 
BRANCH  12  13
ATOM     13  C   UNL     1     -14.879   9.201 -21.283  1.00  0.00    -0.000 C 
BRANCH  13  14
ATOM     14  C   UNL     1     -16.259   8.831 -21.855  1.00  0.00    -0.000 C 
BRANCH  14  15
ATOM     15  C   UNL     1     -17.161   8.023 -20.904  1.00  0.00    -0.003 C 
ATOM     16  C   UNL     1     -18.232   7.214 -21.636  1.00  0.00     0.004 C 
ENDBRANCH  14  15
ENDBRANCH  13  14
ENDBRANCH  12  13
ENDBRANCH  11  12
ENDBRANCH  10  11
ENDBRANCH   1  10
TORSDOF 12
ENDMDL
