MODEL 1
REMARK VINA RESULT:    -6.066      0.000      0.000
REMARK INTER + INTRA:         -18.195
REMARK INTER:                 -15.287
REMARK INTRA:                  -2.908
REMARK UNBOUND:                -2.908
REMARK SMILES CCCCCCCCCCCCCCCCCCCCCCCCCCCC(=O)[O-]
REMARK SMILES IDX 15 1 16 2 17 3 18 4 19 5 20 6 21 7 22 8 23 9 24 10 25 11
REMARK SMILES IDX 26 12 27 13 28 14 29 15 30 16 14 17 13 18 12 19 11 20 10 21
REMARK SMILES IDX 9 22 8 23 7 24 6 25 5 26 4 27 3 28 2 29 1 30
REMARK H PARENT
REMARK Flexibility Score: inf
ROOT
ATOM      1  C   UNL     1      90.040 323.915 198.767  1.00  0.00     0.000 C 
ENDROOT
BRANCH   1   2
ATOM      2  C   UNL     1      88.662 324.036 198.085  1.00  0.00     0.000 C 
BRANCH   2   3
ATOM      3  C   UNL     1      88.698 324.423 196.595  1.00  0.00     0.000 C 
BRANCH   3   4
ATOM      4  C   UNL     1      88.745 325.942 196.375  1.00  0.00     0.000 C 
BRANCH   4   5
ATOM      5  C   UNL     1      87.389 326.467 195.882  1.00  0.00     0.000 C 
BRANCH   5   6
ATOM      6  C   UNL     1      87.343 326.651 194.355  1.00  0.00     0.000 C 
BRANCH   6   7
ATOM      7  C   UNL     1      86.318 325.724 193.680  1.00  0.00     0.000 C 
BRANCH   7   8
ATOM      8  C   UNL     1      86.917 324.363 193.290  1.00  0.00     0.000 C 
BRANCH   8   9
ATOM      9  C   UNL     1      88.376 324.467 192.824  1.00  0.00     0.000 C 
BRANCH   9  10
ATOM     10  C   UNL     1      88.456 324.630 191.299  1.00  0.00     0.000 C 
BRANCH  10  11
ATOM     11  C   UNL     1      87.758 323.491 190.535  1.00  0.00     0.000 C 
BRANCH  11  12
ATOM     12  C   UNL     1      88.327 323.203 189.134  1.00  0.00     0.006 C 
BRANCH  12  13
ATOM     13  C   UNL     1      89.651 323.928 188.865  1.00  0.00     0.053 C 
BRANCH  13  14
ATOM     14  C   UNL     1      90.777 322.946 188.781  1.00  0.00     0.041 C 
ATOM     15  O   UNL     1      90.744 321.885 189.458  1.00  0.00    -0.550 OA
ATOM     16  O   UNL     1      91.887 323.227 187.996  1.00  0.00    -0.550 OA
ENDBRANCH  13  14
ENDBRANCH  12  13
ENDBRANCH  11  12
ENDBRANCH  10  11
ENDBRANCH   9  10
ENDBRANCH   8   9
ENDBRANCH   7   8
ENDBRANCH   6   7
ENDBRANCH   5   6
ENDBRANCH   4   5
ENDBRANCH   3   4
ENDBRANCH   2   3
ENDBRANCH   1   2
BRANCH   1  17
ATOM     17  C   UNL     1      90.402 325.061 199.729  1.00  0.00     0.000 C 
BRANCH  17  18
ATOM     18  C   UNL     1      89.213 325.990 200.025  1.00  0.00     0.000 C 
BRANCH  18  19
ATOM     19  C   UNL     1      89.216 326.522 201.471  1.00  0.00     0.000 C 
BRANCH  19  20
ATOM     20  C   UNL     1      90.601 326.911 202.024  1.00  0.00     0.000 C 
BRANCH  20  21
ATOM     21  C   UNL     1      90.588 327.531 203.435  1.00  0.00     0.000 C 
BRANCH  21  22
ATOM     22  C   UNL     1      89.195 327.636 204.088  1.00  0.00    -0.000 C 
BRANCH  22  23
ATOM     23  C   UNL     1      89.132 327.229 205.572  1.00  0.00    -0.000 C 
BRANCH  23  24
ATOM     24  C   UNL     1      89.661 325.807 205.826  1.00  0.00    -0.000 C 
BRANCH  24  25
ATOM     25  C   UNL     1      88.570 324.841 206.321  1.00  0.00    -0.000 C 
BRANCH  25  26
ATOM     26  C   UNL     1      87.138 325.179 205.865  1.00  0.00    -0.000 C 
BRANCH  26  27
ATOM     27  C   UNL     1      86.539 324.118 204.930  1.00  0.00    -0.000 C 
BRANCH  27  28
ATOM     28  C   UNL     1      87.638 323.210 204.354  1.00  0.00    -0.000 C 
BRANCH  28  29
ATOM     29  C   UNL     1      87.823 323.397 202.840  1.00  0.00    -0.003 C 
ATOM     30  C   UNL     1      86.544 323.853 202.140  1.00  0.00     0.004 C 
ENDBRANCH  28  29
ENDBRANCH  27  28
ENDBRANCH  26  27
ENDBRANCH  25  26
ENDBRANCH  24  25
ENDBRANCH  23  24
ENDBRANCH  22  23
ENDBRANCH  21  22
ENDBRANCH  20  21
ENDBRANCH  19  20
ENDBRANCH  18  19
ENDBRANCH  17  18
ENDBRANCH   1  17
TORSDOF 26
ENDMDL
MODEL 2
REMARK VINA RESULT:    -5.940      3.253     10.973
REMARK INTER + INTRA:         -17.877
REMARK INTER:                 -15.360
REMARK INTRA:                  -2.517
REMARK UNBOUND:                -2.908
REMARK SMILES CCCCCCCCCCCCCCCCCCCCCCCCCCCC(=O)[O-]
REMARK SMILES IDX 15 1 16 2 17 3 18 4 19 5 20 6 21 7 22 8 23 9 24 10 25 11
REMARK SMILES IDX 26 12 27 13 28 14 29 15 30 16 14 17 13 18 12 19 11 20 10 21
REMARK SMILES IDX 9 22 8 23 7 24 6 25 5 26 4 27 3 28 2 29 1 30
REMARK H PARENT
REMARK Flexibility Score: inf
ROOT
ATOM      1  C   UNL     1      88.896 326.486 201.508  1.00  0.00     0.000 C 
ENDROOT
BRANCH   1   2
ATOM      2  C   UNL     1      89.602 326.527 202.879  1.00  0.00     0.000 C 
BRANCH   2   3
ATOM      3  C   UNL     1      89.109 327.625 203.839  1.00  0.00     0.000 C 
BRANCH   3   4
ATOM      4  C   UNL     1      89.839 327.609 205.190  1.00  0.00     0.000 C 
BRANCH   4   5
ATOM      5  C   UNL     1      89.026 326.840 206.242  1.00  0.00     0.000 C 
BRANCH   5   6
ATOM      6  C   UNL     1      89.577 325.428 206.501  1.00  0.00     0.000 C 
BRANCH   6   7
ATOM      7  C   UNL     1      88.610 324.324 206.040  1.00  0.00     0.000 C 
BRANCH   7   8
ATOM      8  C   UNL     1      87.222 324.870 205.666  1.00  0.00     0.000 C 
BRANCH   8   9
ATOM      9  C   UNL     1      86.346 323.829 204.954  1.00  0.00     0.000 C 
BRANCH   9  10
ATOM     10  C   UNL     1      87.024 323.325 203.672  1.00  0.00     0.000 C 
BRANCH  10  11
ATOM     11  C   UNL     1      86.353 323.851 202.390  1.00  0.00     0.000 C 
BRANCH  11  12
ATOM     12  C   UNL     1      86.394 322.887 201.191  1.00  0.00     0.006 C 
BRANCH  12  13
ATOM     13  C   UNL     1      87.807 322.695 200.626  1.00  0.00     0.053 C 
BRANCH  13  14
ATOM     14  C   UNL     1      88.104 321.240 200.444  1.00  0.00     0.041 C 
ATOM     15  O   UNL     1      87.166 320.399 200.433  1.00  0.00    -0.550 OA
ATOM     16  O   UNL     1      89.418 320.806 200.340  1.00  0.00    -0.550 OA
ENDBRANCH  13  14
ENDBRANCH  12  13
ENDBRANCH  11  12
ENDBRANCH  10  11
ENDBRANCH   9  10
ENDBRANCH   8   9
ENDBRANCH   7   8
ENDBRANCH   6   7
ENDBRANCH   5   6
ENDBRANCH   4   5
ENDBRANCH   3   4
ENDBRANCH   2   3
ENDBRANCH   1   2
BRANCH   1  17
ATOM     17  C   UNL     1      89.832 326.484 200.285  1.00  0.00     0.000 C 
BRANCH  17  18
ATOM     18  C   UNL     1      89.180 325.874 199.034  1.00  0.00     0.000 C 
BRANCH  18  19
ATOM     19  C   UNL     1      88.848 326.927 197.960  1.00  0.00     0.000 C 
BRANCH  19  20
ATOM     20  C   UNL     1      88.192 326.373 196.679  1.00  0.00     0.000 C 
BRANCH  20  21
ATOM     21  C   UNL     1      88.816 326.872 195.360  1.00  0.00     0.000 C 
BRANCH  21  22
ATOM     22  C   UNL     1      87.921 326.710 194.115  1.00  0.00    -0.000 C 
BRANCH  22  23
ATOM     23  C   UNL     1      86.631 325.898 194.333  1.00  0.00    -0.000 C 
BRANCH  23  24
ATOM     24  C   UNL     1      86.693 324.494 193.709  1.00  0.00    -0.000 C 
BRANCH  24  25
ATOM     25  C   UNL     1      88.097 323.866 193.781  1.00  0.00    -0.000 C 
BRANCH  25  26
ATOM     26  C   UNL     1      88.671 323.386 192.435  1.00  0.00    -0.000 C 
BRANCH  26  27
ATOM     27  C   UNL     1      88.259 324.276 191.254  1.00  0.00    -0.000 C 
BRANCH  27  28
ATOM     28  C   UNL     1      88.493 323.558 189.916  1.00  0.00    -0.000 C 
BRANCH  28  29
ATOM     29  C   UNL     1      89.610 324.209 189.085  1.00  0.00    -0.003 C 
ATOM     30  C   UNL     1      90.505 323.183 188.391  1.00  0.00     0.004 C 
ENDBRANCH  28  29
ENDBRANCH  27  28
ENDBRANCH  26  27
ENDBRANCH  25  26
ENDBRANCH  24  25
ENDBRANCH  23  24
ENDBRANCH  22  23
ENDBRANCH  21  22
ENDBRANCH  20  21
ENDBRANCH  19  20
ENDBRANCH  18  19
ENDBRANCH  17  18
ENDBRANCH   1  17
TORSDOF 26
ENDMDL
MODEL 3
REMARK VINA RESULT:    -5.907      1.507      3.862
REMARK INTER + INTRA:         -17.793
REMARK INTER:                 -14.715
REMARK INTRA:                  -3.077
REMARK UNBOUND:                -2.908
REMARK SMILES CCCCCCCCCCCCCCCCCCCCCCCCCCCC(=O)[O-]
REMARK SMILES IDX 15 1 16 2 17 3 18 4 19 5 20 6 21 7 22 8 23 9 24 10 25 11
REMARK SMILES IDX 26 12 27 13 28 14 29 15 30 16 14 17 13 18 12 19 11 20 10 21
REMARK SMILES IDX 9 22 8 23 7 24 6 25 5 26 4 27 3 28 2 29 1 30
REMARK H PARENT
REMARK Flexibility Score: inf
ROOT
ATOM      1  C   UNL     1      87.833 322.375 200.530  1.00  0.00     0.000 C 
ENDROOT
BRANCH   1   2
ATOM      2  C   UNL     1      88.477 323.524 199.726  1.00  0.00     0.000 C 
BRANCH   2   3
ATOM      3  C   UNL     1      88.714 323.228 198.234  1.00  0.00     0.000 C 
BRANCH   3   4
ATOM      4  C   UNL     1      89.245 324.445 197.461  1.00  0.00     0.000 C 
BRANCH   4   5
ATOM      5  C   UNL     1      88.810 325.754 198.135  1.00  0.00     0.000 C 
BRANCH   5   6
ATOM      6  C   UNL     1      88.429 326.845 197.120  1.00  0.00     0.000 C 
BRANCH   6   7
ATOM      7  C   UNL     1      88.845 326.485 195.683  1.00  0.00     0.000 C 
BRANCH   7   8
ATOM      8  C   UNL     1      87.730 326.752 194.659  1.00  0.00     0.000 C 
BRANCH   8   9
ATOM      9  C   UNL     1      86.624 325.688 194.696  1.00  0.00     0.000 C 
BRANCH   9  10
ATOM     10  C   UNL     1      86.593 324.882 193.389  1.00  0.00     0.000 C 
BRANCH  10  11
ATOM     11  C   UNL     1      87.789 325.183 192.468  1.00  0.00     0.000 C 
BRANCH  11  12
ATOM     12  C   UNL     1      88.567 323.945 191.985  1.00  0.00     0.006 C 
BRANCH  12  13
ATOM     13  C   UNL     1      88.631 323.840 190.456  1.00  0.00     0.053 C 
BRANCH  13  14
ATOM     14  C   UNL     1      87.858 322.649 189.982  1.00  0.00     0.041 C 
ATOM     15  O   UNL     1      88.462 321.640 189.531  1.00  0.00    -0.550 OA
ATOM     16  O   UNL     1      86.470 322.675 189.987  1.00  0.00    -0.550 OA
ENDBRANCH  13  14
ENDBRANCH  12  13
ENDBRANCH  11  12
ENDBRANCH  10  11
ENDBRANCH   9  10
ENDBRANCH   8   9
ENDBRANCH   7   8
ENDBRANCH   6   7
ENDBRANCH   5   6
ENDBRANCH   4   5
ENDBRANCH   3   4
ENDBRANCH   2   3
ENDBRANCH   1   2
BRANCH   1  17
ATOM     17  C   UNL     1      86.531 322.736 201.267  1.00  0.00     0.000 C 
BRANCH  17  18
ATOM     18  C   UNL     1      86.704 323.908 202.247  1.00  0.00     0.000 C 
BRANCH  18  19
ATOM     19  C   UNL     1      87.200 323.459 203.634  1.00  0.00     0.000 C 
BRANCH  19  20
ATOM     20  C   UNL     1      86.330 323.917 204.822  1.00  0.00     0.000 C 
BRANCH  20  21
ATOM     21  C   UNL     1      87.021 324.888 205.799  1.00  0.00     0.000 C 
BRANCH  21  22
ATOM     22  C   UNL     1      88.472 325.258 205.433  1.00  0.00    -0.000 C 
BRANCH  22  23
ATOM     23  C   UNL     1      88.810 326.758 205.518  1.00  0.00    -0.000 C 
BRANCH  23  24
ATOM     24  C   UNL     1      89.283 327.344 204.177  1.00  0.00    -0.000 C 
BRANCH  24  25
ATOM     25  C   UNL     1      89.548 326.264 203.111  1.00  0.00    -0.000 C 
BRANCH  25  26
ATOM     26  C   UNL     1      89.274 326.695 201.658  1.00  0.00    -0.000 C 
BRANCH  26  27
ATOM     27  C   UNL     1      90.553 326.820 200.817  1.00  0.00    -0.000 C 
BRANCH  27  28
ATOM     28  C   UNL     1      91.804 326.621 201.686  1.00  0.00    -0.000 C 
BRANCH  28  29
ATOM     29  C   UNL     1      92.715 325.500 201.161  1.00  0.00    -0.003 C 
ATOM     30  C   UNL     1      91.950 324.214 200.851  1.00  0.00     0.004 C 
ENDBRANCH  28  29
ENDBRANCH  27  28
ENDBRANCH  26  27
ENDBRANCH  25  26
ENDBRANCH  24  25
ENDBRANCH  23  24
ENDBRANCH  22  23
ENDBRANCH  21  22
ENDBRANCH  20  21
ENDBRANCH  19  20
ENDBRANCH  18  19
ENDBRANCH  17  18
ENDBRANCH   1  17
TORSDOF 26
ENDMDL
MODEL 4
REMARK VINA RESULT:    -5.883      0.944      1.377
REMARK INTER + INTRA:         -17.732
REMARK INTER:                 -14.871
REMARK INTRA:                  -2.861
REMARK UNBOUND:                -2.908
REMARK SMILES CCCCCCCCCCCCCCCCCCCCCCCCCCCC(=O)[O-]
REMARK SMILES IDX 15 1 16 2 17 3 18 4 19 5 20 6 21 7 22 8 23 9 24 10 25 11
REMARK SMILES IDX 26 12 27 13 28 14 29 15 30 16 14 17 13 18 12 19 11 20 10 21
REMARK SMILES IDX 9 22 8 23 7 24 6 25 5 26 4 27 3 28 2 29 1 30
REMARK H PARENT
REMARK Flexibility Score: inf
ROOT
ATOM      1  C   UNL     1      90.088 325.125 199.274  1.00  0.00     0.000 C 
ENDROOT
BRANCH   1   2
ATOM      2  C   UNL     1      88.896 324.737 198.375  1.00  0.00     0.000 C 
BRANCH   2   3
ATOM      3  C   UNL     1      89.112 324.959 196.867  1.00  0.00     0.000 C 
BRANCH   3   4
ATOM      4  C   UNL     1      88.751 326.382 196.415  1.00  0.00     0.000 C 
BRANCH   4   5
ATOM      5  C   UNL     1      87.230 326.543 196.279  1.00  0.00     0.000 C 
BRANCH   5   6
ATOM      6  C   UNL     1      86.767 326.592 194.813  1.00  0.00     0.000 C 
BRANCH   6   7
ATOM      7  C   UNL     1      87.940 326.745 193.829  1.00  0.00     0.000 C 
BRANCH   7   8
ATOM      8  C   UNL     1      88.091 325.534 192.895  1.00  0.00     0.000 C 
BRANCH   8   9
ATOM      9  C   UNL     1      87.551 324.236 193.512  1.00  0.00     0.000 C 
BRANCH   9  10
ATOM     10  C   UNL     1      87.529 323.103 192.477  1.00  0.00     0.000 C 
BRANCH  10  11
ATOM     11  C   UNL     1      86.887 323.520 191.141  1.00  0.00     0.000 C 
BRANCH  11  12
ATOM     12  C   UNL     1      87.724 323.203 189.889  1.00  0.00     0.006 C 
BRANCH  12  13
ATOM     13  C   UNL     1      89.214 323.515 190.071  1.00  0.00     0.053 C 
BRANCH  13  14
ATOM     14  C   UNL     1      90.035 322.737 189.090  1.00  0.00     0.041 C 
ATOM     15  O   UNL     1      90.114 321.483 189.185  1.00  0.00    -0.550 OA
ATOM     16  O   UNL     1      90.754 323.399 188.105  1.00  0.00    -0.550 OA
ENDBRANCH  13  14
ENDBRANCH  12  13
ENDBRANCH  11  12
ENDBRANCH  10  11
ENDBRANCH   9  10
ENDBRANCH   8   9
ENDBRANCH   7   8
ENDBRANCH   6   7
ENDBRANCH   5   6
ENDBRANCH   4   5
ENDBRANCH   3   4
ENDBRANCH   2   3
ENDBRANCH   1   2
BRANCH   1  17
ATOM     17  C   UNL     1      89.843 326.320 200.214  1.00  0.00     0.000 C 
BRANCH  17  18
ATOM     18  C   UNL     1      88.605 326.134 201.107  1.00  0.00     0.000 C 
BRANCH  18  19
ATOM     19  C   UNL     1      88.789 326.730 202.515  1.00  0.00     0.000 C 
BRANCH  19  20
ATOM     20  C   UNL     1      90.251 326.981 202.935  1.00  0.00     0.000 C 
BRANCH  20  21
ATOM     21  C   UNL     1      90.450 327.341 204.420  1.00  0.00     0.000 C 
BRANCH  21  22
ATOM     22  C   UNL     1      89.147 327.556 205.218  1.00  0.00    -0.000 C 
BRANCH  22  23
ATOM     23  C   UNL     1      88.924 326.579 206.387  1.00  0.00    -0.000 C 
BRANCH  23  24
ATOM     24  C   UNL     1      88.516 325.171 205.922  1.00  0.00    -0.000 C 
BRANCH  24  25
ATOM     25  C   UNL     1      87.022 325.067 205.565  1.00  0.00    -0.000 C 
BRANCH  25  26
ATOM     26  C   UNL     1      86.542 323.661 205.156  1.00  0.00    -0.000 C 
BRANCH  26  27
ATOM     27  C   UNL     1      87.127 323.193 203.815  1.00  0.00    -0.000 C 
BRANCH  27  28
ATOM     28  C   UNL     1      86.354 323.804 202.636  1.00  0.00    -0.000 C 
BRANCH  28  29
ATOM     29  C   UNL     1      86.270 322.854 201.431  1.00  0.00    -0.003 C 
ATOM     30  C   UNL     1      87.644 322.453 200.897  1.00  0.00     0.004 C 
ENDBRANCH  28  29
ENDBRANCH  27  28
ENDBRANCH  26  27
ENDBRANCH  25  26
ENDBRANCH  24  25
ENDBRANCH  23  24
ENDBRANCH  22  23
ENDBRANCH  21  22
ENDBRANCH  20  21
ENDBRANCH  19  20
ENDBRANCH  18  19
ENDBRANCH  17  18
ENDBRANCH   1  17
TORSDOF 26
ENDMDL
MODEL 5
REMARK VINA RESULT:    -5.864      3.453      9.951
REMARK INTER + INTRA:         -17.685
REMARK INTER:                 -13.338
REMARK INTRA:                  -4.347
REMARK UNBOUND:                -2.908
REMARK SMILES CCCCCCCCCCCCCCCCCCCCCCCCCCCC(=O)[O-]
REMARK SMILES IDX 15 1 16 2 17 3 18 4 19 5 20 6 21 7 22 8 23 9 24 10 25 11
REMARK SMILES IDX 26 12 27 13 28 14 29 15 30 16 14 17 13 18 12 19 11 20 10 21
REMARK SMILES IDX 9 22 8 23 7 24 6 25 5 26 4 27 3 28 2 29 1 30
REMARK H PARENT
REMARK Flexibility Score: inf
ROOT
ATOM      1  C   UNL     1      87.254 322.396 200.330  1.00  0.00     0.000 C 
ENDROOT
BRANCH   1   2
ATOM      2  C   UNL     1      86.205 322.621 201.439  1.00  0.00     0.000 C 
BRANCH   2   3
ATOM      3  C   UNL     1      86.431 323.867 202.314  1.00  0.00     0.000 C 
BRANCH   3   4
ATOM      4  C   UNL     1      87.174 323.552 203.621  1.00  0.00     0.000 C 
BRANCH   4   5
ATOM      5  C   UNL     1      86.384 324.058 204.836  1.00  0.00     0.000 C 
BRANCH   5   6
ATOM      6  C   UNL     1      87.210 324.996 205.732  1.00  0.00     0.000 C 
BRANCH   6   7
ATOM      7  C   UNL     1      88.586 325.328 205.129  1.00  0.00     0.000 C 
BRANCH   7   8
ATOM      8  C   UNL     1      88.898 326.833 205.157  1.00  0.00     0.000 C 
BRANCH   8   9
ATOM      9  C   UNL     1      89.247 327.394 203.771  1.00  0.00     0.000 C 
BRANCH   9  10
ATOM     10  C   UNL     1      89.235 326.284 202.710  1.00  0.00     0.000 C 
BRANCH  10  11
ATOM     11  C   UNL     1      89.617 326.788 201.307  1.00  0.00     0.000 C 
BRANCH  11  12
ATOM     12  C   UNL     1      91.076 326.519 200.894  1.00  0.00     0.006 C 
BRANCH  12  13
ATOM     13  C   UNL     1      91.677 325.291 201.588  1.00  0.00     0.053 C 
BRANCH  13  14
ATOM     14  C   UNL     1      92.940 324.871 200.904  1.00  0.00     0.041 C 
ATOM     15  O   UNL     1      92.933 324.591 199.676  1.00  0.00    -0.550 OA
ATOM     16  O   UNL     1      94.114 324.736 201.633  1.00  0.00    -0.550 OA
ENDBRANCH  13  14
ENDBRANCH  12  13
ENDBRANCH  11  12
ENDBRANCH  10  11
ENDBRANCH   9  10
ENDBRANCH   8   9
ENDBRANCH   7   8
ENDBRANCH   6   7
ENDBRANCH   5   6
ENDBRANCH   4   5
ENDBRANCH   3   4
ENDBRANCH   2   3
ENDBRANCH   1   2
BRANCH   1  17
ATOM     17  C   UNL     1      88.144 323.611 200.011  1.00  0.00     0.000 C 
BRANCH  17  18
ATOM     18  C   UNL     1      89.358 323.249 199.139  1.00  0.00     0.000 C 
BRANCH  18  19
ATOM     19  C   UNL     1      89.778 324.392 198.196  1.00  0.00     0.000 C 
BRANCH  19  20
ATOM     20  C   UNL     1      88.723 325.499 197.995  1.00  0.00     0.000 C 
BRANCH  20  21
ATOM     21  C   UNL     1      88.534 325.962 196.537  1.00  0.00     0.000 C 
BRANCH  21  22
ATOM     22  C   UNL     1      87.132 326.512 196.205  1.00  0.00    -0.000 C 
BRANCH  22  23
ATOM     23  C   UNL     1      86.816 326.639 194.703  1.00  0.00    -0.000 C 
BRANCH  23  24
ATOM     24  C   UNL     1      88.078 326.657 193.824  1.00  0.00    -0.000 C 
BRANCH  24  25
ATOM     25  C   UNL     1      88.090 325.537 192.768  1.00  0.00    -0.000 C 
BRANCH  25  26
ATOM     26  C   UNL     1      86.859 324.610 192.780  1.00  0.00    -0.000 C 
BRANCH  26  27
ATOM     27  C   UNL     1      87.197 323.168 193.187  1.00  0.00    -0.000 C 
BRANCH  27  28
ATOM     28  C   UNL     1      86.646 322.849 194.585  1.00  0.00    -0.000 C 
BRANCH  28  29
ATOM     29  C   UNL     1      87.756 322.515 195.594  1.00  0.00    -0.003 C 
ATOM     30  C   UNL     1      89.154 322.587 194.980  1.00  0.00     0.004 C 
ENDBRANCH  28  29
ENDBRANCH  27  28
ENDBRANCH  26  27
ENDBRANCH  25  26
ENDBRANCH  24  25
ENDBRANCH  23  24
ENDBRANCH  22  23
ENDBRANCH  21  22
ENDBRANCH  20  21
ENDBRANCH  19  20
ENDBRANCH  18  19
ENDBRANCH  17  18
ENDBRANCH   1  17
TORSDOF 26
ENDMDL
MODEL 6
REMARK VINA RESULT:    -5.851      3.366     11.493
REMARK INTER + INTRA:         -17.651
REMARK INTER:                 -15.380
REMARK INTRA:                  -2.271
REMARK UNBOUND:                -2.908
REMARK SMILES CCCCCCCCCCCCCCCCCCCCCCCCCCCC(=O)[O-]
REMARK SMILES IDX 15 1 16 2 17 3 18 4 19 5 20 6 21 7 22 8 23 9 24 10 25 11
REMARK SMILES IDX 26 12 27 13 28 14 29 15 30 16 14 17 13 18 12 19 11 20 10 21
REMARK SMILES IDX 9 22 8 23 7 24 6 25 5 26 4 27 3 28 2 29 1 30
REMARK H PARENT
REMARK Flexibility Score: inf
ROOT
ATOM      1  C   UNL     1      89.133 324.918 200.318  1.00  0.00     0.000 C 
ENDROOT
BRANCH   1   2
ATOM      2  C   UNL     1      89.375 326.427 200.533  1.00  0.00     0.000 C 
BRANCH   2   3
ATOM      3  C   UNL     1      89.571 326.858 201.998  1.00  0.00     0.000 C 
BRANCH   3   4
ATOM      4  C   UNL     1      91.029 327.212 202.325  1.00  0.00     0.000 C 
BRANCH   4   5
ATOM      5  C   UNL     1      91.169 327.657 203.789  1.00  0.00     0.000 C 
BRANCH   5   6
ATOM      6  C   UNL     1      89.827 327.652 204.541  1.00  0.00     0.000 C 
BRANCH   6   7
ATOM      7  C   UNL     1      89.973 327.198 206.004  1.00  0.00     0.000 C 
BRANCH   7   8
ATOM      8  C   UNL     1      88.713 326.493 206.533  1.00  0.00     0.000 C 
BRANCH   8   9
ATOM      9  C   UNL     1      88.327 325.262 205.700  1.00  0.00     0.000 C 
BRANCH   9  10
ATOM     10  C   UNL     1      86.822 324.977 205.805  1.00  0.00     0.000 C 
BRANCH  10  11
ATOM     11  C   UNL     1      86.339 323.916 204.800  1.00  0.00     0.000 C 
BRANCH  11  12
ATOM     12  C   UNL     1      87.179 323.806 203.515  1.00  0.00     0.006 C 
BRANCH  12  13
ATOM     13  C   UNL     1      86.324 323.602 202.258  1.00  0.00     0.053 C 
BRANCH  13  14
ATOM     14  C   UNL     1      86.557 322.239 201.684  1.00  0.00     0.041 C 
ATOM     15  O   UNL     1      86.261 321.212 202.350  1.00  0.00    -0.550 OA
ATOM     16  O   UNL     1      87.150 322.103 200.436  1.00  0.00    -0.550 OA
ENDBRANCH  13  14
ENDBRANCH  12  13
ENDBRANCH  11  12
ENDBRANCH  10  11
ENDBRANCH   9  10
ENDBRANCH   8   9
ENDBRANCH   7   8
ENDBRANCH   6   7
ENDBRANCH   5   6
ENDBRANCH   4   5
ENDBRANCH   3   4
ENDBRANCH   2   3
ENDBRANCH   1   2
BRANCH   1  17
ATOM     17  C   UNL     1      89.773 324.323 199.050  1.00  0.00     0.000 C 
BRANCH  17  18
ATOM     18  C   UNL     1      88.733 323.806 198.042  1.00  0.00     0.000 C 
BRANCH  18  19
ATOM     19  C   UNL     1      88.855 324.475 196.660  1.00  0.00     0.000 C 
BRANCH  19  20
ATOM     20  C   UNL     1      88.139 325.834 196.524  1.00  0.00     0.000 C 
BRANCH  20  21
ATOM     21  C   UNL     1      88.798 326.821 195.541  1.00  0.00     0.000 C 
BRANCH  21  22
ATOM     22  C   UNL     1      88.094 326.947 194.175  1.00  0.00    -0.000 C 
BRANCH  22  23
ATOM     23  C   UNL     1      86.774 326.166 194.041  1.00  0.00    -0.000 C 
BRANCH  23  24
ATOM     24  C   UNL     1      86.931 324.854 193.254  1.00  0.00    -0.000 C 
BRANCH  24  25
ATOM     25  C   UNL     1      88.394 324.543 192.892  1.00  0.00    -0.000 C 
BRANCH  25  26
ATOM     26  C   UNL     1      88.588 323.436 191.838  1.00  0.00    -0.000 C 
BRANCH  26  27
ATOM     27  C   UNL     1      88.609 323.973 190.399  1.00  0.00    -0.000 C 
BRANCH  27  28
ATOM     28  C   UNL     1      89.187 322.930 189.431  1.00  0.00    -0.000 C 
BRANCH  28  29
ATOM     29  C   UNL     1      90.144 323.548 188.400  1.00  0.00    -0.003 C 
ATOM     30  C   UNL     1      91.591 323.094 188.590  1.00  0.00     0.004 C 
ENDBRANCH  28  29
ENDBRANCH  27  28
ENDBRANCH  26  27
ENDBRANCH  25  26
ENDBRANCH  24  25
ENDBRANCH  23  24
ENDBRANCH  22  23
ENDBRANCH  21  22
ENDBRANCH  20  21
ENDBRANCH  19  20
ENDBRANCH  18  19
ENDBRANCH  17  18
ENDBRANCH   1  17
TORSDOF 26
ENDMDL
MODEL 7
REMARK VINA RESULT:    -5.790      1.098      2.214
REMARK INTER + INTRA:         -17.499
REMARK INTER:                 -15.256
REMARK INTRA:                  -2.243
REMARK UNBOUND:                -2.908
REMARK SMILES CCCCCCCCCCCCCCCCCCCCCCCCCCCC(=O)[O-]
REMARK SMILES IDX 15 1 16 2 17 3 18 4 19 5 20 6 21 7 22 8 23 9 24 10 25 11
REMARK SMILES IDX 26 12 27 13 28 14 29 15 30 16 14 17 13 18 12 19 11 20 10 21
REMARK SMILES IDX 9 22 8 23 7 24 6 25 5 26 4 27 3 28 2 29 1 30
REMARK H PARENT
REMARK Flexibility Score: inf
ROOT
ATOM      1  C   UNL     1      88.437 326.341 196.602  1.00  0.00     0.000 C 
ENDROOT
BRANCH   1   2
ATOM      2  C   UNL     1      86.994 326.496 196.078  1.00  0.00     0.000 C 
BRANCH   2   3
ATOM      3  C   UNL     1      86.874 326.943 194.610  1.00  0.00     0.000 C 
BRANCH   3   4
ATOM      4  C   UNL     1      88.147 326.669 193.796  1.00  0.00     0.000 C 
BRANCH   4   5
ATOM      5  C   UNL     1      88.010 325.371 192.987  1.00  0.00     0.000 C 
BRANCH   5   6
ATOM      6  C   UNL     1      86.554 324.887 192.882  1.00  0.00     0.000 C 
BRANCH   6   7
ATOM      7  C   UNL     1      86.352 323.488 193.489  1.00  0.00     0.000 C 
BRANCH   7   8
ATOM      8  C   UNL     1      87.078 322.389 192.696  1.00  0.00     0.000 C 
BRANCH   8   9
ATOM      9  C   UNL     1      86.169 321.695 191.672  1.00  0.00     0.000 C 
BRANCH   9  10
ATOM     10  C   UNL     1      86.269 322.375 190.299  1.00  0.00     0.000 C 
BRANCH  10  11
ATOM     11  C   UNL     1      87.530 321.968 189.516  1.00  0.00     0.000 C 
BRANCH  11  12
ATOM     12  C   UNL     1      88.173 323.093 188.686  1.00  0.00     0.006 C 
BRANCH  12  13
ATOM     13  C   UNL     1      89.573 323.477 189.182  1.00  0.00     0.053 C 
BRANCH  13  14
ATOM     14  C   UNL     1      90.583 322.470 188.727  1.00  0.00     0.041 C 
ATOM     15  O   UNL     1      91.432 322.015 189.537  1.00  0.00    -0.550 OA
ATOM     16  O   UNL     1      90.619 322.076 187.396  1.00  0.00    -0.550 OA
ENDBRANCH  13  14
ENDBRANCH  12  13
ENDBRANCH  11  12
ENDBRANCH  10  11
ENDBRANCH   9  10
ENDBRANCH   8   9
ENDBRANCH   7   8
ENDBRANCH   6   7
ENDBRANCH   5   6
ENDBRANCH   4   5
ENDBRANCH   3   4
ENDBRANCH   2   3
ENDBRANCH   1   2
BRANCH   1  17
ATOM     17  C   UNL     1      88.808 324.932 197.101  1.00  0.00     0.000 C 
BRANCH  17  18
ATOM     18  C   UNL     1      89.262 324.918 198.570  1.00  0.00     0.000 C 
BRANCH  18  19
ATOM     19  C   UNL     1      89.128 326.294 199.250  1.00  0.00     0.000 C 
BRANCH  19  20
ATOM     20  C   UNL     1      89.987 326.487 200.515  1.00  0.00     0.000 C 
BRANCH  20  21
ATOM     21  C   UNL     1      89.193 326.593 201.832  1.00  0.00     0.000 C 
BRANCH  21  22
ATOM     22  C   UNL     1      89.984 327.166 203.025  1.00  0.00    -0.000 C 
BRANCH  22  23
ATOM     23  C   UNL     1      89.125 327.695 204.189  1.00  0.00    -0.000 C 
BRANCH  23  24
ATOM     24  C   UNL     1      89.743 327.408 205.568  1.00  0.00    -0.000 C 
BRANCH  24  25
ATOM     25  C   UNL     1      88.819 326.581 206.480  1.00  0.00    -0.000 C 
BRANCH  25  26
ATOM     26  C   UNL     1      87.646 325.882 205.765  1.00  0.00    -0.000 C 
BRANCH  26  27
ATOM     27  C   UNL     1      87.947 324.420 205.406  1.00  0.00    -0.000 C 
BRANCH  27  28
ATOM     28  C   UNL     1      86.680 323.703 204.913  1.00  0.00    -0.000 C 
BRANCH  28  29
ATOM     29  C   UNL     1      86.896 322.975 203.577  1.00  0.00    -0.003 C 
ATOM     30  C   UNL     1      86.679 323.884 202.368  1.00  0.00     0.004 C 
ENDBRANCH  28  29
ENDBRANCH  27  28
ENDBRANCH  26  27
ENDBRANCH  25  26
ENDBRANCH  24  25
ENDBRANCH  23  24
ENDBRANCH  22  23
ENDBRANCH  21  22
ENDBRANCH  20  21
ENDBRANCH  19  20
ENDBRANCH  18  19
ENDBRANCH  17  18
ENDBRANCH   1  17
TORSDOF 26
ENDMDL
MODEL 8
REMARK VINA RESULT:    -5.770      1.060      2.914
REMARK INTER + INTRA:         -17.448
REMARK INTER:                 -15.026
REMARK INTRA:                  -2.421
REMARK UNBOUND:                -2.908
REMARK SMILES CCCCCCCCCCCCCCCCCCCCCCCCCCCC(=O)[O-]
REMARK SMILES IDX 15 1 16 2 17 3 18 4 19 5 20 6 21 7 22 8 23 9 24 10 25 11
REMARK SMILES IDX 26 12 27 13 28 14 29 15 30 16 14 17 13 18 12 19 11 20 10 21
REMARK SMILES IDX 9 22 8 23 7 24 6 25 5 26 4 27 3 28 2 29 1 30
REMARK H PARENT
REMARK Flexibility Score: inf
ROOT
ATOM      1  C   UNL     1      88.301 323.259 199.605  1.00  0.00     0.000 C 
ENDROOT
BRANCH   1   2
ATOM      2  C   UNL     1      88.557 323.306 198.084  1.00  0.00     0.000 C 
BRANCH   2   3
ATOM      3  C   UNL     1      89.201 324.605 197.567  1.00  0.00     0.000 C 
BRANCH   3   4
ATOM      4  C   UNL     1      88.195 325.534 196.871  1.00  0.00     0.000 C 
BRANCH   4   5
ATOM      5  C   UNL     1      88.911 326.499 195.916  1.00  0.00     0.000 C 
BRANCH   5   6
ATOM      6  C   UNL     1      88.083 326.813 194.658  1.00  0.00     0.000 C 
BRANCH   6   7
ATOM      7  C   UNL     1      86.691 326.157 194.690  1.00  0.00     0.000 C 
BRANCH   7   8
ATOM      8  C   UNL     1      86.423 325.278 193.458  1.00  0.00     0.000 C 
BRANCH   8   9
ATOM      9  C   UNL     1      87.683 325.038 192.614  1.00  0.00     0.000 C 
BRANCH   9  10
ATOM     10  C   UNL     1      87.413 324.012 191.503  1.00  0.00     0.000 C 
BRANCH  10  11
ATOM     11  C   UNL     1      88.701 323.431 190.894  1.00  0.00     0.000 C 
BRANCH  11  12
ATOM     12  C   UNL     1      88.719 323.356 189.356  1.00  0.00     0.006 C 
BRANCH  12  13
ATOM     13  C   UNL     1      89.918 324.083 188.736  1.00  0.00     0.053 C 
BRANCH  13  14
ATOM     14  C   UNL     1      90.921 323.096 188.226  1.00  0.00     0.041 C 
ATOM     15  O   UNL     1      92.153 323.334 188.328  1.00  0.00    -0.550 OA
ATOM     16  O   UNL     1      90.494 321.939 187.589  1.00  0.00    -0.550 OA
ENDBRANCH  13  14
ENDBRANCH  12  13
ENDBRANCH  11  12
ENDBRANCH  10  11
ENDBRANCH   9  10
ENDBRANCH   8   9
ENDBRANCH   7   8
ENDBRANCH   6   7
ENDBRANCH   5   6
ENDBRANCH   4   5
ENDBRANCH   3   4
ENDBRANCH   2   3
ENDBRANCH   1   2
BRANCH   1  17
ATOM     17  C   UNL     1      87.367 322.130 200.080  1.00  0.00     0.000 C 
BRANCH  17  18
ATOM     18  C   UNL     1      86.360 322.595 201.144  1.00  0.00     0.000 C 
BRANCH  18  19
ATOM     19  C   UNL     1      86.990 322.735 202.543  1.00  0.00     0.000 C 
BRANCH  19  20
ATOM     20  C   UNL     1      86.567 323.991 203.330  1.00  0.00     0.000 C 
BRANCH  20  21
ATOM     21  C   UNL     1      86.580 323.834 204.863  1.00  0.00     0.000 C 
BRANCH  21  22
ATOM     22  C   UNL     1      87.260 324.986 205.631  1.00  0.00    -0.000 C 
BRANCH  22  23
ATOM     23  C   UNL     1      88.765 324.800 205.897  1.00  0.00    -0.000 C 
BRANCH  23  24
ATOM     24  C   UNL     1      89.482 326.119 206.233  1.00  0.00    -0.000 C 
BRANCH  24  25
ATOM     25  C   UNL     1      88.901 327.327 205.476  1.00  0.00    -0.000 C 
BRANCH  25  26
ATOM     26  C   UNL     1      89.403 327.498 204.030  1.00  0.00    -0.000 C 
BRANCH  26  27
ATOM     27  C   UNL     1      90.420 326.425 203.616  1.00  0.00    -0.000 C 
BRANCH  27  28
ATOM     28  C   UNL     1      89.884 325.582 202.448  1.00  0.00    -0.000 C 
BRANCH  28  29
ATOM     29  C   UNL     1      89.013 326.399 201.481  1.00  0.00    -0.003 C 
ATOM     30  C   UNL     1      89.757 326.794 200.207  1.00  0.00     0.004 C 
ENDBRANCH  28  29
ENDBRANCH  27  28
ENDBRANCH  26  27
ENDBRANCH  25  26
ENDBRANCH  24  25
ENDBRANCH  23  24
ENDBRANCH  22  23
ENDBRANCH  21  22
ENDBRANCH  20  21
ENDBRANCH  19  20
ENDBRANCH  18  19
ENDBRANCH  17  18
ENDBRANCH   1  17
TORSDOF 26
ENDMDL
MODEL 9
REMARK VINA RESULT:    -5.733      1.552      3.730
REMARK INTER + INTRA:         -17.355
REMARK INTER:                 -13.960
REMARK INTRA:                  -3.396
REMARK UNBOUND:                -2.908
REMARK SMILES CCCCCCCCCCCCCCCCCCCCCCCCCCCC(=O)[O-]
REMARK SMILES IDX 15 1 16 2 17 3 18 4 19 5 20 6 21 7 22 8 23 9 24 10 25 11
REMARK SMILES IDX 26 12 27 13 28 14 29 15 30 16 14 17 13 18 12 19 11 20 10 21
REMARK SMILES IDX 9 22 8 23 7 24 6 25 5 26 4 27 3 28 2 29 1 30
REMARK H PARENT
REMARK Flexibility Score: inf
ROOT
ATOM      1  C   UNL     1      88.394 325.419 201.837  1.00  0.00     0.000 C 
ENDROOT
BRANCH   1   2
ATOM      2  C   UNL     1      89.137 325.260 200.494  1.00  0.00     0.000 C 
BRANCH   2   3
ATOM      3  C   UNL     1      89.618 326.573 199.851  1.00  0.00     0.000 C 
BRANCH   3   4
ATOM      4  C   UNL     1      89.162 326.725 198.392  1.00  0.00     0.000 C 
BRANCH   4   5
ATOM      5  C   UNL     1      88.900 325.353 197.754  1.00  0.00     0.000 C 
BRANCH   5   6
ATOM      6  C   UNL     1      88.299 325.460 196.343  1.00  0.00     0.000 C 
BRANCH   6   7
ATOM      7  C   UNL     1      88.547 326.835 195.699  1.00  0.00     0.000 C 
BRANCH   7   8
ATOM      8  C   UNL     1      88.171 326.868 194.209  1.00  0.00     0.000 C 
BRANCH   8   9
ATOM      9  C   UNL     1      86.754 326.341 193.942  1.00  0.00     0.000 C 
BRANCH   9  10
ATOM     10  C   UNL     1      86.798 325.000 193.194  1.00  0.00     0.000 C 
BRANCH  10  11
ATOM     11  C   UNL     1      88.160 324.725 192.533  1.00  0.00     0.000 C 
BRANCH  11  12
ATOM     12  C   UNL     1      88.126 323.727 191.361  1.00  0.00     0.006 C 
BRANCH  12  13
ATOM     13  C   UNL     1      88.981 324.174 190.170  1.00  0.00     0.053 C 
BRANCH  13  14
ATOM     14  C   UNL     1      88.766 323.264 189.001  1.00  0.00     0.041 C 
ATOM     15  O   UNL     1      87.608 322.857 188.720  1.00  0.00    -0.550 OA
ATOM     16  O   UNL     1      89.851 322.823 188.255  1.00  0.00    -0.550 OA
ENDBRANCH  13  14
ENDBRANCH  12  13
ENDBRANCH  11  12
ENDBRANCH  10  11
ENDBRANCH   9  10
ENDBRANCH   8   9
ENDBRANCH   7   8
ENDBRANCH   6   7
ENDBRANCH   5   6
ENDBRANCH   4   5
ENDBRANCH   3   4
ENDBRANCH   2   3
ENDBRANCH   1   2
BRANCH   1  17
ATOM     17  C   UNL     1      88.412 324.180 202.750  1.00  0.00     0.000 C 
BRANCH  17  18
ATOM     18  C   UNL     1      87.011 323.773 203.234  1.00  0.00     0.000 C 
BRANCH  18  19
ATOM     19  C   UNL     1      86.823 323.967 204.750  1.00  0.00     0.000 C 
BRANCH  19  20
ATOM     20  C   UNL     1      88.056 324.508 205.501  1.00  0.00     0.000 C 
BRANCH  20  21
ATOM     21  C   UNL     1      87.931 325.962 205.997  1.00  0.00     0.000 C 
BRANCH  21  22
ATOM     22  C   UNL     1      88.822 326.982 205.260  1.00  0.00    -0.000 C 
BRANCH  22  23
ATOM     23  C   UNL     1      90.172 327.284 205.936  1.00  0.00    -0.000 C 
BRANCH  23  24
ATOM     24  C   UNL     1      91.200 327.900 204.972  1.00  0.00    -0.000 C 
BRANCH  24  25
ATOM     25  C   UNL     1      90.858 327.652 203.492  1.00  0.00    -0.000 C 
BRANCH  25  26
ATOM     26  C   UNL     1      92.042 327.213 202.609  1.00  0.00    -0.000 C 
BRANCH  26  27
ATOM     27  C   UNL     1      92.167 325.688 202.486  1.00  0.00    -0.000 C 
BRANCH  27  28
ATOM     28  C   UNL     1      92.644 325.066 203.808  1.00  0.00    -0.000 C 
BRANCH  28  29
ATOM     29  C   UNL     1      91.636 324.059 204.384  1.00  0.00    -0.003 C 
ATOM     30  C   UNL     1      91.736 323.925 205.902  1.00  0.00     0.004 C 
ENDBRANCH  28  29
ENDBRANCH  27  28
ENDBRANCH  26  27
ENDBRANCH  25  26
ENDBRANCH  24  25
ENDBRANCH  23  24
ENDBRANCH  22  23
ENDBRANCH  21  22
ENDBRANCH  20  21
ENDBRANCH  19  20
ENDBRANCH  18  19
ENDBRANCH  17  18
ENDBRANCH   1  17
TORSDOF 26
ENDMDL
