MODEL 1
REMARK VINA RESULT:    -4.224      0.000      0.000
REMARK INTER + INTRA:          -5.009
REMARK INTER:                  -5.953
REMARK INTRA:                   0.944
REMARK UNBOUND:                 0.944
REMARK SMILES CC1=CCCC(C)=CCC(C)(C)C=CC1
REMARK SMILES IDX 2 1 3 2 1 3 4 4 5 5 6 6 7 7 8 8 15 10 14 11 13 12 10 13
REMARK SMILES IDX 11 14 12 15 9 16
REMARK H PARENT
REMARK Flexibility Score: 60.00
ROOT
ATOM      1  C   UNL     1       9.345  32.942  25.190  1.00  0.00    -0.074 C 
ATOM      2  C   UNL     1       8.195  32.366  24.768  1.00  0.00    -0.027 C 
ATOM      3  C   UNL     1       9.930  32.477  26.500  1.00  0.00     0.039 C 
ENDROOT
BRANCH   2   4
ATOM      4  C   UNL     1       7.543  32.636  23.434  1.00  0.00     0.032 C 
BRANCH   4   5
ATOM      5  C   UNL     1       7.756  31.452  22.464  1.00  0.00     0.034 C 
BRANCH   5   6
ATOM      6  C   UNL     1       7.887  31.915  21.022  1.00  0.00    -0.077 C 
ATOM      7  C   UNL     1       6.674  32.497  20.341  1.00  0.00     0.039 C 
ATOM      8  C   UNL     1       9.024  31.798  20.292  1.00  0.00    -0.027 CG0
ATOM      9  G   UNL     1      10.309  31.123  20.728  1.00  0.00     0.000 G0
ENDBRANCH   5   6
ENDBRANCH   4   5
ENDBRANCH   2   4
BRANCH   1  10
ATOM     10  C   UNL     1      10.040  34.059  24.427  1.00  0.00     0.057 C 
BRANCH  10  11
ATOM     11  C   UNL     1      10.407  33.665  23.021  1.00  0.00    -0.026 C 
ATOM     12  C   UNL     1      11.041  32.512  22.750  1.00  0.00    -0.024 C 
BRANCH  12  13
ATOM     13  C   UNL     1      11.413  32.067  21.338  1.00  0.00    -0.014 C 
ATOM     14  C   UNL     1      11.667  33.287  20.422  1.00  0.00     0.016 C 
ATOM     15  C   UNL     1      12.733  31.269  21.431  1.00  0.00     0.016 C 
BRANCH  13  16
ATOM     16  C   UNL     1      10.332  31.125  20.727  1.00  0.00     0.038 CG0
ATOM     17  G   UNL     1       9.043  31.806  20.311  1.00  0.00     0.000 G0
ENDBRANCH  13  16
ENDBRANCH  12  13
ENDBRANCH  10  11
ENDBRANCH   1  10
TORSDOF 0
ENDMDL
MODEL 2
REMARK VINA RESULT:    -4.221      1.585      3.994
REMARK INTER + INTRA:          -5.005
REMARK INTER:                  -6.363
REMARK INTRA:                   1.358
REMARK UNBOUND:                 0.944
REMARK SMILES CC1=CCCC(C)=CCC(C)(C)C=CC1
REMARK SMILES IDX 2 1 3 2 1 3 4 4 5 5 6 6 7 7 8 8 15 10 14 11 13 12 10 13
REMARK SMILES IDX 11 14 12 15 9 16
REMARK H PARENT
REMARK Flexibility Score: 60.00
ROOT
ATOM      1  C   UNL     1      12.423  31.480  21.516  1.00  0.00    -0.074 C 
ATOM      2  C   UNL     1      11.254  31.008  21.022  1.00  0.00    -0.027 C 
ATOM      3  C   UNL     1      13.604  30.543  21.554  1.00  0.00     0.039 C 
ENDROOT
BRANCH   2   4
ATOM      4  C   UNL     1      10.015  31.844  20.812  1.00  0.00     0.032 C 
BRANCH   4   5
ATOM      5  C   UNL     1       8.806  31.240  21.562  1.00  0.00     0.034 C 
BRANCH   5   6
ATOM      6  C   UNL     1       7.858  32.314  22.072  1.00  0.00    -0.077 C 
ATOM      7  C   UNL     1       7.041  33.086  21.067  1.00  0.00     0.039 C 
ATOM      8  C   UNL     1       7.731  32.650  23.380  1.00  0.00    -0.027 CG0
ATOM      9  G   UNL     1       8.549  32.104  24.534  1.00  0.00     0.000 G0
ENDBRANCH   5   6
ENDBRANCH   4   5
ENDBRANCH   2   4
BRANCH   1  10
ATOM     10  C   UNL     1      12.580  32.888  22.070  1.00  0.00     0.057 C 
BRANCH  10  11
ATOM     11  C   UNL     1      11.435  33.297  22.957  1.00  0.00    -0.026 C 
ATOM     12  C   UNL     1      10.998  32.514  23.958  1.00  0.00    -0.024 C 
BRANCH  12  13
ATOM     13  C   UNL     1       9.854  32.899  24.892  1.00  0.00    -0.014 C 
ATOM     14  C   UNL     1      10.257  32.701  26.373  1.00  0.00     0.016 C 
ATOM     15  C   UNL     1       9.565  34.402  24.685  1.00  0.00     0.016 C 
BRANCH  13  16
ATOM     16  C   UNL     1       8.549  32.115  24.559  1.00  0.00     0.038 CG0
ATOM     17  G   UNL     1       7.743  32.664  23.399  1.00  0.00     0.000 G0
ENDBRANCH  13  16
ENDBRANCH  12  13
ENDBRANCH  10  11
ENDBRANCH   1  10
TORSDOF 0
ENDMDL
MODEL 3
REMARK VINA RESULT:    -4.116      1.772      2.425
REMARK INTER + INTRA:          -4.856
REMARK INTER:                  -6.141
REMARK INTRA:                   1.285
REMARK UNBOUND:                 0.944
REMARK SMILES CC1=CCCC(C)=CCC(C)(C)C=CC1
REMARK SMILES IDX 2 1 3 2 1 3 4 4 5 5 6 6 7 7 8 8 15 10 14 11 13 12 10 13
REMARK SMILES IDX 11 14 12 15 9 16
REMARK H PARENT
REMARK Flexibility Score: 60.00
ROOT
ATOM      1  C   UNL     1       8.922  32.922  24.047  1.00  0.00    -0.074 C 
ATOM      2  C   UNL     1       8.299  33.509  22.998  1.00  0.00    -0.027 C 
ATOM      3  C   UNL     1       8.072  32.194  25.057  1.00  0.00     0.039 C 
ENDROOT
BRANCH   2   4
ATOM      4  C   UNL     1       9.009  34.177  21.846  1.00  0.00     0.032 C 
BRANCH   4   5
ATOM      5  C   UNL     1       9.330  33.159  20.728  1.00  0.00     0.034 C 
BRANCH   5   6
ATOM      6  C   UNL     1      10.280  33.734  19.690  1.00  0.00    -0.077 C 
ATOM      7  C   UNL     1       9.771  34.820  18.776  1.00  0.00     0.039 C 
ATOM      8  C   UNL     1      11.551  33.300  19.507  1.00  0.00    -0.027 CG0
ATOM      9  G   UNL     1      12.216  32.135  20.214  1.00  0.00     0.000 G0
ENDBRANCH   5   6
ENDBRANCH   4   5
ENDBRANCH   2   4
BRANCH   1  10
ATOM     10  C   UNL     1      10.424  33.004  24.270  1.00  0.00     0.057 C 
BRANCH  10  11
ATOM     11  C   UNL     1      11.216  32.415  23.133  1.00  0.00    -0.026 C 
ATOM     12  C   UNL     1      12.249  33.069  22.575  1.00  0.00    -0.024 C 
BRANCH  12  13
ATOM     13  C   UNL     1      13.089  32.500  21.435  1.00  0.00    -0.014 C 
ATOM     14  C   UNL     1      14.221  33.478  21.039  1.00  0.00     0.016 C 
ATOM     15  C   UNL     1      13.752  31.200  21.943  1.00  0.00     0.016 C 
BRANCH  13  16
ATOM     16  C   UNL     1      12.212  32.133  20.200  1.00  0.00     0.038 CG0
ATOM     17  G   UNL     1      11.539  33.305  19.514  1.00  0.00     0.000 G0
ENDBRANCH  13  16
ENDBRANCH  12  13
ENDBRANCH  10  11
ENDBRANCH   1  10
TORSDOF 0
ENDMDL
MODEL 4
REMARK VINA RESULT:    -4.113      1.519      3.480
REMARK INTER + INTRA:          -4.853
REMARK INTER:                  -6.075
REMARK INTRA:                   1.222
REMARK UNBOUND:                 0.944
REMARK SMILES CC1=CCCC(C)=CCC(C)(C)C=CC1
REMARK SMILES IDX 2 1 3 2 1 3 4 4 5 5 6 6 7 7 8 8 15 10 14 11 13 12 10 13
REMARK SMILES IDX 11 14 12 15 9 16
REMARK H PARENT
REMARK Flexibility Score: 60.00
ROOT
ATOM      1  C   UNL     1      10.011  33.040  24.730  1.00  0.00    -0.074 C 
ATOM      2  C   UNL     1      11.181  32.618  24.197  1.00  0.00    -0.027 C 
ATOM      3  C   UNL     1       9.631  32.529  26.097  1.00  0.00     0.039 C 
ENDROOT
BRANCH   2   4
ATOM      4  C   UNL     1      11.757  33.118  22.895  1.00  0.00     0.032 C 
BRANCH   4   5
ATOM      5  C   UNL     1      11.482  32.120  21.748  1.00  0.00     0.034 C 
BRANCH   5   6
ATOM      6  C   UNL     1      11.631  32.768  20.380  1.00  0.00    -0.077 C 
ATOM      7  C   UNL     1      12.975  33.340  20.001  1.00  0.00     0.039 C 
ATOM      8  C   UNL     1      10.616  32.901  19.492  1.00  0.00    -0.027 CG0
ATOM      9  G   UNL     1       9.164  32.527  19.720  1.00  0.00     0.000 G0
ENDBRANCH   5   6
ENDBRANCH   4   5
ENDBRANCH   2   4
BRANCH   1  10
ATOM     10  C   UNL     1       9.051  33.963  23.995  1.00  0.00     0.057 C 
BRANCH  10  11
ATOM     11  C   UNL     1       8.661  33.440  22.639  1.00  0.00    -0.026 C 
ATOM     12  C   UNL     1       8.626  34.234  21.555  1.00  0.00    -0.024 C 
BRANCH  12  13
ATOM     13  C   UNL     1       8.255  33.740  20.160  1.00  0.00    -0.014 C 
ATOM     14  C   UNL     1       6.757  33.359  20.088  1.00  0.00     0.016 C 
ATOM     15  C   UNL     1       8.489  34.904  19.172  1.00  0.00     0.016 C 
BRANCH  13  16
ATOM     16  C   UNL     1       9.156  32.549  19.712  1.00  0.00     0.038 CG0
ATOM     17  G   UNL     1      10.616  32.891  19.493  1.00  0.00     0.000 G0
ENDBRANCH  13  16
ENDBRANCH  12  13
ENDBRANCH  10  11
ENDBRANCH   1  10
TORSDOF 0
ENDMDL
MODEL 5
REMARK VINA RESULT:    -4.080      2.588      5.831
REMARK INTER + INTRA:          -4.807
REMARK INTER:                  -5.743
REMARK INTRA:                   0.936
REMARK UNBOUND:                 0.944
REMARK SMILES CC1=CCCC(C)=CCC(C)(C)C=CC1
REMARK SMILES IDX 2 1 3 2 1 3 4 4 5 5 6 6 7 7 8 8 15 10 14 11 13 12 10 13
REMARK SMILES IDX 11 14 12 15 9 16
REMARK H PARENT
REMARK Flexibility Score: 60.00
ROOT
ATOM      1  C   UNL     1      15.449  33.478  19.732  1.00  0.00    -0.074 C 
ATOM      2  C   UNL     1      15.562  32.296  19.082  1.00  0.00    -0.027 C 
ATOM      3  C   UNL     1      15.675  34.743  18.944  1.00  0.00     0.039 C 
ENDROOT
BRANCH   2   4
ATOM      4  C   UNL     1      15.260  30.951  19.695  1.00  0.00     0.032 C 
BRANCH   4   5
ATOM      5  C   UNL     1      13.895  30.414  19.208  1.00  0.00     0.034 C 
BRANCH   5   6
ATOM      6  C   UNL     1      13.166  29.640  20.295  1.00  0.00    -0.077 C 
ATOM      7  C   UNL     1      13.756  28.333  20.762  1.00  0.00     0.039 C 
ATOM      8  C   UNL     1      11.991  30.033  20.844  1.00  0.00    -0.027 CG0
ATOM      9  G   UNL     1      11.158  31.230  20.429  1.00  0.00     0.000 G0
ENDBRANCH   5   6
ENDBRANCH   4   5
ENDBRANCH   2   4
BRANCH   1  10
ATOM     10  C   UNL     1      15.151  33.580  21.220  1.00  0.00     0.057 C 
BRANCH  10  11
ATOM     11  C   UNL     1      13.838  32.947  21.597  1.00  0.00    -0.026 C 
ATOM     12  C   UNL     1      12.711  33.186  20.905  1.00  0.00    -0.024 C 
BRANCH  12  13
ATOM     13  C   UNL     1      11.365  32.550  21.243  1.00  0.00    -0.014 C 
ATOM     14  C   UNL     1      11.240  32.293  22.763  1.00  0.00     0.016 C 
ATOM     15  C   UNL     1      10.259  33.554  20.847  1.00  0.00     0.016 C 
BRANCH  13  16
ATOM     16  C   UNL     1      11.127  31.240  20.433  1.00  0.00     0.038 CG0
ATOM     17  G   UNL     1      11.975  30.057  20.856  1.00  0.00     0.000 G0
ENDBRANCH  13  16
ENDBRANCH  12  13
ENDBRANCH  10  11
ENDBRANCH   1  10
TORSDOF 0
ENDMDL
MODEL 6
REMARK VINA RESULT:    -4.021      1.704      4.822
REMARK INTER + INTRA:          -4.723
REMARK INTER:                  -6.163
REMARK INTRA:                   1.439
REMARK UNBOUND:                 0.944
REMARK SMILES CC1=CCCC(C)=CCC(C)(C)C=CC1
REMARK SMILES IDX 2 1 3 2 1 3 4 4 5 5 6 6 7 7 8 8 15 10 14 11 13 12 10 13
REMARK SMILES IDX 11 14 12 15 9 16
REMARK H PARENT
REMARK Flexibility Score: 60.00
ROOT
ATOM      1  C   UNL     1      12.177  33.218  20.799  1.00  0.00    -0.074 C 
ATOM      2  C   UNL     1      12.367  33.292  22.137  1.00  0.00    -0.027 C 
ATOM      3  C   UNL     1      13.223  33.830  19.902  1.00  0.00     0.039 C 
ENDROOT
BRANCH   2   4
ATOM      4  C   UNL     1      11.477  32.636  23.165  1.00  0.00     0.032 C 
BRANCH   4   5
ATOM      5  C   UNL     1      10.794  33.693  24.061  1.00  0.00     0.034 C 
BRANCH   5   6
ATOM      6  C   UNL     1       9.693  33.088  24.918  1.00  0.00    -0.077 C 
ATOM      7  C   UNL     1      10.077  32.440  26.225  1.00  0.00     0.039 C 
ATOM      8  C   UNL     1       8.386  33.059  24.559  1.00  0.00    -0.027 CG0
ATOM      9  G   UNL     1       7.803  33.523  23.239  1.00  0.00     0.000 G0
ENDBRANCH   5   6
ENDBRANCH   4   5
ENDBRANCH   2   4
BRANCH   1  10
ATOM     10  C   UNL     1      10.942  32.592  20.171  1.00  0.00     0.057 C 
BRANCH  10  11
ATOM     11  C   UNL     1       9.668  32.984  20.872  1.00  0.00    -0.026 C 
ATOM     12  C   UNL     1       8.855  32.070  21.428  1.00  0.00    -0.024 C 
BRANCH  12  13
ATOM     13  C   UNL     1       7.565  32.426  22.164  1.00  0.00    -0.014 C 
ATOM     14  C   UNL     1       6.461  32.855  21.168  1.00  0.00     0.016 C 
ATOM     15  C   UNL     1       7.072  31.155  22.890  1.00  0.00     0.016 C 
BRANCH  13  16
ATOM     16  C   UNL     1       7.802  33.527  23.242  1.00  0.00     0.038 CG0
ATOM     17  G   UNL     1       8.380  33.032  24.553  1.00  0.00     0.000 G0
ENDBRANCH  13  16
ENDBRANCH  12  13
ENDBRANCH  10  11
ENDBRANCH   1  10
TORSDOF 0
ENDMDL
MODEL 7
REMARK VINA RESULT:    -3.998      1.835      4.283
REMARK INTER + INTRA:          -4.690
REMARK INTER:                  -5.874
REMARK INTRA:                   1.184
REMARK UNBOUND:                 0.944
REMARK SMILES CC1=CCCC(C)=CCC(C)(C)C=CC1
REMARK SMILES IDX 2 1 3 2 1 3 4 4 5 5 6 6 7 7 8 8 15 10 14 11 13 12 10 13
REMARK SMILES IDX 11 14 12 15 9 16
REMARK H PARENT
REMARK Flexibility Score: 60.00
ROOT
ATOM      1  C   UNL     1      13.354  32.857  21.304  1.00  0.00    -0.074 C 
ATOM      2  C   UNL     1      12.683  33.361  20.241  1.00  0.00    -0.027 C 
ATOM      3  C   UNL     1      14.740  33.383  21.579  1.00  0.00     0.039 C 
ENDROOT
BRANCH   2   4
ATOM      4  C   UNL     1      11.253  33.025  19.896  1.00  0.00     0.032 C 
BRANCH   4   5
ATOM      5  C   UNL     1      10.348  34.272  20.011  1.00  0.00     0.034 C 
BRANCH   5   6
ATOM      6  C   UNL     1       8.897  33.901  20.275  1.00  0.00    -0.077 C 
ATOM      7  C   UNL     1       8.047  33.459  19.110  1.00  0.00     0.039 C 
ATOM      8  C   UNL     1       8.307  33.981  21.493  1.00  0.00    -0.027 CG0
ATOM      9  G   UNL     1       8.930  34.526  22.762  1.00  0.00     0.000 G0
ENDBRANCH   5   6
ENDBRANCH   4   5
ENDBRANCH   2   4
BRANCH   1  10
ATOM     10  C   UNL     1      12.791  31.760  22.195  1.00  0.00     0.057 C 
BRANCH  10  11
ATOM     11  C   UNL     1      11.372  32.027  22.623  1.00  0.00    -0.026 C 
ATOM     12  C   UNL     1      11.027  33.153  23.270  1.00  0.00    -0.024 C 
BRANCH  12  13
ATOM     13  C   UNL     1       9.598  33.470  23.704  1.00  0.00    -0.014 C 
ATOM     14  C   UNL     1       8.743  32.183  23.777  1.00  0.00     0.016 C 
ATOM     15  C   UNL     1       9.662  34.069  25.127  1.00  0.00     0.016 C 
BRANCH  13  16
ATOM     16  C   UNL     1       8.935  34.530  22.773  1.00  0.00     0.038 CG0
ATOM     17  G   UNL     1       8.324  33.978  21.500  1.00  0.00     0.000 G0
ENDBRANCH  13  16
ENDBRANCH  12  13
ENDBRANCH  10  11
ENDBRANCH   1  10
TORSDOF 0
ENDMDL
MODEL 8
REMARK VINA RESULT:    -3.992      1.085      3.281
REMARK INTER + INTRA:          -4.682
REMARK INTER:                  -6.046
REMARK INTRA:                   1.364
REMARK UNBOUND:                 0.944
REMARK SMILES CC1=CCCC(C)=CCC(C)(C)C=CC1
REMARK SMILES IDX 2 1 3 2 1 3 4 4 5 5 6 6 7 7 8 8 15 10 14 11 13 12 10 13
REMARK SMILES IDX 11 14 12 15 9 16
REMARK H PARENT
REMARK Flexibility Score: 60.00
ROOT
ATOM      1  C   UNL     1       9.778  33.049  25.091  1.00  0.00    -0.074 C 
ATOM      2  C   UNL     1      10.809  32.869  24.233  1.00  0.00    -0.027 C 
ATOM      3  C   UNL     1       9.926  32.517  26.495  1.00  0.00     0.039 C 
ENDROOT
BRANCH   2   4
ATOM      4  C   UNL     1      10.866  33.435  22.835  1.00  0.00     0.032 C 
BRANCH   4   5
ATOM      5  C   UNL     1      10.965  32.306  21.784  1.00  0.00     0.034 C 
BRANCH   5   6
ATOM      6  C   UNL     1      10.156  32.618  20.535  1.00  0.00    -0.077 C 
ATOM      7  C   UNL     1      10.555  33.809  19.700  1.00  0.00     0.039 C 
ATOM      8  C   UNL     1       9.066  31.911  20.145  1.00  0.00    -0.027 CG0
ATOM      9  G   UNL     1       8.413  30.772  20.903  1.00  0.00     0.000 G0
ENDBRANCH   5   6
ENDBRANCH   4   5
ENDBRANCH   2   4
BRANCH   1  10
ATOM     10  C   UNL     1       8.473  33.718  24.690  1.00  0.00     0.057 C 
BRANCH  10  11
ATOM     11  C   UNL     1       7.875  33.127  23.441  1.00  0.00    -0.026 C 
ATOM     12  C   UNL     1       7.923  31.808  23.186  1.00  0.00    -0.024 C 
BRANCH  12  13
ATOM     13  C   UNL     1       7.312  31.167  21.943  1.00  0.00    -0.014 C 
ATOM     14  C   UNL     1       6.424  29.959  22.323  1.00  0.00     0.016 C 
ATOM     15  C   UNL     1       6.406  32.220  21.269  1.00  0.00     0.016 C 
BRANCH  13  16
ATOM     16  C   UNL     1       8.406  30.753  20.912  1.00  0.00     0.038 CG0
ATOM     17  G   UNL     1       9.065  31.902  20.174  1.00  0.00     0.000 G0
ENDBRANCH  13  16
ENDBRANCH  12  13
ENDBRANCH  10  11
ENDBRANCH   1  10
TORSDOF 0
ENDMDL
MODEL 9
REMARK VINA RESULT:    -3.548      2.118      4.670
REMARK INTER + INTRA:          -4.056
REMARK INTER:                  -5.357
REMARK INTRA:                   1.301
REMARK UNBOUND:                 0.944
REMARK SMILES CC1=CCCC(C)=CCC(C)(C)C=CC1
REMARK SMILES IDX 2 1 3 2 1 3 4 4 5 5 6 6 7 7 8 8 15 10 14 11 13 12 10 13
REMARK SMILES IDX 11 14 12 15 9 16
REMARK H PARENT
REMARK Flexibility Score: 60.00
ROOT
ATOM      1  C   UNL     1      14.971  30.185  22.577  1.00  0.00    -0.074 C 
ATOM      2  C   UNL     1      14.394  29.214  21.830  1.00  0.00    -0.027 C 
ATOM      3  C   UNL     1      15.638  29.781  23.868  1.00  0.00     0.039 C 
ENDROOT
BRANCH   2   4
ATOM      4  C   UNL     1      13.787  29.433  20.465  1.00  0.00     0.032 C 
BRANCH   4   5
ATOM      5  C   UNL     1      12.277  29.108  20.473  1.00  0.00     0.034 C 
BRANCH   5   6
ATOM      6  C   UNL     1      11.495  30.009  19.530  1.00  0.00    -0.077 C 
ATOM      7  C   UNL     1      11.749  29.887  18.048  1.00  0.00     0.039 C 
ATOM      8  C   UNL     1      10.608  30.947  19.942  1.00  0.00    -0.027 CG0
ATOM      9  G   UNL     1      10.305  31.331  21.377  1.00  0.00     0.000 G0
ENDBRANCH   5   6
ENDBRANCH   4   5
ENDBRANCH   2   4
BRANCH   1  10
ATOM     10  C   UNL     1      14.936  31.656  22.194  1.00  0.00     0.057 C 
BRANCH  10  11
ATOM     11  C   UNL     1      13.591  32.092  21.676  1.00  0.00    -0.026 C 
ATOM     12  C   UNL     1      12.490  32.063  22.446  1.00  0.00    -0.024 C 
BRANCH  12  13
ATOM     13  C   UNL     1      11.113  32.514  21.966  1.00  0.00    -0.014 C 
ATOM     14  C   UNL     1      10.337  33.224  23.100  1.00  0.00     0.016 C 
ATOM     15  C   UNL     1      11.325  33.540  20.831  1.00  0.00     0.016 C 
BRANCH  13  16
ATOM     16  C   UNL     1      10.289  31.326  21.385  1.00  0.00     0.038 CG0
ATOM     17  G   UNL     1      10.607  30.960  19.948  1.00  0.00     0.000 G0
ENDBRANCH  13  16
ENDBRANCH  12  13
ENDBRANCH  10  11
ENDBRANCH   1  10
TORSDOF 0
ENDMDL
