MODEL 1
REMARK VINA RESULT:    -4.242      0.000      0.000
REMARK INTER + INTRA:          -8.044
REMARK INTER:                  -6.722
REMARK INTRA:                  -1.323
REMARK UNBOUND:                -1.323
REMARK SMILES CCCCCCCCCCCC(=O)[O-]
REMARK SMILES IDX 7 1 8 2 9 3 10 4 11 5 12 6 13 7 14 8 6 9 5 10 4 11 3 12 2 13
REMARK SMILES IDX 1 14
REMARK H PARENT
REMARK Flexibility Score: inf
ROOT
ATOM      1  C   UNL     1     -20.101  17.225 -23.886  1.00  0.00     0.000 C 
ENDROOT
BRANCH   1   2
ATOM      2  C   UNL     1     -20.592  15.765 -23.909  1.00  0.00     0.000 C 
BRANCH   2   3
ATOM      3  C   UNL     1     -20.750  15.112 -22.525  1.00  0.00     0.000 C 
BRANCH   3   4
ATOM      4  C   UNL     1     -21.542  15.985 -21.536  1.00  0.00     0.006 C 
BRANCH   4   5
ATOM      5  C   UNL     1     -23.058  15.847 -21.728  1.00  0.00     0.053 C 
BRANCH   5   6
ATOM      6  C   UNL     1     -23.674  14.994 -20.662  1.00  0.00     0.041 C 
ATOM      7  O   UNL     1     -23.277  13.812 -20.487  1.00  0.00    -0.550 OA
ATOM      8  O   UNL     1     -24.664  15.517 -19.838  1.00  0.00    -0.550 OA
ENDBRANCH   5   6
ENDBRANCH   4   5
ENDBRANCH   3   4
ENDBRANCH   2   3
ENDBRANCH   1   2
BRANCH   1   9
ATOM      9  C   UNL     1     -20.818  18.114 -24.913  1.00  0.00     0.000 C 
BRANCH   9  10
ATOM     10  C   UNL     1     -22.259  17.641 -25.138  1.00  0.00    -0.000 C 
BRANCH  10  11
ATOM     11  C   UNL     1     -23.261  18.566 -24.434  1.00  0.00    -0.000 C 
BRANCH  11  12
ATOM     12  C   UNL     1     -22.632  19.891 -23.973  1.00  0.00    -0.000 C 
BRANCH  12  13
ATOM     13  C   UNL     1     -23.177  20.398 -22.622  1.00  0.00    -0.003 C 
ATOM     14  C   UNL     1     -22.730  19.524 -21.450  1.00  0.00     0.004 C 
ENDBRANCH  12  13
ENDBRANCH  11  12
ENDBRANCH  10  11
ENDBRANCH   9  10
ENDBRANCH   1   9
TORSDOF 10
ENDMDL
MODEL 2
REMARK VINA RESULT:    -4.187      1.704      3.773
REMARK INTER + INTRA:          -7.958
REMARK INTER:                  -7.030
REMARK INTRA:                  -0.928
REMARK UNBOUND:                -1.323
REMARK SMILES CCCCCCCCCCCC(=O)[O-]
REMARK SMILES IDX 7 1 8 2 9 3 10 4 11 5 12 6 13 7 14 8 6 9 5 10 4 11 3 12 2 13
REMARK SMILES IDX 1 14
REMARK H PARENT
REMARK Flexibility Score: inf
ROOT
ATOM      1  C   UNL     1     -22.871  20.164 -22.868  1.00  0.00     0.000 C 
ENDROOT
BRANCH   1   2
ATOM      2  C   UNL     1     -22.750  19.135 -21.728  1.00  0.00     0.000 C 
BRANCH   2   3
ATOM      3  C   UNL     1     -22.709  17.666 -22.183  1.00  0.00     0.000 C 
BRANCH   3   4
ATOM      4  C   UNL     1     -21.330  17.013 -21.982  1.00  0.00     0.006 C 
BRANCH   4   5
ATOM      5  C   UNL     1     -21.340  15.521 -22.337  1.00  0.00     0.053 C 
BRANCH   5   6
ATOM      6  C   UNL     1     -21.905  14.692 -21.224  1.00  0.00     0.041 C 
ATOM      7  O   UNL     1     -23.124  14.376 -21.225  1.00  0.00    -0.550 OA
ATOM      8  O   UNL     1     -21.078  14.240 -20.204  1.00  0.00    -0.550 OA
ENDBRANCH   5   6
ENDBRANCH   4   5
ENDBRANCH   3   4
ENDBRANCH   2   3
ENDBRANCH   1   2
BRANCH   1   9
ATOM      9  C   UNL     1     -22.836  19.522 -24.262  1.00  0.00     0.000 C 
BRANCH   9  10
ATOM     10  C   UNL     1     -21.573  19.938 -25.026  1.00  0.00    -0.000 C 
BRANCH  10  11
ATOM     11  C   UNL     1     -20.651  18.735 -25.264  1.00  0.00    -0.000 C 
BRANCH  11  12
ATOM     12  C   UNL     1     -21.261  17.689 -26.211  1.00  0.00    -0.000 C 
BRANCH  12  13
ATOM     13  C   UNL     1     -21.280  18.130 -27.690  1.00  0.00    -0.003 C 
ATOM     14  C   UNL     1     -20.271  17.357 -28.540  1.00  0.00     0.004 C 
ENDBRANCH  12  13
ENDBRANCH  11  12
ENDBRANCH  10  11
ENDBRANCH   9  10
ENDBRANCH   1   9
TORSDOF 10
ENDMDL
MODEL 3
REMARK VINA RESULT:    -4.135      1.716      2.691
REMARK INTER + INTRA:          -7.875
REMARK INTER:                  -6.603
REMARK INTRA:                  -1.272
REMARK UNBOUND:                -1.323
REMARK SMILES CCCCCCCCCCCC(=O)[O-]
REMARK SMILES IDX 7 1 8 2 9 3 10 4 11 5 12 6 13 7 14 8 6 9 5 10 4 11 3 12 2 13
REMARK SMILES IDX 1 14
REMARK H PARENT
REMARK Flexibility Score: inf
ROOT
ATOM      1  C   UNL     1     -22.501  17.134 -24.874  1.00  0.00     0.000 C 
ENDROOT
BRANCH   1   2
ATOM      2  C   UNL     1     -21.064  17.688 -24.880  1.00  0.00     0.000 C 
BRANCH   2   3
ATOM      3  C   UNL     1     -20.137  17.099 -23.802  1.00  0.00     0.000 C 
BRANCH   3   4
ATOM      4  C   UNL     1     -20.610  15.729 -23.287  1.00  0.00     0.006 C 
BRANCH   4   5
ATOM      5  C   UNL     1     -20.824  15.725 -21.768  1.00  0.00     0.053 C 
BRANCH   5   6
ATOM      6  C   UNL     1     -20.925  14.331 -21.227  1.00  0.00     0.041 C 
ATOM      7  O   UNL     1     -21.108  14.140 -19.996  1.00  0.00    -0.550 OA
ATOM      8  O   UNL     1     -20.851  13.244 -22.089  1.00  0.00    -0.550 OA
ENDBRANCH   5   6
ENDBRANCH   4   5
ENDBRANCH   3   4
ENDBRANCH   2   3
ENDBRANCH   1   2
BRANCH   1   9
ATOM      9  C   UNL     1     -23.500  18.067 -24.173  1.00  0.00     0.000 C 
BRANCH   9  10
ATOM     10  C   UNL     1     -24.204  17.347 -23.016  1.00  0.00    -0.000 C 
BRANCH  10  11
ATOM     11  C   UNL     1     -23.741  17.899 -21.660  1.00  0.00    -0.000 C 
BRANCH  11  12
ATOM     12  C   UNL     1     -22.698  19.019 -21.794  1.00  0.00    -0.000 C 
BRANCH  12  13
ATOM     13  C   UNL     1     -23.188  20.387 -21.274  1.00  0.00    -0.003 C 
ATOM     14  C   UNL     1     -23.392  21.399 -22.401  1.00  0.00     0.004 C 
ENDBRANCH  12  13
ENDBRANCH  11  12
ENDBRANCH  10  11
ENDBRANCH   9  10
ENDBRANCH   1   9
TORSDOF 10
ENDMDL
MODEL 4
REMARK VINA RESULT:    -4.135      2.966      5.417
REMARK INTER + INTRA:          -7.874
REMARK INTER:                  -6.847
REMARK INTRA:                  -1.028
REMARK UNBOUND:                -1.323
REMARK SMILES CCCCCCCCCCCC(=O)[O-]
REMARK SMILES IDX 7 1 8 2 9 3 10 4 11 5 12 6 13 7 14 8 6 9 5 10 4 11 3 12 2 13
REMARK SMILES IDX 1 14
REMARK H PARENT
REMARK Flexibility Score: inf
ROOT
ATOM      1  C   UNL     1     -23.440  20.430 -22.110  1.00  0.00     0.000 C 
ENDROOT
BRANCH   1   2
ATOM      2  C   UNL     1     -22.829  20.936 -23.430  1.00  0.00     0.000 C 
BRANCH   2   3
ATOM      3  C   UNL     1     -22.711  19.876 -24.539  1.00  0.00     0.000 C 
BRANCH   3   4
ATOM      4  C   UNL     1     -21.396  19.979 -25.330  1.00  0.00     0.006 C 
BRANCH   4   5
ATOM      5  C   UNL     1     -20.666  18.632 -25.417  1.00  0.00     0.053 C 
BRANCH   5   6
ATOM      6  C   UNL     1     -21.416  17.652 -26.267  1.00  0.00     0.041 C 
ATOM      7  O   UNL     1     -21.949  16.638 -25.744  1.00  0.00    -0.550 OA
ATOM      8  O   UNL     1     -21.554  17.876 -27.631  1.00  0.00    -0.550 OA
ENDBRANCH   5   6
ENDBRANCH   4   5
ENDBRANCH   3   4
ENDBRANCH   2   3
ENDBRANCH   1   2
BRANCH   1   9
ATOM      9  C   UNL     1     -22.757  19.159 -21.582  1.00  0.00     0.000 C 
BRANCH   9  10
ATOM     10  C   UNL     1     -23.712  17.960 -21.635  1.00  0.00    -0.000 C 
BRANCH  10  11
ATOM     11  C   UNL     1     -23.066  16.773 -22.362  1.00  0.00    -0.000 C 
BRANCH  11  12
ATOM     12  C   UNL     1     -22.549  15.691 -21.401  1.00  0.00    -0.000 C 
BRANCH  12  13
ATOM     13  C   UNL     1     -21.037  15.416 -21.533  1.00  0.00    -0.003 C 
ATOM     14  C   UNL     1     -20.347  16.399 -22.478  1.00  0.00     0.004 C 
ENDBRANCH  12  13
ENDBRANCH  11  12
ENDBRANCH  10  11
ENDBRANCH   9  10
ENDBRANCH   1   9
TORSDOF 10
ENDMDL
MODEL 5
REMARK VINA RESULT:    -4.093      3.891      5.871
REMARK INTER + INTRA:          -7.808
REMARK INTER:                  -6.518
REMARK INTRA:                  -1.290
REMARK UNBOUND:                -1.323
REMARK SMILES CCCCCCCCCCCC(=O)[O-]
REMARK SMILES IDX 7 1 8 2 9 3 10 4 11 5 12 6 13 7 14 8 6 9 5 10 4 11 3 12 2 13
REMARK SMILES IDX 1 14
REMARK H PARENT
REMARK Flexibility Score: inf
ROOT
ATOM      1  C   UNL     1     -24.234  18.376 -22.190  1.00  0.00     0.000 C 
ENDROOT
BRANCH   1   2
ATOM      2  C   UNL     1     -22.939  18.977 -21.614  1.00  0.00     0.000 C 
BRANCH   2   3
ATOM      3  C   UNL     1     -22.974  20.499 -21.389  1.00  0.00     0.000 C 
BRANCH   3   4
ATOM      4  C   UNL     1     -23.663  21.259 -22.535  1.00  0.00     0.006 C 
BRANCH   4   5
ATOM      5  C   UNL     1     -22.762  21.385 -23.770  1.00  0.00     0.053 C 
BRANCH   5   6
ATOM      6  C   UNL     1     -23.079  22.617 -24.562  1.00  0.00     0.041 C 
ATOM      7  O   UNL     1     -24.260  23.053 -24.612  1.00  0.00    -0.550 OA
ATOM      8  O   UNL     1     -22.064  23.304 -25.216  1.00  0.00    -0.550 OA
ENDBRANCH   5   6
ENDBRANCH   4   5
ENDBRANCH   3   4
ENDBRANCH   2   3
ENDBRANCH   1   2
BRANCH   1   9
ATOM      9  C   UNL     1     -23.974  17.277 -23.231  1.00  0.00     0.000 C 
BRANCH   9  10
ATOM     10  C   UNL     1     -23.545  17.884 -24.573  1.00  0.00    -0.000 C 
BRANCH  10  11
ATOM     11  C   UNL     1     -22.208  17.295 -25.043  1.00  0.00    -0.000 C 
BRANCH  11  12
ATOM     12  C   UNL     1     -20.997  18.136 -24.607  1.00  0.00    -0.000 C 
BRANCH  12  13
ATOM     13  C   UNL     1     -19.872  17.308 -23.953  1.00  0.00    -0.003 C 
ATOM     14  C   UNL     1     -20.365  16.505 -22.749  1.00  0.00     0.004 C 
ENDBRANCH  12  13
ENDBRANCH  11  12
ENDBRANCH  10  11
ENDBRANCH   9  10
ENDBRANCH   1   9
TORSDOF 10
ENDMDL
MODEL 6
REMARK VINA RESULT:    -4.088      3.862      5.454
REMARK INTER + INTRA:          -7.801
REMARK INTER:                  -6.382
REMARK INTRA:                  -1.419
REMARK UNBOUND:                -1.323
REMARK SMILES CCCCCCCCCCCC(=O)[O-]
REMARK SMILES IDX 7 1 8 2 9 3 10 4 11 5 12 6 13 7 14 8 6 9 5 10 4 11 3 12 2 13
REMARK SMILES IDX 1 14
REMARK H PARENT
REMARK Flexibility Score: inf
ROOT
ATOM      1  C   UNL     1     -20.241  18.195 -24.823  1.00  0.00     0.000 C 
ENDROOT
BRANCH   1   2
ATOM      2  C   UNL     1     -21.066  18.458 -26.097  1.00  0.00     0.000 C 
BRANCH   2   3
ATOM      3  C   UNL     1     -21.482  19.925 -26.309  1.00  0.00     0.000 C 
BRANCH   3   4
ATOM      4  C   UNL     1     -21.515  20.734 -25.001  1.00  0.00     0.006 C 
BRANCH   4   5
ATOM      5  C   UNL     1     -22.872  21.413 -24.776  1.00  0.00     0.053 C 
BRANCH   5   6
ATOM      6  C   UNL     1     -22.712  22.829 -24.313  1.00  0.00     0.041 C 
ATOM      7  O   UNL     1     -23.010  23.148 -23.132  1.00  0.00    -0.550 OA
ATOM      8  O   UNL     1     -22.200  23.789 -25.176  1.00  0.00    -0.550 OA
ENDBRANCH   5   6
ENDBRANCH   4   5
ENDBRANCH   3   4
ENDBRANCH   2   3
ENDBRANCH   1   2
BRANCH   1   9
ATOM      9  C   UNL     1     -20.942  17.244 -23.842  1.00  0.00     0.000 C 
BRANCH   9  10
ATOM     10  C   UNL     1     -22.422  17.073 -24.206  1.00  0.00    -0.000 C 
BRANCH  10  11
ATOM     11  C   UNL     1     -23.316  17.934 -23.303  1.00  0.00    -0.000 C 
BRANCH  11  12
ATOM     12  C   UNL     1     -22.684  18.219 -21.931  1.00  0.00    -0.000 C 
BRANCH  12  13
ATOM     13  C   UNL     1     -22.819  19.688 -21.480  1.00  0.00    -0.003 C 
ATOM     14  C   UNL     1     -24.268  20.175 -21.509  1.00  0.00     0.004 C 
ENDBRANCH  12  13
ENDBRANCH  11  12
ENDBRANCH  10  11
ENDBRANCH   9  10
ENDBRANCH   1   9
TORSDOF 10
ENDMDL
MODEL 7
REMARK VINA RESULT:    -4.078      1.762      2.978
REMARK INTER + INTRA:          -7.784
REMARK INTER:                  -6.579
REMARK INTRA:                  -1.205
REMARK UNBOUND:                -1.323
REMARK SMILES CCCCCCCCCCCC(=O)[O-]
REMARK SMILES IDX 7 1 8 2 9 3 10 4 11 5 12 6 13 7 14 8 6 9 5 10 4 11 3 12 2 13
REMARK SMILES IDX 1 14
REMARK H PARENT
REMARK Flexibility Score: inf
ROOT
ATOM      1  C   UNL     1     -21.143  19.808 -25.184  1.00  0.00     0.000 C 
ENDROOT
BRANCH   1   2
ATOM      2  C   UNL     1     -20.576  18.386 -25.346  1.00  0.00     0.000 C 
BRANCH   2   3
ATOM      3  C   UNL     1     -21.213  17.325 -24.431  1.00  0.00     0.000 C 
BRANCH   3   4
ATOM      4  C   UNL     1     -20.243  16.793 -23.362  1.00  0.00     0.006 C 
BRANCH   4   5
ATOM      5  C   UNL     1     -20.966  16.413 -22.064  1.00  0.00     0.053 C 
BRANCH   5   6
ATOM      6  C   UNL     1     -20.733  14.977 -21.702  1.00  0.00     0.041 C 
ATOM      7  O   UNL     1     -20.249  14.181 -22.550  1.00  0.00    -0.550 OA
ATOM      8  O   UNL     1     -21.018  14.528 -20.419  1.00  0.00    -0.550 OA
ENDBRANCH   5   6
ENDBRANCH   4   5
ENDBRANCH   3   4
ENDBRANCH   2   3
ENDBRANCH   1   2
BRANCH   1   9
ATOM      9  C   UNL     1     -22.575  19.824 -24.631  1.00  0.00     0.000 C 
BRANCH   9  10
ATOM     10  C   UNL     1     -22.851  21.118 -23.856  1.00  0.00    -0.000 C 
BRANCH  10  11
ATOM     11  C   UNL     1     -23.334  20.815 -22.432  1.00  0.00    -0.000 C 
BRANCH  11  12
ATOM     12  C   UNL     1     -23.087  19.358 -22.012  1.00  0.00    -0.000 C 
BRANCH  12  13
ATOM     13  C   UNL     1     -24.381  18.566 -21.731  1.00  0.00    -0.003 C 
ATOM     14  C   UNL     1     -24.574  17.402 -22.703  1.00  0.00     0.004 C 
ENDBRANCH  12  13
ENDBRANCH  11  12
ENDBRANCH  10  11
ENDBRANCH   9  10
ENDBRANCH   1   9
TORSDOF 10
ENDMDL
MODEL 8
REMARK VINA RESULT:    -4.052      3.046      4.389
REMARK INTER + INTRA:          -7.744
REMARK INTER:                  -6.329
REMARK INTRA:                  -1.415
REMARK UNBOUND:                -1.323
REMARK SMILES CCCCCCCCCCCC(=O)[O-]
REMARK SMILES IDX 7 1 8 2 9 3 10 4 11 5 12 6 13 7 14 8 6 9 5 10 4 11 3 12 2 13
REMARK SMILES IDX 1 14
REMARK H PARENT
REMARK Flexibility Score: inf
ROOT
ATOM      1  C   UNL     1     -22.757  15.406 -21.997  1.00  0.00     0.000 C 
ENDROOT
BRANCH   1   2
ATOM      2  C   UNL     1     -21.356  15.536 -21.370  1.00  0.00     0.000 C 
BRANCH   2   3
ATOM      3  C   UNL     1     -20.324  16.280 -22.236  1.00  0.00     0.000 C 
BRANCH   3   4
ATOM      4  C   UNL     1     -20.772  16.440 -23.699  1.00  0.00     0.006 C 
BRANCH   4   5
ATOM      5  C   UNL     1     -20.212  17.717 -24.339  1.00  0.00     0.053 C 
BRANCH   5   6
ATOM      6  C   UNL     1     -20.955  18.080 -25.588  1.00  0.00     0.041 C 
ATOM      7  O   UNL     1     -21.219  19.286 -25.842  1.00  0.00    -0.550 OA
ATOM      8  O   UNL     1     -21.327  17.091 -26.490  1.00  0.00    -0.550 OA
ENDBRANCH   5   6
ENDBRANCH   4   5
ENDBRANCH   3   4
ENDBRANCH   2   3
ENDBRANCH   1   2
BRANCH   1   9
ATOM      9  C   UNL     1     -23.886  15.759 -21.018  1.00  0.00     0.000 C 
BRANCH   9  10
ATOM     10  C   UNL     1     -24.475  17.139 -21.334  1.00  0.00    -0.000 C 
BRANCH  10  11
ATOM     11  C   UNL     1     -24.198  17.538 -22.789  1.00  0.00    -0.000 C 
BRANCH  11  12
ATOM     12  C   UNL     1     -23.495  18.899 -22.915  1.00  0.00    -0.000 C 
BRANCH  12  13
ATOM     13  C   UNL     1     -22.767  19.341 -21.628  1.00  0.00    -0.003 C 
ATOM     14  C   UNL     1     -23.173  20.747 -21.184  1.00  0.00     0.004 C 
ENDBRANCH  12  13
ENDBRANCH  11  12
ENDBRANCH  10  11
ENDBRANCH   9  10
ENDBRANCH   1   9
TORSDOF 10
ENDMDL
MODEL 9
REMARK VINA RESULT:    -4.051      4.553      6.820
REMARK INTER + INTRA:          -7.743
REMARK INTER:                  -6.695
REMARK INTRA:                  -1.048
REMARK UNBOUND:                -1.323
REMARK SMILES CCCCCCCCCCCC(=O)[O-]
REMARK SMILES IDX 7 1 8 2 9 3 10 4 11 5 12 6 13 7 14 8 6 9 5 10 4 11 3 12 2 13
REMARK SMILES IDX 1 14
REMARK H PARENT
REMARK Flexibility Score: inf
ROOT
ATOM      1  C   UNL     1     -22.880  19.628 -21.501  1.00  0.00     0.000 C 
ENDROOT
BRANCH   1   2
ATOM      2  C   UNL     1     -23.217  20.825 -22.410  1.00  0.00     0.000 C 
BRANCH   2   3
ATOM      3  C   UNL     1     -22.906  20.615 -23.902  1.00  0.00     0.000 C 
BRANCH   3   4
ATOM      4  C   UNL     1     -22.771  21.936 -24.679  1.00  0.00     0.006 C 
BRANCH   4   5
ATOM      5  C   UNL     1     -21.424  22.045 -25.405  1.00  0.00     0.053 C 
BRANCH   5   6
ATOM      6  C   UNL     1     -21.053  23.473 -25.669  1.00  0.00     0.041 C 
ATOM      7  O   UNL     1     -20.733  24.231 -24.715  1.00  0.00    -0.550 OA
ATOM      8  O   UNL     1     -21.026  23.955 -26.971  1.00  0.00    -0.550 OA
ENDBRANCH   5   6
ENDBRANCH   4   5
ENDBRANCH   3   4
ENDBRANCH   2   3
ENDBRANCH   1   2
BRANCH   1   9
ATOM      9  C   UNL     1     -22.960  18.280 -22.232  1.00  0.00     0.000 C 
BRANCH   9  10
ATOM     10  C   UNL     1     -21.705  17.439 -21.971  1.00  0.00    -0.000 C 
BRANCH  10  11
ATOM     11  C   UNL     1     -21.259  16.702 -23.241  1.00  0.00    -0.000 C 
BRANCH  11  12
ATOM     12  C   UNL     1     -20.004  17.316 -23.881  1.00  0.00    -0.000 C 
BRANCH  12  13
ATOM     13  C   UNL     1     -20.312  18.310 -25.020  1.00  0.00    -0.003 C 
ATOM     14  C   UNL     1     -21.489  17.856 -25.885  1.00  0.00     0.004 C 
ENDBRANCH  12  13
ENDBRANCH  11  12
ENDBRANCH  10  11
ENDBRANCH   9  10
ENDBRANCH   1   9
TORSDOF 10
ENDMDL
