MODEL 1
REMARK VINA RESULT:    -4.248      0.000      0.000
REMARK INTER + INTRA:          -4.372
REMARK INTER:                  -4.372
REMARK INTRA:                   0.000
REMARK UNBOUND:                 0.000
REMARK SMILES Oc1ccc2[nH]ccc2c1
REMARK SMILES IDX 3 1 4 2 5 3 9 4 8 5 7 6 6 7 10 8 2 9 1 11
REMARK H PARENT 6 10 1 12
REMARK Flexibility Score: inf
ROOT
ATOM      1  C   UNL     1      15.804  34.742   6.236  1.00  0.00     0.048 A 
ATOM      2  C   UNL     1      16.271  34.850   7.560  1.00  0.00     0.030 A 
ATOM      3  C   UNL     1      17.620  34.596   7.796  1.00  0.00     0.046 A 
ATOM      4  C   UNL     1      18.476  34.251   6.784  1.00  0.00     0.003 A 
ATOM      5  C   UNL     1      19.722  34.071   7.342  1.00  0.00     0.028 A 
ATOM      6  C   UNL     1      19.553  34.323   8.699  1.00  0.00     0.083 A 
ATOM      7  N   UNL     1      18.267  34.643   8.972  1.00  0.00    -0.361 N 
ATOM      8  C   UNL     1      18.046  34.135   5.464  1.00  0.00     0.056 A 
ATOM      9  C   UNL     1      16.685  34.385   5.189  1.00  0.00     0.116 A 
ATOM     10  H   UNL     1      17.864  34.878   9.906  1.00  0.00     0.166 HD
ENDROOT
BRANCH   9  11
ATOM     11  O   UNL     1      16.197  34.284   3.889  1.00  0.00    -0.508 OA
ATOM     12  H   UNL     1      16.665  33.716   3.191  1.00  0.00     0.293 HD
ENDBRANCH   9  11
TORSDOF 1
ENDMDL
MODEL 2
REMARK VINA RESULT:    -4.248      2.357      3.565
REMARK INTER + INTRA:          -4.372
REMARK INTER:                  -4.372
REMARK INTRA:                   0.000
REMARK UNBOUND:                 0.000
REMARK SMILES Oc1ccc2[nH]ccc2c1
REMARK SMILES IDX 3 1 4 2 5 3 9 4 8 5 7 6 6 7 10 8 2 9 1 11
REMARK H PARENT 6 10 1 12
REMARK Flexibility Score: inf
ROOT
ATOM      1  C   UNL     1      19.050  34.317   8.897  1.00  0.00     0.048 A 
ATOM      2  C   UNL     1      17.709  34.693   8.697  1.00  0.00     0.030 A 
ATOM      3  C   UNL     1      17.206  34.641   7.398  1.00  0.00     0.046 A 
ATOM      4  C   UNL     1      17.980  34.239   6.342  1.00  0.00     0.003 A 
ATOM      5  C   UNL     1      17.196  34.298   5.211  1.00  0.00     0.028 A 
ATOM      6  C   UNL     1      15.954  34.745   5.652  1.00  0.00     0.083 A 
ATOM      7  N   UNL     1      15.966  34.953   6.989  1.00  0.00    -0.361 N 
ATOM      8  C   UNL     1      19.310  33.860   6.506  1.00  0.00     0.056 A 
ATOM      9  C   UNL     1      19.852  33.901   7.808  1.00  0.00     0.116 A 
ATOM     10  H   UNL     1      15.172  35.288   7.578  1.00  0.00     0.166 HD
ENDROOT
BRANCH   9  11
ATOM     11  O   UNL     1      21.176  33.535   8.035  1.00  0.00    -0.508 OA
ATOM     12  H   UNL     1      21.730  33.084   7.315  1.00  0.00     0.293 HD
ENDBRANCH   9  11
TORSDOF 1
ENDMDL
MODEL 3
REMARK VINA RESULT:    -4.139      1.438      2.179
REMARK INTER + INTRA:          -4.260
REMARK INTER:                  -4.260
REMARK INTRA:                   0.000
REMARK UNBOUND:                 0.000
REMARK SMILES Oc1ccc2[nH]ccc2c1
REMARK SMILES IDX 3 1 4 2 5 3 9 4 8 5 7 6 6 7 10 8 2 9 1 11
REMARK H PARENT 6 10 1 12
REMARK Flexibility Score: inf
ROOT
ATOM      1  C   UNL     1      16.102  34.618   5.326  1.00  0.00     0.048 A 
ATOM      2  C   UNL     1      17.477  34.327   5.400  1.00  0.00     0.030 A 
ATOM      3  C   UNL     1      18.071  34.308   6.660  1.00  0.00     0.046 A 
ATOM      4  C   UNL     1      17.353  34.561   7.798  1.00  0.00     0.003 A 
ATOM      5  C   UNL     1      18.221  34.464   8.863  1.00  0.00     0.028 A 
ATOM      6  C   UNL     1      19.454  34.149   8.300  1.00  0.00     0.083 A 
ATOM      7  N   UNL     1      19.357  34.055   6.954  1.00  0.00    -0.361 N 
ATOM      8  C   UNL     1      15.991  34.852   7.761  1.00  0.00     0.056 A 
ATOM      9  C   UNL     1      15.358  34.880   6.500  1.00  0.00     0.116 A 
ATOM     10  H   UNL     1      20.126  33.831   6.285  1.00  0.00     0.166 HD
ENDROOT
BRANCH   9  11
ATOM     11  O   UNL     1      13.999  35.166   6.398  1.00  0.00    -0.508 OA
ATOM     12  H   UNL     1      13.620  35.657   5.596  1.00  0.00     0.293 HD
ENDBRANCH   9  11
TORSDOF 1
ENDMDL
MODEL 4
REMARK VINA RESULT:    -4.055     16.956     17.465
REMARK INTER + INTRA:          -4.174
REMARK INTER:                  -4.174
REMARK INTRA:                   0.000
REMARK UNBOUND:                 0.000
REMARK SMILES Oc1ccc2[nH]ccc2c1
REMARK SMILES IDX 3 1 4 2 5 3 9 4 8 5 7 6 6 7 10 8 2 9 1 11
REMARK H PARENT 6 10 1 12
REMARK Flexibility Score: inf
ROOT
ATOM      1  C   UNL     1      24.019  18.876   5.015  1.00  0.00     0.048 A 
ATOM      2  C   UNL     1      25.214  18.992   4.280  1.00  0.00     0.030 A 
ATOM      3  C   UNL     1      26.391  19.229   4.987  1.00  0.00     0.046 A 
ATOM      4  C   UNL     1      26.400  19.349   6.351  1.00  0.00     0.003 A 
ATOM      5  C   UNL     1      27.703  19.577   6.736  1.00  0.00     0.028 A 
ATOM      6  C   UNL     1      28.436  19.584   5.553  1.00  0.00     0.083 A 
ATOM      7  N   UNL     1      27.629  19.372   4.487  1.00  0.00    -0.361 N 
ATOM      8  C   UNL     1      25.236  19.240   7.108  1.00  0.00     0.056 A 
ATOM      9  C   UNL     1      24.025  18.999   6.424  1.00  0.00     0.116 A 
ATOM     10  H   UNL     1      27.915  19.328   3.485  1.00  0.00     0.166 HD
ENDROOT
BRANCH   9  11
ATOM     11  O   UNL     1      22.828  18.881   7.126  1.00  0.00    -0.508 OA
ATOM     12  H   UNL     1      22.807  18.543   8.082  1.00  0.00     0.293 HD
ENDBRANCH   9  11
TORSDOF 1
ENDMDL
MODEL 5
REMARK VINA RESULT:    -4.050     16.987     17.581
REMARK INTER + INTRA:          -4.169
REMARK INTER:                  -4.169
REMARK INTRA:                   0.000
REMARK UNBOUND:                 0.000
REMARK SMILES Oc1ccc2[nH]ccc2c1
REMARK SMILES IDX 3 1 4 2 5 3 9 4 8 5 7 6 6 7 10 8 2 9 1 11
REMARK H PARENT 6 10 1 12
REMARK Flexibility Score: inf
ROOT
ATOM      1  C   UNL     1      25.318  19.368   7.175  1.00  0.00     0.048 A 
ATOM      2  C   UNL     1      26.605  19.535   6.629  1.00  0.00     0.030 A 
ATOM      3  C   UNL     1      26.755  19.365   5.254  1.00  0.00     0.046 A 
ATOM      4  C   UNL     1      25.694  19.047   4.448  1.00  0.00     0.003 A 
ATOM      5  C   UNL     1      26.170  18.953   3.159  1.00  0.00     0.028 A 
ATOM      6  C   UNL     1      27.531  19.226   3.252  1.00  0.00     0.083 A 
ATOM      7  N   UNL     1      27.883  19.477   4.535  1.00  0.00    -0.361 N 
ATOM      8  C   UNL     1      24.409  18.875   4.956  1.00  0.00     0.056 A 
ATOM      9  C   UNL     1      24.221  19.039   6.345  1.00  0.00     0.116 A 
ATOM     10  H   UNL     1      28.837  19.710   4.888  1.00  0.00     0.166 HD
ENDROOT
BRANCH   9  11
ATOM     11  O   UNL     1      22.959  18.880   6.912  1.00  0.00    -0.508 OA
ATOM     12  H   UNL     1      22.417  18.035   6.766  1.00  0.00     0.293 HD
ENDBRANCH   9  11
TORSDOF 1
ENDMDL
MODEL 6
REMARK VINA RESULT:    -4.034     16.993     17.520
REMARK INTER + INTRA:          -4.151
REMARK INTER:                  -4.151
REMARK INTRA:                   0.000
REMARK UNBOUND:                 0.000
REMARK SMILES Oc1ccc2[nH]ccc2c1
REMARK SMILES IDX 3 1 4 2 5 3 9 4 8 5 7 6 6 7 10 8 2 9 1 11
REMARK H PARENT 6 10 1 12
REMARK Flexibility Score: inf
ROOT
ATOM      1  C   UNL     1      28.011  19.837   5.168  1.00  0.00     0.048 A 
ATOM      2  C   UNL     1      27.245  19.622   6.329  1.00  0.00     0.030 A 
ATOM      3  C   UNL     1      25.890  19.337   6.171  1.00  0.00     0.046 A 
ATOM      4  C   UNL     1      25.309  19.266   4.933  1.00  0.00     0.003 A 
ATOM      5  C   UNL     1      23.977  18.970   5.120  1.00  0.00     0.028 A 
ATOM      6  C   UNL     1      23.815  18.875   6.498  1.00  0.00     0.083 A 
ATOM      7  N   UNL     1      24.987  19.100   7.136  1.00  0.00    -0.361 N 
ATOM      8  C   UNL     1      26.038  19.474   3.765  1.00  0.00     0.056 A 
ATOM      9  C   UNL     1      27.413  19.764   3.888  1.00  0.00     0.116 A 
ATOM     10  H   UNL     1      25.151  19.091   8.167  1.00  0.00     0.166 HD
ENDROOT
BRANCH   9  11
ATOM     11  O   UNL     1      28.194  19.982   2.756  1.00  0.00    -0.508 OA
ATOM     12  H   UNL     1      28.180  20.871   2.267  1.00  0.00     0.293 HD
ENDBRANCH   9  11
TORSDOF 1
ENDMDL
MODEL 7
REMARK VINA RESULT:    -3.906      2.308      3.698
REMARK INTER + INTRA:          -4.020
REMARK INTER:                  -4.020
REMARK INTRA:                   0.000
REMARK UNBOUND:                 0.000
REMARK SMILES Oc1ccc2[nH]ccc2c1
REMARK SMILES IDX 3 1 4 2 5 3 9 4 8 5 7 6 6 7 10 8 2 9 1 11
REMARK H PARENT 6 10 1 12
REMARK Flexibility Score: inf
ROOT
ATOM      1  C   UNL     1      17.578  34.267   5.474  1.00  0.00     0.048 A 
ATOM      2  C   UNL     1      16.218  34.580   5.295  1.00  0.00     0.030 A 
ATOM      3  C   UNL     1      15.470  34.903   6.425  1.00  0.00     0.046 A 
ATOM      4  C   UNL     1      16.027  34.919   7.676  1.00  0.00     0.003 A 
ATOM      5  C   UNL     1      15.035  35.273   8.564  1.00  0.00     0.028 A 
ATOM      6  C   UNL     1      13.898  35.458   7.784  1.00  0.00     0.083 A 
ATOM      7  N   UNL     1      14.169  35.231   6.478  1.00  0.00    -0.361 N 
ATOM      8  C   UNL     1      17.369  34.614   7.889  1.00  0.00     0.056 A 
ATOM      9  C   UNL     1      18.156  34.282   6.765  1.00  0.00     0.116 A 
ATOM     10  H   UNL     1      13.501  35.297   5.679  1.00  0.00     0.166 HD
ENDROOT
BRANCH   9  11
ATOM     11  O   UNL     1      19.504  33.967   6.914  1.00  0.00    -0.508 OA
ATOM     12  H   UNL     1      20.169  34.121   6.164  1.00  0.00     0.293 HD
ENDBRANCH   9  11
TORSDOF 1
ENDMDL
MODEL 8
REMARK VINA RESULT:    -3.783      9.131     10.124
REMARK INTER + INTRA:          -3.894
REMARK INTER:                  -3.894
REMARK INTRA:                   0.000
REMARK UNBOUND:                 0.000
REMARK SMILES Oc1ccc2[nH]ccc2c1
REMARK SMILES IDX 3 1 4 2 5 3 9 4 8 5 7 6 6 7 10 8 2 9 1 11
REMARK H PARENT 6 10 1 12
REMARK Flexibility Score: inf
ROOT
ATOM      1  C   UNL     1      27.426  37.766   2.173  1.00  0.00     0.048 A 
ATOM      2  C   UNL     1      26.975  38.159   3.447  1.00  0.00     0.030 A 
ATOM      3  C   UNL     1      25.632  38.502   3.585  1.00  0.00     0.046 A 
ATOM      4  C   UNL     1      24.766  38.462   2.525  1.00  0.00     0.003 A 
ATOM      5  C   UNL     1      23.529  38.853   2.988  1.00  0.00     0.028 A 
ATOM      6  C   UNL     1      23.714  39.116   4.341  1.00  0.00     0.083 A 
ATOM      7  N   UNL     1      25.001  38.900   4.702  1.00  0.00    -0.361 N 
ATOM      8  C   UNL     1      25.179  38.079   1.251  1.00  0.00     0.056 A 
ATOM      9  C   UNL     1      26.534  37.725   1.075  1.00  0.00     0.116 A 
ATOM     10  H   UNL     1      25.413  39.020   5.652  1.00  0.00     0.166 HD
ENDROOT
BRANCH   9  11
ATOM     11  O   UNL     1      27.006  37.334  -0.175  1.00  0.00    -0.508 OA
ATOM     12  H   UNL     1      27.996  37.193  -0.346  1.00  0.00     0.293 HD
ENDBRANCH   9  11
TORSDOF 1
ENDMDL
MODEL 9
REMARK VINA RESULT:    -3.656      2.643      3.852
REMARK INTER + INTRA:          -3.763
REMARK INTER:                  -3.763
REMARK INTRA:                   0.000
REMARK UNBOUND:                 0.000
REMARK SMILES Oc1ccc2[nH]ccc2c1
REMARK SMILES IDX 3 1 4 2 5 3 9 4 8 5 7 6 6 7 10 8 2 9 1 11
REMARK H PARENT 6 10 1 12
REMARK Flexibility Score: inf
ROOT
ATOM      1  C   UNL     1      19.626  33.863   6.939  1.00  0.00     0.048 A 
ATOM      2  C   UNL     1      18.302  34.309   6.771  1.00  0.00     0.030 A 
ATOM      3  C   UNL     1      17.612  34.739   7.903  1.00  0.00     0.046 A 
ATOM      4  C   UNL     1      18.190  34.732   9.144  1.00  0.00     0.003 A 
ATOM      5  C   UNL     1      17.256  35.211  10.036  1.00  0.00     0.028 A 
ATOM      6  C   UNL     1      16.130  35.491   9.268  1.00  0.00     0.083 A 
ATOM      7  N   UNL     1      16.352  35.200   7.965  1.00  0.00    -0.361 N 
ATOM      8  C   UNL     1      19.498  34.297   9.345  1.00  0.00     0.056 A 
ATOM      9  C   UNL     1      20.226  33.855   8.221  1.00  0.00     0.116 A 
ATOM     10  H   UNL     1      15.680  35.313   7.175  1.00  0.00     0.166 HD
ENDROOT
BRANCH   9  11
ATOM     11  O   UNL     1      21.537  33.407   8.359  1.00  0.00    -0.508 OA
ATOM     12  H   UNL     1      21.757  32.571   8.889  1.00  0.00     0.293 HD
ENDBRANCH   9  11
TORSDOF 1
ENDMDL
