MODEL 1
REMARK VINA RESULT:    -3.313      0.000      0.000
REMARK INTER + INTRA:          -3.719
REMARK INTER:                  -3.700
REMARK INTRA:                  -0.018
REMARK UNBOUND:                -0.018
REMARK SMILES CCCC(=O)[O-]
REMARK SMILES IDX 3 1 4 2 5 3 6 4 2 5 1 6
REMARK H PARENT
REMARK Flexibility Score: inf
ROOT
ATOM      1  C   UNL     1      15.776  15.843  38.121  1.00  0.00     0.052 C 
ENDROOT
BRANCH   1   2
ATOM      2  C   UNL     1      14.852  14.710  37.798  1.00  0.00     0.041 C 
ATOM      3  O   UNL     1      14.016  14.822  36.863  1.00  0.00    -0.550 OA
ATOM      4  O   UNL     1      14.890  13.543  38.551  1.00  0.00    -0.550 OA
ENDBRANCH   1   2
BRANCH   1   5
ATOM      5  C   UNL     1      16.602  16.271  36.900  1.00  0.00     0.003 C 
ATOM      6  C   UNL     1      16.810  17.784  36.840  1.00  0.00     0.004 C 
ENDBRANCH   1   5
TORSDOF 2
ENDMDL
MODEL 2
REMARK VINA RESULT:    -3.303      0.098      1.322
REMARK INTER + INTRA:          -3.708
REMARK INTER:                  -3.697
REMARK INTRA:                  -0.011
REMARK UNBOUND:                -0.018
REMARK SMILES CCCC(=O)[O-]
REMARK SMILES IDX 3 1 4 2 5 3 6 4 2 5 1 6
REMARK H PARENT
REMARK Flexibility Score: inf
ROOT
ATOM      1  C   UNL     1      15.769  15.857  38.098  1.00  0.00     0.052 C 
ENDROOT
BRANCH   1   2
ATOM      2  C   UNL     1      14.883  14.677  37.842  1.00  0.00     0.041 C 
ATOM      3  O   UNL     1      15.010  13.629  38.528  1.00  0.00    -0.550 OA
ATOM      4  O   UNL     1      13.940  14.721  36.822  1.00  0.00    -0.550 OA
ENDBRANCH   1   2
BRANCH   1   5
ATOM      5  C   UNL     1      16.560  16.258  36.845  1.00  0.00     0.003 C 
ATOM      6  C   UNL     1      16.886  17.751  36.816  1.00  0.00     0.004 C 
ENDBRANCH   1   5
TORSDOF 2
ENDMDL
MODEL 3
REMARK VINA RESULT:    -3.263      7.977      8.434
REMARK INTER + INTRA:          -3.663
REMARK INTER:                  -3.592
REMARK INTRA:                  -0.072
REMARK UNBOUND:                -0.018
REMARK SMILES CCCC(=O)[O-]
REMARK SMILES IDX 3 1 4 2 5 3 6 4 2 5 1 6
REMARK H PARENT
REMARK Flexibility Score: inf
ROOT
ATOM      1  C   UNL     1       8.668  18.480  32.679  1.00  0.00     0.052 C 
ENDROOT
BRANCH   1   2
ATOM      2  C   UNL     1       9.873  18.141  33.501  1.00  0.00     0.041 C 
ATOM      3  O   UNL     1       9.961  17.018  34.063  1.00  0.00    -0.550 OA
ATOM      4  O   UNL     1      10.884  19.078  33.674  1.00  0.00    -0.550 OA
ENDBRANCH   1   2
BRANCH   1   5
ATOM      5  C   UNL     1       9.050  18.904  31.254  1.00  0.00     0.003 C 
ATOM      6  C   UNL     1       9.803  17.806  30.504  1.00  0.00     0.004 C 
ENDBRANCH   1   5
TORSDOF 2
ENDMDL
MODEL 4
REMARK VINA RESULT:    -3.234      0.878      1.027
REMARK INTER + INTRA:          -3.631
REMARK INTER:                  -3.596
REMARK INTRA:                  -0.035
REMARK UNBOUND:                -0.018
REMARK SMILES CCCC(=O)[O-]
REMARK SMILES IDX 3 1 4 2 5 3 6 4 2 5 1 6
REMARK H PARENT
REMARK Flexibility Score: inf
ROOT
ATOM      1  C   UNL     1      15.762  15.703  38.350  1.00  0.00     0.052 C 
ENDROOT
BRANCH   1   2
ATOM      2  C   UNL     1      14.764  14.748  37.772  1.00  0.00     0.041 C 
ATOM      3  O   UNL     1      14.019  15.108  36.823  1.00  0.00    -0.550 OA
ATOM      4  O   UNL     1      14.631  13.472  38.305  1.00  0.00    -0.550 OA
ENDBRANCH   1   2
BRANCH   1   5
ATOM      5  C   UNL     1      15.225  17.141  38.378  1.00  0.00     0.003 C 
ATOM      6  C   UNL     1      16.143  18.118  37.644  1.00  0.00     0.004 C 
ENDBRANCH   1   5
TORSDOF 2
ENDMDL
MODEL 5
REMARK VINA RESULT:    -3.181      1.112      1.406
REMARK INTER + INTRA:          -3.571
REMARK INTER:                  -3.515
REMARK INTRA:                  -0.056
REMARK UNBOUND:                -0.018
REMARK SMILES CCCC(=O)[O-]
REMARK SMILES IDX 3 1 4 2 5 3 6 4 2 5 1 6
REMARK H PARENT
REMARK Flexibility Score: inf
ROOT
ATOM      1  C   UNL     1      15.845  15.699  38.058  1.00  0.00     0.052 C 
ENDROOT
BRANCH   1   2
ATOM      2  C   UNL     1      14.371  15.697  37.792  1.00  0.00     0.041 C 
ATOM      3  O   UNL     1      13.899  15.012  36.846  1.00  0.00    -0.550 OA
ATOM      4  O   UNL     1      13.522  16.478  38.567  1.00  0.00    -0.550 OA
ENDBRANCH   1   2
BRANCH   1   5
ATOM      5  C   UNL     1      16.628  16.367  36.919  1.00  0.00     0.003 C 
ATOM      6  C   UNL     1      16.607  17.893  37.016  1.00  0.00     0.004 C 
ENDBRANCH   1   5
TORSDOF 2
ENDMDL
MODEL 6
REMARK VINA RESULT:    -3.162      8.838      9.247
REMARK INTER + INTRA:          -3.550
REMARK INTER:                  -3.514
REMARK INTRA:                  -0.036
REMARK UNBOUND:                -0.018
REMARK SMILES CCCC(=O)[O-]
REMARK SMILES IDX 3 1 4 2 5 3 6 4 2 5 1 6
REMARK H PARENT
REMARK Flexibility Score: inf
ROOT
ATOM      1  C   UNL     1       9.636  19.500  32.323  1.00  0.00     0.052 C 
ENDROOT
BRANCH   1   2
ATOM      2  C   UNL     1       8.686  19.430  33.479  1.00  0.00     0.041 C 
ATOM      3  O   UNL     1       8.528  20.428  34.230  1.00  0.00    -0.550 OA
ATOM      4  O   UNL     1       8.002  18.250  33.748  1.00  0.00    -0.550 OA
ENDBRANCH   1   2
BRANCH   1   5
ATOM      5  C   UNL     1       9.016  18.927  31.041  1.00  0.00     0.003 C 
ATOM      6  C   UNL     1       9.781  17.712  30.518  1.00  0.00     0.004 C 
ENDBRANCH   1   5
TORSDOF 2
ENDMDL
MODEL 7
REMARK VINA RESULT:    -3.119     10.343     10.938
REMARK INTER + INTRA:          -3.502
REMARK INTER:                  -3.492
REMARK INTRA:                  -0.010
REMARK UNBOUND:                -0.018
REMARK SMILES CCCC(=O)[O-]
REMARK SMILES IDX 3 1 4 2 5 3 6 4 2 5 1 6
REMARK H PARENT
REMARK Flexibility Score: inf
ROOT
ATOM      1  C   UNL     1       8.326  19.945  30.458  1.00  0.00     0.052 C 
ENDROOT
BRANCH   1   2
ATOM      2  C   UNL     1       8.191  21.244  31.191  1.00  0.00     0.041 C 
ATOM      3  O   UNL     1       8.021  22.316  30.552  1.00  0.00    -0.550 OA
ATOM      4  O   UNL     1       8.286  21.276  32.576  1.00  0.00    -0.550 OA
ENDBRANCH   1   2
BRANCH   1   5
ATOM      5  C   UNL     1       8.995  18.869  31.325  1.00  0.00     0.003 C 
ATOM      6  C   UNL     1       9.805  17.873  30.494  1.00  0.00     0.004 C 
ENDBRANCH   1   5
TORSDOF 2
ENDMDL
MODEL 8
REMARK VINA RESULT:    -3.026      1.569      2.061
REMARK INTER + INTRA:          -3.398
REMARK INTER:                  -3.384
REMARK INTRA:                  -0.014
REMARK UNBOUND:                -0.018
REMARK SMILES CCCC(=O)[O-]
REMARK SMILES IDX 3 1 4 2 5 3 6 4 2 5 1 6
REMARK H PARENT
REMARK Flexibility Score: inf
ROOT
ATOM      1  C   UNL     1      17.232  16.550  36.504  1.00  0.00     0.052 C 
ENDROOT
BRANCH   1   2
ATOM      2  C   UNL     1      15.928  15.980  36.971  1.00  0.00     0.041 C 
ATOM      3  O   UNL     1      14.915  16.021  36.224  1.00  0.00    -0.550 OA
ATOM      4  O   UNL     1      15.822  15.436  38.245  1.00  0.00    -0.550 OA
ENDBRANCH   1   2
BRANCH   1   5
ATOM      5  C   UNL     1      17.079  17.996  36.014  1.00  0.00     0.003 C 
ATOM      6  C   UNL     1      18.119  18.365  34.956  1.00  0.00     0.004 C 
ENDBRANCH   1   5
TORSDOF 2
ENDMDL
MODEL 9
REMARK VINA RESULT:    -3.009      3.806      4.559
REMARK INTER + INTRA:          -3.379
REMARK INTER:                  -3.309
REMARK INTRA:                  -0.069
REMARK UNBOUND:                -0.018
REMARK SMILES CCCC(=O)[O-]
REMARK SMILES IDX 3 1 4 2 5 3 6 4 2 5 1 6
REMARK H PARENT
REMARK Flexibility Score: inf
ROOT
ATOM      1  C   UNL     1      17.609  17.376  34.151  1.00  0.00     0.052 C 
ENDROOT
BRANCH   1   2
ATOM      2  C   UNL     1      17.992  16.227  35.033  1.00  0.00     0.041 C 
ATOM      3  O   UNL     1      17.557  16.163  36.214  1.00  0.00    -0.550 OA
ATOM      4  O   UNL     1      18.855  15.245  34.563  1.00  0.00    -0.550 OA
ENDBRANCH   1   2
BRANCH   1   5
ATOM      5  C   UNL     1      18.839  18.043  33.520  1.00  0.00     0.003 C 
ATOM      6  C   UNL     1      19.729  18.723  34.560  1.00  0.00     0.004 C 
ENDBRANCH   1   5
TORSDOF 2
ENDMDL
