MODEL 1
REMARK VINA RESULT:    -6.429      0.000      0.000
REMARK INTER + INTRA:         -11.589
REMARK INTER:                  -8.684
REMARK INTRA:                  -2.904
REMARK UNBOUND:                -2.904
REMARK SMILES CC[C@H](CC[C@H](C)[C@H]1CC[C@@H]2[C@H]3CC(=O)C4=CC(=O)CC[C@]4(C)[C@@H]3CC[C@@]21C)C(C)C
REMARK SMILES IDX 4 1 3 2 2 3 1 4 29 5 30 6 31 7 5 8 6 9 7 10 8 11 9 12 27 13
REMARK SMILES IDX 10 14 11 15 26 16 28 17 12 18 25 19 24 20 13 21 22 22 14 23
REMARK SMILES IDX 16 24 21 25 23 26 15 27 17 28 20 29 18 30 19 31
REMARK H PARENT
REMARK Flexibility Score: inf
ROOT
ATOM      1  C   UNL     1     -16.286   8.756  30.882  1.00  0.00     0.004 C 
ENDROOT
BRANCH   1   2
ATOM      2  C   UNL     1     -15.159   9.232  29.917  1.00  0.00    -0.009 C 
BRANCH   2   3
ATOM      3  C   UNL     1     -13.893   9.652  30.742  1.00  0.00     0.000 C 
ATOM      4  C   UNL     1     -13.534  11.124  30.535  1.00  0.00     0.004 C 
ENDBRANCH   2   3
BRANCH   2   5
ATOM      5  C   UNL     1     -14.807   8.155  28.834  1.00  0.00    -0.014 C 
ATOM      6  C   UNL     1     -14.775   8.744  27.405  1.00  0.00     0.007 C 
ATOM      7  C   UNL     1     -13.443   7.483  29.116  1.00  0.00     0.007 C 
ENDBRANCH   2   5
ENDBRANCH   1   2
BRANCH   1   8
ATOM      8  C   UNL     1     -15.861   8.768  32.377  1.00  0.00     0.004 C 
BRANCH   8   9
ATOM      9  C   UNL     1     -15.805   7.365  33.046  1.00  0.00    -0.011 C 
ATOM     10  C   UNL     1     -15.260   7.475  34.486  1.00  0.00     0.008 C 
BRANCH   9  11
ATOM     11  C   UNL     1     -15.016   6.350  32.130  1.00  0.00    -0.002 C 
ATOM     12  C   UNL     1     -13.611   5.984  32.607  1.00  0.00     0.005 C 
ATOM     13  C   UNL     1     -15.698   4.986  31.808  1.00  0.00    -0.026 C 
ATOM     14  C   UNL     1     -13.202   4.792  31.757  1.00  0.00     0.005 C 
ATOM     15  C   UNL     1     -14.509   4.093  31.286  1.00  0.00    -0.001 C 
ATOM     16  C   UNL     1     -16.880   5.154  30.806  1.00  0.00     0.007 C 
ATOM     17  C   UNL     1     -16.275   4.338  33.099  1.00  0.00     0.012 C 
ATOM     18  C   UNL     1     -14.428   3.751  29.745  1.00  0.00     0.004 C 
ATOM     19  C   UNL     1     -16.445   5.202  29.349  1.00  0.00     0.005 C 
ATOM     20  C   UNL     1     -15.752   3.886  28.964  1.00  0.00     0.003 C 
ATOM     21  C   UNL     1     -13.895   2.305  29.574  1.00  0.00     0.085 C 
ATOM     22  C   UNL     1     -15.551   3.710  27.396  1.00  0.00    -0.000 C 
ATOM     23  C   UNL     1     -13.842   1.875  28.143  1.00  0.00     0.159 C 
ATOM     24  C   UNL     1     -14.404   2.734  27.081  1.00  0.00     0.005 C 
ATOM     25  C   UNL     1     -15.231   5.063  26.681  1.00  0.00     0.020 C 
ATOM     26  C   UNL     1     -16.856   3.109  26.819  1.00  0.00     0.017 C 
ATOM     27  O   UNL     1     -13.267   0.790  27.851  1.00  0.00    -0.295 OA
ATOM     28  C   UNL     1     -13.852   2.685  25.853  1.00  0.00     0.055 C 
ATOM     29  C   UNL     1     -14.982   4.914  25.166  1.00  0.00     0.081 C 
ATOM     30  C   UNL     1     -14.142   3.708  24.839  1.00  0.00     0.156 C 
ATOM     31  O   UNL     1     -13.655   3.583  23.683  1.00  0.00    -0.295 OA
ENDBRANCH   9  11
ENDBRANCH   8   9
ENDBRANCH   1   8
TORSDOF 6
ENDMDL
MODEL 2
REMARK VINA RESULT:    -6.426      4.179      7.606
REMARK INTER + INTRA:         -11.584
REMARK INTER:                  -8.717
REMARK INTRA:                  -2.866
REMARK UNBOUND:                -2.904
REMARK SMILES CC[C@H](CC[C@H](C)[C@H]1CC[C@@H]2[C@H]3CC(=O)C4=CC(=O)CC[C@]4(C)[C@@H]3CC[C@@]21C)C(C)C
REMARK SMILES IDX 4 1 3 2 2 3 1 4 29 5 30 6 31 7 5 8 6 9 7 10 8 11 9 12 27 13
REMARK SMILES IDX 10 14 11 15 26 16 28 17 12 18 25 19 24 20 13 21 22 22 14 23
REMARK SMILES IDX 16 24 21 25 23 26 15 27 17 28 20 29 18 30 19 31
REMARK H PARENT
REMARK Flexibility Score: inf
ROOT
ATOM      1  C   UNL     1     -13.357   3.396  33.739  1.00  0.00     0.004 C 
ENDROOT
BRANCH   1   2
ATOM      2  C   UNL     1     -12.464   2.918  32.555  1.00  0.00    -0.009 C 
BRANCH   2   3
ATOM      3  C   UNL     1     -13.365   2.514  31.337  1.00  0.00     0.000 C 
ATOM      4  C   UNL     1     -13.174   1.049  30.942  1.00  0.00     0.004 C 
ENDBRANCH   2   3
BRANCH   2   5
ATOM      5  C   UNL     1     -11.393   3.987  32.146  1.00  0.00    -0.014 C 
ATOM      6  C   UNL     1      -9.961   3.406  32.117  1.00  0.00     0.007 C 
ATOM      7  C   UNL     1     -11.698   4.604  30.761  1.00  0.00     0.007 C 
ENDBRANCH   2   5
ENDBRANCH   1   2
BRANCH   1   8
ATOM      8  C   UNL     1     -14.869   3.455  33.384  1.00  0.00     0.004 C 
BRANCH   8   9
ATOM      9  C   UNL     1     -15.481   4.884  33.390  1.00  0.00    -0.011 C 
ATOM     10  C   UNL     1     -16.957   4.842  32.938  1.00  0.00     0.008 C 
BRANCH   9  11
ATOM     11  C   UNL     1     -14.575   5.874  32.557  1.00  0.00    -0.002 C 
ATOM     12  C   UNL     1     -15.087   6.219  31.159  1.00  0.00     0.005 C 
ATOM     13  C   UNL     1     -14.220   7.246  33.204  1.00  0.00    -0.026 C 
ATOM     14  C   UNL     1     -14.235   7.393  30.704  1.00  0.00     0.005 C 
ATOM     15  C   UNL     1     -13.721   8.111  31.984  1.00  0.00    -0.001 C 
ATOM     16  C   UNL     1     -13.188   7.089  34.361  1.00  0.00     0.007 C 
ATOM     17  C   UNL     1     -15.487   7.921  33.803  1.00  0.00     0.012 C 
ATOM     18  C   UNL     1     -12.179   8.433  31.854  1.00  0.00     0.004 C 
ATOM     19  C   UNL     1     -11.744   7.016  33.888  1.00  0.00     0.005 C 
ATOM     20  C   UNL     1     -11.364   8.314  33.160  1.00  0.00     0.003 C 
ATOM     21  C   UNL     1     -12.006   9.866  31.290  1.00  0.00     0.085 C 
ATOM     22  C   UNL     1      -9.800   8.468  32.913  1.00  0.00    -0.000 C 
ATOM     23  C   UNL     1     -10.573  10.279  31.189  1.00  0.00     0.159 C 
ATOM     24  C   UNL     1      -9.505   9.418  31.739  1.00  0.00     0.005 C 
ATOM     25  C   UNL     1      -9.109   7.101  32.599  1.00  0.00     0.020 C 
ATOM     26  C   UNL     1      -9.181   9.086  34.190  1.00  0.00     0.017 C 
ATOM     27  O   UNL     1     -10.284  11.349  30.587  1.00  0.00    -0.295 OA
ATOM     28  C   UNL     1      -8.293   9.442  31.153  1.00  0.00     0.055 C 
ATOM     29  C   UNL     1      -7.600   7.228  32.306  1.00  0.00     0.081 C 
ATOM     30  C   UNL     1      -7.282   8.413  31.435  1.00  0.00     0.156 C 
ATOM     31  O   UNL     1      -6.138   8.516  30.915  1.00  0.00    -0.295 OA
ENDBRANCH   9  11
ENDBRANCH   8   9
ENDBRANCH   1   8
TORSDOF 6
ENDMDL
MODEL 3
REMARK VINA RESULT:    -6.350      4.160      7.578
REMARK INTER + INTRA:         -11.482
REMARK INTER:                  -9.032
REMARK INTRA:                  -2.450
REMARK UNBOUND:                -2.904
REMARK SMILES CC[C@H](CC[C@H](C)[C@H]1CC[C@@H]2[C@H]3CC(=O)C4=CC(=O)CC[C@]4(C)[C@@H]3CC[C@@]21C)C(C)C
REMARK SMILES IDX 4 1 3 2 2 3 1 4 29 5 30 6 31 7 5 8 6 9 7 10 8 11 9 12 27 13
REMARK SMILES IDX 10 14 11 15 26 16 28 17 12 18 25 19 24 20 13 21 22 22 14 23
REMARK SMILES IDX 16 24 21 25 23 26 15 27 17 28 20 29 18 30 19 31
REMARK H PARENT
REMARK Flexibility Score: inf
ROOT
ATOM      1  C   UNL     1     -13.574   3.662  32.896  1.00  0.00     0.004 C 
ENDROOT
BRANCH   1   2
ATOM      2  C   UNL     1     -13.412   2.768  31.630  1.00  0.00    -0.009 C 
BRANCH   2   3
ATOM      3  C   UNL     1     -12.797   3.609  30.458  1.00  0.00     0.000 C 
ATOM      4  C   UNL     1     -11.715   4.572  30.948  1.00  0.00     0.004 C 
ENDBRANCH   2   3
BRANCH   2   5
ATOM      5  C   UNL     1     -12.567   1.478  31.915  1.00  0.00    -0.014 C 
ATOM      6  C   UNL     1     -12.564   1.095  33.412  1.00  0.00     0.007 C 
ATOM      7  C   UNL     1     -13.078   0.267  31.101  1.00  0.00     0.007 C 
ENDBRANCH   2   5
ENDBRANCH   1   2
BRANCH   1   8
ATOM      8  C   UNL     1     -15.044   3.763  33.393  1.00  0.00     0.004 C 
BRANCH   8   9
ATOM      9  C   UNL     1     -15.731   5.129  33.110  1.00  0.00    -0.011 C 
ATOM     10  C   UNL     1     -17.099   4.915  32.427  1.00  0.00     0.008 C 
BRANCH   9  11
ATOM     11  C   UNL     1     -14.753   6.084  32.320  1.00  0.00    -0.002 C 
ATOM     12  C   UNL     1     -15.208   6.479  30.915  1.00  0.00     0.005 C 
ATOM     13  C   UNL     1     -14.344   7.425  33.000  1.00  0.00    -0.026 C 
ATOM     14  C   UNL     1     -14.284   7.614  30.505  1.00  0.00     0.005 C 
ATOM     15  C   UNL     1     -13.768   8.282  31.811  1.00  0.00    -0.001 C 
ATOM     16  C   UNL     1     -13.353   7.193  34.181  1.00  0.00     0.007 C 
ATOM     17  C   UNL     1     -15.590   8.154  33.579  1.00  0.00     0.012 C 
ATOM     18  C   UNL     1     -12.209   8.526  31.727  1.00  0.00     0.004 C 
ATOM     19  C   UNL     1     -11.903   7.052  33.744  1.00  0.00     0.005 C 
ATOM     20  C   UNL     1     -11.436   8.341  33.050  1.00  0.00     0.003 C 
ATOM     21  C   UNL     1     -11.946   9.957  31.193  1.00  0.00     0.085 C 
ATOM     22  C   UNL     1      -9.860   8.417  32.847  1.00  0.00    -0.000 C 
ATOM     23  C   UNL     1     -10.491  10.295  31.138  1.00  0.00     0.159 C 
ATOM     24  C   UNL     1      -9.485   9.370  31.699  1.00  0.00     0.005 C 
ATOM     25  C   UNL     1      -9.233   7.021  32.526  1.00  0.00     0.020 C 
ATOM     26  C   UNL     1      -9.244   8.980  34.151  1.00  0.00     0.017 C 
ATOM     27  O   UNL     1     -10.131  11.359  30.562  1.00  0.00    -0.295 OA
ATOM     28  C   UNL     1      -8.257   9.341  31.145  1.00  0.00     0.055 C 
ATOM     29  C   UNL     1      -7.712   7.073  32.275  1.00  0.00     0.081 C 
ATOM     30  C   UNL     1      -7.310   8.255  31.434  1.00  0.00     0.156 C 
ATOM     31  O   UNL     1      -6.149   8.306  30.946  1.00  0.00    -0.295 OA
ENDBRANCH   9  11
ENDBRANCH   8   9
ENDBRANCH   1   8
TORSDOF 6
ENDMDL
MODEL 4
REMARK VINA RESULT:    -6.179      2.197      3.805
REMARK INTER + INTRA:         -11.251
REMARK INTER:                  -8.532
REMARK INTRA:                  -2.719
REMARK UNBOUND:                -2.904
REMARK SMILES CC[C@H](CC[C@H](C)[C@H]1CC[C@@H]2[C@H]3CC(=O)C4=CC(=O)CC[C@]4(C)[C@@H]3CC[C@@]21C)C(C)C
REMARK SMILES IDX 4 1 3 2 2 3 1 4 29 5 30 6 31 7 5 8 6 9 7 10 8 11 9 12 27 13
REMARK SMILES IDX 10 14 11 15 26 16 28 17 12 18 25 19 24 20 13 21 22 22 14 23
REMARK SMILES IDX 16 24 21 25 23 26 15 27 17 28 20 29 18 30 19 31
REMARK H PARENT
REMARK Flexibility Score: inf
ROOT
ATOM      1  C   UNL     1     -11.568  10.313  30.355  1.00  0.00     0.004 C 
ENDROOT
BRANCH   1   2
ATOM      2  C   UNL     1     -12.989  10.644  29.806  1.00  0.00    -0.009 C 
BRANCH   2   3
ATOM      3  C   UNL     1     -13.602   9.377  29.116  1.00  0.00     0.000 C 
ATOM      4  C   UNL     1     -12.523   8.427  28.593  1.00  0.00     0.004 C 
ENDBRANCH   2   3
BRANCH   2   5
ATOM      5  C   UNL     1     -13.940  11.209  30.917  1.00  0.00    -0.014 C 
ATOM      6  C   UNL     1     -14.228  12.716  30.735  1.00  0.00     0.007 C 
ATOM      7  C   UNL     1     -15.290  10.455  30.953  1.00  0.00     0.007 C 
ENDBRANCH   2   5
ENDBRANCH   1   2
BRANCH   1   8
ATOM      8  C   UNL     1     -11.412  10.609  31.873  1.00  0.00     0.004 C 
BRANCH   8   9
ATOM      9  C   UNL     1     -11.024   9.376  32.737  1.00  0.00    -0.011 C 
ATOM     10  C   UNL     1      -9.578   9.518  33.261  1.00  0.00     0.008 C 
BRANCH   9  11
ATOM     11  C   UNL     1     -11.297   8.039  31.943  1.00  0.00    -0.002 C 
ATOM     12  C   UNL     1     -10.060   7.340  31.381  1.00  0.00     0.005 C 
ATOM     13  C   UNL     1     -12.097   6.917  32.670  1.00  0.00    -0.026 C 
ATOM     14  C   UNL     1     -10.543   5.964  30.953  1.00  0.00     0.005 C 
ATOM     15  C   UNL     1     -11.803   5.634  31.804  1.00  0.00    -0.001 C 
ATOM     16  C   UNL     1     -13.606   7.282  32.809  1.00  0.00     0.007 C 
ATOM     17  C   UNL     1     -11.544   6.684  34.105  1.00  0.00     0.012 C 
ATOM     18  C   UNL     1     -12.950   5.049  30.887  1.00  0.00     0.004 C 
ATOM     19  C   UNL     1     -14.428   6.969  31.568  1.00  0.00     0.005 C 
ATOM     20  C   UNL     1     -14.386   5.461  31.277  1.00  0.00     0.003 C 
ATOM     21  C   UNL     1     -12.860   3.502  30.885  1.00  0.00     0.085 C 
ATOM     22  C   UNL     1     -15.463   4.992  30.204  1.00  0.00    -0.000 C 
ATOM     23  C   UNL     1     -13.949   2.861  30.087  1.00  0.00     0.159 C 
ATOM     24  C   UNL     1     -15.045   3.675  29.525  1.00  0.00     0.005 C 
ATOM     25  C   UNL     1     -15.684   6.054  29.078  1.00  0.00     0.020 C 
ATOM     26  C   UNL     1     -16.793   4.737  30.952  1.00  0.00     0.017 C 
ATOM     27  O   UNL     1     -13.893   1.621  29.860  1.00  0.00    -0.295 OA
ATOM     28  C   UNL     1     -15.626   3.271  28.379  1.00  0.00     0.055 C 
ATOM     29  C   UNL     1     -16.687   5.604  27.996  1.00  0.00     0.081 C 
ATOM     30  C   UNL     1     -16.496   4.164  27.602  1.00  0.00     0.156 C 
ATOM     31  O   UNL     1     -17.072   3.719  26.572  1.00  0.00    -0.295 OA
ENDBRANCH   9  11
ENDBRANCH   8   9
ENDBRANCH   1   8
TORSDOF 6
ENDMDL
MODEL 5
REMARK VINA RESULT:    -6.120      3.363      6.708
REMARK INTER + INTRA:         -11.171
REMARK INTER:                  -8.585
REMARK INTRA:                  -2.587
REMARK UNBOUND:                -2.904
REMARK SMILES CC[C@H](CC[C@H](C)[C@H]1CC[C@@H]2[C@H]3CC(=O)C4=CC(=O)CC[C@]4(C)[C@@H]3CC[C@@]21C)C(C)C
REMARK SMILES IDX 4 1 3 2 2 3 1 4 29 5 30 6 31 7 5 8 6 9 7 10 8 11 9 12 27 13
REMARK SMILES IDX 10 14 11 15 26 16 28 17 12 18 25 19 24 20 13 21 22 22 14 23
REMARK SMILES IDX 16 24 21 25 23 26 15 27 17 28 20 29 18 30 19 31
REMARK H PARENT
REMARK Flexibility Score: inf
ROOT
ATOM      1  C   UNL     1     -13.718   2.114  28.816  1.00  0.00     0.004 C 
ENDROOT
BRANCH   1   2
ATOM      2  C   UNL     1     -15.037   2.927  28.982  1.00  0.00    -0.009 C 
BRANCH   2   3
ATOM      3  C   UNL     1     -14.710   4.457  29.088  1.00  0.00     0.000 C 
ATOM      4  C   UNL     1     -15.148   5.047  30.429  1.00  0.00     0.004 C 
ENDBRANCH   2   3
BRANCH   2   5
ATOM      5  C   UNL     1     -16.064   2.638  27.833  1.00  0.00    -0.014 C 
ATOM      6  C   UNL     1     -17.515   2.983  28.240  1.00  0.00     0.007 C 
ATOM      7  C   UNL     1     -15.719   3.421  26.545  1.00  0.00     0.007 C 
ENDBRANCH   2   5
ENDBRANCH   1   2
BRANCH   1   8
ATOM      8  C   UNL     1     -13.734   0.757  29.576  1.00  0.00     0.004 C 
BRANCH   8   9
ATOM      9  C   UNL     1     -12.954   0.758  30.920  1.00  0.00    -0.011 C 
ATOM     10  C   UNL     1     -13.458  -0.376  31.838  1.00  0.00     0.008 C 
BRANCH   9  11
ATOM     11  C   UNL     1     -12.995   2.193  31.579  1.00  0.00    -0.002 C 
ATOM     12  C   UNL     1     -13.840   2.313  32.847  1.00  0.00     0.005 C 
ATOM     13  C   UNL     1     -11.635   2.863  31.939  1.00  0.00    -0.026 C 
ATOM     14  C   UNL     1     -13.471   3.662  33.442  1.00  0.00     0.005 C 
ATOM     15  C   UNL     1     -12.042   4.012  32.937  1.00  0.00    -0.001 C 
ATOM     16  C   UNL     1     -10.873   3.340  30.665  1.00  0.00     0.007 C 
ATOM     17  C   UNL     1     -10.706   1.864  32.686  1.00  0.00     0.012 C 
ATOM     18  C   UNL     1     -11.984   5.512  32.443  1.00  0.00     0.004 C 
ATOM     19  C   UNL     1     -11.329   4.698  30.153  1.00  0.00     0.005 C 
ATOM     20  C   UNL     1     -11.077   5.774  31.221  1.00  0.00     0.003 C 
ATOM     21  C   UNL     1     -11.515   6.414  33.613  1.00  0.00     0.085 C 
ATOM     22  C   UNL     1     -11.217   7.260  30.671  1.00  0.00    -0.000 C 
ATOM     23  C   UNL     1     -11.374   7.849  33.216  1.00  0.00     0.159 C 
ATOM     24  C   UNL     1     -11.528   8.254  31.803  1.00  0.00     0.005 C 
ATOM     25  C   UNL     1     -12.348   7.394  29.600  1.00  0.00     0.020 C 
ATOM     26  C   UNL     1      -9.858   7.661  30.049  1.00  0.00     0.017 C 
ATOM     27  O   UNL     1     -11.168   8.714  34.110  1.00  0.00    -0.295 OA
ATOM     28  C   UNL     1     -12.002   9.486  31.535  1.00  0.00     0.055 C 
ATOM     29  C   UNL     1     -12.540   8.835  29.085  1.00  0.00     0.081 C 
ATOM     30  C   UNL     1     -12.468   9.854  30.191  1.00  0.00     0.156 C 
ATOM     31  O   UNL     1     -12.839  11.039  29.972  1.00  0.00    -0.295 OA
ENDBRANCH   9  11
ENDBRANCH   8   9
ENDBRANCH   1   8
TORSDOF 6
ENDMDL
MODEL 6
REMARK VINA RESULT:    -5.866      3.879      7.444
REMARK INTER + INTRA:         -10.828
REMARK INTER:                  -8.054
REMARK INTRA:                  -2.773
REMARK UNBOUND:                -2.904
REMARK SMILES CC[C@H](CC[C@H](C)[C@H]1CC[C@@H]2[C@H]3CC(=O)C4=CC(=O)CC[C@]4(C)[C@@H]3CC[C@@]21C)C(C)C
REMARK SMILES IDX 4 1 3 2 2 3 1 4 29 5 30 6 31 7 5 8 6 9 7 10 8 11 9 12 27 13
REMARK SMILES IDX 10 14 11 15 26 16 28 17 12 18 25 19 24 20 13 21 22 22 14 23
REMARK SMILES IDX 16 24 21 25 23 26 15 27 17 28 20 29 18 30 19 31
REMARK H PARENT
REMARK Flexibility Score: inf
ROOT
ATOM      1  C   UNL     1     -14.197   4.466  30.756  1.00  0.00     0.004 C 
ENDROOT
BRANCH   1   2
ATOM      2  C   UNL     1     -13.572   3.389  29.819  1.00  0.00    -0.009 C 
BRANCH   2   3
ATOM      3  C   UNL     1     -14.704   2.649  29.028  1.00  0.00     0.000 C 
ATOM      4  C   UNL     1     -14.447   1.144  28.929  1.00  0.00     0.004 C 
ENDBRANCH   2   3
BRANCH   2   5
ATOM      5  C   UNL     1     -12.497   3.993  28.851  1.00  0.00    -0.014 C 
ATOM      6  C   UNL     1     -13.072   4.302  27.450  1.00  0.00     0.007 C 
ATOM      7  C   UNL     1     -11.875   5.290  29.421  1.00  0.00     0.007 C 
ENDBRANCH   2   5
ENDBRANCH   1   2
BRANCH   1   8
ATOM      8  C   UNL     1     -15.741   4.581  30.615  1.00  0.00     0.004 C 
BRANCH   8   9
ATOM      9  C   UNL     1     -16.234   5.890  29.936  1.00  0.00    -0.011 C 
ATOM     10  C   UNL     1     -17.111   5.565  28.708  1.00  0.00     0.008 C 
BRANCH   9  11
ATOM     11  C   UNL     1     -15.013   6.843  29.628  1.00  0.00    -0.002 C 
ATOM     12  C   UNL     1     -14.890   7.310  28.178  1.00  0.00     0.005 C 
ATOM     13  C   UNL     1     -14.876   8.141  30.479  1.00  0.00    -0.026 C 
ATOM     14  C   UNL     1     -13.862   8.429  28.208  1.00  0.00     0.005 C 
ATOM     15  C   UNL     1     -13.875   9.027  29.644  1.00  0.00    -0.001 C 
ATOM     16  C   UNL     1     -14.417   7.829  31.936  1.00  0.00     0.007 C 
ATOM     17  C   UNL     1     -16.237   8.888  30.574  1.00  0.00     0.012 C 
ATOM     18  C   UNL     1     -12.399   9.221  30.174  1.00  0.00     0.004 C 
ATOM     19  C   UNL     1     -12.912   7.658  32.079  1.00  0.00     0.005 C 
ATOM     20  C   UNL     1     -12.195   8.958  31.681  1.00  0.00     0.003 C 
ATOM     21  C   UNL     1     -11.931  10.663  29.854  1.00  0.00     0.085 C 
ATOM     22  C   UNL     1     -10.660   8.989  32.100  1.00  0.00    -0.000 C 
ATOM     23  C   UNL     1     -10.560  10.955  30.375  1.00  0.00     0.159 C 
ATOM     24  C   UNL     1      -9.860   9.975  31.231  1.00  0.00     0.005 C 
ATOM     25  C   UNL     1      -9.980   7.588  31.973  1.00  0.00     0.020 C 
ATOM     26  C   UNL     1     -10.582   9.479  33.566  1.00  0.00     0.017 C 
ATOM     27  O   UNL     1      -9.991  12.028  30.035  1.00  0.00    -0.295 OA
ATOM     28  C   UNL     1      -8.515   9.927  31.187  1.00  0.00     0.055 C 
ATOM     29  C   UNL     1      -8.478   7.599  32.324  1.00  0.00     0.081 C 
ATOM     30  C   UNL     1      -7.767   8.800  31.761  1.00  0.00     0.156 C 
ATOM     31  O   UNL     1      -6.506   8.833  31.756  1.00  0.00    -0.295 OA
ENDBRANCH   9  11
ENDBRANCH   8   9
ENDBRANCH   1   8
TORSDOF 6
ENDMDL
MODEL 7
REMARK VINA RESULT:    -5.858      3.273      6.959
REMARK INTER + INTRA:         -10.817
REMARK INTER:                  -8.030
REMARK INTRA:                  -2.787
REMARK UNBOUND:                -2.904
REMARK SMILES CC[C@H](CC[C@H](C)[C@H]1CC[C@@H]2[C@H]3CC(=O)C4=CC(=O)CC[C@]4(C)[C@@H]3CC[C@@]21C)C(C)C
REMARK SMILES IDX 4 1 3 2 2 3 1 4 29 5 30 6 31 7 5 8 6 9 7 10 8 11 9 12 27 13
REMARK SMILES IDX 10 14 11 15 26 16 28 17 12 18 25 19 24 20 13 21 22 22 14 23
REMARK SMILES IDX 16 24 21 25 23 26 15 27 17 28 20 29 18 30 19 31
REMARK H PARENT
REMARK Flexibility Score: inf
ROOT
ATOM      1  C   UNL     1     -12.619   4.186  25.568  1.00  0.00     0.004 C 
ENDROOT
BRANCH   1   2
ATOM      2  C   UNL     1     -11.259   3.739  26.183  1.00  0.00    -0.009 C 
BRANCH   2   3
ATOM      3  C   UNL     1     -11.062   4.409  27.586  1.00  0.00     0.000 C 
ATOM      4  C   UNL     1     -11.862   5.705  27.722  1.00  0.00     0.004 C 
ENDBRANCH   2   3
BRANCH   2   5
ATOM      5  C   UNL     1     -11.128   2.179  26.268  1.00  0.00    -0.014 C 
ATOM      6  C   UNL     1     -10.066   1.622  25.293  1.00  0.00     0.007 C 
ATOM      7  C   UNL     1     -10.769   1.711  27.699  1.00  0.00     0.007 C 
ENDBRANCH   2   5
ENDBRANCH   1   2
BRANCH   1   8
ATOM      8  C   UNL     1     -13.538   2.995  25.177  1.00  0.00     0.004 C 
BRANCH   8   9
ATOM      9  C   UNL     1     -14.964   3.046  25.794  1.00  0.00    -0.011 C 
ATOM     10  C   UNL     1     -16.007   3.402  24.713  1.00  0.00     0.008 C 
BRANCH   9  11
ATOM     11  C   UNL     1     -14.984   3.998  27.054  1.00  0.00    -0.002 C 
ATOM     12  C   UNL     1     -15.748   5.310  26.878  1.00  0.00     0.005 C 
ATOM     13  C   UNL     1     -15.506   3.407  28.398  1.00  0.00    -0.026 C 
ATOM     14  C   UNL     1     -15.884   5.879  28.281  1.00  0.00     0.005 C 
ATOM     15  C   UNL     1     -15.802   4.684  29.273  1.00  0.00    -0.001 C 
ATOM     16  C   UNL     1     -14.487   2.407  29.022  1.00  0.00     0.007 C 
ATOM     17  C   UNL     1     -16.839   2.634  28.183  1.00  0.00     0.012 C 
ATOM     18  C   UNL     1     -14.835   5.030  30.474  1.00  0.00     0.004 C 
ATOM     19  C   UNL     1     -13.384   3.079  29.826  1.00  0.00     0.005 C 
ATOM     20  C   UNL     1     -13.990   3.853  31.006  1.00  0.00     0.003 C 
ATOM     21  C   UNL     1     -15.669   5.612  31.644  1.00  0.00     0.085 C 
ATOM     22  C   UNL     1     -12.913   4.318  32.081  1.00  0.00    -0.000 C 
ATOM     23  C   UNL     1     -14.839   5.914  32.851  1.00  0.00     0.159 C 
ATOM     24  C   UNL     1     -13.416   5.521  32.898  1.00  0.00     0.005 C 
ATOM     25  C   UNL     1     -11.555   4.727  31.424  1.00  0.00     0.020 C 
ATOM     26  C   UNL     1     -12.687   3.141  33.060  1.00  0.00     0.017 C 
ATOM     27  O   UNL     1     -15.358   6.551  33.808  1.00  0.00    -0.295 OA
ATOM     28  C   UNL     1     -12.564   6.272  33.622  1.00  0.00     0.055 C 
ATOM     29  C   UNL     1     -10.508   5.230  32.439  1.00  0.00     0.081 C 
ATOM     30  C   UNL     1     -11.107   6.136  33.480  1.00  0.00     0.156 C 
ATOM     31  O   UNL     1     -10.351   6.813  34.228  1.00  0.00    -0.295 OA
ENDBRANCH   9  11
ENDBRANCH   8   9
ENDBRANCH   1   8
TORSDOF 6
ENDMDL
MODEL 8
REMARK VINA RESULT:    -5.850      3.254      7.331
REMARK INTER + INTRA:         -10.806
REMARK INTER:                  -7.989
REMARK INTRA:                  -2.817
REMARK UNBOUND:                -2.904
REMARK SMILES CC[C@H](CC[C@H](C)[C@H]1CC[C@@H]2[C@H]3CC(=O)C4=CC(=O)CC[C@]4(C)[C@@H]3CC[C@@]21C)C(C)C
REMARK SMILES IDX 4 1 3 2 2 3 1 4 29 5 30 6 31 7 5 8 6 9 7 10 8 11 9 12 27 13
REMARK SMILES IDX 10 14 11 15 26 16 28 17 12 18 25 19 24 20 13 21 22 22 14 23
REMARK SMILES IDX 16 24 21 25 23 26 15 27 17 28 20 29 18 30 19 31
REMARK H PARENT
REMARK Flexibility Score: inf
ROOT
ATOM      1  C   UNL     1     -14.039   2.022  29.647  1.00  0.00     0.004 C 
ENDROOT
BRANCH   1   2
ATOM      2  C   UNL     1     -12.582   1.655  29.236  1.00  0.00    -0.009 C 
BRANCH   2   3
ATOM      3  C   UNL     1     -12.439   1.707  27.676  1.00  0.00     0.000 C 
ATOM      4  C   UNL     1     -11.143   1.052  27.195  1.00  0.00     0.004 C 
ENDBRANCH   2   3
BRANCH   2   5
ATOM      5  C   UNL     1     -11.517   2.565  29.940  1.00  0.00    -0.014 C 
ATOM      6  C   UNL     1     -11.595   4.036  29.471  1.00  0.00     0.007 C 
ATOM      7  C   UNL     1     -11.664   2.534  31.479  1.00  0.00     0.007 C 
ENDBRANCH   2   5
ENDBRANCH   1   2
BRANCH   1   8
ATOM      8  C   UNL     1     -15.065   1.850  28.492  1.00  0.00     0.004 C 
BRANCH   8   9
ATOM      9  C   UNL     1     -15.848   3.141  28.122  1.00  0.00    -0.011 C 
ATOM     10  C   UNL     1     -16.371   3.059  26.671  1.00  0.00     0.008 C 
BRANCH   9  11
ATOM     11  C   UNL     1     -14.973   4.420  28.424  1.00  0.00    -0.002 C 
ATOM     12  C   UNL     1     -14.436   5.158  27.198  1.00  0.00     0.005 C 
ATOM     13  C   UNL     1     -15.601   5.532  29.317  1.00  0.00    -0.026 C 
ATOM     14  C   UNL     1     -13.915   6.483  27.730  1.00  0.00     0.005 C 
ATOM     15  C   UNL     1     -14.685   6.785  29.047  1.00  0.00    -0.001 C 
ATOM     16  C   UNL     1     -15.686   5.092  30.810  1.00  0.00     0.007 C 
ATOM     17  C   UNL     1     -17.047   5.865  28.851  1.00  0.00     0.012 C 
ATOM     18  C   UNL     1     -13.684   7.260  30.174  1.00  0.00     0.004 C 
ATOM     19  C   UNL     1     -14.392   5.298  31.583  1.00  0.00     0.005 C 
ATOM     20  C   UNL     1     -14.024   6.790  31.605  1.00  0.00     0.003 C 
ATOM     21  C   UNL     1     -13.606   8.808  30.165  1.00  0.00     0.085 C 
ATOM     22  C   UNL     1     -12.877   7.146  32.648  1.00  0.00    -0.000 C 
ATOM     23  C   UNL     1     -12.723   9.348  31.244  1.00  0.00     0.159 C 
ATOM     24  C   UNL     1     -12.152   8.448  32.266  1.00  0.00     0.005 C 
ATOM     25  C   UNL     1     -11.800   6.018  32.756  1.00  0.00     0.020 C 
ATOM     26  C   UNL     1     -13.546   7.364  34.027  1.00  0.00     0.017 C 
ATOM     27  O   UNL     1     -12.435  10.577  31.241  1.00  0.00    -0.295 OA
ATOM     28  C   UNL     1     -10.960   8.763  32.808  1.00  0.00     0.055 C 
ATOM     29  C   UNL     1     -10.648   6.359  33.724  1.00  0.00     0.081 C 
ATOM     30  C   UNL     1     -10.189   7.786  33.589  1.00  0.00     0.156 C 
ATOM     31  O   UNL     1      -9.111   8.148  34.134  1.00  0.00    -0.295 OA
ENDBRANCH   9  11
ENDBRANCH   8   9
ENDBRANCH   1   8
TORSDOF 6
ENDMDL
MODEL 9
REMARK VINA RESULT:    -5.809      1.654      2.497
REMARK INTER + INTRA:         -10.751
REMARK INTER:                  -7.872
REMARK INTRA:                  -2.879
REMARK UNBOUND:                -2.904
REMARK SMILES CC[C@H](CC[C@H](C)[C@H]1CC[C@@H]2[C@H]3CC(=O)C4=CC(=O)CC[C@]4(C)[C@@H]3CC[C@@]21C)C(C)C
REMARK SMILES IDX 4 1 3 2 2 3 1 4 29 5 30 6 31 7 5 8 6 9 7 10 8 11 9 12 27 13
REMARK SMILES IDX 10 14 11 15 26 16 28 17 12 18 25 19 24 20 13 21 22 22 14 23
REMARK SMILES IDX 16 24 21 25 23 26 15 27 17 28 20 29 18 30 19 31
REMARK H PARENT
REMARK Flexibility Score: inf
ROOT
ATOM      1  C   UNL     1     -12.983   8.271  32.278  1.00  0.00     0.004 C 
ENDROOT
BRANCH   1   2
ATOM      2  C   UNL     1     -13.347   7.830  30.828  1.00  0.00    -0.009 C 
BRANCH   2   3
ATOM      3  C   UNL     1     -14.479   8.752  30.258  1.00  0.00     0.000 C 
ATOM      4  C   UNL     1     -15.721   7.956  29.854  1.00  0.00     0.004 C 
ENDBRANCH   2   3
BRANCH   2   5
ATOM      5  C   UNL     1     -12.097   7.804  29.881  1.00  0.00    -0.014 C 
ATOM      6  C   UNL     1     -10.801   8.235  30.604  1.00  0.00     0.007 C 
ATOM      7  C   UNL     1     -11.871   6.402  29.268  1.00  0.00     0.007 C 
ENDBRANCH   2   5
ENDBRANCH   1   2
BRANCH   1   8
ATOM      8  C   UNL     1     -13.566   7.330  33.370  1.00  0.00     0.004 C 
BRANCH   8   9
ATOM      9  C   UNL     1     -12.602   6.202  33.836  1.00  0.00    -0.011 C 
ATOM     10  C   UNL     1     -11.350   6.805  34.509  1.00  0.00     0.008 C 
BRANCH   9  11
ATOM     11  C   UNL     1     -12.287   5.220  32.640  1.00  0.00    -0.002 C 
ATOM     12  C   UNL     1     -10.851   4.701  32.573  1.00  0.00     0.005 C 
ATOM     13  C   UNL     1     -13.179   3.951  32.492  1.00  0.00    -0.026 C 
ATOM     14  C   UNL     1     -10.886   3.568  31.561  1.00  0.00     0.005 C 
ATOM     15  C   UNL     1     -12.342   3.021  31.534  1.00  0.00    -0.001 C 
ATOM     16  C   UNL     1     -14.607   4.307  31.979  1.00  0.00     0.007 C 
ATOM     17  C   UNL     1     -13.346   3.230  33.860  1.00  0.00     0.012 C 
ATOM     18  C   UNL     1     -12.828   2.823  30.043  1.00  0.00     0.004 C 
ATOM     19  C   UNL     1     -14.693   4.459  30.467  1.00  0.00     0.005 C 
ATOM     20  C   UNL     1     -14.318   3.136  29.783  1.00  0.00     0.003 C 
ATOM     21  C   UNL     1     -12.544   1.363  29.607  1.00  0.00     0.085 C 
ATOM     22  C   UNL     1     -14.684   3.095  28.236  1.00  0.00    -0.000 C 
ATOM     23  C   UNL     1     -13.028   1.069  28.223  1.00  0.00     0.159 C 
ATOM     24  C   UNL     1     -13.825   2.066  27.480  1.00  0.00     0.005 C 
ATOM     25  C   UNL     1     -14.485   4.480  27.540  1.00  0.00     0.020 C 
ATOM     26  C   UNL     1     -16.164   2.656  28.114  1.00  0.00     0.017 C 
ATOM     27  O   UNL     1     -12.707  -0.025  27.682  1.00  0.00    -0.295 OA
ATOM     28  C   UNL     1     -13.734   2.092  26.136  1.00  0.00     0.055 C 
ATOM     29  C   UNL     1     -14.785   4.458  26.027  1.00  0.00     0.081 C 
ATOM     30  C   UNL     1     -14.242   3.227  25.353  1.00  0.00     0.156 C 
ATOM     31  O   UNL     1     -14.195   3.175  24.094  1.00  0.00    -0.295 OA
ENDBRANCH   9  11
ENDBRANCH   8   9
ENDBRANCH   1   8
TORSDOF 6
ENDMDL
