MODEL 1
REMARK VINA RESULT:    -4.377      0.000      0.000
REMARK INTER + INTRA:          -6.954
REMARK INTER:                  -6.424
REMARK INTRA:                  -0.530
REMARK UNBOUND:                -0.530
REMARK SMILES C=C1C=C[C@H](C(C)C)CCC(C)=CCC1
REMARK SMILES IDX 3 1 4 2 5 3 9 4 10 5 11 6 12 7 13 8 6 10 7 11 8 12 2 13 1 14
REMARK SMILES IDX 15 15 14 16
REMARK H PARENT
REMARK Flexibility Score: 70.00
ROOT
ATOM      1  C   UNL     1       2.603  13.256   2.746  1.00  0.00    -0.001 C 
ATOM      2  C   UNL     1       1.440  13.015   3.371  1.00  0.00    -0.023 C 
ENDROOT
BRANCH   2   3
ATOM      3  C   UNL     1       0.671  14.047   4.175  1.00  0.00     0.014 C 
BRANCH   3   4
ATOM      4  C   UNL     1      -0.663  14.410   3.458  1.00  0.00     0.012 C 
BRANCH   4   5
ATOM      5  C   UNL     1      -0.641  14.126   1.937  1.00  0.00     0.031 C 
BRANCH   5   6
ATOM      6  C   UNL     1      -0.520  15.400   1.114  1.00  0.00    -0.077 C 
ATOM      7  C   UNL     1      -1.740  16.262   0.916  1.00  0.00     0.039 C 
ATOM      8  C   UNL     1       0.646  15.810   0.561  1.00  0.00    -0.028 CG0
ATOM      9  G   UNL     1       1.950  15.053   0.627  1.00  0.00     0.000 G0
ENDBRANCH   5   6
ENDBRANCH   4   5
ENDBRANCH   3   4
BRANCH   3  10
ATOM     10  C   UNL     1       0.504  13.586   5.660  1.00  0.00    -0.010 C 
ATOM     11  C   UNL     1       1.826  13.339   6.413  1.00  0.00     0.008 C 
ATOM     12  C   UNL     1      -0.401  12.351   5.777  1.00  0.00     0.008 C 
ENDBRANCH   3  10
ENDBRANCH   2   3
BRANCH   1  13
ATOM     13  C   UNL     1       3.286  14.566   2.731  1.00  0.00    -0.055 C 
ATOM     14  C   UNL     1       4.337  14.761   3.532  1.00  0.00     0.012 C 
BRANCH  13  15
ATOM     15  C   UNL     1       2.899  15.615   1.717  1.00  0.00     0.039 C 
BRANCH  15  16
ATOM     16  C   UNL     1       1.971  15.057   0.619  1.00  0.00     0.032 CG0
ATOM     17  G   UNL     1       0.666  15.814   0.562  1.00  0.00     0.000 G0
ENDBRANCH  15  16
ENDBRANCH  13  15
ENDBRANCH   1  13
TORSDOF 1
ENDMDL
MODEL 2
REMARK VINA RESULT:    -4.097      1.748      3.550
REMARK INTER + INTRA:          -6.542
REMARK INTER:                  -6.303
REMARK INTRA:                  -0.240
REMARK UNBOUND:                -0.530
REMARK SMILES C=C1C=C[C@H](C(C)C)CCC(C)=CCC1
REMARK SMILES IDX 3 1 4 2 5 3 9 4 10 5 11 6 12 7 13 8 6 10 7 11 8 12 2 13 1 14
REMARK SMILES IDX 15 15 14 16
REMARK H PARENT
REMARK Flexibility Score: 70.00
ROOT
ATOM      1  C   UNL     1       0.081  14.125   0.760  1.00  0.00    -0.001 C 
ATOM      2  C   UNL     1       0.567  14.087   2.011  1.00  0.00    -0.023 C 
ENDROOT
BRANCH   2   3
ATOM      3  C   UNL     1       1.930  13.536   2.383  1.00  0.00     0.014 C 
BRANCH   3   4
ATOM      4  C   UNL     1       2.990  14.677   2.410  1.00  0.00     0.012 C 
BRANCH   4   5
ATOM      5  C   UNL     1       2.399  16.072   2.097  1.00  0.00     0.031 C 
BRANCH   5   6
ATOM      6  C   UNL     1       3.165  16.791   0.997  1.00  0.00    -0.077 C 
ATOM      7  C   UNL     1       4.399  17.578   1.359  1.00  0.00     0.039 C 
ATOM      8  C   UNL     1       2.801  16.742  -0.307  1.00  0.00    -0.028 CG0
ATOM      9  G   UNL     1       1.578  16.035  -0.839  1.00  0.00     0.000 G0
ENDBRANCH   5   6
ENDBRANCH   4   5
ENDBRANCH   3   4
BRANCH   3  10
ATOM     10  C   UNL     1       1.852  12.694   3.699  1.00  0.00    -0.010 C 
ATOM     11  C   UNL     1       1.395  13.481   4.943  1.00  0.00     0.008 C 
ATOM     12  C   UNL     1       3.174  11.972   3.996  1.00  0.00     0.008 C 
ENDBRANCH   3  10
ENDBRANCH   2   3
BRANCH   1  13
ATOM     13  C   UNL     1       0.815  13.656  -0.433  1.00  0.00    -0.055 C 
ATOM     14  C   UNL     1       0.457  12.504  -1.007  1.00  0.00     0.012 C 
BRANCH  13  15
ATOM     15  C   UNL     1       1.850  14.540  -1.086  1.00  0.00     0.039 C 
BRANCH  15  16
ATOM     16  C   UNL     1       1.576  16.039  -0.850  1.00  0.00     0.032 CG0
ATOM     17  G   UNL     1       2.796  16.747  -0.315  1.00  0.00     0.000 G0
ENDBRANCH  15  16
ENDBRANCH  13  15
ENDBRANCH   1  13
TORSDOF 1
ENDMDL
MODEL 3
REMARK VINA RESULT:    -4.090      1.987      5.181
REMARK INTER + INTRA:          -6.533
REMARK INTER:                  -6.234
REMARK INTRA:                  -0.298
REMARK UNBOUND:                -0.530
REMARK SMILES C=C1C=C[C@H](C(C)C)CCC(C)=CCC1
REMARK SMILES IDX 3 1 4 2 5 3 9 4 10 5 11 6 12 7 13 8 6 10 7 11 8 12 2 13 1 14
REMARK SMILES IDX 15 15 14 16
REMARK H PARENT
REMARK Flexibility Score: 70.00
ROOT
ATOM      1  C   UNL     1       0.581  13.758   1.460  1.00  0.00    -0.001 C 
ATOM      2  C   UNL     1       1.896  14.029   1.465  1.00  0.00    -0.023 C 
ENDROOT
BRANCH   2   3
ATOM      3  C   UNL     1       2.545  15.107   2.314  1.00  0.00     0.014 C 
BRANCH   3   4
ATOM      4  C   UNL     1       3.737  14.517   3.124  1.00  0.00     0.012 C 
BRANCH   4   5
ATOM      5  C   UNL     1       3.393  13.196   3.851  1.00  0.00     0.031 C 
BRANCH   5   6
ATOM      6  C   UNL     1       2.660  13.433   5.163  1.00  0.00    -0.077 C 
ATOM      7  C   UNL     1       3.454  13.821   6.384  1.00  0.00     0.039 C 
ATOM      8  C   UNL     1       1.315  13.329   5.284  1.00  0.00    -0.028 CG0
ATOM      9  G   UNL     1       0.375  12.916   4.178  1.00  0.00     0.000 G0
ENDBRANCH   5   6
ENDBRANCH   4   5
ENDBRANCH   3   4
BRANCH   3  10
ATOM     10  C   UNL     1       2.906  16.357   1.447  1.00  0.00    -0.010 C 
ATOM     11  C   UNL     1       3.121  16.066  -0.051  1.00  0.00     0.008 C 
ATOM     12  C   UNL     1       4.119  17.113   2.010  1.00  0.00     0.008 C 
ENDBRANCH   3  10
ENDBRANCH   2   3
BRANCH   1  13
ATOM     13  C   UNL     1      -0.417  14.455   2.297  1.00  0.00    -0.055 C 
ATOM     14  C   UNL     1      -1.285  15.288   1.717  1.00  0.00     0.012 C 
BRANCH  13  15
ATOM     15  C   UNL     1      -0.553  14.114   3.761  1.00  0.00     0.039 C 
BRANCH  15  16
ATOM     16  C   UNL     1       0.355  12.940   4.178  1.00  0.00     0.032 CG0
ATOM     17  G   UNL     1       1.314  13.344   5.270  1.00  0.00     0.000 G0
ENDBRANCH  15  16
ENDBRANCH  13  15
ENDBRANCH   1  13
TORSDOF 1
ENDMDL
MODEL 4
REMARK VINA RESULT:    -4.063      1.827      3.324
REMARK INTER + INTRA:          -6.492
REMARK INTER:                  -6.055
REMARK INTRA:                  -0.438
REMARK UNBOUND:                -0.530
REMARK SMILES C=C1C=C[C@H](C(C)C)CCC(C)=CCC1
REMARK SMILES IDX 3 1 4 2 5 3 9 4 10 5 11 6 12 7 13 8 6 10 7 11 8 12 2 13 1 14
REMARK SMILES IDX 15 15 14 16
REMARK H PARENT
REMARK Flexibility Score: 70.00
ROOT
ATOM      1  C   UNL     1       0.256  12.241   5.689  1.00  0.00    -0.001 C 
ATOM      2  C   UNL     1      -0.905  12.840   5.384  1.00  0.00    -0.023 C 
ENDROOT
BRANCH   2   3
ATOM      3  C   UNL     1      -1.018  14.190   4.701  1.00  0.00     0.014 C 
BRANCH   3   4
ATOM      4  C   UNL     1      -0.976  14.022   3.153  1.00  0.00     0.012 C 
BRANCH   4   5
ATOM      5  C   UNL     1       0.193  14.783   2.483  1.00  0.00     0.031 C 
BRANCH   5   6
ATOM      6  C   UNL     1       0.998  13.895   1.546  1.00  0.00    -0.077 C 
ATOM      7  C   UNL     1       0.487  13.653   0.149  1.00  0.00     0.039 C 
ATOM      8  C   UNL     1       2.172  13.323   1.903  1.00  0.00    -0.028 CG0
ATOM      9  G   UNL     1       2.809  13.430   3.267  1.00  0.00     0.000 G0
ENDBRANCH   5   6
ENDBRANCH   4   5
ENDBRANCH   3   4
BRANCH   3  10
ATOM     10  C   UNL     1      -2.257  14.982   5.233  1.00  0.00    -0.010 C 
ATOM     11  C   UNL     1      -3.165  14.192   6.195  1.00  0.00     0.008 C 
ATOM     12  C   UNL     1      -3.096  15.568   4.088  1.00  0.00     0.008 C 
ENDBRANCH   3  10
ENDBRANCH   2   3
BRANCH   1  13
ATOM     13  C   UNL     1       1.589  12.800   5.384  1.00  0.00    -0.055 C 
ATOM     14  C   UNL     1       2.147  13.659   6.241  1.00  0.00     0.012 C 
BRANCH  13  15
ATOM     15  C   UNL     1       2.374  12.292   4.199  1.00  0.00     0.039 C 
BRANCH  15  16
ATOM     16  C   UNL     1       2.828  13.430   3.263  1.00  0.00     0.032 CG0
ATOM     17  G   UNL     1       2.172  13.325   1.908  1.00  0.00     0.000 G0
ENDBRANCH  15  16
ENDBRANCH  13  15
ENDBRANCH   1  13
TORSDOF 1
ENDMDL
MODEL 5
REMARK VINA RESULT:    -4.058      1.166      1.639
REMARK INTER + INTRA:          -6.486
REMARK INTER:                  -6.115
REMARK INTRA:                  -0.371
REMARK UNBOUND:                -0.530
REMARK SMILES C=C1C=C[C@H](C(C)C)CCC(C)=CCC1
REMARK SMILES IDX 3 1 4 2 5 3 9 4 10 5 11 6 12 7 13 8 6 10 7 11 8 12 2 13 1 14
REMARK SMILES IDX 15 15 14 16
REMARK H PARENT
REMARK Flexibility Score: 70.00
ROOT
ATOM      1  C   UNL     1       1.952  13.954   1.411  1.00  0.00    -0.001 C 
ATOM      2  C   UNL     1       1.206  13.360   2.356  1.00  0.00    -0.023 C 
ENDROOT
BRANCH   2   3
ATOM      3  C   UNL     1       0.656  14.066   3.582  1.00  0.00     0.014 C 
BRANCH   3   4
ATOM      4  C   UNL     1      -0.856  14.388   3.391  1.00  0.00     0.012 C 
BRANCH   4   5
ATOM      5  C   UNL     1      -1.336  14.243   1.927  1.00  0.00     0.031 C 
BRANCH   5   6
ATOM      6  C   UNL     1      -1.726  15.579   1.312  1.00  0.00    -0.077 C 
ATOM      7  C   UNL     1      -3.017  16.231   1.737  1.00  0.00     0.039 C 
ATOM      8  C   UNL     1      -0.953  16.226   0.407  1.00  0.00    -0.028 CG0
ATOM      9  G   UNL     1       0.346  15.703  -0.155  1.00  0.00     0.000 G0
ENDBRANCH   5   6
ENDBRANCH   4   5
ENDBRANCH   3   4
BRANCH   3  10
ATOM     10  C   UNL     1       0.989  13.266   4.883  1.00  0.00    -0.010 C 
ATOM     11  C   UNL     1       0.243  13.744   6.144  1.00  0.00     0.008 C 
ATOM     12  C   UNL     1       2.499  13.220   5.157  1.00  0.00     0.008 C 
ENDBRANCH   3  10
ENDBRANCH   2   3
BRANCH   1  13
ATOM     13  C   UNL     1       2.323  15.384   1.418  1.00  0.00    -0.055 C 
ATOM     14  C   UNL     1       3.430  15.766   2.060  1.00  0.00     0.012 C 
BRANCH  13  15
ATOM     15  C   UNL     1       1.549  16.375   0.584  1.00  0.00     0.039 C 
BRANCH  15  16
ATOM     16  C   UNL     1       0.361  15.723  -0.152  1.00  0.00     0.032 CG0
ATOM     17  G   UNL     1      -0.960  16.220   0.382  1.00  0.00     0.000 G0
ENDBRANCH  15  16
ENDBRANCH  13  15
ENDBRANCH   1  13
TORSDOF 1
ENDMDL
MODEL 6
REMARK VINA RESULT:    -4.058      2.372      4.492
REMARK INTER + INTRA:          -6.485
REMARK INTER:                  -5.961
REMARK INTRA:                  -0.524
REMARK UNBOUND:                -0.530
REMARK SMILES C=C1C=C[C@H](C(C)C)CCC(C)=CCC1
REMARK SMILES IDX 3 1 4 2 5 3 9 4 10 5 11 6 12 7 13 8 6 10 7 11 8 12 2 13 1 14
REMARK SMILES IDX 15 15 14 16
REMARK H PARENT
REMARK Flexibility Score: 70.00
ROOT
ATOM      1  C   UNL     1       3.278  14.824   2.857  1.00  0.00    -0.001 C 
ATOM      2  C   UNL     1       2.183  14.958   2.092  1.00  0.00    -0.023 C 
ENDROOT
BRANCH   2   3
ATOM      3  C   UNL     1       0.998  14.012   2.121  1.00  0.00     0.014 C 
BRANCH   3   4
ATOM      4  C   UNL     1      -0.059  14.495   3.158  1.00  0.00     0.012 C 
BRANCH   4   5
ATOM      5  C   UNL     1      -0.500  13.390   4.147  1.00  0.00     0.031 C 
BRANCH   5   6
ATOM      6  C   UNL     1      -0.330  13.813   5.598  1.00  0.00    -0.077 C 
ATOM      7  C   UNL     1      -1.468  14.514   6.294  1.00  0.00     0.039 C 
ATOM      8  C   UNL     1       0.798  13.570   6.308  1.00  0.00    -0.028 CG0
ATOM      9  G   UNL     1       2.042  12.915   5.760  1.00  0.00     0.000 G0
ENDBRANCH   5   6
ENDBRANCH   4   5
ENDBRANCH   3   4
BRANCH   3  10
ATOM     10  C   UNL     1       0.433  13.780   0.681  1.00  0.00    -0.010 C 
ATOM     11  C   UNL     1       1.496  13.443  -0.383  1.00  0.00     0.008 C 
ATOM     12  C   UNL     1      -0.423  14.963   0.205  1.00  0.00     0.008 C 
ENDBRANCH   3  10
ENDBRANCH   2   3
BRANCH   1  13
ATOM     13  C   UNL     1       3.474  13.749   3.851  1.00  0.00    -0.055 C 
ATOM     14  C   UNL     1       4.131  12.642   3.493  1.00  0.00     0.012 C 
BRANCH  13  15
ATOM     15  C   UNL     1       3.075  13.962   5.291  1.00  0.00     0.039 C 
BRANCH  15  16
ATOM     16  C   UNL     1       2.051  12.917   5.778  1.00  0.00     0.032 CG0
ATOM     17  G   UNL     1       0.798  13.574   6.303  1.00  0.00     0.000 G0
ENDBRANCH  15  16
ENDBRANCH  13  15
ENDBRANCH   1  13
TORSDOF 1
ENDMDL
MODEL 7
REMARK VINA RESULT:    -4.038      1.835      3.293
REMARK INTER + INTRA:          -6.456
REMARK INTER:                  -6.021
REMARK INTRA:                  -0.434
REMARK UNBOUND:                -0.530
REMARK SMILES C=C1C=C[C@H](C(C)C)CCC(C)=CCC1
REMARK SMILES IDX 3 1 4 2 5 3 9 4 10 5 11 6 12 7 13 8 6 10 7 11 8 12 2 13 1 14
REMARK SMILES IDX 15 15 14 16
REMARK H PARENT
REMARK Flexibility Score: 70.00
ROOT
ATOM      1  C   UNL     1       2.266  12.366   4.649  1.00  0.00    -0.001 C 
ATOM      2  C   UNL     1       1.261  12.610   3.793  1.00  0.00    -0.023 C 
ENDROOT
BRANCH   2   3
ATOM      3  C   UNL     1       0.567  13.951   3.648  1.00  0.00     0.014 C 
BRANCH   3   4
ATOM      4  C   UNL     1       0.638  14.443   2.171  1.00  0.00     0.012 C 
BRANCH   4   5
ATOM      5  C   UNL     1       2.036  14.272   1.532  1.00  0.00     0.031 C 
BRANCH   5   6
ATOM      6  C   UNL     1       2.974  15.419   1.877  1.00  0.00    -0.077 C 
ATOM      7  C   UNL     1       2.805  16.739   1.170  1.00  0.00     0.039 C 
ATOM      8  C   UNL     1       3.949  15.317   2.811  1.00  0.00    -0.028 CG0
ATOM      9  G   UNL     1       4.281  14.064   3.584  1.00  0.00     0.000 G0
ENDBRANCH   5   6
ENDBRANCH   4   5
ENDBRANCH   3   4
BRANCH   3  10
ATOM     10  C   UNL     1      -0.876  13.900   4.245  1.00  0.00    -0.010 C 
ATOM     11  C   UNL     1      -1.902  14.806   3.535  1.00  0.00     0.008 C 
ATOM     12  C   UNL     1      -0.883  14.190   5.753  1.00  0.00     0.008 C 
ENDBRANCH   3  10
ENDBRANCH   2   3
BRANCH   1  13
ATOM     13  C   UNL     1       2.854  13.375   5.553  1.00  0.00    -0.055 C 
ATOM     14  C   UNL     1       2.449  13.424   6.825  1.00  0.00     0.012 C 
BRANCH  13  15
ATOM     15  C   UNL     1       4.005  14.234   5.089  1.00  0.00     0.039 C 
BRANCH  15  16
ATOM     16  C   UNL     1       4.291  14.070   3.583  1.00  0.00     0.032 CG0
ATOM     17  G   UNL     1       3.929  15.315   2.812  1.00  0.00     0.000 G0
ENDBRANCH  15  16
ENDBRANCH  13  15
ENDBRANCH   1  13
TORSDOF 1
ENDMDL
MODEL 8
REMARK VINA RESULT:    -4.002      1.488      2.176
REMARK INTER + INTRA:          -6.403
REMARK INTER:                  -5.798
REMARK INTRA:                  -0.605
REMARK UNBOUND:                -0.530
REMARK SMILES C=C1C=C[C@H](C(C)C)CCC(C)=CCC1
REMARK SMILES IDX 3 1 4 2 5 3 9 4 10 5 11 6 12 7 13 8 6 10 7 11 8 12 2 13 1 14
REMARK SMILES IDX 15 15 14 16
REMARK H PARENT
REMARK Flexibility Score: 70.00
ROOT
ATOM      1  C   UNL     1       4.685  13.784   3.500  1.00  0.00    -0.001 C 
ATOM      2  C   UNL     1       3.578  13.077   3.780  1.00  0.00    -0.023 C 
ENDROOT
BRANCH   2   3
ATOM      3  C   UNL     1       2.246  13.692   4.168  1.00  0.00     0.014 C 
BRANCH   3   4
ATOM      4  C   UNL     1       1.167  13.373   3.092  1.00  0.00     0.012 C 
BRANCH   4   5
ATOM      5  C   UNL     1       0.665  14.626   2.335  1.00  0.00     0.031 C 
BRANCH   5   6
ATOM      6  C   UNL     1       1.396  14.835   1.017  1.00  0.00    -0.077 C 
ATOM      7  C   UNL     1       0.922  14.095  -0.208  1.00  0.00     0.039 C 
ATOM      8  C   UNL     1       2.449  15.677   0.885  1.00  0.00    -0.028 CG0
ATOM      9  G   UNL     1       3.074  16.465   2.010  1.00  0.00     0.000 G0
ENDBRANCH   5   6
ENDBRANCH   4   5
ENDBRANCH   3   4
BRANCH   3  10
ATOM     10  C   UNL     1       1.848  13.286   5.625  1.00  0.00    -0.010 C 
ATOM     11  C   UNL     1       0.443  13.745   6.062  1.00  0.00     0.008 C 
ATOM     12  C   UNL     1       2.890  13.749   6.653  1.00  0.00     0.008 C 
ENDBRANCH   3  10
ENDBRANCH   2   3
BRANCH   1  13
ATOM     13  C   UNL     1       4.756  15.259   3.507  1.00  0.00    -0.055 C 
ATOM     14  C   UNL     1       5.123  15.888   4.627  1.00  0.00     0.012 C 
BRANCH  13  15
ATOM     15  C   UNL     1       4.568  16.036   2.227  1.00  0.00     0.039 C 
BRANCH  15  16
ATOM     16  C   UNL     1       3.102  16.459   2.006  1.00  0.00     0.032 CG0
ATOM     17  G   UNL     1       2.462  15.674   0.888  1.00  0.00     0.000 G0
ENDBRANCH  15  16
ENDBRANCH  13  15
ENDBRANCH   1  13
TORSDOF 1
ENDMDL
MODEL 9
REMARK VINA RESULT:    -3.941      1.482      2.092
REMARK INTER + INTRA:          -6.314
REMARK INTER:                  -5.872
REMARK INTRA:                  -0.442
REMARK UNBOUND:                -0.530
REMARK SMILES C=C1C=C[C@H](C(C)C)CCC(C)=CCC1
REMARK SMILES IDX 3 1 4 2 5 3 9 4 10 5 11 6 12 7 13 8 6 10 7 11 8 12 2 13 1 14
REMARK SMILES IDX 15 15 14 16
REMARK H PARENT
REMARK Flexibility Score: 70.00
ROOT
ATOM      1  C   UNL     1       2.709  12.338   4.358  1.00  0.00    -0.001 C 
ATOM      2  C   UNL     1       1.375  12.249   4.488  1.00  0.00    -0.023 C 
ENDROOT
BRANCH   2   3
ATOM      3  C   UNL     1       0.457  13.435   4.714  1.00  0.00     0.014 C 
BRANCH   3   4
ATOM      4  C   UNL     1      -0.397  13.711   3.441  1.00  0.00     0.012 C 
BRANCH   4   5
ATOM      5  C   UNL     1       0.151  14.866   2.571  1.00  0.00     0.031 C 
BRANCH   5   6
ATOM      6  C   UNL     1       0.993  14.364   1.408  1.00  0.00    -0.077 C 
ATOM      7  C   UNL     1       0.310  13.676   0.254  1.00  0.00     0.039 C 
ATOM      8  C   UNL     1       2.337  14.523   1.349  1.00  0.00    -0.028 CG0
ATOM      9  G   UNL     1       3.183  15.152   2.429  1.00  0.00     0.000 G0
ENDBRANCH   5   6
ENDBRANCH   4   5
ENDBRANCH   3   4
BRANCH   3  10
ATOM     10  C   UNL     1      -0.375  13.254   6.025  1.00  0.00    -0.010 C 
ATOM     11  C   UNL     1      -1.178  11.941   6.106  1.00  0.00     0.008 C 
ATOM     12  C   UNL     1      -1.305  14.449   6.282  1.00  0.00     0.008 C 
ENDBRANCH   3  10
ENDBRANCH   2   3
BRANCH   1  13
ATOM     13  C   UNL     1       3.467  13.605   4.392  1.00  0.00    -0.055 C 
ATOM     14  C   UNL     1       3.707  14.188   5.569  1.00  0.00     0.012 C 
BRANCH  13  15
ATOM     15  C   UNL     1       4.093  14.151   3.132  1.00  0.00     0.039 C 
BRANCH  15  16
ATOM     16  C   UNL     1       3.186  15.174   2.420  1.00  0.00     0.032 CG0
ATOM     17  G   UNL     1       2.336  14.516   1.361  1.00  0.00     0.000 G0
ENDBRANCH  15  16
ENDBRANCH  13  15
ENDBRANCH   1  13
TORSDOF 1
ENDMDL
