MODEL 1
REMARK VINA RESULT:    -8.490      0.000      0.000
REMARK INTER + INTRA:          -8.738
REMARK INTER:                  -8.738
REMARK INTRA:                   0.000
REMARK UNBOUND:                 0.000
REMARK SMILES C[C@@H]1CC[C@]2(OC1)O[C@@H]1C[C@@H]3[C@@H]4CC=C5C[C@H](O)CC[C@]5(C)[C@H]4CC[C@@]3(C)[C@@H]1[C@@H]2C
REMARK SMILES IDX 1 1 2 2 3 3 4 4 5 5 29 6 28 7 9 8 8 9 10 10 11 11 26 12
REMARK SMILES IDX 25 13 24 14 23 15 12 16 13 17 14 18 15 19 21 20 20 21 19 22
REMARK SMILES IDX 17 23 16 24 22 25 27 26 30 27 6 28 7 29 18 30
REMARK H PARENT 18 31
REMARK Flexibility Score: inf
ROOT
ATOM      1  C   UNL     1      29.697  12.674  22.170  1.00  0.00     0.010 C 
ATOM      2  C   UNL     1      29.554  11.276  22.787  1.00  0.00     0.012 C 
ATOM      3  C   UNL     1      28.620  11.277  24.007  1.00  0.00     0.011 C 
ATOM      4  C   UNL     1      29.305  11.877  25.239  1.00  0.00     0.066 C 
ATOM      5  C   UNL     1      30.701  11.238  25.467  1.00  0.00     0.171 C 
ATOM      6  C   UNL     1      31.497  11.874  26.650  1.00  0.00     0.052 C 
ATOM      7  C   UNL     1      31.921  10.682  27.513  1.00  0.00     0.033 C 
ATOM      8  C   UNL     1      31.603   9.491  26.609  1.00  0.00     0.126 C 
ATOM      9  O   UNL     1      30.540   9.859  25.764  1.00  0.00    -0.346 OA
ATOM     10  C   UNL     1      31.209   8.314  27.523  1.00  0.00     0.037 C 
ATOM     11  C   UNL     1      31.587   8.812  28.910  1.00  0.00     0.002 C 
ATOM     12  C   UNL     1      31.269  10.319  28.892  1.00  0.00    -0.024 C 
ATOM     13  C   UNL     1      31.962  10.998  30.122  1.00  0.00     0.008 C 
ATOM     14  C   UNL     1      32.144  10.063  31.355  1.00  0.00     0.005 C 
ATOM     15  C   UNL     1      31.057   8.953  31.427  1.00  0.00     0.003 C 
ATOM     16  C   UNL     1      31.155   8.024  30.182  1.00  0.00     0.000 C 
ATOM     17  C   UNL     1      29.896   7.159  30.055  1.00  0.00     0.031 C 
ATOM     18  C   UNL     1      29.435   6.613  31.388  1.00  0.00    -0.027 C 
ATOM     19  C   UNL     1      29.857   7.067  32.597  1.00  0.00    -0.065 C 
ATOM     20  C   UNL     1      31.000   8.091  32.744  1.00  0.00    -0.008 C 
ATOM     21  C   UNL     1      30.672   9.010  33.957  1.00  0.00     0.014 C 
ATOM     22  C   UNL     1      30.368   8.270  35.280  1.00  0.00     0.033 C 
ATOM     23  C   UNL     1      29.820   6.835  35.122  1.00  0.00     0.118 C 
ATOM     24  C   UNL     1      29.057   6.640  33.812  1.00  0.00     0.063 C 
ATOM     25  C   UNL     1      32.343   7.352  33.001  1.00  0.00     0.016 C 
ATOM     26  C   UNL     1      29.728  10.584  28.903  1.00  0.00     0.012 C 
ATOM     27  C   UNL     1      30.897  13.088  27.385  1.00  0.00     0.014 C 
ATOM     28  O   UNL     1      31.484  11.392  24.284  1.00  0.00    -0.349 OA
ATOM     29  C   UNL     1      30.924  10.701  23.178  1.00  0.00     0.167 C 
ENDROOT
BRANCH  23  30
ATOM     30  O   UNL     1      28.966   6.528  36.193  1.00  0.00    -0.393 OA
ATOM     31  H   UNL     1      28.056   6.823  35.929  1.00  0.00     0.210 HD
ENDBRANCH  23  30
TORSDOF 1
ENDMDL
MODEL 2
REMARK VINA RESULT:    -8.444      1.468      1.851
REMARK INTER + INTRA:          -8.691
REMARK INTER:                  -8.691
REMARK INTRA:                   0.000
REMARK UNBOUND:                 0.000
REMARK SMILES C[C@@H]1CC[C@]2(OC1)O[C@@H]1C[C@@H]3[C@@H]4CC=C5C[C@H](O)CC[C@]5(C)[C@H]4CC[C@@]3(C)[C@@H]1[C@@H]2C
REMARK SMILES IDX 1 1 2 2 3 3 4 4 5 5 29 6 28 7 9 8 8 9 10 10 11 11 26 12
REMARK SMILES IDX 25 13 24 14 23 15 12 16 13 17 14 18 15 19 21 20 20 21 19 22
REMARK SMILES IDX 17 23 16 24 22 25 27 26 30 27 6 28 7 29 18 30
REMARK H PARENT 18 31
REMARK Flexibility Score: inf
ROOT
ATOM      1  C   UNL     1      28.934  10.487  21.067  1.00  0.00     0.010 C 
ATOM      2  C   UNL     1      29.124   9.386  22.119  1.00  0.00     0.012 C 
ATOM      3  C   UNL     1      28.246   9.616  23.359  1.00  0.00     0.011 C 
ATOM      4  C   UNL     1      28.809  10.727  24.250  1.00  0.00     0.066 C 
ATOM      5  C   UNL     1      30.318  10.501  24.535  1.00  0.00     0.171 C 
ATOM      6  C   UNL     1      30.981  11.651  25.358  1.00  0.00     0.052 C 
ATOM      7  C   UNL     1      31.683  10.938  26.517  1.00  0.00     0.033 C 
ATOM      8  C   UNL     1      31.618   9.471  26.091  1.00  0.00     0.126 C 
ATOM      9  O   UNL     1      30.478   9.305  25.282  1.00  0.00    -0.346 OA
ATOM     10  C   UNL     1      31.521   8.624  27.374  1.00  0.00     0.037 C 
ATOM     11  C   UNL     1      31.813   9.633  28.476  1.00  0.00     0.002 C 
ATOM     12  C   UNL     1      31.164  10.944  27.997  1.00  0.00    -0.024 C 
ATOM     13  C   UNL     1      31.718  12.128  28.861  1.00  0.00     0.008 C 
ATOM     14  C   UNL     1      32.136  11.729  30.307  1.00  0.00     0.005 C 
ATOM     15  C   UNL     1      31.328  10.515  30.848  1.00  0.00     0.003 C 
ATOM     16  C   UNL     1      31.601   9.257  29.973  1.00  0.00     0.000 C 
ATOM     17  C   UNL     1      30.565   8.164  30.264  1.00  0.00     0.031 C 
ATOM     18  C   UNL     1      30.272   8.025  31.741  1.00  0.00    -0.027 C 
ATOM     19  C   UNL     1      30.612   8.941  32.685  1.00  0.00    -0.065 C 
ATOM     20  C   UNL     1      31.499  10.163  32.373  1.00  0.00    -0.008 C 
ATOM     21  C   UNL     1      31.004  11.355  33.244  1.00  0.00     0.014 C 
ATOM     22  C   UNL     1      30.907  11.066  34.760  1.00  0.00     0.033 C 
ATOM     23  C   UNL     1      30.691   9.584  35.137  1.00  0.00     0.118 C 
ATOM     24  C   UNL     1      29.959   8.803  34.046  1.00  0.00     0.063 C 
ATOM     25  C   UNL     1      32.979   9.844  32.723  1.00  0.00     0.016 C 
ATOM     26  C   UNL     1      29.603  10.879  28.074  1.00  0.00     0.012 C 
ATOM     27  C   UNL     1      30.142  12.894  25.710  1.00  0.00     0.014 C 
ATOM     28  O   UNL     1      31.016  10.396  23.295  1.00  0.00    -0.349 OA
ATOM     29  C   UNL     1      30.599   9.271  22.539  1.00  0.00     0.167 C 
ENDROOT
BRANCH  23  30
ATOM     30  O   UNL     1      29.955   9.496  36.329  1.00  0.00    -0.393 OA
ATOM     31  H   UNL     1      30.379   8.785  36.876  1.00  0.00     0.210 HD
ENDBRANCH  23  30
TORSDOF 1
ENDMDL
MODEL 3
REMARK VINA RESULT:    -8.384      1.796      3.094
REMARK INTER + INTRA:          -8.629
REMARK INTER:                  -8.629
REMARK INTRA:                   0.000
REMARK UNBOUND:                 0.000
REMARK SMILES C[C@@H]1CC[C@]2(OC1)O[C@@H]1C[C@@H]3[C@@H]4CC=C5C[C@H](O)CC[C@]5(C)[C@H]4CC[C@@]3(C)[C@@H]1[C@@H]2C
REMARK SMILES IDX 1 1 2 2 3 3 4 4 5 5 29 6 28 7 9 8 8 9 10 10 11 11 26 12
REMARK SMILES IDX 25 13 24 14 23 15 12 16 13 17 14 18 15 19 21 20 20 21 19 22
REMARK SMILES IDX 17 23 16 24 22 25 27 26 30 27 6 28 7 29 18 30
REMARK H PARENT 18 31
REMARK Flexibility Score: inf
ROOT
ATOM      1  C   UNL     1      28.932  10.443  24.482  1.00  0.00     0.010 C 
ATOM      2  C   UNL     1      28.612   9.254  25.398  1.00  0.00     0.012 C 
ATOM      3  C   UNL     1      27.856   9.687  26.664  1.00  0.00     0.011 C 
ATOM      4  C   UNL     1      28.790  10.363  27.673  1.00  0.00     0.066 C 
ATOM      5  C   UNL     1      30.061   9.507  27.916  1.00  0.00     0.171 C 
ATOM      6  C   UNL     1      31.104  10.183  28.861  1.00  0.00     0.052 C 
ATOM      7  C   UNL     1      31.406   9.122  29.923  1.00  0.00     0.033 C 
ATOM      8  C   UNL     1      30.762   7.869  29.330  1.00  0.00     0.126 C 
ATOM      9  O   UNL     1      29.687   8.276  28.518  1.00  0.00    -0.346 OA
ATOM     10  C   UNL     1      30.276   7.002  30.507  1.00  0.00     0.037 C 
ATOM     11  C   UNL     1      30.912   7.673  31.716  1.00  0.00     0.002 C 
ATOM     12  C   UNL     1      30.877   9.180  31.398  1.00  0.00    -0.024 C 
ATOM     13  C   UNL     1      31.833   9.928  32.388  1.00  0.00     0.008 C 
ATOM     14  C   UNL     1      31.993   9.236  33.775  1.00  0.00     0.005 C 
ATOM     15  C   UNL     1      30.738   8.411  34.178  1.00  0.00     0.003 C 
ATOM     16  C   UNL     1      30.505   7.257  33.161  1.00  0.00     0.000 C 
ATOM     17  C   UNL     1      29.102   6.663  33.332  1.00  0.00     0.031 C 
ATOM     18  C   UNL     1      28.720   6.496  34.786  1.00  0.00    -0.027 C 
ATOM     19  C   UNL     1      29.368   7.081  35.827  1.00  0.00    -0.065 C 
ATOM     20  C   UNL     1      30.689   7.856  35.650  1.00  0.00    -0.008 C 
ATOM     21  C   UNL     1      30.692   9.042  36.658  1.00  0.00     0.014 C 
ATOM     22  C   UNL     1      30.426   8.655  38.131  1.00  0.00     0.033 C 
ATOM     23  C   UNL     1      29.606   7.362  38.336  1.00  0.00     0.118 C 
ATOM     24  C   UNL     1      28.662   7.076  37.169  1.00  0.00     0.063 C 
ATOM     25  C   UNL     1      31.894   6.919  35.948  1.00  0.00     0.016 C 
ATOM     26  C   UNL     1      29.425   9.755  31.481  1.00  0.00     0.012 C 
ATOM     27  C   UNL     1      30.835  11.615  29.363  1.00  0.00     0.014 C 
ATOM     28  O   UNL     1      30.703   9.259  26.665  1.00  0.00    -0.349 OA
ATOM     29  C   UNL     1      29.891   8.496  25.788  1.00  0.00     0.167 C 
ENDROOT
BRANCH  23  30
ATOM     30  O   UNL     1      28.852   7.455  39.517  1.00  0.00    -0.393 OA
ATOM     31  H   UNL     1      28.272   6.651  39.550  1.00  0.00     0.210 HD
ENDBRANCH  23  30
TORSDOF 1
ENDMDL
MODEL 4
REMARK VINA RESULT:    -8.375      2.033      8.688
REMARK INTER + INTRA:          -8.620
REMARK INTER:                  -8.620
REMARK INTRA:                   0.000
REMARK UNBOUND:                 0.000
REMARK SMILES C[C@@H]1CC[C@]2(OC1)O[C@@H]1C[C@@H]3[C@@H]4CC=C5C[C@H](O)CC[C@]5(C)[C@H]4CC[C@@]3(C)[C@@H]1[C@@H]2C
REMARK SMILES IDX 1 1 2 2 3 3 4 4 5 5 29 6 28 7 9 8 8 9 10 10 11 11 26 12
REMARK SMILES IDX 25 13 24 14 23 15 12 16 13 17 14 18 15 19 21 20 20 21 19 22
REMARK SMILES IDX 17 23 16 24 22 25 27 26 30 27 6 28 7 29 18 30
REMARK H PARENT 18 31
REMARK Flexibility Score: inf
ROOT
ATOM      1  C   UNL     1      31.625   7.983  35.668  1.00  0.00     0.010 C 
ATOM      2  C   UNL     1      31.003   7.395  34.394  1.00  0.00     0.012 C 
ATOM      3  C   UNL     1      31.998   7.375  33.223  1.00  0.00     0.011 C 
ATOM      4  C   UNL     1      32.191   8.772  32.625  1.00  0.00     0.066 C 
ATOM      5  C   UNL     1      30.825   9.444  32.327  1.00  0.00     0.171 C 
ATOM      6  C   UNL     1      30.947  10.912  31.806  1.00  0.00     0.052 C 
ATOM      7  C   UNL     1      30.103  10.937  30.528  1.00  0.00     0.033 C 
ATOM      8  C   UNL     1      29.351   9.608  30.602  1.00  0.00     0.126 C 
ATOM      9  O   UNL     1      30.146   8.700  31.326  1.00  0.00    -0.346 OA
ATOM     10  C   UNL     1      29.129   9.125  29.156  1.00  0.00     0.037 C 
ATOM     11  C   UNL     1      29.521  10.337  28.323  1.00  0.00     0.002 C 
ATOM     12  C   UNL     1      30.702  10.973  29.080  1.00  0.00    -0.024 C 
ATOM     13  C   UNL     1      30.939  12.420  28.525  1.00  0.00     0.008 C 
ATOM     14  C   UNL     1      30.529  12.611  27.034  1.00  0.00     0.005 C 
ATOM     15  C   UNL     1      30.641  11.297  26.210  1.00  0.00     0.003 C 
ATOM     16  C   UNL     1      29.664  10.226  26.776  1.00  0.00     0.000 C 
ATOM     17  C   UNL     1      30.005   8.838  26.219  1.00  0.00     0.031 C 
ATOM     18  C   UNL     1      30.337   8.875  24.744  1.00  0.00    -0.027 C 
ATOM     19  C   UNL     1      30.624  10.003  24.045  1.00  0.00    -0.065 C 
ATOM     20  C   UNL     1      30.474  11.414  24.650  1.00  0.00    -0.008 C 
ATOM     21  C   UNL     1      31.605  12.312  24.068  1.00  0.00     0.014 C 
ATOM     22  C   UNL     1      31.697  12.337  22.525  1.00  0.00     0.033 C 
ATOM     23  C   UNL     1      31.150  11.081  21.811  1.00  0.00     0.118 C 
ATOM     24  C   UNL     1      31.250   9.825  22.675  1.00  0.00     0.063 C 
ATOM     25  C   UNL     1      29.090  12.008  24.266  1.00  0.00     0.016 C 
ATOM     26  C   UNL     1      32.000  10.109  28.957  1.00  0.00     0.012 C 
ATOM     27  C   UNL     1      32.341  11.563  31.734  1.00  0.00     0.014 C 
ATOM     28  O   UNL     1      30.047   9.471  33.523  1.00  0.00    -0.349 OA
ATOM     29  C   UNL     1      29.737   8.168  33.989  1.00  0.00     0.167 C 
ENDROOT
BRANCH  23  30
ATOM     30  O   UNL     1      31.854  10.866  20.615  1.00  0.00    -0.393 OA
ATOM     31  H   UNL     1      31.309  11.261  19.886  1.00  0.00     0.210 HD
ENDBRANCH  23  30
TORSDOF 1
ENDMDL
MODEL 5
REMARK VINA RESULT:    -8.309      1.908      2.920
REMARK INTER + INTRA:          -8.551
REMARK INTER:                  -8.551
REMARK INTRA:                   0.000
REMARK UNBOUND:                 0.000
REMARK SMILES C[C@@H]1CC[C@]2(OC1)O[C@@H]1C[C@@H]3[C@@H]4CC=C5C[C@H](O)CC[C@]5(C)[C@H]4CC[C@@]3(C)[C@@H]1[C@@H]2C
REMARK SMILES IDX 1 1 2 2 3 3 4 4 5 5 29 6 28 7 9 8 8 9 10 10 11 11 26 12
REMARK SMILES IDX 25 13 24 14 23 15 12 16 13 17 14 18 15 19 21 20 20 21 19 22
REMARK SMILES IDX 17 23 16 24 22 25 27 26 30 27 6 28 7 29 18 30
REMARK H PARENT 18 31
REMARK Flexibility Score: inf
ROOT
ATOM      1  C   UNL     1      30.269  11.973  23.794  1.00  0.00     0.010 C 
ATOM      2  C   UNL     1      31.251  11.256  24.731  1.00  0.00     0.012 C 
ATOM      3  C   UNL     1      30.584  10.096  25.486  1.00  0.00     0.011 C 
ATOM      4  C   UNL     1      29.690  10.604  26.622  1.00  0.00     0.066 C 
ATOM      5  C   UNL     1      30.444  11.631  27.508  1.00  0.00     0.171 C 
ATOM      6  C   UNL     1      29.560  12.264  28.628  1.00  0.00     0.052 C 
ATOM      7  C   UNL     1      30.370  12.070  29.913  1.00  0.00     0.033 C 
ATOM      8  C   UNL     1      31.735  11.635  29.380  1.00  0.00     0.126 C 
ATOM      9  O   UNL     1      31.533  10.983  28.150  1.00  0.00    -0.346 OA
ATOM     10  C   UNL     1      32.351  10.683  30.423  1.00  0.00     0.037 C 
ATOM     11  C   UNL     1      31.428  10.839  31.622  1.00  0.00     0.002 C 
ATOM     12  C   UNL     1      30.022  11.017  31.020  1.00  0.00    -0.024 C 
ATOM     13  C   UNL     1      29.059  11.556  32.133  1.00  0.00     0.008 C 
ATOM     14  C   UNL     1      29.445  11.128  33.580  1.00  0.00     0.005 C 
ATOM     15  C   UNL     1      30.201   9.769  33.619  1.00  0.00     0.003 C 
ATOM     16  C   UNL     1      31.546   9.882  32.846  1.00  0.00     0.000 C 
ATOM     17  C   UNL     1      32.128   8.490  32.571  1.00  0.00     0.031 C 
ATOM     18  C   UNL     1      32.000   7.567  33.763  1.00  0.00    -0.027 C 
ATOM     19  C   UNL     1      31.195   7.794  34.833  1.00  0.00    -0.065 C 
ATOM     20  C   UNL     1      30.440   9.123  35.034  1.00  0.00    -0.008 C 
ATOM     21  C   UNL     1      29.071   8.804  35.703  1.00  0.00     0.014 C 
ATOM     22  C   UNL     1      29.151   7.967  37.001  1.00  0.00     0.033 C 
ATOM     23  C   UNL     1      30.395   7.059  37.124  1.00  0.00     0.118 C 
ATOM     24  C   UNL     1      30.941   6.625  35.764  1.00  0.00     0.063 C 
ATOM     25  C   UNL     1      31.263  10.063  35.959  1.00  0.00     0.016 C 
ATOM     26  C   UNL     1      29.480   9.681  30.414  1.00  0.00     0.012 C 
ATOM     27  C   UNL     1      28.063  11.905  28.687  1.00  0.00     0.014 C 
ATOM     28  O   UNL     1      30.929  12.691  26.684  1.00  0.00    -0.349 OA
ATOM     29  C   UNL     1      31.878  12.239  25.732  1.00  0.00     0.167 C 
ENDROOT
BRANCH  23  30
ATOM     30  O   UNL     1      30.079   5.914  37.873  1.00  0.00    -0.393 OA
ATOM     31  H   UNL     1      30.658   5.182  37.535  1.00  0.00     0.210 HD
ENDBRANCH  23  30
TORSDOF 1
ENDMDL
MODEL 6
REMARK VINA RESULT:    -8.303      2.148      8.921
REMARK INTER + INTRA:          -8.545
REMARK INTER:                  -8.545
REMARK INTRA:                   0.000
REMARK UNBOUND:                 0.000
REMARK SMILES C[C@@H]1CC[C@]2(OC1)O[C@@H]1C[C@@H]3[C@@H]4CC=C5C[C@H](O)CC[C@]5(C)[C@H]4CC[C@@]3(C)[C@@H]1[C@@H]2C
REMARK SMILES IDX 1 1 2 2 3 3 4 4 5 5 29 6 28 7 9 8 8 9 10 10 11 11 26 12
REMARK SMILES IDX 25 13 24 14 23 15 12 16 13 17 14 18 15 19 21 20 20 21 19 22
REMARK SMILES IDX 17 23 16 24 22 25 27 26 30 27 6 28 7 29 18 30
REMARK H PARENT 18 31
REMARK Flexibility Score: inf
ROOT
ATOM      1  C   UNL     1      30.244   9.994  38.911  1.00  0.00     0.010 C 
ATOM      2  C   UNL     1      30.742  10.942  37.811  1.00  0.00     0.012 C 
ATOM      3  C   UNL     1      29.654  11.236  36.766  1.00  0.00     0.011 C 
ATOM      4  C   UNL     1      29.453  10.051  35.816  1.00  0.00     0.066 C 
ATOM      5  C   UNL     1      30.809   9.557  35.246  1.00  0.00     0.171 C 
ATOM      6  C   UNL     1      30.687   8.288  34.344  1.00  0.00     0.052 C 
ATOM      7  C   UNL     1      31.424   8.660  33.055  1.00  0.00     0.033 C 
ATOM      8  C   UNL     1      32.141   9.953  33.445  1.00  0.00     0.126 C 
ATOM      9  O   UNL     1      31.381  10.583  34.448  1.00  0.00    -0.346 OA
ATOM     10  C   UNL     1      32.230  10.827  32.179  1.00  0.00     0.037 C 
ATOM     11  C   UNL     1      31.805   9.875  31.070  1.00  0.00     0.002 C 
ATOM     12  C   UNL     1      30.709   8.996  31.700  1.00  0.00    -0.024 C 
ATOM     13  C   UNL     1      30.469   7.750  30.781  1.00  0.00     0.008 C 
ATOM     14  C   UNL     1      30.761   7.999  29.271  1.00  0.00     0.005 C 
ATOM     15  C   UNL     1      30.544   9.483  28.858  1.00  0.00     0.003 C 
ATOM     16  C   UNL     1      31.533  10.404  29.631  1.00  0.00     0.000 C 
ATOM     17  C   UNL     1      31.107  11.872  29.510  1.00  0.00     0.031 C 
ATOM     18  C   UNL     1      30.657  12.228  28.111  1.00  0.00    -0.027 C 
ATOM     19  C   UNL     1      30.346  11.325  27.146  1.00  0.00    -0.065 C 
ATOM     20  C   UNL     1      30.586   9.812  27.319  1.00  0.00    -0.008 C 
ATOM     21  C   UNL     1      29.437   9.054  26.591  1.00  0.00     0.014 C 
ATOM     22  C   UNL     1      29.219   9.452  25.113  1.00  0.00     0.033 C 
ATOM     23  C   UNL     1      29.670  10.882  24.742  1.00  0.00     0.118 C 
ATOM     24  C   UNL     1      29.605  11.843  25.929  1.00  0.00     0.063 C 
ATOM     25  C   UNL     1      31.950   9.418  26.688  1.00  0.00     0.016 C 
ATOM     26  C   UNL     1      29.381   9.793  31.917  1.00  0.00     0.012 C 
ATOM     27  C   UNL     1      29.311   7.613  34.192  1.00  0.00     0.014 C 
ATOM     28  O   UNL     1      31.683   9.240  36.328  1.00  0.00    -0.349 OA
ATOM     29  C   UNL     1      31.992  10.377  37.118  1.00  0.00     0.167 C 
ENDROOT
BRANCH  23  30
ATOM     30  O   UNL     1      28.864  11.385  23.707  1.00  0.00    -0.393 OA
ATOM     31  H   UNL     1      29.385  11.292  22.868  1.00  0.00     0.210 HD
ENDBRANCH  23  30
TORSDOF 1
ENDMDL
MODEL 7
REMARK VINA RESULT:    -8.215      2.111      8.798
REMARK INTER + INTRA:          -8.455
REMARK INTER:                  -8.455
REMARK INTRA:                   0.000
REMARK UNBOUND:                 0.000
REMARK SMILES C[C@@H]1CC[C@]2(OC1)O[C@@H]1C[C@@H]3[C@@H]4CC=C5C[C@H](O)CC[C@]5(C)[C@H]4CC[C@@]3(C)[C@@H]1[C@@H]2C
REMARK SMILES IDX 1 1 2 2 3 3 4 4 5 5 29 6 28 7 9 8 8 9 10 10 11 11 26 12
REMARK SMILES IDX 25 13 24 14 23 15 12 16 13 17 14 18 15 19 21 20 20 21 19 22
REMARK SMILES IDX 17 23 16 24 22 25 27 26 30 27 6 28 7 29 18 30
REMARK H PARENT 18 31
REMARK Flexibility Score: inf
ROOT
ATOM      1  C   UNL     1      30.776   9.256  36.763  1.00  0.00     0.010 C 
ATOM      2  C   UNL     1      30.694  10.520  35.896  1.00  0.00     0.012 C 
ATOM      3  C   UNL     1      29.521  10.465  34.905  1.00  0.00     0.011 C 
ATOM      4  C   UNL     1      29.824   9.535  33.726  1.00  0.00     0.066 C 
ATOM      5  C   UNL     1      31.208   9.858  33.103  1.00  0.00     0.171 C 
ATOM      6  C   UNL     1      31.624   8.883  31.957  1.00  0.00     0.052 C 
ATOM      7  C   UNL     1      32.006   9.800  30.792  1.00  0.00     0.033 C 
ATOM      8  C   UNL     1      32.066  11.174  31.459  1.00  0.00     0.126 C 
ATOM      9  O   UNL     1      31.177  11.165  32.550  1.00  0.00    -0.346 OA
ATOM     10  C   UNL     1      31.645  12.215  30.404  1.00  0.00     0.037 C 
ATOM     11  C   UNL     1      31.631  11.411  29.112  1.00  0.00     0.002 C 
ATOM     12  C   UNL     1      31.120  10.016  29.517  1.00  0.00    -0.024 C 
ATOM     13  C   UNL     1      31.420   9.010  28.354  1.00  0.00     0.008 C 
ATOM     14  C   UNL     1      31.450   9.655  26.936  1.00  0.00     0.005 C 
ATOM     15  C   UNL     1      30.539  10.911  26.833  1.00  0.00     0.003 C 
ATOM     16  C   UNL     1      31.039  12.018  27.805  1.00  0.00     0.000 C 
ATOM     17  C   UNL     1      29.972  13.106  27.978  1.00  0.00     0.031 C 
ATOM     18  C   UNL     1      29.306  13.473  26.671  1.00  0.00    -0.027 C 
ATOM     19  C   UNL     1      29.381  12.737  25.532  1.00  0.00    -0.065 C 
ATOM     20  C   UNL     1      30.309  11.513  25.397  1.00  0.00    -0.008 C 
ATOM     21  C   UNL     1      29.595  10.462  24.497  1.00  0.00     0.014 C 
ATOM     22  C   UNL     1      29.108  10.990  23.127  1.00  0.00     0.033 C 
ATOM     23  C   UNL     1      28.813  12.506  23.072  1.00  0.00     0.118 C 
ATOM     24  C   UNL     1      28.397  13.072  24.429  1.00  0.00     0.063 C 
ATOM     25  C   UNL     1      31.649  11.937  24.734  1.00  0.00     0.016 C 
ATOM     26  C   UNL     1      29.593  10.037  29.857  1.00  0.00     0.012 C 
ATOM     27  C   UNL     1      30.713   7.684  31.631  1.00  0.00     0.014 C 
ATOM     28  O   UNL     1      32.206   9.785  34.121  1.00  0.00    -0.349 OA
ATOM     29  C   UNL     1      32.008  10.756  35.135  1.00  0.00     0.167 C 
ENDROOT
BRANCH  23  30
ATOM     30  O   UNL     1      27.793  12.760  22.141  1.00  0.00    -0.393 OA
ATOM     31  H   UNL     1      27.537  11.885  21.749  1.00  0.00     0.210 HD
ENDBRANCH  23  30
TORSDOF 1
ENDMDL
MODEL 8
REMARK VINA RESULT:    -8.006      2.422      8.934
REMARK INTER + INTRA:          -8.240
REMARK INTER:                  -8.240
REMARK INTRA:                   0.000
REMARK UNBOUND:                 0.000
REMARK SMILES C[C@@H]1CC[C@]2(OC1)O[C@@H]1C[C@@H]3[C@@H]4CC=C5C[C@H](O)CC[C@]5(C)[C@H]4CC[C@@]3(C)[C@@H]1[C@@H]2C
REMARK SMILES IDX 1 1 2 2 3 3 4 4 5 5 29 6 28 7 9 8 8 9 10 10 11 11 26 12
REMARK SMILES IDX 25 13 24 14 23 15 12 16 13 17 14 18 15 19 21 20 20 21 19 22
REMARK SMILES IDX 17 23 16 24 22 25 27 26 30 27 6 28 7 29 18 30
REMARK H PARENT 18 31
REMARK Flexibility Score: inf
ROOT
ATOM      1  C   UNL     1      31.300   9.779  34.730  1.00  0.00     0.010 C 
ATOM      2  C   UNL     1      31.618  10.846  33.673  1.00  0.00     0.012 C 
ATOM      3  C   UNL     1      30.373  11.247  32.867  1.00  0.00     0.011 C 
ATOM      4  C   UNL     1      29.999  10.174  31.839  1.00  0.00     0.066 C 
ATOM      5  C   UNL     1      31.232   9.755  30.997  1.00  0.00     0.171 C 
ATOM      6  C   UNL     1      30.943   8.592  29.995  1.00  0.00     0.052 C 
ATOM      7  C   UNL     1      31.456   9.110  28.648  1.00  0.00     0.033 C 
ATOM      8  C   UNL     1      32.245  10.355  29.051  1.00  0.00     0.126 C 
ATOM      9  O   UNL     1      31.675  10.866  30.232  1.00  0.00    -0.346 OA
ATOM     10  C   UNL     1      32.131  11.365  27.893  1.00  0.00     0.037 C 
ATOM     11  C   UNL     1      31.512  10.540  26.774  1.00  0.00     0.002 C 
ATOM     12  C   UNL     1      30.527   9.589  27.480  1.00  0.00    -0.024 C 
ATOM     13  C   UNL     1      30.119   8.452  26.482  1.00  0.00     0.008 C 
ATOM     14  C   UNL     1      30.154   8.869  24.982  1.00  0.00     0.005 C 
ATOM     15  C   UNL     1      29.891  10.388  24.778  1.00  0.00     0.003 C 
ATOM     16  C   UNL     1      31.008  11.223  25.469  1.00  0.00     0.000 C 
ATOM     17  C   UNL     1      30.587  12.694  25.585  1.00  0.00     0.031 C 
ATOM     18  C   UNL     1      29.912  13.200  24.330  1.00  0.00    -0.027 C 
ATOM     19  C   UNL     1      29.430  12.408  23.338  1.00  0.00    -0.065 C 
ATOM     20  C   UNL     1      29.676  10.886  23.300  1.00  0.00    -0.008 C 
ATOM     21  C   UNL     1      28.411  10.207  22.698  1.00  0.00     0.014 C 
ATOM     22  C   UNL     1      27.952  10.766  21.331  1.00  0.00     0.033 C 
ATOM     23  C   UNL     1      28.352  12.231  21.050  1.00  0.00     0.118 C 
ATOM     24  C   UNL     1      28.501  13.054  22.329  1.00  0.00     0.063 C 
ATOM     25  C   UNL     1      30.909  10.572  22.407  1.00  0.00     0.016 C 
ATOM     26  C   UNL     1      29.265  10.351  28.005  1.00  0.00     0.012 C 
ATOM     27  C   UNL     1      29.552   7.930  30.004  1.00  0.00     0.014 C 
ATOM     28  O   UNL     1      32.272   9.324  31.874  1.00  0.00    -0.349 OA
ATOM     29  C   UNL     1      32.725  10.368  32.720  1.00  0.00     0.167 C 
ENDROOT
BRANCH  23  30
ATOM     30  O   UNL     1      27.390  12.841  20.228  1.00  0.00    -0.393 OA
ATOM     31  H   UNL     1      27.650  12.648  19.290  1.00  0.00     0.210 HD
ENDBRANCH  23  30
TORSDOF 1
ENDMDL
MODEL 9
REMARK VINA RESULT:    -6.261      2.368      8.560
REMARK INTER + INTRA:          -6.444
REMARK INTER:                  -6.444
REMARK INTRA:                   0.000
REMARK UNBOUND:                 0.000
REMARK SMILES C[C@@H]1CC[C@]2(OC1)O[C@@H]1C[C@@H]3[C@@H]4CC=C5C[C@H](O)CC[C@]5(C)[C@H]4CC[C@@]3(C)[C@@H]1[C@@H]2C
REMARK SMILES IDX 1 1 2 2 3 3 4 4 5 5 29 6 28 7 9 8 8 9 10 10 11 11 26 12
REMARK SMILES IDX 25 13 24 14 23 15 12 16 13 17 14 18 15 19 21 20 20 21 19 22
REMARK SMILES IDX 17 23 16 24 22 25 27 26 30 27 6 28 7 29 18 30
REMARK H PARENT 18 31
REMARK Flexibility Score: inf
ROOT
ATOM      1  C   UNL     1      31.607   9.852  36.791  1.00  0.00     0.010 C 
ATOM      2  C   UNL     1      30.478   9.494  35.815  1.00  0.00     0.012 C 
ATOM      3  C   UNL     1      30.987   8.668  34.623  1.00  0.00     0.011 C 
ATOM      4  C   UNL     1      31.740   9.543  33.614  1.00  0.00     0.066 C 
ATOM      5  C   UNL     1      30.916  10.805  33.247  1.00  0.00     0.171 C 
ATOM      6  C   UNL     1      31.666  11.791  32.297  1.00  0.00     0.052 C 
ATOM      7  C   UNL     1      30.682  12.045  31.152  1.00  0.00     0.033 C 
ATOM      8  C   UNL     1      29.384  11.443  31.691  1.00  0.00     0.126 C 
ATOM      9  O   UNL     1      29.725  10.409  32.584  1.00  0.00    -0.346 OA
ATOM     10  C   UNL     1      28.593  10.902  30.485  1.00  0.00     0.037 C 
ATOM     11  C   UNL     1      29.352  11.467  29.293  1.00  0.00     0.002 C 
ATOM     12  C   UNL     1      30.833  11.438  29.714  1.00  0.00    -0.024 C 
ATOM     13  C   UNL     1      31.657  12.335  28.727  1.00  0.00     0.008 C 
ATOM     14  C   UNL     1      31.061  12.426  27.291  1.00  0.00     0.005 C 
ATOM     15  C   UNL     1      30.251  11.158  26.898  1.00  0.00     0.003 C 
ATOM     16  C   UNL     1      29.028  10.988  27.846  1.00  0.00     0.000 C 
ATOM     17  C   UNL     1      28.432   9.582  27.709  1.00  0.00     0.031 C 
ATOM     18  C   UNL     1      28.359   9.125  26.269  1.00  0.00    -0.027 C 
ATOM     19  C   UNL     1      29.020   9.712  25.238  1.00  0.00    -0.065 C 
ATOM     20  C   UNL     1      29.795  11.035  25.397  1.00  0.00    -0.008 C 
ATOM     21  C   UNL     1      31.047  10.976  24.473  1.00  0.00     0.014 C 
ATOM     22  C   UNL     1      30.757  10.634  22.993  1.00  0.00     0.033 C 
ATOM     23  C   UNL     1      29.471   9.815  22.745  1.00  0.00     0.118 C 
ATOM     24  C   UNL     1      29.097   8.936  23.938  1.00  0.00     0.063 C 
ATOM     25  C   UNL     1      28.895  12.229  24.974  1.00  0.00     0.016 C 
ATOM     26  C   UNL     1      31.396   9.979  29.745  1.00  0.00     0.012 C 
ATOM     27  C   UNL     1      33.125  11.485  31.908  1.00  0.00     0.014 C 
ATOM     28  O   UNL     1      30.592  11.515  34.443  1.00  0.00    -0.349 OA
ATOM     29  C   UNL     1      29.763  10.756  35.308  1.00  0.00     0.167 C 
ENDROOT
BRANCH  23  30
ATOM     30  O   UNL     1      29.634   8.999  21.614  1.00  0.00    -0.393 OA
ATOM     31  H   UNL     1      28.857   9.172  21.021  1.00  0.00     0.210 HD
ENDBRANCH  23  30
TORSDOF 1
ENDMDL
