MODEL 1
REMARK VINA RESULT:    -3.533      0.000      0.000
REMARK INTER + INTRA:          -9.040
REMARK INTER:                  -6.425
REMARK INTRA:                  -2.615
REMARK UNBOUND:                -2.615
REMARK SMILES CCCCCCCCCCCCCC[C@@H](C)C(=O)[O-]
REMARK SMILES IDX 9 1 10 2 11 3 12 4 13 5 14 6 15 7 16 8 17 9 18 10 19 11 8 12
REMARK SMILES IDX 7 13 6 14 5 15 4 16 3 17 2 18 1 19
REMARK H PARENT
REMARK Flexibility Score: inf
ROOT
ATOM      1  C   UNL     1      17.150 129.190  57.437  1.00  0.00     0.000 C 
ENDROOT
BRANCH   1   2
ATOM      2  C   UNL     1      18.462 129.956  57.688  1.00  0.00     0.000 C 
BRANCH   2   3
ATOM      3  C   UNL     1      19.578 129.691  56.660  1.00  0.00     0.000 C 
BRANCH   3   4
ATOM      4  C   UNL     1      19.067 129.123  55.317  1.00  0.00     0.000 C 
BRANCH   4   5
ATOM      5  C   UNL     1      18.782 130.223  54.281  1.00  0.00     0.001 C 
BRANCH   5   6
ATOM      6  C   UNL     1      19.586 131.512  54.534  1.00  0.00     0.009 C 
BRANCH   6   7
ATOM      7  C   UNL     1      18.767 132.821  54.452  1.00  0.00     0.032 C 
ATOM      8  C   UNL     1      17.271 132.596  54.716  1.00  0.00     0.014 C 
BRANCH   7   9
ATOM      9  C   UNL     1      19.310 133.814  55.443  1.00  0.00     0.044 C 
ATOM     10  O   UNL     1      19.165 135.049  55.246  1.00  0.00    -0.550 OA
ATOM     11  O   UNL     1      19.987 133.376  56.576  1.00  0.00    -0.550 OA
ENDBRANCH   7   9
ENDBRANCH   6   7
ENDBRANCH   5   6
ENDBRANCH   4   5
ENDBRANCH   3   4
ENDBRANCH   2   3
ENDBRANCH   1   2
BRANCH   1  12
ATOM     12  C   UNL     1      15.933 130.075  57.099  1.00  0.00     0.000 C 
BRANCH  12  13
ATOM     13  C   UNL     1      15.022 129.532  55.980  1.00  0.00    -0.000 C 
BRANCH  13  14
ATOM     14  C   UNL     1      15.586 128.322  55.208  1.00  0.00    -0.000 C 
BRANCH  14  15
ATOM     15  C   UNL     1      15.298 128.321  53.695  1.00  0.00    -0.000 C 
BRANCH  15  16
ATOM     16  C   UNL     1      16.481 127.797  52.863  1.00  0.00    -0.000 C 
BRANCH  16  17
ATOM     17  C   UNL     1      16.872 128.752  51.724  1.00  0.00    -0.000 C 
BRANCH  17  18
ATOM     18  C   UNL     1      16.018 130.029  51.703  1.00  0.00    -0.003 C 
ATOM     19  C   UNL     1      16.828 131.221  51.198  1.00  0.00     0.004 C 
ENDBRANCH  17  18
ENDBRANCH  16  17
ENDBRANCH  15  16
ENDBRANCH  14  15
ENDBRANCH  13  14
ENDBRANCH  12  13
ENDBRANCH   1  12
TORSDOF 14
ENDMDL
MODEL 2
REMARK VINA RESULT:    -3.459      4.145      6.245
REMARK INTER + INTRA:          -8.906
REMARK INTER:                  -7.282
REMARK INTRA:                  -1.624
REMARK UNBOUND:                -2.615
REMARK SMILES CCCCCCCCCCCCCC[C@@H](C)C(=O)[O-]
REMARK SMILES IDX 9 1 10 2 11 3 12 4 13 5 14 6 15 7 16 8 17 9 18 10 19 11 8 12
REMARK SMILES IDX 7 13 6 14 5 15 4 16 3 17 2 18 1 19
REMARK H PARENT
REMARK Flexibility Score: inf
ROOT
ATOM      1  C   UNL     1      15.579 129.474  57.130  1.00  0.00     0.000 C 
ENDROOT
BRANCH   1   2
ATOM      2  C   UNL     1      16.099 129.243  58.561  1.00  0.00     0.000 C 
BRANCH   2   3
ATOM      3  C   UNL     1      17.519 129.778  58.831  1.00  0.00     0.000 C 
BRANCH   3   4
ATOM      4  C   UNL     1      17.861 129.905  60.332  1.00  0.00     0.000 C 
BRANCH   4   5
ATOM      5  C   UNL     1      19.331 129.563  60.633  1.00  0.00     0.001 C 
BRANCH   5   6
ATOM      6  C   UNL     1      19.497 128.637  61.853  1.00  0.00     0.009 C 
BRANCH   6   7
ATOM      7  C   UNL     1      18.215 128.425  62.691  1.00  0.00     0.032 C 
ATOM      8  C   UNL     1      17.893 126.940  62.908  1.00  0.00     0.014 C 
BRANCH   7   9
ATOM      9  C   UNL     1      18.371 129.107  64.023  1.00  0.00     0.044 C 
ATOM     10  O   UNL     1      18.448 130.362  64.087  1.00  0.00    -0.550 OA
ATOM     11  O   UNL     1      18.443 128.356  65.191  1.00  0.00    -0.550 OA
ENDBRANCH   7   9
ENDBRANCH   6   7
ENDBRANCH   5   6
ENDBRANCH   4   5
ENDBRANCH   3   4
ENDBRANCH   2   3
ENDBRANCH   1   2
BRANCH   1  12
ATOM     12  C   UNL     1      15.268 128.189  56.334  1.00  0.00     0.000 C 
BRANCH  12  13
ATOM     13  C   UNL     1      16.477 127.561  55.613  1.00  0.00    -0.000 C 
BRANCH  13  14
ATOM     14  C   UNL     1      16.450 127.668  54.075  1.00  0.00    -0.000 C 
BRANCH  14  15
ATOM     15  C   UNL     1      16.838 129.046  53.508  1.00  0.00    -0.000 C 
BRANCH  15  16
ATOM     16  C   UNL     1      18.279 129.451  53.860  1.00  0.00    -0.000 C 
BRANCH  16  17
ATOM     17  C   UNL     1      18.338 130.638  54.836  1.00  0.00    -0.000 C 
BRANCH  17  18
ATOM     18  C   UNL     1      19.638 130.668  55.653  1.00  0.00    -0.003 C 
ATOM     19  C   UNL     1      19.981 129.279  56.188  1.00  0.00     0.004 C 
ENDBRANCH  17  18
ENDBRANCH  16  17
ENDBRANCH  15  16
ENDBRANCH  14  15
ENDBRANCH  13  14
ENDBRANCH  12  13
ENDBRANCH   1  12
TORSDOF 14
ENDMDL
MODEL 3
REMARK VINA RESULT:    -3.409      4.207      7.149
REMARK INTER + INTRA:          -8.813
REMARK INTER:                  -7.217
REMARK INTRA:                  -1.596
REMARK UNBOUND:                -2.615
REMARK SMILES CCCCCCCCCCCCCC[C@@H](C)C(=O)[O-]
REMARK SMILES IDX 9 1 10 2 11 3 12 4 13 5 14 6 15 7 16 8 17 9 18 10 19 11 8 12
REMARK SMILES IDX 7 13 6 14 5 15 4 16 3 17 2 18 1 19
REMARK H PARENT
REMARK Flexibility Score: inf
ROOT
ATOM      1  C   UNL     1      17.047 129.867  61.126  1.00  0.00     0.000 C 
ENDROOT
BRANCH   1   2
ATOM      2  C   UNL     1      16.089 129.382  60.021  1.00  0.00     0.000 C 
BRANCH   2   3
ATOM      3  C   UNL     1      16.179 130.159  58.694  1.00  0.00     0.000 C 
BRANCH   3   4
ATOM      4  C   UNL     1      15.865 129.303  57.448  1.00  0.00     0.000 C 
BRANCH   4   5
ATOM      5  C   UNL     1      17.129 128.695  56.815  1.00  0.00     0.001 C 
BRANCH   5   6
ATOM      6  C   UNL     1      18.407 129.493  57.137  1.00  0.00     0.009 C 
BRANCH   6   7
ATOM      7  C   UNL     1      19.170 130.030  55.905  1.00  0.00     0.032 C 
ATOM      8  C   UNL     1      18.573 129.533  54.580  1.00  0.00     0.014 C 
BRANCH   7   9
ATOM      9  C   UNL     1      19.163 131.534  55.928  1.00  0.00     0.044 C 
ATOM     10  O   UNL     1      18.126 132.158  56.276  1.00  0.00    -0.550 OA
ATOM     11  O   UNL     1      20.297 132.247  55.553  1.00  0.00    -0.550 OA
ENDBRANCH   7   9
ENDBRANCH   6   7
ENDBRANCH   5   6
ENDBRANCH   4   5
ENDBRANCH   3   4
ENDBRANCH   2   3
ENDBRANCH   1   2
BRANCH   1  12
ATOM     12  C   UNL     1      18.531 129.503  60.907  1.00  0.00     0.000 C 
BRANCH  12  13
ATOM     13  C   UNL     1      19.183 128.710  62.058  1.00  0.00    -0.000 C 
BRANCH  13  14
ATOM     14  C   UNL     1      18.519 128.894  63.437  1.00  0.00    -0.000 C 
BRANCH  14  15
ATOM     15  C   UNL     1      18.018 127.597  64.100  1.00  0.00    -0.000 C 
BRANCH  15  16
ATOM     16  C   UNL     1      16.964 126.864  63.254  1.00  0.00    -0.000 C 
BRANCH  16  17
ATOM     17  C   UNL     1      17.482 125.531  62.689  1.00  0.00    -0.000 C 
BRANCH  17  18
ATOM     18  C   UNL     1      18.883 125.174  63.207  1.00  0.00    -0.003 C 
ATOM     19  C   UNL     1      19.606 124.244  62.234  1.00  0.00     0.004 C 
ENDBRANCH  17  18
ENDBRANCH  16  17
ENDBRANCH  15  16
ENDBRANCH  14  15
ENDBRANCH  13  14
ENDBRANCH  12  13
ENDBRANCH   1  12
TORSDOF 14
ENDMDL
MODEL 4
REMARK VINA RESULT:    -3.400      3.903      7.080
REMARK INTER + INTRA:          -8.798
REMARK INTER:                  -7.607
REMARK INTRA:                  -1.190
REMARK UNBOUND:                -2.615
REMARK SMILES CCCCCCCCCCCCCC[C@@H](C)C(=O)[O-]
REMARK SMILES IDX 9 1 10 2 11 3 12 4 13 5 14 6 15 7 16 8 17 9 18 10 19 11 8 12
REMARK SMILES IDX 7 13 6 14 5 15 4 16 3 17 2 18 1 19
REMARK H PARENT
REMARK Flexibility Score: inf
ROOT
ATOM      1  C   UNL     1      18.615 131.575  57.585  1.00  0.00     0.000 C 
ENDROOT
BRANCH   1   2
ATOM      2  C   UNL     1      18.613 130.257  56.788  1.00  0.00     0.000 C 
BRANCH   2   3
ATOM      3  C   UNL     1      17.246 129.852  56.203  1.00  0.00     0.000 C 
BRANCH   3   4
ATOM      4  C   UNL     1      16.617 128.618  56.887  1.00  0.00     0.000 C 
BRANCH   4   5
ATOM      5  C   UNL     1      16.117 127.573  55.875  1.00  0.00     0.001 C 
BRANCH   5   6
ATOM      6  C   UNL     1      16.985 127.503  54.603  1.00  0.00     0.009 C 
BRANCH   6   7
ATOM      7  C   UNL     1      16.247 127.849  53.289  1.00  0.00     0.032 C 
ATOM      8  C   UNL     1      14.942 128.622  53.532  1.00  0.00     0.014 C 
BRANCH   7   9
ATOM      9  C   UNL     1      17.155 128.658  52.403  1.00  0.00     0.044 C 
ATOM     10  O   UNL     1      18.055 129.378  52.909  1.00  0.00    -0.550 OA
ATOM     11  O   UNL     1      16.998 128.626  51.022  1.00  0.00    -0.550 OA
ENDBRANCH   7   9
ENDBRANCH   6   7
ENDBRANCH   5   6
ENDBRANCH   4   5
ENDBRANCH   3   4
ENDBRANCH   2   3
ENDBRANCH   1   2
BRANCH   1  12
ATOM     12  C   UNL     1      18.543 131.409  59.117  1.00  0.00     0.000 C 
BRANCH  12  13
ATOM     13  C   UNL     1      18.814 129.981  59.632  1.00  0.00    -0.000 C 
BRANCH  13  14
ATOM     14  C   UNL     1      18.501 129.754  61.125  1.00  0.00    -0.000 C 
BRANCH  14  15
ATOM     15  C   UNL     1      17.098 129.190  61.420  1.00  0.00    -0.000 C 
BRANCH  15  16
ATOM     16  C   UNL     1      17.097 128.162  62.564  1.00  0.00    -0.000 C 
BRANCH  16  17
ATOM     17  C   UNL     1      18.496 127.590  62.846  1.00  0.00    -0.000 C 
BRANCH  17  18
ATOM     18  C   UNL     1      18.490 126.062  63.001  1.00  0.00    -0.003 C 
ATOM     19  C   UNL     1      17.065 125.515  62.979  1.00  0.00     0.004 C 
ENDBRANCH  17  18
ENDBRANCH  16  17
ENDBRANCH  15  16
ENDBRANCH  14  15
ENDBRANCH  13  14
ENDBRANCH  12  13
ENDBRANCH   1  12
TORSDOF 14
ENDMDL
MODEL 5
REMARK VINA RESULT:    -3.395      3.176      5.017
REMARK INTER + INTRA:          -8.789
REMARK INTER:                  -6.681
REMARK INTRA:                  -2.109
REMARK UNBOUND:                -2.615
REMARK SMILES CCCCCCCCCCCCCC[C@@H](C)C(=O)[O-]
REMARK SMILES IDX 9 1 10 2 11 3 12 4 13 5 14 6 15 7 16 8 17 9 18 10 19 11 8 12
REMARK SMILES IDX 7 13 6 14 5 15 4 16 3 17 2 18 1 19
REMARK H PARENT
REMARK Flexibility Score: inf
ROOT
ATOM      1  C   UNL     1      15.678 128.230  56.177  1.00  0.00     0.000 C 
ENDROOT
BRANCH   1   2
ATOM      2  C   UNL     1      16.640 128.707  57.281  1.00  0.00     0.000 C 
BRANCH   2   3
ATOM      3  C   UNL     1      18.020 129.177  56.784  1.00  0.00     0.000 C 
BRANCH   3   4
ATOM      4  C   UNL     1      18.447 130.554  57.338  1.00  0.00     0.000 C 
BRANCH   4   5
ATOM      5  C   UNL     1      18.037 130.753  58.807  1.00  0.00     0.001 C 
BRANCH   5   6
ATOM      6  C   UNL     1      19.051 130.156  59.802  1.00  0.00     0.009 C 
BRANCH   6   7
ATOM      7  C   UNL     1      18.470 129.789  61.187  1.00  0.00     0.032 C 
ATOM      8  C   UNL     1      16.996 129.366  61.113  1.00  0.00     0.014 C 
BRANCH   7   9
ATOM      9  C   UNL     1      19.283 128.677  61.791  1.00  0.00     0.044 C 
ATOM     10  O   UNL     1      20.446 128.441  61.369  1.00  0.00    -0.550 OA
ATOM     11  O   UNL     1      18.752 127.893  62.810  1.00  0.00    -0.550 OA
ENDBRANCH   7   9
ENDBRANCH   6   7
ENDBRANCH   5   6
ENDBRANCH   4   5
ENDBRANCH   3   4
ENDBRANCH   2   3
ENDBRANCH   1   2
BRANCH   1  12
ATOM     12  C   UNL     1      16.348 127.474  55.011  1.00  0.00     0.000 C 
BRANCH  12  13
ATOM     13  C   UNL     1      15.817 127.835  53.610  1.00  0.00    -0.000 C 
BRANCH  13  14
ATOM     14  C   UNL     1      16.897 128.231  52.583  1.00  0.00    -0.000 C 
BRANCH  14  15
ATOM     15  C   UNL     1      16.980 129.737  52.270  1.00  0.00    -0.000 C 
BRANCH  15  16
ATOM     16  C   UNL     1      17.744 130.529  53.344  1.00  0.00    -0.000 C 
BRANCH  16  17
ATOM     17  C   UNL     1      16.831 131.476  54.140  1.00  0.00    -0.000 C 
BRANCH  17  18
ATOM     18  C   UNL     1      15.425 131.591  53.535  1.00  0.00    -0.003 C 
ATOM     19  C   UNL     1      14.354 131.254  54.570  1.00  0.00     0.004 C 
ENDBRANCH  17  18
ENDBRANCH  16  17
ENDBRANCH  15  16
ENDBRANCH  14  15
ENDBRANCH  13  14
ENDBRANCH  12  13
ENDBRANCH   1  12
TORSDOF 14
ENDMDL
MODEL 6
REMARK VINA RESULT:    -3.387      4.651      6.576
REMARK INTER + INTRA:          -8.774
REMARK INTER:                  -7.147
REMARK INTRA:                  -1.627
REMARK UNBOUND:                -2.615
REMARK SMILES CCCCCCCCCCCCCC[C@@H](C)C(=O)[O-]
REMARK SMILES IDX 9 1 10 2 11 3 12 4 13 5 14 6 15 7 16 8 17 9 18 10 19 11 8 12
REMARK SMILES IDX 7 13 6 14 5 15 4 16 3 17 2 18 1 19
REMARK H PARENT
REMARK Flexibility Score: inf
ROOT
ATOM      1  C   UNL     1      16.921 129.981  57.803  1.00  0.00     0.000 C 
ENDROOT
BRANCH   1   2
ATOM      2  C   UNL     1      18.451 129.936  57.964  1.00  0.00     0.000 C 
BRANCH   2   3
ATOM      3  C   UNL     1      18.965 130.215  59.389  1.00  0.00     0.000 C 
BRANCH   3   4
ATOM      4  C   UNL     1      17.848 130.271  60.454  1.00  0.00     0.000 C 
BRANCH   4   5
ATOM      5  C   UNL     1      18.299 129.706  61.812  1.00  0.00     0.001 C 
BRANCH   5   6
ATOM      6  C   UNL     1      17.644 128.353  62.149  1.00  0.00     0.009 C 
BRANCH   6   7
ATOM      7  C   UNL     1      18.435 127.474  63.147  1.00  0.00     0.032 C 
ATOM      8  C   UNL     1      18.195 127.881  64.608  1.00  0.00     0.014 C 
BRANCH   7   9
ATOM      9  C   UNL     1      18.053 126.032  62.955  1.00  0.00     0.044 C 
ATOM     10  O   UNL     1      18.926 125.182  62.640  1.00  0.00    -0.550 OA
ATOM     11  O   UNL     1      16.730 125.630  63.111  1.00  0.00    -0.550 OA
ENDBRANCH   7   9
ENDBRANCH   6   7
ENDBRANCH   5   6
ENDBRANCH   4   5
ENDBRANCH   3   4
ENDBRANCH   2   3
ENDBRANCH   1   2
BRANCH   1  12
ATOM     12  C   UNL     1      16.244 128.606  57.622  1.00  0.00     0.000 C 
BRANCH  12  13
ATOM     13  C   UNL     1      15.538 128.400  56.267  1.00  0.00    -0.000 C 
BRANCH  13  14
ATOM     14  C   UNL     1      16.200 127.365  55.335  1.00  0.00    -0.000 C 
BRANCH  14  15
ATOM     15  C   UNL     1      17.002 127.960  54.162  1.00  0.00    -0.000 C 
BRANCH  15  16
ATOM     16  C   UNL     1      18.358 128.538  54.599  1.00  0.00    -0.000 C 
BRANCH  16  17
ATOM     17  C   UNL     1      18.556 129.992  54.141  1.00  0.00    -0.000 C 
BRANCH  17  18
ATOM     18  C   UNL     1      17.233 130.684  53.780  1.00  0.00    -0.003 C 
ATOM     19  C   UNL     1      16.932 131.828  54.745  1.00  0.00     0.004 C 
ENDBRANCH  17  18
ENDBRANCH  16  17
ENDBRANCH  15  16
ENDBRANCH  14  15
ENDBRANCH  13  14
ENDBRANCH  12  13
ENDBRANCH   1  12
TORSDOF 14
ENDMDL
MODEL 7
REMARK VINA RESULT:    -3.379      4.270      6.058
REMARK INTER + INTRA:          -8.759
REMARK INTER:                  -6.862
REMARK INTRA:                  -1.898
REMARK UNBOUND:                -2.615
REMARK SMILES CCCCCCCCCCCCCC[C@@H](C)C(=O)[O-]
REMARK SMILES IDX 9 1 10 2 11 3 12 4 13 5 14 6 15 7 16 8 17 9 18 10 19 11 8 12
REMARK SMILES IDX 7 13 6 14 5 15 4 16 3 17 2 18 1 19
REMARK H PARENT
REMARK Flexibility Score: inf
ROOT
ATOM      1  C   UNL     1      17.132 131.710  56.782  1.00  0.00     0.000 C 
ENDROOT
BRANCH   1   2
ATOM      2  C   UNL     1      18.500 131.407  57.421  1.00  0.00     0.000 C 
BRANCH   2   3
ATOM      3  C   UNL     1      18.553 130.121  58.267  1.00  0.00     0.000 C 
BRANCH   3   4
ATOM      4  C   UNL     1      18.993 130.355  59.730  1.00  0.00     0.000 C 
BRANCH   4   5
ATOM      5  C   UNL     1      18.082 129.638  60.741  1.00  0.00     0.001 C 
BRANCH   5   6
ATOM      6  C   UNL     1      18.861 128.997  61.905  1.00  0.00     0.009 C 
BRANCH   6   7
ATOM      7  C   UNL     1      17.983 128.381  63.019  1.00  0.00     0.032 C 
ATOM      8  C   UNL     1      18.168 126.862  63.142  1.00  0.00     0.014 C 
BRANCH   7   9
ATOM      9  C   UNL     1      18.309 129.037  64.333  1.00  0.00     0.044 C 
ATOM     10  O   UNL     1      18.464 130.285  64.397  1.00  0.00    -0.550 OA
ATOM     11  O   UNL     1      18.456 128.269  65.483  1.00  0.00    -0.550 OA
ENDBRANCH   7   9
ENDBRANCH   6   7
ENDBRANCH   5   6
ENDBRANCH   4   5
ENDBRANCH   3   4
ENDBRANCH   2   3
ENDBRANCH   1   2
BRANCH   1  12
ATOM     12  C   UNL     1      15.974 130.814  57.268  1.00  0.00     0.000 C 
BRANCH  12  13
ATOM     13  C   UNL     1      15.136 130.167  56.147  1.00  0.00    -0.000 C 
BRANCH  13  14
ATOM     14  C   UNL     1      15.085 128.626  56.176  1.00  0.00    -0.000 C 
BRANCH  14  15
ATOM     15  C   UNL     1      16.455 127.928  56.266  1.00  0.00    -0.000 C 
BRANCH  15  16
ATOM     16  C   UNL     1      17.146 127.792  54.899  1.00  0.00    -0.000 C 
BRANCH  16  17
ATOM     17  C   UNL     1      18.489 128.539  54.840  1.00  0.00    -0.000 C 
BRANCH  17  18
ATOM     18  C   UNL     1      18.422 129.809  53.978  1.00  0.00    -0.003 C 
ATOM     19  C   UNL     1      17.316 129.702  52.931  1.00  0.00     0.004 C 
ENDBRANCH  17  18
ENDBRANCH  16  17
ENDBRANCH  15  16
ENDBRANCH  14  15
ENDBRANCH  13  14
ENDBRANCH  12  13
ENDBRANCH   1  12
TORSDOF 14
ENDMDL
MODEL 8
REMARK VINA RESULT:    -3.351      4.165      7.212
REMARK INTER + INTRA:          -8.708
REMARK INTER:                  -7.480
REMARK INTRA:                  -1.228
REMARK UNBOUND:                -2.615
REMARK SMILES CCCCCCCCCCCCCC[C@@H](C)C(=O)[O-]
REMARK SMILES IDX 9 1 10 2 11 3 12 4 13 5 14 6 15 7 16 8 17 9 18 10 19 11 8 12
REMARK SMILES IDX 7 13 6 14 5 15 4 16 3 17 2 18 1 19
REMARK H PARENT
REMARK Flexibility Score: inf
ROOT
ATOM      1  C   UNL     1      15.160 128.238  59.246  1.00  0.00     0.000 C 
ENDROOT
BRANCH   1   2
ATOM      2  C   UNL     1      15.430 128.722  57.809  1.00  0.00     0.000 C 
BRANCH   2   3
ATOM      3  C   UNL     1      16.897 129.084  57.509  1.00  0.00     0.000 C 
BRANCH   3   4
ATOM      4  C   UNL     1      17.376 128.636  56.111  1.00  0.00     0.000 C 
BRANCH   4   5
ATOM      5  C   UNL     1      16.457 127.572  55.485  1.00  0.00     0.001 C 
BRANCH   5   6
ATOM      6  C   UNL     1      16.643 127.437  53.961  1.00  0.00     0.009 C 
BRANCH   6   7
ATOM      7  C   UNL     1      15.724 128.341  53.108  1.00  0.00     0.032 C 
ATOM      8  C   UNL     1      14.630 129.023  53.942  1.00  0.00     0.014 C 
BRANCH   7   9
ATOM      9  C   UNL     1      16.555 129.386  52.414  1.00  0.00     0.044 C 
ATOM     10  O   UNL     1      16.892 130.435  53.024  1.00  0.00    -0.550 OA
ATOM     11  O   UNL     1      16.945 129.208  51.091  1.00  0.00    -0.550 OA
ENDBRANCH   7   9
ENDBRANCH   6   7
ENDBRANCH   5   6
ENDBRANCH   4   5
ENDBRANCH   3   4
ENDBRANCH   2   3
ENDBRANCH   1   2
BRANCH   1  12
ATOM     12  C   UNL     1      14.968 129.362  60.286  1.00  0.00     0.000 C 
BRANCH  12  13
ATOM     13  C   UNL     1      16.007 129.379  61.425  1.00  0.00    -0.000 C 
BRANCH  13  14
ATOM     14  C   UNL     1      17.468 129.582  60.974  1.00  0.00    -0.000 C 
BRANCH  14  15
ATOM     15  C   UNL     1      18.527 128.904  61.863  1.00  0.00    -0.000 C 
BRANCH  15  16
ATOM     16  C   UNL     1      18.109 128.835  63.341  1.00  0.00    -0.000 C 
BRANCH  16  17
ATOM     17  C   UNL     1      18.198 127.411  63.915  1.00  0.00    -0.000 C 
BRANCH  17  18
ATOM     18  C   UNL     1      17.707 126.343  62.926  1.00  0.00    -0.003 C 
ATOM     19  C   UNL     1      18.691 125.178  62.846  1.00  0.00     0.004 C 
ENDBRANCH  17  18
ENDBRANCH  16  17
ENDBRANCH  15  16
ENDBRANCH  14  15
ENDBRANCH  13  14
ENDBRANCH  12  13
ENDBRANCH   1  12
TORSDOF 14
ENDMDL
MODEL 9
REMARK VINA RESULT:    -3.329      2.424      5.640
REMARK INTER + INTRA:          -8.668
REMARK INTER:                  -6.696
REMARK INTRA:                  -1.972
REMARK UNBOUND:                -2.615
REMARK SMILES CCCCCCCCCCCCCC[C@@H](C)C(=O)[O-]
REMARK SMILES IDX 9 1 10 2 11 3 12 4 13 5 14 6 15 7 16 8 17 9 18 10 19 11 8 12
REMARK SMILES IDX 7 13 6 14 5 15 4 16 3 17 2 18 1 19
REMARK H PARENT
REMARK Flexibility Score: inf
ROOT
ATOM      1  C   UNL     1      16.356 127.862  56.417  1.00  0.00     0.000 C 
ENDROOT
BRANCH   1   2
ATOM      2  C   UNL     1      16.372 127.481  54.925  1.00  0.00     0.000 C 
BRANCH   2   3
ATOM      3  C   UNL     1      16.144 128.653  53.952  1.00  0.00     0.000 C 
BRANCH   3   4
ATOM      4  C   UNL     1      17.398 129.040  53.137  1.00  0.00     0.000 C 
BRANCH   4   5
ATOM      5  C   UNL     1      17.888 130.464  53.452  1.00  0.00     0.001 C 
BRANCH   5   6
ATOM      6  C   UNL     1      17.610 130.890  54.906  1.00  0.00     0.009 C 
BRANCH   6   7
ATOM      7  C   UNL     1      18.869 131.082  55.783  1.00  0.00     0.032 C 
ATOM      8  C   UNL     1      19.592 129.758  56.072  1.00  0.00     0.014 C 
BRANCH   7   9
ATOM      9  C   UNL     1      19.813 132.034  55.101  1.00  0.00     0.044 C 
ATOM     10  O   UNL     1      20.963 131.651  54.761  1.00  0.00    -0.550 OA
ATOM     11  O   UNL     1      19.428 133.347  54.854  1.00  0.00    -0.550 OA
ENDBRANCH   7   9
ENDBRANCH   6   7
ENDBRANCH   5   6
ENDBRANCH   4   5
ENDBRANCH   3   4
ENDBRANCH   2   3
ENDBRANCH   1   2
BRANCH   1  12
ATOM     12  C   UNL     1      15.176 128.756  56.849  1.00  0.00     0.000 C 
BRANCH  12  13
ATOM     13  C   UNL     1      15.522 129.832  57.897  1.00  0.00    -0.000 C 
BRANCH  13  14
ATOM     14  C   UNL     1      16.728 129.501  58.800  1.00  0.00    -0.000 C 
BRANCH  14  15
ATOM     15  C   UNL     1      17.654 130.691  59.116  1.00  0.00    -0.000 C 
BRANCH  15  16
ATOM     16  C   UNL     1      18.549 130.441  60.342  1.00  0.00    -0.000 C 
BRANCH  16  17
ATOM     17  C   UNL     1      17.941 129.421  61.319  1.00  0.00    -0.000 C 
BRANCH  17  18
ATOM     18  C   UNL     1      19.006 128.685  62.145  1.00  0.00    -0.003 C 
ATOM     19  C   UNL     1      18.580 128.563  63.606  1.00  0.00     0.004 C 
ENDBRANCH  17  18
ENDBRANCH  16  17
ENDBRANCH  15  16
ENDBRANCH  14  15
ENDBRANCH  13  14
ENDBRANCH  12  13
ENDBRANCH   1  12
TORSDOF 14
ENDMDL
