MODEL 1
REMARK VINA RESULT:    -5.274      0.000      0.000
REMARK INTER + INTRA:          -8.663
REMARK INTER:                  -7.586
REMARK INTRA:                  -1.077
REMARK UNBOUND:                -1.077
REMARK SMILES CC(C)=CCCC(C)=CCCC(C)=CCO
REMARK SMILES IDX 10 1 9 2 7 3 8 4 6 5 5 6 4 7 1 8 2 9 3 10 11 11 12 12 14 13
REMARK SMILES IDX 13 14 15 15 16 16
REMARK H PARENT 16 17
REMARK Flexibility Score: inf
ROOT
ATOM      1  C   UNL     1      30.717  76.942  21.066  1.00  0.00     0.032 C 
ENDROOT
BRANCH   1   2
ATOM      2  C   UNL     1      30.137  78.231  20.529  1.00  0.00    -0.028 C 
ATOM      3  C   UNL     1      30.853  79.367  20.367  1.00  0.00    -0.077 C 
ATOM      4  C   UNL     1      30.152  80.586  19.828  1.00  0.00     0.039 C 
BRANCH   3   5
ATOM      5  C   UNL     1      32.314  79.477  20.758  1.00  0.00     0.034 C 
BRANCH   5   6
ATOM      6  C   UNL     1      32.466  80.236  22.080  1.00  0.00     0.032 C 
BRANCH   6   7
ATOM      7  C   UNL     1      33.666  79.749  22.857  1.00  0.00    -0.028 C 
ATOM      8  C   UNL     1      35.419  79.869  24.576  1.00  0.00     0.039 C 
ATOM      9  C   UNL     1      34.222  80.448  23.867  1.00  0.00    -0.080 C 
ATOM     10  C   UNL     1      33.673  81.788  24.298  1.00  0.00     0.039 C 
ENDBRANCH   6   7
ENDBRANCH   5   6
ENDBRANCH   3   5
ENDBRANCH   1   2
BRANCH   1  11
ATOM     11  C   UNL     1      30.812  76.944  22.599  1.00  0.00     0.034 C 
BRANCH  11  12
ATOM     12  C   UNL     1      29.517  77.390  23.251  1.00  0.00    -0.075 C 
ATOM     13  C   UNL     1      28.436  76.581  23.193  1.00  0.00    -0.000 C 
ATOM     14  C   UNL     1      29.474  78.712  23.980  1.00  0.00     0.039 C 
BRANCH  13  15
ATOM     15  C   UNL     1      27.100  76.916  23.804  1.00  0.00     0.183 C 
BRANCH  15  16
ATOM     16  O   UNL     1      26.094  76.095  23.275  1.00  0.00    -0.392 OA
ATOM     17  H   UNL     1      26.508  75.207  23.114  1.00  0.00     0.210 HD
ENDBRANCH  15  16
ENDBRANCH  13  15
ENDBRANCH  11  12
ENDBRANCH   1  11
TORSDOF 8
ENDMDL
MODEL 2
REMARK VINA RESULT:    -5.244      2.591      3.313
REMARK INTER + INTRA:          -8.620
REMARK INTER:                  -8.035
REMARK INTRA:                  -0.586
REMARK UNBOUND:                -1.077
REMARK SMILES CC(C)=CCCC(C)=CCCC(C)=CCO
REMARK SMILES IDX 10 1 9 2 7 3 8 4 6 5 5 6 4 7 1 8 2 9 3 10 11 11 12 12 14 13
REMARK SMILES IDX 13 14 15 15 16 16
REMARK H PARENT 16 17
REMARK Flexibility Score: inf
ROOT
ATOM      1  C   UNL     1      30.510  77.232  20.950  1.00  0.00     0.032 C 
ENDROOT
BRANCH   1   2
ATOM      2  C   UNL     1      30.056  78.547  20.359  1.00  0.00    -0.028 C 
ATOM      3  C   UNL     1      30.842  79.644  20.276  1.00  0.00    -0.077 C 
ATOM      4  C   UNL     1      30.265  80.897  19.670  1.00  0.00     0.039 C 
BRANCH   3   5
ATOM      5  C   UNL     1      32.258  79.682  20.819  1.00  0.00     0.034 C 
BRANCH   5   6
ATOM      6  C   UNL     1      32.267  80.154  22.277  1.00  0.00     0.032 C 
BRANCH   6   7
ATOM      7  C   UNL     1      33.533  79.728  22.982  1.00  0.00    -0.028 C 
ATOM      8  C   UNL     1      35.419  79.974  24.539  1.00  0.00     0.039 C 
ATOM      9  C   UNL     1      34.162  80.497  23.894  1.00  0.00    -0.080 C 
ATOM     10  C   UNL     1      33.634  81.860  24.278  1.00  0.00     0.039 C 
ENDBRANCH   6   7
ENDBRANCH   5   6
ENDBRANCH   3   5
ENDBRANCH   1   2
BRANCH   1  11
ATOM     11  C   UNL     1      29.399  76.171  20.923  1.00  0.00     0.034 C 
BRANCH  11  12
ATOM     12  C   UNL     1      29.872  74.864  20.315  1.00  0.00    -0.075 C 
ATOM     13  C   UNL     1      29.017  74.144  19.555  1.00  0.00    -0.000 C 
ATOM     14  C   UNL     1      31.296  74.415  20.543  1.00  0.00     0.039 C 
BRANCH  13  15
ATOM     15  C   UNL     1      29.374  72.835  18.899  1.00  0.00     0.183 C 
BRANCH  15  16
ATOM     16  O   UNL     1      29.761  73.040  17.566  1.00  0.00    -0.392 OA
ATOM     17  H   UNL     1      30.633  73.513  17.594  1.00  0.00     0.210 HD
ENDBRANCH  15  16
ENDBRANCH  13  15
ENDBRANCH  11  12
ENDBRANCH   1  11
TORSDOF 8
ENDMDL
MODEL 3
REMARK VINA RESULT:    -5.227      2.686      3.598
REMARK INTER + INTRA:          -8.595
REMARK INTER:                  -7.983
REMARK INTRA:                  -0.612
REMARK UNBOUND:                -1.077
REMARK SMILES CC(C)=CCCC(C)=CCCC(C)=CCO
REMARK SMILES IDX 10 1 9 2 7 3 8 4 6 5 5 6 4 7 1 8 2 9 3 10 11 11 12 12 14 13
REMARK SMILES IDX 13 14 15 15 16 16
REMARK H PARENT 16 17
REMARK Flexibility Score: inf
ROOT
ATOM      1  C   UNL     1      30.822  77.088  20.993  1.00  0.00     0.032 C 
ENDROOT
BRANCH   1   2
ATOM      2  C   UNL     1      30.184  78.348  20.456  1.00  0.00    -0.028 C 
ATOM      3  C   UNL     1      30.825  79.536  20.368  1.00  0.00    -0.077 C 
ATOM      4  C   UNL     1      30.071  80.719  19.819  1.00  0.00     0.039 C 
BRANCH   3   5
ATOM      5  C   UNL     1      32.248  79.738  20.852  1.00  0.00     0.034 C 
BRANCH   5   6
ATOM      6  C   UNL     1      32.264  80.196  22.314  1.00  0.00     0.032 C 
BRANCH   6   7
ATOM      7  C   UNL     1      33.512  79.724  23.022  1.00  0.00    -0.028 C 
ATOM      8  C   UNL     1      35.419  79.914  24.561  1.00  0.00     0.039 C 
ATOM      9  C   UNL     1      34.185  80.483  23.911  1.00  0.00    -0.080 C 
ATOM     10  C   UNL     1      33.728  81.879  24.265  1.00  0.00     0.039 C 
ENDBRANCH   6   7
ENDBRANCH   5   6
ENDBRANCH   3   5
ENDBRANCH   1   2
BRANCH   1  11
ATOM     11  C   UNL     1      29.801  75.957  21.184  1.00  0.00     0.034 C 
BRANCH  11  12
ATOM     12  C   UNL     1      30.125  74.745  20.332  1.00  0.00    -0.075 C 
ATOM     13  C   UNL     1      31.398  74.294  20.283  1.00  0.00    -0.000 C 
ATOM     14  C   UNL     1      29.012  74.047  19.585  1.00  0.00     0.039 C 
BRANCH  13  15
ATOM     15  C   UNL     1      31.838  73.100  19.475  1.00  0.00     0.183 C 
BRANCH  15  16
ATOM     16  O   UNL     1      32.695  72.284  20.226  1.00  0.00    -0.392 OA
ATOM     17  H   UNL     1      33.182  71.711  19.578  1.00  0.00     0.210 HD
ENDBRANCH  15  16
ENDBRANCH  13  15
ENDBRANCH  11  12
ENDBRANCH   1  11
TORSDOF 8
ENDMDL
MODEL 4
REMARK VINA RESULT:    -5.123      3.831      5.924
REMARK INTER + INTRA:          -8.446
REMARK INTER:                  -7.700
REMARK INTRA:                  -0.746
REMARK UNBOUND:                -1.077
REMARK SMILES CC(C)=CCCC(C)=CCCC(C)=CCO
REMARK SMILES IDX 10 1 9 2 7 3 8 4 6 5 5 6 4 7 1 8 2 9 3 10 11 11 12 12 14 13
REMARK SMILES IDX 13 14 15 15 16 16
REMARK H PARENT 16 17
REMARK Flexibility Score: inf
ROOT
ATOM      1  C   UNL     1      31.688  73.762  19.487  1.00  0.00     0.032 C 
ENDROOT
BRANCH   1   2
ATOM      2  C   UNL     1      31.514  73.763  20.988  1.00  0.00    -0.028 C 
ATOM      3  C   UNL     1      30.770  74.672  21.658  1.00  0.00    -0.077 C 
ATOM      4  C   UNL     1      30.684  74.565  23.158  1.00  0.00     0.039 C 
BRANCH   3   5
ATOM      5  C   UNL     1      30.068  75.826  20.967  1.00  0.00     0.034 C 
BRANCH   5   6
ATOM      6  C   UNL     1      30.951  77.079  20.971  1.00  0.00     0.032 C 
BRANCH   6   7
ATOM      7  C   UNL     1      30.191  78.286  20.476  1.00  0.00    -0.028 C 
ATOM      8  C   UNL     1      29.883  80.657  19.903  1.00  0.00     0.039 C 
ATOM      9  C   UNL     1      30.731  79.521  20.414  1.00  0.00    -0.080 C 
ATOM     10  C   UNL     1      32.156  79.783  20.842  1.00  0.00     0.039 C 
ENDBRANCH   6   7
ENDBRANCH   5   6
ENDBRANCH   3   5
ENDBRANCH   1   2
BRANCH   1  11
ATOM     11  C   UNL     1      31.397  72.386  18.871  1.00  0.00     0.034 C 
BRANCH  11  12
ATOM     12  C   UNL     1      30.121  72.385  18.049  1.00  0.00    -0.075 C 
ATOM     13  C   UNL     1      28.932  72.515  18.678  1.00  0.00    -0.000 C 
ATOM     14  C   UNL     1      30.211  72.274  16.545  1.00  0.00     0.039 C 
BRANCH  13  15
ATOM     15  C   UNL     1      27.603  72.531  17.968  1.00  0.00     0.183 C 
BRANCH  15  16
ATOM     16  O   UNL     1      26.864  73.667  18.328  1.00  0.00    -0.392 OA
ATOM     17  H   UNL     1      27.194  73.949  19.221  1.00  0.00     0.210 HD
ENDBRANCH  15  16
ENDBRANCH  13  15
ENDBRANCH  11  12
ENDBRANCH   1  11
TORSDOF 8
ENDMDL
MODEL 5
REMARK VINA RESULT:    -5.102      4.266      7.652
REMARK INTER + INTRA:          -8.416
REMARK INTER:                  -7.516
REMARK INTRA:                  -0.900
REMARK UNBOUND:                -1.077
REMARK SMILES CC(C)=CCCC(C)=CCCC(C)=CCO
REMARK SMILES IDX 10 1 9 2 7 3 8 4 6 5 5 6 4 7 1 8 2 9 3 10 11 11 12 12 14 13
REMARK SMILES IDX 13 14 15 15 16 16
REMARK H PARENT 16 17
REMARK Flexibility Score: inf
ROOT
ATOM      1  C   UNL     1      30.179  76.486  20.720  1.00  0.00     0.032 C 
ENDROOT
BRANCH   1   2
ATOM      2  C   UNL     1      30.949  75.187  20.655  1.00  0.00    -0.028 C 
ATOM      3  C   UNL     1      30.376  73.985  20.420  1.00  0.00    -0.077 C 
ATOM      4  C   UNL     1      31.257  72.763  20.388  1.00  0.00     0.039 C 
BRANCH   3   5
ATOM      5  C   UNL     1      28.880  73.810  20.246  1.00  0.00     0.034 C 
BRANCH   5   6
ATOM      6  C   UNL     1      28.492  73.902  18.766  1.00  0.00     0.032 C 
BRANCH   6   7
ATOM      7  C   UNL     1      28.293  72.530  18.166  1.00  0.00    -0.028 C 
ATOM      8  C   UNL     1      28.855  70.608  16.740  1.00  0.00     0.039 C 
ATOM      9  C   UNL     1      29.148  71.986  17.276  1.00  0.00    -0.080 C 
ATOM     10  C   UNL     1      30.383  72.723  16.812  1.00  0.00     0.039 C 
ENDBRANCH   6   7
ENDBRANCH   5   6
ENDBRANCH   3   5
ENDBRANCH   1   2
BRANCH   1  11
ATOM     11  C   UNL     1      30.835  77.501  21.667  1.00  0.00     0.034 C 
BRANCH  11  12
ATOM     12  C   UNL     1      31.085  78.836  20.991  1.00  0.00    -0.075 C 
ATOM     13  C   UNL     1      30.085  79.420  20.294  1.00  0.00    -0.000 C 
ATOM     14  C   UNL     1      32.434  79.498  21.140  1.00  0.00     0.039 C 
BRANCH  13  15
ATOM     15  C   UNL     1      30.215  80.742  19.584  1.00  0.00     0.183 C 
BRANCH  15  16
ATOM     16  O   UNL     1      29.107  81.558  19.852  1.00  0.00    -0.392 OA
ATOM     17  H   UNL     1      29.463  82.413  20.210  1.00  0.00     0.210 HD
ENDBRANCH  15  16
ENDBRANCH  13  15
ENDBRANCH  11  12
ENDBRANCH   1  11
TORSDOF 8
ENDMDL
MODEL 6
REMARK VINA RESULT:    -5.056      4.888      7.353
REMARK INTER + INTRA:          -8.351
REMARK INTER:                  -7.623
REMARK INTRA:                  -0.728
REMARK UNBOUND:                -1.077
REMARK SMILES CC(C)=CCCC(C)=CCCC(C)=CCO
REMARK SMILES IDX 10 1 9 2 7 3 8 4 6 5 5 6 4 7 1 8 2 9 3 10 11 11 12 12 14 13
REMARK SMILES IDX 13 14 15 15 16 16
REMARK H PARENT 16 17
REMARK Flexibility Score: inf
ROOT
ATOM      1  C   UNL     1      30.274  75.623  20.660  1.00  0.00     0.032 C 
ENDROOT
BRANCH   1   2
ATOM      2  C   UNL     1      29.740  74.419  19.920  1.00  0.00    -0.028 C 
ATOM      3  C   UNL     1      30.523  73.441  19.410  1.00  0.00    -0.077 C 
ATOM      4  C   UNL     1      29.865  72.296  18.687  1.00  0.00     0.039 C 
BRANCH   3   5
ATOM      5  C   UNL     1      32.038  73.481  19.487  1.00  0.00     0.034 C 
BRANCH   5   6
ATOM      6  C   UNL     1      32.562  72.393  20.430  1.00  0.00     0.032 C 
BRANCH   6   7
ATOM      7  C   UNL     1      33.777  71.707  19.853  1.00  0.00    -0.028 C 
ATOM      8  C   UNL     1      35.010  69.878  18.768  1.00  0.00     0.039 C 
ATOM      9  C   UNL     1      33.738  70.469  19.317  1.00  0.00    -0.080 C 
ATOM     10  C   UNL     1      32.455  69.674  19.257  1.00  0.00     0.039 C 
ENDBRANCH   6   7
ENDBRANCH   5   6
ENDBRANCH   3   5
ENDBRANCH   1   2
BRANCH   1  11
ATOM     11  C   UNL     1      29.392  76.864  20.459  1.00  0.00     0.034 C 
BRANCH  11  12
ATOM     12  C   UNL     1      30.162  78.153  20.673  1.00  0.00    -0.075 C 
ATOM     13  C   UNL     1      29.823  79.251  19.962  1.00  0.00    -0.000 C 
ATOM     14  C   UNL     1      31.269  78.191  21.701  1.00  0.00     0.039 C 
BRANCH  13  15
ATOM     15  C   UNL     1      30.513  80.585  20.091  1.00  0.00     0.183 C 
BRANCH  15  16
ATOM     16  O   UNL     1      29.695  81.614  19.604  1.00  0.00    -0.392 OA
ATOM     17  H   UNL     1      28.761  81.367  19.835  1.00  0.00     0.210 HD
ENDBRANCH  15  16
ENDBRANCH  13  15
ENDBRANCH  11  12
ENDBRANCH   1  11
TORSDOF 8
ENDMDL
MODEL 7
REMARK VINA RESULT:    -5.027      2.162      2.608
REMARK INTER + INTRA:          -8.309
REMARK INTER:                  -7.158
REMARK INTRA:                  -1.151
REMARK UNBOUND:                -1.077
REMARK SMILES CC(C)=CCCC(C)=CCCC(C)=CCO
REMARK SMILES IDX 10 1 9 2 7 3 8 4 6 5 5 6 4 7 1 8 2 9 3 10 11 11 12 12 14 13
REMARK SMILES IDX 13 14 15 15 16 16
REMARK H PARENT 16 17
REMARK Flexibility Score: inf
ROOT
ATOM      1  C   UNL     1      30.091  77.119  20.710  1.00  0.00     0.032 C 
ENDROOT
BRANCH   1   2
ATOM      2  C   UNL     1      29.788  78.516  20.221  1.00  0.00    -0.028 C 
ATOM      3  C   UNL     1      30.689  79.525  20.222  1.00  0.00    -0.077 C 
ATOM      4  C   UNL     1      30.257  80.875  19.713  1.00  0.00     0.039 C 
BRANCH   3   5
ATOM      5  C   UNL     1      32.096  79.366  20.767  1.00  0.00     0.034 C 
BRANCH   5   6
ATOM      6  C   UNL     1      32.254  80.126  22.089  1.00  0.00     0.032 C 
BRANCH   6   7
ATOM      7  C   UNL     1      33.549  79.764  22.777  1.00  0.00    -0.028 C 
ATOM      8  C   UNL     1      35.352  80.015  24.428  1.00  0.00     0.039 C 
ATOM      9  C   UNL     1      34.051  80.464  23.814  1.00  0.00    -0.080 C 
ATOM     10  C   UNL     1      33.341  81.677  24.368  1.00  0.00     0.039 C 
ENDBRANCH   6   7
ENDBRANCH   5   6
ENDBRANCH   3   5
ENDBRANCH   1   2
BRANCH   1  11
ATOM     11  C   UNL     1      29.683  76.917  22.177  1.00  0.00     0.034 C 
BRANCH  11  12
ATOM     12  C   UNL     1      30.771  76.235  22.985  1.00  0.00    -0.075 C 
ATOM     13  C   UNL     1      31.099  74.955  22.701  1.00  0.00    -0.000 C 
ATOM     14  C   UNL     1      31.487  77.012  24.064  1.00  0.00     0.039 C 
BRANCH  13  15
ATOM     15  C   UNL     1      32.163  74.177  23.432  1.00  0.00     0.183 C 
BRANCH  15  16
ATOM     16  O   UNL     1      32.729  73.207  22.594  1.00  0.00    -0.392 OA
ATOM     17  H   UNL     1      33.647  73.519  22.377  1.00  0.00     0.210 HD
ENDBRANCH  15  16
ENDBRANCH  13  15
ENDBRANCH  11  12
ENDBRANCH   1  11
TORSDOF 8
ENDMDL
MODEL 8
REMARK VINA RESULT:    -4.980      3.076      5.551
REMARK INTER + INTRA:          -8.240
REMARK INTER:                  -6.846
REMARK INTRA:                  -1.394
REMARK UNBOUND:                -1.077
REMARK SMILES CC(C)=CCCC(C)=CCCC(C)=CCO
REMARK SMILES IDX 10 1 9 2 7 3 8 4 6 5 5 6 4 7 1 8 2 9 3 10 11 11 12 12 14 13
REMARK SMILES IDX 13 14 15 15 16 16
REMARK H PARENT 16 17
REMARK Flexibility Score: inf
ROOT
ATOM      1  C   UNL     1      33.489  79.924  23.456  1.00  0.00     0.032 C 
ENDROOT
BRANCH   1   2
ATOM      2  C   UNL     1      34.056  81.248  23.916  1.00  0.00    -0.028 C 
ATOM      3  C   UNL     1      33.324  82.208  24.525  1.00  0.00    -0.077 C 
ATOM      4  C   UNL     1      34.009  83.487  24.928  1.00  0.00     0.039 C 
BRANCH   3   5
ATOM      5  C   UNL     1      31.832  82.072  24.767  1.00  0.00     0.034 C 
BRANCH   5   6
ATOM      6  C   UNL     1      31.039  82.853  23.713  1.00  0.00     0.032 C 
BRANCH   6   7
ATOM      7  C   UNL     1      29.871  83.580  24.335  1.00  0.00    -0.028 C 
ATOM      8  C   UNL     1      27.522  83.894  24.992  1.00  0.00     0.039 C 
ATOM      9  C   UNL     1      28.616  83.085  24.342  1.00  0.00    -0.080 C 
ATOM     10  C   UNL     1      28.289  81.749  23.718  1.00  0.00     0.039 C 
ENDBRANCH   6   7
ENDBRANCH   5   6
ENDBRANCH   3   5
ENDBRANCH   1   2
BRANCH   1  11
ATOM     11  C   UNL     1      33.239  79.896  21.941  1.00  0.00     0.034 C 
BRANCH  11  12
ATOM     12  C   UNL     1      31.767  79.748  21.608  1.00  0.00    -0.075 C 
ATOM     13  C   UNL     1      31.311  80.201  20.419  1.00  0.00    -0.000 C 
ATOM     14  C   UNL     1      30.850  79.068  22.597  1.00  0.00     0.039 C 
BRANCH  13  15
ATOM     15  C   UNL     1      29.873  80.107  19.978  1.00  0.00     0.183 C 
BRANCH  15  16
ATOM     16  O   UNL     1      29.239  81.353  20.092  1.00  0.00    -0.392 OA
ATOM     17  H   UNL     1      29.599  81.922  19.363  1.00  0.00     0.210 HD
ENDBRANCH  15  16
ENDBRANCH  13  15
ENDBRANCH  11  12
ENDBRANCH   1  11
TORSDOF 8
ENDMDL
MODEL 9
REMARK VINA RESULT:    -4.965      4.435      7.056
REMARK INTER + INTRA:          -8.218
REMARK INTER:                  -7.483
REMARK INTRA:                  -0.735
REMARK UNBOUND:                -1.077
REMARK SMILES CC(C)=CCCC(C)=CCCC(C)=CCO
REMARK SMILES IDX 10 1 9 2 7 3 8 4 6 5 5 6 4 7 1 8 2 9 3 10 11 11 12 12 14 13
REMARK SMILES IDX 13 14 15 15 16 16
REMARK H PARENT 16 17
REMARK Flexibility Score: inf
ROOT
ATOM      1  C   UNL     1      30.146  76.713  21.087  1.00  0.00     0.032 C 
ENDROOT
BRANCH   1   2
ATOM      2  C   UNL     1      29.412  75.506  20.550  1.00  0.00    -0.028 C 
ATOM      3  C   UNL     1      30.004  74.317  20.298  1.00  0.00    -0.077 C 
ATOM      4  C   UNL     1      29.159  73.194  19.757  1.00  0.00     0.039 C 
BRANCH   3   5
ATOM      5  C   UNL     1      31.492  74.086  20.484  1.00  0.00     0.034 C 
BRANCH   5   6
ATOM      6  C   UNL     1      32.095  73.413  19.247  1.00  0.00     0.032 C 
BRANCH   6   7
ATOM      7  C   UNL     1      33.256  72.522  19.620  1.00  0.00    -0.028 C 
ATOM      8  C   UNL     1      34.478  70.397  19.804  1.00  0.00     0.039 C 
ATOM      9  C   UNL     1      33.266  71.193  19.393  1.00  0.00    -0.080 C 
ATOM     10  C   UNL     1      32.098  70.493  18.739  1.00  0.00     0.039 C 
ENDBRANCH   6   7
ENDBRANCH   5   6
ENDBRANCH   3   5
ENDBRANCH   1   2
BRANCH   1  11
ATOM     11  C   UNL     1      29.843  77.983  20.277  1.00  0.00     0.034 C 
BRANCH  11  12
ATOM     12  C   UNL     1      30.735  79.142  20.677  1.00  0.00    -0.075 C 
ATOM     13  C   UNL     1      31.686  78.949  21.619  1.00  0.00    -0.000 C 
ATOM     14  C   UNL     1      30.565  80.477  19.991  1.00  0.00     0.039 C 
BRANCH  13  15
ATOM     15  C   UNL     1      32.630  80.023  22.095  1.00  0.00     0.183 C 
BRANCH  15  16
ATOM     16  O   UNL     1      33.942  79.742  21.690  1.00  0.00    -0.392 OA
ATOM     17  H   UNL     1      34.524  80.419  22.124  1.00  0.00     0.210 HD
ENDBRANCH  15  16
ENDBRANCH  13  15
ENDBRANCH  11  12
ENDBRANCH   1  11
TORSDOF 8
ENDMDL
