MODEL 1
REMARK VINA RESULT:    -4.123      0.000      0.000
REMARK INTER + INTRA:          -5.304
REMARK INTER:                  -5.087
REMARK INTRA:                  -0.217
REMARK UNBOUND:                -0.217
REMARK SMILES CCCCCC(=O)[O-]
REMARK SMILES IDX 4 1 5 2 6 3 7 4 8 5 3 6 2 7 1 8
REMARK H PARENT
REMARK Flexibility Score: inf
ROOT
ATOM      1  C   UNL     1      29.720  -2.634   6.192  1.00  0.00     0.006 C 
ENDROOT
BRANCH   1   2
ATOM      2  C   UNL     1      30.795  -1.545   6.079  1.00  0.00     0.053 C 
BRANCH   2   3
ATOM      3  C   UNL     1      30.948  -0.828   7.383  1.00  0.00     0.041 C 
ATOM      4  O   UNL     1      31.409  -1.430   8.388  1.00  0.00    -0.550 OA
ATOM      5  O   UNL     1      30.537   0.493   7.502  1.00  0.00    -0.550 OA
ENDBRANCH   2   3
ENDBRANCH   1   2
BRANCH   1   6
ATOM      6  C   UNL     1      28.369  -2.193   5.606  1.00  0.00     0.000 C 
BRANCH   6   7
ATOM      7  C   UNL     1      27.249  -2.170   6.656  1.00  0.00    -0.003 C 
ATOM      8  C   UNL     1      27.203  -0.827   7.380  1.00  0.00     0.004 C 
ENDBRANCH   6   7
ENDBRANCH   1   6
TORSDOF 4
ENDMDL
MODEL 2
REMARK VINA RESULT:    -4.075     14.243     15.958
REMARK INTER + INTRA:          -5.244
REMARK INTER:                  -5.147
REMARK INTRA:                  -0.097
REMARK UNBOUND:                -0.217
REMARK SMILES CCCCCC(=O)[O-]
REMARK SMILES IDX 4 1 5 2 6 3 7 4 8 5 3 6 2 7 1 8
REMARK H PARENT
REMARK Flexibility Score: inf
ROOT
ATOM      1  C   UNL     1      15.386   1.761  12.561  1.00  0.00     0.006 C 
ENDROOT
BRANCH   1   2
ATOM      2  C   UNL     1      15.138   3.063  13.332  1.00  0.00     0.053 C 
BRANCH   2   3
ATOM      3  C   UNL     1      14.715   2.764  14.736  1.00  0.00     0.041 C 
ATOM      4  O   UNL     1      15.576   2.641  15.646  1.00  0.00    -0.550 OA
ATOM      5  O   UNL     1      13.371   2.574  15.030  1.00  0.00    -0.550 OA
ENDBRANCH   2   3
ENDBRANCH   1   2
BRANCH   1   6
ATOM      6  C   UNL     1      15.961   2.007  11.156  1.00  0.00     0.000 C 
BRANCH   6   7
ATOM      7  C   UNL     1      17.203   1.151  10.867  1.00  0.00    -0.003 C 
ATOM      8  C   UNL     1      17.689   0.444  12.129  1.00  0.00     0.004 C 
ENDBRANCH   6   7
ENDBRANCH   1   6
TORSDOF 4
ENDMDL
MODEL 3
REMARK VINA RESULT:    -4.069     13.777     15.559
REMARK INTER + INTRA:          -5.238
REMARK INTER:                  -5.054
REMARK INTRA:                  -0.184
REMARK UNBOUND:                -0.217
REMARK SMILES CCCCCC(=O)[O-]
REMARK SMILES IDX 4 1 5 2 6 3 7 4 8 5 3 6 2 7 1 8
REMARK H PARENT
REMARK Flexibility Score: inf
ROOT
ATOM      1  C   UNL     1      15.376   2.884  13.017  1.00  0.00     0.006 C 
ENDROOT
BRANCH   1   2
ATOM      2  C   UNL     1      14.644   1.956  13.995  1.00  0.00     0.053 C 
BRANCH   2   3
ATOM      3  C   UNL     1      15.626   1.134  14.768  1.00  0.00     0.041 C 
ATOM      4  O   UNL     1      16.141   1.587  15.824  1.00  0.00    -0.550 OA
ATOM      5  O   UNL     1      16.009  -0.115  14.297  1.00  0.00    -0.550 OA
ENDBRANCH   2   3
ENDBRANCH   1   2
BRANCH   1   6
ATOM      6  C   UNL     1      15.628   2.222  11.653  1.00  0.00     0.000 C 
BRANCH   6   7
ATOM      7  C   UNL     1      17.122   2.121  11.312  1.00  0.00    -0.003 C 
ATOM      8  C   UNL     1      17.477   0.725  10.807  1.00  0.00     0.004 C 
ENDBRANCH   6   7
ENDBRANCH   1   6
TORSDOF 4
ENDMDL
MODEL 4
REMARK VINA RESULT:    -4.054     13.437     15.176
REMARK INTER + INTRA:          -5.219
REMARK INTER:                  -5.141
REMARK INTRA:                  -0.078
REMARK UNBOUND:                -0.217
REMARK SMILES CCCCCC(=O)[O-]
REMARK SMILES IDX 4 1 5 2 6 3 7 4 8 5 3 6 2 7 1 8
REMARK H PARENT
REMARK Flexibility Score: inf
ROOT
ATOM      1  C   UNL     1      15.411   1.727  12.464  1.00  0.00     0.006 C 
ENDROOT
BRANCH   1   2
ATOM      2  C   UNL     1      16.124   1.973  11.128  1.00  0.00     0.053 C 
BRANCH   2   3
ATOM      3  C   UNL     1      17.302   1.060  10.991  1.00  0.00     0.041 C 
ATOM      4  O   UNL     1      18.014   0.787  11.993  1.00  0.00    -0.550 OA
ATOM      5  O   UNL     1      17.642   0.548   9.745  1.00  0.00    -0.550 OA
ENDBRANCH   2   3
ENDBRANCH   1   2
BRANCH   1   6
ATOM      6  C   UNL     1      15.239   3.014  13.287  1.00  0.00     0.000 C 
BRANCH   6   7
ATOM      7  C   UNL     1      15.068   2.738  14.788  1.00  0.00    -0.003 C 
ATOM      8  C   UNL     1      13.593   2.631  15.162  1.00  0.00     0.004 C 
ENDBRANCH   6   7
ENDBRANCH   1   6
TORSDOF 4
ENDMDL
MODEL 5
REMARK VINA RESULT:    -4.035      1.309      1.882
REMARK INTER + INTRA:          -5.195
REMARK INTER:                  -5.011
REMARK INTRA:                  -0.184
REMARK UNBOUND:                -0.217
REMARK SMILES CCCCCC(=O)[O-]
REMARK SMILES IDX 4 1 5 2 6 3 7 4 8 5 3 6 2 7 1 8
REMARK H PARENT
REMARK Flexibility Score: inf
ROOT
ATOM      1  C   UNL     1      28.988  -2.246   5.730  1.00  0.00     0.006 C 
ENDROOT
BRANCH   1   2
ATOM      2  C   UNL     1      30.107  -2.980   6.480  1.00  0.00     0.053 C 
BRANCH   2   3
ATOM      3  C   UNL     1      31.336  -2.129   6.544  1.00  0.00     0.041 C 
ATOM      4  O   UNL     1      31.274  -0.958   7.003  1.00  0.00    -0.550 OA
ATOM      5  O   UNL     1      32.542  -2.611   6.052  1.00  0.00    -0.550 OA
ENDBRANCH   2   3
ENDBRANCH   1   2
BRANCH   1   6
ATOM      6  C   UNL     1      27.657  -2.257   6.499  1.00  0.00     0.000 C 
BRANCH   6   7
ATOM      7  C   UNL     1      27.106  -0.845   6.747  1.00  0.00    -0.003 C 
ATOM      8  C   UNL     1      27.907  -0.124   7.827  1.00  0.00     0.004 C 
ENDBRANCH   6   7
ENDBRANCH   1   6
TORSDOF 4
ENDMDL
MODEL 6
REMARK VINA RESULT:    -3.997     16.936     18.691
REMARK INTER + INTRA:          -5.148
REMARK INTER:                  -4.962
REMARK INTRA:                  -0.186
REMARK UNBOUND:                -0.217
REMARK SMILES CCCCCC(=O)[O-]
REMARK SMILES IDX 4 1 5 2 6 3 7 4 8 5 3 6 2 7 1 8
REMARK H PARENT
REMARK Flexibility Score: inf
ROOT
ATOM      1  C   UNL     1      13.258   2.407  16.538  1.00  0.00     0.006 C 
ENDROOT
BRANCH   1   2
ATOM      2  C   UNL     1      13.578   2.628  15.054  1.00  0.00     0.053 C 
BRANCH   2   3
ATOM      3  C   UNL     1      15.058   2.657  14.839  1.00  0.00     0.041 C 
ATOM      4  O   UNL     1      15.840   2.289  15.755  1.00  0.00    -0.550 OA
ATOM      5  O   UNL     1      15.578   3.137  13.644  1.00  0.00    -0.550 OA
ENDBRANCH   2   3
ENDBRANCH   1   2
BRANCH   1   6
ATOM      6  C   UNL     1      12.920   3.716  17.270  1.00  0.00     0.000 C 
BRANCH   6   7
ATOM      7  C   UNL     1      13.446   3.738  18.713  1.00  0.00    -0.003 C 
ATOM      8  C   UNL     1      14.156   2.433  19.060  1.00  0.00     0.004 C 
ENDBRANCH   6   7
ENDBRANCH   1   6
TORSDOF 4
ENDMDL
MODEL 7
REMARK VINA RESULT:    -3.989     16.370     18.083
REMARK INTER + INTRA:          -5.139
REMARK INTER:                  -5.051
REMARK INTRA:                  -0.089
REMARK UNBOUND:                -0.217
REMARK SMILES CCCCCC(=O)[O-]
REMARK SMILES IDX 4 1 5 2 6 3 7 4 8 5 3 6 2 7 1 8
REMARK H PARENT
REMARK Flexibility Score: inf
ROOT
ATOM      1  C   UNL     1      13.477   2.646  15.087  1.00  0.00     0.006 C 
ENDROOT
BRANCH   1   2
ATOM      2  C   UNL     1      14.885   2.738  14.486  1.00  0.00     0.053 C 
BRANCH   2   3
ATOM      3  C   UNL     1      15.160   1.550  13.619  1.00  0.00     0.041 C 
ATOM      4  O   UNL     1      15.441   0.438  14.137  1.00  0.00    -0.550 OA
ATOM      5  O   UNL     1      15.152   1.682  12.236  1.00  0.00    -0.550 OA
ENDBRANCH   2   3
ENDBRANCH   1   2
BRANCH   1   6
ATOM      6  C   UNL     1      13.498   2.434  16.609  1.00  0.00     0.000 C 
BRANCH   6   7
ATOM      7  C   UNL     1      12.875   3.608  17.379  1.00  0.00    -0.003 C 
ATOM      8  C   UNL     1      13.493   3.744  18.768  1.00  0.00     0.004 C 
ENDBRANCH   6   7
ENDBRANCH   1   6
TORSDOF 4
ENDMDL
MODEL 8
REMARK VINA RESULT:    -3.929     16.823     18.568
REMARK INTER + INTRA:          -5.065
REMARK INTER:                  -4.978
REMARK INTRA:                  -0.087
REMARK UNBOUND:                -0.217
REMARK SMILES CCCCCC(=O)[O-]
REMARK SMILES IDX 4 1 5 2 6 3 7 4 8 5 3 6 2 7 1 8
REMARK H PARENT
REMARK Flexibility Score: inf
ROOT
ATOM      1  C   UNL     1      13.642   2.234  15.124  1.00  0.00     0.006 C 
ENDROOT
BRANCH   1   2
ATOM      2  C   UNL     1      13.031   3.249  16.099  1.00  0.00     0.053 C 
BRANCH   2   3
ATOM      3  C   UNL     1      13.199   2.781  17.510  1.00  0.00     0.041 C 
ATOM      4  O   UNL     1      13.025   3.579  18.468  1.00  0.00    -0.550 OA
ATOM      5  O   UNL     1      13.595   1.475  17.767  1.00  0.00    -0.550 OA
ENDBRANCH   2   3
ENDBRANCH   1   2
BRANCH   1   6
ATOM      6  C   UNL     1      15.082   2.594  14.724  1.00  0.00     0.000 C 
BRANCH   6   7
ATOM      7  C   UNL     1      15.181   3.133  13.290  1.00  0.00    -0.003 C 
ATOM      8  C   UNL     1      15.551   2.024  12.310  1.00  0.00     0.004 C 
ENDBRANCH   6   7
ENDBRANCH   1   6
TORSDOF 4
ENDMDL
MODEL 9
REMARK VINA RESULT:    -3.862     15.135     16.326
REMARK INTER + INTRA:          -4.982
REMARK INTER:                  -4.852
REMARK INTRA:                  -0.130
REMARK UNBOUND:                -0.217
REMARK SMILES CCCCCC(=O)[O-]
REMARK SMILES IDX 4 1 5 2 6 3 7 4 8 5 3 6 2 7 1 8
REMARK H PARENT
REMARK Flexibility Score: inf
ROOT
ATOM      1  C   UNL     1      15.784   0.766  14.402  1.00  0.00     0.006 C 
ENDROOT
BRANCH   1   2
ATOM      2  C   UNL     1      15.499   0.727  15.908  1.00  0.00     0.053 C 
BRANCH   2   3
ATOM      3  C   UNL     1      16.232   1.830  16.606  1.00  0.00     0.041 C 
ATOM      4  O   UNL     1      17.354   1.611  17.134  1.00  0.00    -0.550 OA
ATOM      5  O   UNL     1      15.655   3.088  16.714  1.00  0.00    -0.550 OA
ENDBRANCH   2   3
ENDBRANCH   1   2
BRANCH   1   6
ATOM      6  C   UNL     1      14.750   1.597  13.626  1.00  0.00     0.000 C 
BRANCH   6   7
ATOM      7  C   UNL     1      15.393   2.716  12.794  1.00  0.00    -0.003 C 
ATOM      8  C   UNL     1      15.976   2.168  11.494  1.00  0.00     0.004 C 
ENDBRANCH   6   7
ENDBRANCH   1   6
TORSDOF 4
ENDMDL
