MODEL 1
REMARK VINA RESULT:    -6.019      0.000      0.000
REMARK INTER + INTRA:          -9.746
REMARK INTER:                  -9.187
REMARK INTRA:                  -0.559
REMARK UNBOUND:                -0.559
REMARK SMILES COc1cc(C=CCOC(=O)C=Cc2ccc(O)c(OC)c2)ccc1O
REMARK SMILES IDX 9 1 8 2 7 3 6 4 5 5 3 6 25 7 4 8 24 9 23 10 2 11 1 12 26 13
REMARK SMILES IDX 10 15 11 16 12 17 13 18 14 19 22 20 15 21 19 22 16 23 17 24
REMARK SMILES IDX 20 25 21 26 18 27
REMARK H PARENT 26 14 18 28
REMARK Flexibility Score: inf
ROOT
ATOM      1  O   UNL     1     -13.408  69.091  75.083  1.00  0.00    -0.458 OA
ENDROOT
BRANCH   1   2
ATOM      2  C   UNL     1     -13.430  70.194  74.185  1.00  0.00     0.261 C 
BRANCH   2   3
ATOM      3  C   UNL     1     -13.747  71.446  74.939  1.00  0.00     0.015 C 
ATOM      4  C   UNL     1     -13.855  72.621  74.306  1.00  0.00     0.007 C 
BRANCH   4   5
ATOM      5  C   UNL     1     -14.170  73.893  74.996  1.00  0.00    -0.022 A 
ATOM      6  C   UNL     1     -15.512  75.086  76.658  1.00  0.00     0.161 A 
ATOM      7  C   UNL     1     -14.794  76.258  76.388  1.00  0.00     0.157 A 
ATOM      8  C   UNL     1     -15.190  73.902  75.963  1.00  0.00     0.058 A 
ATOM      9  C   UNL     1     -13.764  76.248  75.438  1.00  0.00     0.051 A 
ATOM     10  C   UNL     1     -13.451  75.076  74.748  1.00  0.00     0.012 A 
BRANCH   6  11
ATOM     11  O   UNL     1     -16.535  75.135  77.619  1.00  0.00    -0.493 OA
ATOM     12  C   UNL     1     -17.354  74.027  77.984  1.00  0.00     0.278 C 
ENDBRANCH   6  11
BRANCH   7  13
ATOM     13  O   UNL     1     -15.108  77.431  77.071  1.00  0.00    -0.504 OA
ATOM     14  H   UNL     1     -16.000  77.548  77.541  1.00  0.00     0.293 HD
ENDBRANCH   7  13
ENDBRANCH   4   5
ENDBRANCH   2   3
ENDBRANCH   1   2
BRANCH   1  15
ATOM     15  C   UNL     1     -14.248  69.004  76.196  1.00  0.00     0.331 C 
ATOM     16  O   UNL     1     -13.759  68.903  77.355  1.00  0.00    -0.247 OA
BRANCH  15  17
ATOM     17  C   UNL     1     -15.708  68.968  75.977  1.00  0.00     0.094 C 
ATOM     18  C   UNL     1     -16.440  67.866  75.742  1.00  0.00     0.016 C 
BRANCH  18  19
ATOM     19  C   UNL     1     -15.947  66.473  75.822  1.00  0.00    -0.021 A 
ATOM     20  C   UNL     1     -16.403  65.646  76.860  1.00  0.00     0.058 A 
ATOM     21  C   UNL     1     -14.963  65.994  74.944  1.00  0.00     0.012 A 
ATOM     22  C   UNL     1     -15.925  64.326  76.987  1.00  0.00     0.161 A 
ATOM     23  C   UNL     1     -14.489  64.685  75.063  1.00  0.00     0.051 A 
ATOM     24  C   UNL     1     -14.971  63.850  76.078  1.00  0.00     0.157 A 
BRANCH  22  25
ATOM     25  O   UNL     1     -16.372  63.463  78.000  1.00  0.00    -0.493 OA
ATOM     26  C   UNL     1     -17.619  62.771  77.977  1.00  0.00     0.278 C 
ENDBRANCH  22  25
BRANCH  24  27
ATOM     27  O   UNL     1     -14.502  62.542  76.193  1.00  0.00    -0.504 OA
ATOM     28  H   UNL     1     -15.020  61.756  75.816  1.00  0.00     0.293 HD
ENDBRANCH  24  27
ENDBRANCH  18  19
ENDBRANCH  15  17
ENDBRANCH   1  15
TORSDOF 10
ENDMDL
MODEL 2
REMARK VINA RESULT:    -5.947      6.801      9.183
REMARK INTER + INTRA:          -9.636
REMARK INTER:                  -7.449
REMARK INTRA:                  -2.187
REMARK UNBOUND:                -0.559
REMARK SMILES COc1cc(C=CCOC(=O)C=Cc2ccc(O)c(OC)c2)ccc1O
REMARK SMILES IDX 9 1 8 2 7 3 6 4 5 5 3 6 25 7 4 8 24 9 23 10 2 11 1 12 26 13
REMARK SMILES IDX 10 15 11 16 12 17 13 18 14 19 22 20 15 21 19 22 16 23 17 24
REMARK SMILES IDX 20 25 21 26 18 27
REMARK H PARENT 26 14 18 28
REMARK Flexibility Score: inf
ROOT
ATOM      1  O   UNL     1     -17.194  64.630  76.653  1.00  0.00    -0.458 OA
ENDROOT
BRANCH   1   2
ATOM      2  C   UNL     1     -16.062  65.480  76.510  1.00  0.00     0.261 C 
BRANCH   2   3
ATOM      3  C   UNL     1     -14.882  64.672  76.073  1.00  0.00     0.015 C 
ATOM      4  C   UNL     1     -13.839  64.480  76.891  1.00  0.00     0.007 C 
BRANCH   4   5
ATOM      5  C   UNL     1     -12.645  63.688  76.517  1.00  0.00    -0.022 A 
ATOM      6  C   UNL     1     -10.811  63.297  74.946  1.00  0.00     0.161 A 
ATOM      7  C   UNL     1     -10.339  62.262  75.764  1.00  0.00     0.157 A 
ATOM      8  C   UNL     1     -11.962  64.013  75.332  1.00  0.00     0.058 A 
ATOM      9  C   UNL     1     -11.006  61.947  76.955  1.00  0.00     0.051 A 
ATOM     10  C   UNL     1     -12.148  62.655  77.332  1.00  0.00     0.012 A 
BRANCH   6  11
ATOM     11  O   UNL     1     -10.112  63.585  73.762  1.00  0.00    -0.493 OA
ATOM     12  C   UNL     1     -10.711  64.108  72.579  1.00  0.00     0.278 C 
ENDBRANCH   6  11
BRANCH   7  13
ATOM     13  O   UNL     1      -9.201  61.552  75.388  1.00  0.00    -0.504 OA
ATOM     14  H   UNL     1      -8.434  61.399  76.034  1.00  0.00     0.293 HD
ENDBRANCH   7  13
ENDBRANCH   4   5
ENDBRANCH   2   3
ENDBRANCH   1   2
BRANCH   1  15
ATOM     15  C   UNL     1     -17.314  63.697  77.686  1.00  0.00     0.331 C 
ATOM     16  O   UNL     1     -16.728  63.889  78.788  1.00  0.00    -0.247 OA
BRANCH  15  17
ATOM     17  C   UNL     1     -18.083  62.462  77.435  1.00  0.00     0.094 C 
ATOM     18  C   UNL     1     -17.803  61.539  76.500  1.00  0.00     0.016 C 
BRANCH  18  19
ATOM     19  C   UNL     1     -16.585  61.506  75.661  1.00  0.00    -0.021 A 
ATOM     20  C   UNL     1     -16.653  61.974  74.340  1.00  0.00     0.058 A 
ATOM     21  C   UNL     1     -15.394  60.926  76.123  1.00  0.00     0.012 A 
ATOM     22  C   UNL     1     -15.522  61.922  73.502  1.00  0.00     0.161 A 
ATOM     23  C   UNL     1     -14.268  60.875  75.297  1.00  0.00     0.051 A 
ATOM     24  C   UNL     1     -14.328  61.376  73.991  1.00  0.00     0.157 A 
BRANCH  22  25
ATOM     25  O   UNL     1     -15.546  62.400  72.181  1.00  0.00    -0.493 OA
ATOM     26  C   UNL     1     -16.647  63.091  71.594  1.00  0.00     0.278 C 
ENDBRANCH  22  25
BRANCH  24  27
ATOM     27  O   UNL     1     -13.202  61.331  73.169  1.00  0.00    -0.504 OA
ATOM     28  H   UNL     1     -12.850  60.455  72.798  1.00  0.00     0.293 HD
ENDBRANCH  24  27
ENDBRANCH  18  19
ENDBRANCH  15  17
ENDBRANCH   1  15
TORSDOF 10
ENDMDL
MODEL 3
REMARK VINA RESULT:    -5.945      1.693      9.732
REMARK INTER + INTRA:          -9.632
REMARK INTER:                  -8.813
REMARK INTRA:                  -0.819
REMARK UNBOUND:                -0.559
REMARK SMILES COc1cc(C=CCOC(=O)C=Cc2ccc(O)c(OC)c2)ccc1O
REMARK SMILES IDX 9 1 8 2 7 3 6 4 5 5 3 6 25 7 4 8 24 9 23 10 2 11 1 12 26 13
REMARK SMILES IDX 10 15 11 16 12 17 13 18 14 19 22 20 15 21 19 22 16 23 17 24
REMARK SMILES IDX 20 25 21 26 18 27
REMARK H PARENT 26 14 18 28
REMARK Flexibility Score: inf
ROOT
ATOM      1  O   UNL     1     -15.390  70.072  75.204  1.00  0.00    -0.458 OA
ENDROOT
BRANCH   1   2
ATOM      2  C   UNL     1     -15.447  69.509  76.509  1.00  0.00     0.261 C 
BRANCH   2   3
ATOM      3  C   UNL     1     -15.305  68.024  76.421  1.00  0.00     0.015 C 
ATOM      4  C   UNL     1     -16.307  67.214  76.783  1.00  0.00     0.007 C 
BRANCH   4   5
ATOM      5  C   UNL     1     -16.227  65.737  76.714  1.00  0.00    -0.022 A 
ATOM      6  C   UNL     1     -15.205  63.748  75.722  1.00  0.00     0.161 A 
ATOM      7  C   UNL     1     -15.980  62.938  76.561  1.00  0.00     0.157 A 
ATOM      8  C   UNL     1     -15.327  65.149  75.808  1.00  0.00     0.058 A 
ATOM      9  C   UNL     1     -16.866  63.519  77.478  1.00  0.00     0.051 A 
ATOM     10  C   UNL     1     -16.988  64.907  77.559  1.00  0.00     0.012 A 
BRANCH   6  11
ATOM     11  O   UNL     1     -14.326  63.128  74.818  1.00  0.00    -0.493 OA
ATOM     12  C   UNL     1     -12.927  62.970  75.032  1.00  0.00     0.278 C 
ENDBRANCH   6  11
BRANCH   7  13
ATOM     13  O   UNL     1     -15.863  61.552  76.480  1.00  0.00    -0.504 OA
ATOM     14  H   UNL     1     -15.027  61.111  76.110  1.00  0.00     0.293 HD
ENDBRANCH   7  13
ENDBRANCH   4   5
ENDBRANCH   2   3
ENDBRANCH   1   2
BRANCH   1  15
ATOM     15  C   UNL     1     -14.380  69.761  74.290  1.00  0.00     0.331 C 
ATOM     16  O   UNL     1     -14.637  69.061  73.271  1.00  0.00    -0.247 OA
BRANCH  15  17
ATOM     17  C   UNL     1     -13.004  70.214  74.578  1.00  0.00     0.094 C 
ATOM     18  C   UNL     1     -12.525  71.451  74.371  1.00  0.00     0.016 C 
BRANCH  18  19
ATOM     19  C   UNL     1     -13.327  72.629  73.970  1.00  0.00    -0.021 A 
ATOM     20  C   UNL     1     -13.825  73.485  74.963  1.00  0.00     0.058 A 
ATOM     21  C   UNL     1     -13.682  72.849  72.631  1.00  0.00     0.012 A 
ATOM     22  C   UNL     1     -14.624  74.594  74.618  1.00  0.00     0.161 A 
ATOM     23  C   UNL     1     -14.470  73.949  72.283  1.00  0.00     0.051 A 
ATOM     24  C   UNL     1     -14.937  74.824  73.272  1.00  0.00     0.157 A 
BRANCH  22  25
ATOM     25  O   UNL     1     -15.124  75.485  75.581  1.00  0.00    -0.493 OA
ATOM     26  C   UNL     1     -15.733  75.087  76.808  1.00  0.00     0.278 C 
ENDBRANCH  22  25
BRANCH  24  27
ATOM     27  O   UNL     1     -15.719  75.925  72.924  1.00  0.00    -0.504 OA
ATOM     28  H   UNL     1     -16.682  75.820  72.625  1.00  0.00     0.293 HD
ENDBRANCH  24  27
ENDBRANCH  18  19
ENDBRANCH  15  17
ENDBRANCH   1  15
TORSDOF 10
ENDMDL
MODEL 4
REMARK VINA RESULT:    -5.928      2.258      3.776
REMARK INTER + INTRA:          -9.607
REMARK INTER:                  -8.856
REMARK INTRA:                  -0.751
REMARK UNBOUND:                -0.559
REMARK SMILES COc1cc(C=CCOC(=O)C=Cc2ccc(O)c(OC)c2)ccc1O
REMARK SMILES IDX 9 1 8 2 7 3 6 4 5 5 3 6 25 7 4 8 24 9 23 10 2 11 1 12 26 13
REMARK SMILES IDX 10 15 11 16 12 17 13 18 14 19 22 20 15 21 19 22 16 23 17 24
REMARK SMILES IDX 20 25 21 26 18 27
REMARK H PARENT 26 14 18 28
REMARK Flexibility Score: inf
ROOT
ATOM      1  O   UNL     1     -15.093  67.311  76.422  1.00  0.00    -0.458 OA
ENDROOT
BRANCH   1   2
ATOM      2  C   UNL     1     -16.022  68.250  75.894  1.00  0.00     0.261 C 
BRANCH   2   3
ATOM      3  C   UNL     1     -15.352  69.574  75.719  1.00  0.00     0.015 C 
ATOM      4  C   UNL     1     -14.373  69.736  74.820  1.00  0.00     0.007 C 
BRANCH   4   5
ATOM      5  C   UNL     1     -13.675  71.023  74.598  1.00  0.00    -0.022 A 
ATOM      6  C   UNL     1     -13.752  73.468  74.623  1.00  0.00     0.161 A 
ATOM      7  C   UNL     1     -12.403  73.508  74.246  1.00  0.00     0.157 A 
ATOM      8  C   UNL     1     -14.381  72.220  74.805  1.00  0.00     0.058 A 
ATOM      9  C   UNL     1     -11.690  72.318  74.056  1.00  0.00     0.051 A 
ATOM     10  C   UNL     1     -12.317  71.083  74.233  1.00  0.00     0.012 A 
BRANCH   6  11
ATOM     11  O   UNL     1     -14.432  74.683  74.806  1.00  0.00    -0.493 OA
ATOM     12  C   UNL     1     -15.029  75.097  76.032  1.00  0.00     0.278 C 
ENDBRANCH   6  11
BRANCH   7  13
ATOM     13  O   UNL     1     -11.776  74.739  74.065  1.00  0.00    -0.504 OA
ATOM     14  H   UNL     1     -11.987  75.329  73.266  1.00  0.00     0.293 HD
ENDBRANCH   7  13
ENDBRANCH   4   5
ENDBRANCH   2   3
ENDBRANCH   1   2
BRANCH   1  15
ATOM     15  C   UNL     1     -14.616  66.223  75.687  1.00  0.00     0.331 C 
ATOM     16  O   UNL     1     -15.096  65.966  74.549  1.00  0.00    -0.247 OA
BRANCH  15  17
ATOM     17  C   UNL     1     -13.592  65.353  76.299  1.00  0.00     0.094 C 
ATOM     18  C   UNL     1     -13.812  64.149  76.852  1.00  0.00     0.016 C 
BRANCH  18  19
ATOM     19  C   UNL     1     -15.089  63.402  76.806  1.00  0.00    -0.021 A 
ATOM     20  C   UNL     1     -15.327  62.523  75.738  1.00  0.00     0.058 A 
ATOM     21  C   UNL     1     -16.103  63.628  77.748  1.00  0.00     0.012 A 
ATOM     22  C   UNL     1     -16.548  61.824  75.644  1.00  0.00     0.161 A 
ATOM     23  C   UNL     1     -17.313  62.936  77.661  1.00  0.00     0.051 A 
ATOM     24  C   UNL     1     -17.535  62.032  76.616  1.00  0.00     0.157 A 
BRANCH  22  25
ATOM     25  O   UNL     1     -16.814  60.921  74.602  1.00  0.00    -0.493 OA
ATOM     26  C   UNL     1     -16.989  61.295  73.236  1.00  0.00     0.278 C 
ENDBRANCH  22  25
BRANCH  24  27
ATOM     27  O   UNL     1     -18.741  61.336  76.533  1.00  0.00    -0.504 OA
ATOM     28  H   UNL     1     -19.205  60.975  77.359  1.00  0.00     0.293 HD
ENDBRANCH  24  27
ENDBRANCH  18  19
ENDBRANCH  15  17
ENDBRANCH   1  15
TORSDOF 10
ENDMDL
MODEL 5
REMARK VINA RESULT:    -5.856      4.063      6.930
REMARK INTER + INTRA:          -9.496
REMARK INTER:                  -7.349
REMARK INTRA:                  -2.147
REMARK UNBOUND:                -0.559
REMARK SMILES COc1cc(C=CCOC(=O)C=Cc2ccc(O)c(OC)c2)ccc1O
REMARK SMILES IDX 9 1 8 2 7 3 6 4 5 5 3 6 25 7 4 8 24 9 23 10 2 11 1 12 26 13
REMARK SMILES IDX 10 15 11 16 12 17 13 18 14 19 22 20 15 21 19 22 16 23 17 24
REMARK SMILES IDX 20 25 21 26 18 27
REMARK H PARENT 26 14 18 28
REMARK Flexibility Score: inf
ROOT
ATOM      1  O   UNL     1     -15.117  61.949  72.164  1.00  0.00    -0.458 OA
ENDROOT
BRANCH   1   2
ATOM      2  C   UNL     1     -14.237  62.980  71.733  1.00  0.00     0.261 C 
BRANCH   2   3
ATOM      3  C   UNL     1     -13.830  63.814  72.905  1.00  0.00     0.015 C 
ATOM      4  C   UNL     1     -14.397  65.006  73.131  1.00  0.00     0.007 C 
BRANCH   4   5
ATOM      5  C   UNL     1     -14.040  65.875  74.275  1.00  0.00    -0.022 A 
ATOM      6  C   UNL     1     -14.738  67.539  75.928  1.00  0.00     0.161 A 
ATOM      7  C   UNL     1     -13.453  67.516  76.485  1.00  0.00     0.157 A 
ATOM      8  C   UNL     1     -15.028  66.708  74.826  1.00  0.00     0.058 A 
ATOM      9  C   UNL     1     -12.469  66.674  75.950  1.00  0.00     0.051 A 
ATOM     10  C   UNL     1     -12.758  65.856  74.857  1.00  0.00     0.012 A 
BRANCH   6  11
ATOM     11  O   UNL     1     -15.698  68.394  76.493  1.00  0.00    -0.493 OA
ATOM     12  C   UNL     1     -15.856  69.768  76.150  1.00  0.00     0.278 C 
ENDBRANCH   6  11
BRANCH   7  13
ATOM     13  O   UNL     1     -13.160  68.335  77.574  1.00  0.00    -0.504 OA
ATOM     14  H   UNL     1     -13.404  69.320  77.576  1.00  0.00     0.293 HD
ENDBRANCH   7  13
ENDBRANCH   4   5
ENDBRANCH   2   3
ENDBRANCH   1   2
BRANCH   1  15
ATOM     15  C   UNL     1     -16.492  62.145  72.322  1.00  0.00     0.331 C 
ATOM     16  O   UNL     1     -17.070  63.096  71.728  1.00  0.00    -0.247 OA
BRANCH  15  17
ATOM     17  C   UNL     1     -17.229  61.258  73.244  1.00  0.00     0.094 C 
ATOM     18  C   UNL     1     -16.937  61.054  74.539  1.00  0.00     0.016 C 
BRANCH  18  19
ATOM     19  C   UNL     1     -15.927  61.801  75.322  1.00  0.00    -0.021 A 
ATOM     20  C   UNL     1     -14.626  61.287  75.423  1.00  0.00     0.058 A 
ATOM     21  C   UNL     1     -16.268  62.954  76.044  1.00  0.00     0.012 A 
ATOM     22  C   UNL     1     -13.650  61.953  76.192  1.00  0.00     0.161 A 
ATOM     23  C   UNL     1     -15.304  63.620  76.805  1.00  0.00     0.051 A 
ATOM     24  C   UNL     1     -13.996  63.126  76.876  1.00  0.00     0.157 A 
BRANCH  22  25
ATOM     25  O   UNL     1     -12.332  61.480  76.301  1.00  0.00    -0.493 OA
ATOM     26  C   UNL     1     -11.506  61.135  75.190  1.00  0.00     0.278 C 
ENDBRANCH  22  25
BRANCH  24  27
ATOM     27  O   UNL     1     -13.033  63.794  77.630  1.00  0.00    -0.504 OA
ATOM     28  H   UNL     1     -12.193  64.173  77.205  1.00  0.00     0.293 HD
ENDBRANCH  24  27
ENDBRANCH  18  19
ENDBRANCH  15  17
ENDBRANCH   1  15
TORSDOF 10
ENDMDL
MODEL 6
REMARK VINA RESULT:    -5.834      6.289      8.018
REMARK INTER + INTRA:          -9.462
REMARK INTER:                  -7.139
REMARK INTRA:                  -2.324
REMARK UNBOUND:                -0.559
REMARK SMILES COc1cc(C=CCOC(=O)C=Cc2ccc(O)c(OC)c2)ccc1O
REMARK SMILES IDX 9 1 8 2 7 3 6 4 5 5 3 6 25 7 4 8 24 9 23 10 2 11 1 12 26 13
REMARK SMILES IDX 10 15 11 16 12 17 13 18 14 19 22 20 15 21 19 22 16 23 17 24
REMARK SMILES IDX 20 25 21 26 18 27
REMARK H PARENT 26 14 18 28
REMARK Flexibility Score: inf
ROOT
ATOM      1  O   UNL     1     -17.426  64.810  76.909  1.00  0.00    -0.458 OA
ENDROOT
BRANCH   1   2
ATOM      2  C   UNL     1     -16.741  66.052  77.013  1.00  0.00     0.261 C 
BRANCH   2   3
ATOM      3  C   UNL     1     -15.684  66.131  75.958  1.00  0.00     0.015 C 
ATOM      4  C   UNL     1     -14.559  65.412  76.057  1.00  0.00     0.007 C 
BRANCH   4   5
ATOM      5  C   UNL     1     -13.480  65.445  75.044  1.00  0.00    -0.022 A 
ATOM      6  C   UNL     1     -11.188  64.856  74.420  1.00  0.00     0.161 A 
ATOM      7  C   UNL     1     -11.394  65.421  73.154  1.00  0.00     0.157 A 
ATOM      8  C   UNL     1     -12.239  64.864  75.360  1.00  0.00     0.058 A 
ATOM      9  C   UNL     1     -12.635  65.985  72.830  1.00  0.00     0.051 A 
ATOM     10  C   UNL     1     -13.672  65.995  73.763  1.00  0.00     0.012 A 
BRANCH   6  11
ATOM     11  O   UNL     1      -9.931  64.299  74.707  1.00  0.00    -0.493 OA
ATOM     12  C   UNL     1      -9.625  62.910  74.617  1.00  0.00     0.278 C 
ENDBRANCH   6  11
BRANCH   7  13
ATOM     13  O   UNL     1     -10.360  65.416  72.222  1.00  0.00    -0.504 OA
ATOM     14  H   UNL     1     -10.540  65.290  71.231  1.00  0.00     0.293 HD
ENDBRANCH   7  13
ENDBRANCH   4   5
ENDBRANCH   2   3
ENDBRANCH   1   2
BRANCH   1  15
ATOM     15  C   UNL     1     -17.198  63.744  77.784  1.00  0.00     0.331 C 
ATOM     16  O   UNL     1     -16.400  63.878  78.752  1.00  0.00    -0.247 OA
BRANCH  15  17
ATOM     17  C   UNL     1     -17.859  62.453  77.509  1.00  0.00     0.094 C 
ATOM     18  C   UNL     1     -17.524  61.591  76.535  1.00  0.00     0.016 C 
BRANCH  18  19
ATOM     19  C   UNL     1     -16.333  61.698  75.663  1.00  0.00    -0.021 A 
ATOM     20  C   UNL     1     -15.097  61.229  76.135  1.00  0.00     0.058 A 
ATOM     21  C   UNL     1     -16.392  62.346  74.421  1.00  0.00     0.012 A 
ATOM     22  C   UNL     1     -13.936  61.350  75.345  1.00  0.00     0.161 A 
ATOM     23  C   UNL     1     -15.245  62.466  73.632  1.00  0.00     0.051 A 
ATOM     24  C   UNL     1     -14.020  61.965  74.089  1.00  0.00     0.157 A 
BRANCH  22  25
ATOM     25  O   UNL     1     -12.687  60.875  75.774  1.00  0.00    -0.493 OA
ATOM     26  C   UNL     1     -11.951  61.417  76.869  1.00  0.00     0.278 C 
ENDBRANCH  22  25
BRANCH  24  27
ATOM     27  O   UNL     1     -12.877  62.079  73.299  1.00  0.00    -0.504 OA
ATOM     28  H   UNL     1     -12.130  62.723  73.535  1.00  0.00     0.293 HD
ENDBRANCH  24  27
ENDBRANCH  18  19
ENDBRANCH  15  17
ENDBRANCH   1  15
TORSDOF 10
ENDMDL
MODEL 7
REMARK VINA RESULT:    -5.820      5.612      7.928
REMARK INTER + INTRA:          -9.442
REMARK INTER:                  -7.262
REMARK INTRA:                  -2.180
REMARK UNBOUND:                -0.559
REMARK SMILES COc1cc(C=CCOC(=O)C=Cc2ccc(O)c(OC)c2)ccc1O
REMARK SMILES IDX 9 1 8 2 7 3 6 4 5 5 3 6 25 7 4 8 24 9 23 10 2 11 1 12 26 13
REMARK SMILES IDX 10 15 11 16 12 17 13 18 14 19 22 20 15 21 19 22 16 23 17 24
REMARK SMILES IDX 20 25 21 26 18 27
REMARK H PARENT 26 14 18 28
REMARK Flexibility Score: inf
ROOT
ATOM      1  O   UNL     1     -15.909  60.875  74.768  1.00  0.00    -0.458 OA
ENDROOT
BRANCH   1   2
ATOM      2  C   UNL     1     -15.333  61.095  73.486  1.00  0.00     0.261 C 
BRANCH   2   3
ATOM      3  C   UNL     1     -14.518  62.349  73.511  1.00  0.00     0.015 C 
ATOM      4  C   UNL     1     -15.077  63.537  73.253  1.00  0.00     0.007 C 
BRANCH   4   5
ATOM      5  C   UNL     1     -14.324  64.812  73.267  1.00  0.00    -0.022 A 
ATOM      6  C   UNL     1     -12.168  65.959  73.421  1.00  0.00     0.161 A 
ATOM      7  C   UNL     1     -12.817  67.189  73.253  1.00  0.00     0.157 A 
ATOM      8  C   UNL     1     -12.927  64.771  73.419  1.00  0.00     0.058 A 
ATOM      9  C   UNL     1     -14.207  67.233  73.082  1.00  0.00     0.051 A 
ATOM     10  C   UNL     1     -14.956  66.057  73.086  1.00  0.00     0.012 A 
BRANCH   6  11
ATOM     11  O   UNL     1     -10.773  65.955  73.586  1.00  0.00    -0.493 OA
ATOM     12  C   UNL     1     -10.102  65.563  74.781  1.00  0.00     0.278 C 
ENDBRANCH   6  11
BRANCH   7  13
ATOM     13  O   UNL     1     -12.071  68.366  73.253  1.00  0.00    -0.504 OA
ATOM     14  H   UNL     1     -12.493  69.260  73.480  1.00  0.00     0.293 HD
ENDBRANCH   7  13
ENDBRANCH   4   5
ENDBRANCH   2   3
ENDBRANCH   1   2
BRANCH   1  15
ATOM     15  C   UNL     1     -17.269  61.059  75.028  1.00  0.00     0.331 C 
ATOM     16  O   UNL     1     -18.076  61.257  74.078  1.00  0.00    -0.247 OA
BRANCH  15  17
ATOM     17  C   UNL     1     -17.722  61.079  76.432  1.00  0.00     0.094 C 
ATOM     18  C   UNL     1     -17.346  61.968  77.366  1.00  0.00     0.016 C 
BRANCH  18  19
ATOM     19  C   UNL     1     -16.537  63.183  77.122  1.00  0.00    -0.021 A 
ATOM     20  C   UNL     1     -15.141  63.069  77.043  1.00  0.00     0.058 A 
ATOM     21  C   UNL     1     -17.127  64.455  77.068  1.00  0.00     0.012 A 
ATOM     22  C   UNL     1     -14.339  64.212  76.849  1.00  0.00     0.161 A 
ATOM     23  C   UNL     1     -16.337  65.590  76.872  1.00  0.00     0.051 A 
ATOM     24  C   UNL     1     -14.946  65.471  76.757  1.00  0.00     0.157 A 
BRANCH  22  25
ATOM     25  O   UNL     1     -12.941  64.136  76.744  1.00  0.00    -0.493 OA
ATOM     26  C   UNL     1     -12.213  62.928  76.524  1.00  0.00     0.278 C 
ENDBRANCH  22  25
BRANCH  24  27
ATOM     27  O   UNL     1     -14.158  66.604  76.555  1.00  0.00    -0.504 OA
ATOM     28  H   UNL     1     -13.781  67.134  77.332  1.00  0.00     0.293 HD
ENDBRANCH  24  27
ENDBRANCH  18  19
ENDBRANCH  15  17
ENDBRANCH   1  15
TORSDOF 10
ENDMDL
MODEL 8
REMARK VINA RESULT:    -5.753      4.064      9.164
REMARK INTER + INTRA:          -9.340
REMARK INTER:                  -8.155
REMARK INTRA:                  -1.184
REMARK UNBOUND:                -0.559
REMARK SMILES COc1cc(C=CCOC(=O)C=Cc2ccc(O)c(OC)c2)ccc1O
REMARK SMILES IDX 9 1 8 2 7 3 6 4 5 5 3 6 25 7 4 8 24 9 23 10 2 11 1 12 26 13
REMARK SMILES IDX 10 15 11 16 12 17 13 18 14 19 22 20 15 21 19 22 16 23 17 24
REMARK SMILES IDX 20 25 21 26 18 27
REMARK H PARENT 26 14 18 28
REMARK Flexibility Score: inf
ROOT
ATOM      1  O   UNL     1     -10.567  62.755  75.728  1.00  0.00    -0.458 OA
ENDROOT
BRANCH   1   2
ATOM      2  C   UNL     1     -11.394  61.598  75.744  1.00  0.00     0.261 C 
BRANCH   2   3
ATOM      3  C   UNL     1     -12.691  61.918  76.415  1.00  0.00     0.015 C 
ATOM      4  C   UNL     1     -13.841  61.905  75.731  1.00  0.00     0.007 C 
BRANCH   4   5
ATOM      5  C   UNL     1     -15.156  62.209  76.340  1.00  0.00    -0.022 A 
ATOM      6  C   UNL     1     -16.672  63.868  77.308  1.00  0.00     0.161 A 
ATOM      7  C   UNL     1     -17.651  62.877  77.459  1.00  0.00     0.157 A 
ATOM      8  C   UNL     1     -15.428  63.530  76.740  1.00  0.00     0.058 A 
ATOM      9  C   UNL     1     -17.391  61.564  77.045  1.00  0.00     0.051 A 
ATOM     10  C   UNL     1     -16.157  61.230  76.487  1.00  0.00     0.012 A 
BRANCH   6  11
ATOM     11  O   UNL     1     -16.971  65.174  77.732  1.00  0.00    -0.493 OA
ATOM     12  C   UNL     1     -16.756  66.345  76.950  1.00  0.00     0.278 C 
ENDBRANCH   6  11
BRANCH   7  13
ATOM     13  O   UNL     1     -18.883  63.206  78.020  1.00  0.00    -0.504 OA
ATOM     14  H   UNL     1     -19.010  63.262  79.025  1.00  0.00     0.293 HD
ENDBRANCH   7  13
ENDBRANCH   4   5
ENDBRANCH   2   3
ENDBRANCH   1   2
BRANCH   1  15
ATOM     15  C   UNL     1     -10.536  63.648  74.653  1.00  0.00     0.331 C 
ATOM     16  O   UNL     1      -9.633  64.527  74.584  1.00  0.00    -0.247 OA
BRANCH  15  17
ATOM     17  C   UNL     1     -11.613  63.577  73.646  1.00  0.00     0.094 C 
ATOM     18  C   UNL     1     -12.679  64.392  73.578  1.00  0.00     0.016 C 
BRANCH  18  19
ATOM     19  C   UNL     1     -12.886  65.608  74.396  1.00  0.00    -0.021 A 
ATOM     20  C   UNL     1     -13.140  66.828  73.752  1.00  0.00     0.058 A 
ATOM     21  C   UNL     1     -12.735  65.586  75.790  1.00  0.00     0.012 A 
ATOM     22  C   UNL     1     -13.305  68.012  74.499  1.00  0.00     0.161 A 
ATOM     23  C   UNL     1     -12.900  66.756  76.536  1.00  0.00     0.051 A 
ATOM     24  C   UNL     1     -13.190  67.966  75.894  1.00  0.00     0.157 A 
BRANCH  22  25
ATOM     25  O   UNL     1     -13.580  69.248  73.892  1.00  0.00    -0.493 OA
ATOM     26  C   UNL     1     -12.615  70.278  73.685  1.00  0.00     0.278 C 
ENDBRANCH  22  25
BRANCH  24  27
ATOM     27  O   UNL     1     -13.361  69.133  76.639  1.00  0.00    -0.504 OA
ATOM     28  H   UNL     1     -14.180  69.277  77.220  1.00  0.00     0.293 HD
ENDBRANCH  24  27
ENDBRANCH  18  19
ENDBRANCH  15  17
ENDBRANCH   1  15
TORSDOF 10
ENDMDL
MODEL 9
REMARK VINA RESULT:    -5.703      4.897      8.164
REMARK INTER + INTRA:          -9.263
REMARK INTER:                  -7.055
REMARK INTRA:                  -2.208
REMARK UNBOUND:                -0.559
REMARK SMILES COc1cc(C=CCOC(=O)C=Cc2ccc(O)c(OC)c2)ccc1O
REMARK SMILES IDX 9 1 8 2 7 3 6 4 5 5 3 6 25 7 4 8 24 9 23 10 2 11 1 12 26 13
REMARK SMILES IDX 10 15 11 16 12 17 13 18 14 19 22 20 15 21 19 22 16 23 17 24
REMARK SMILES IDX 20 25 21 26 18 27
REMARK H PARENT 26 14 18 28
REMARK Flexibility Score: inf
ROOT
ATOM      1  O   UNL     1     -15.705  61.010  75.541  1.00  0.00    -0.458 OA
ENDROOT
BRANCH   1   2
ATOM      2  C   UNL     1     -15.155  60.882  74.235  1.00  0.00     0.261 C 
BRANCH   2   3
ATOM      3  C   UNL     1     -14.454  62.148  73.861  1.00  0.00     0.015 C 
ATOM      4  C   UNL     1     -15.099  63.126  73.212  1.00  0.00     0.007 C 
BRANCH   4   5
ATOM      5  C   UNL     1     -14.461  64.402  72.818  1.00  0.00    -0.022 A 
ATOM      6  C   UNL     1     -12.408  65.658  72.377  1.00  0.00     0.161 A 
ATOM      7  C   UNL     1     -13.175  66.778  72.029  1.00  0.00     0.157 A 
ATOM      8  C   UNL     1     -13.058  64.469  72.764  1.00  0.00     0.058 A 
ATOM      9  C   UNL     1     -14.573  66.711  72.064  1.00  0.00     0.051 A 
ATOM     10  C   UNL     1     -15.214  65.533  72.452  1.00  0.00     0.012 A 
BRANCH   6  11
ATOM     11  O   UNL     1     -11.008  65.764  72.326  1.00  0.00    -0.493 OA
ATOM     12  C   UNL     1     -10.120  65.176  73.273  1.00  0.00     0.278 C 
ENDBRANCH   6  11
BRANCH   7  13
ATOM     13  O   UNL     1     -12.537  67.956  71.646  1.00  0.00    -0.504 OA
ATOM     14  H   UNL     1     -12.602  68.800  72.205  1.00  0.00     0.293 HD
ENDBRANCH   7  13
ENDBRANCH   4   5
ENDBRANCH   2   3
ENDBRANCH   1   2
BRANCH   1  15
ATOM     15  C   UNL     1     -17.031  61.387  75.770  1.00  0.00     0.331 C 
ATOM     16  O   UNL     1     -17.861  61.400  74.819  1.00  0.00    -0.247 OA
BRANCH  15  17
ATOM     17  C   UNL     1     -17.415  61.825  77.127  1.00  0.00     0.094 C 
ATOM     18  C   UNL     1     -16.862  62.841  77.809  1.00  0.00     0.016 C 
BRANCH  18  19
ATOM     19  C   UNL     1     -15.881  63.809  77.269  1.00  0.00    -0.021 A 
ATOM     20  C   UNL     1     -16.345  64.989  76.669  1.00  0.00     0.058 A 
ATOM     21  C   UNL     1     -14.507  63.525  77.252  1.00  0.00     0.012 A 
ATOM     22  C   UNL     1     -15.440  65.913  76.110  1.00  0.00     0.161 A 
ATOM     23  C   UNL     1     -13.605  64.439  76.703  1.00  0.00     0.051 A 
ATOM     24  C   UNL     1     -14.067  65.634  76.138  1.00  0.00     0.157 A 
BRANCH  22  25
ATOM     25  O   UNL     1     -15.865  67.114  75.521  1.00  0.00    -0.493 OA
ATOM     26  C   UNL     1     -16.111  68.322  76.239  1.00  0.00     0.278 C 
ENDBRANCH  22  25
BRANCH  24  27
ATOM     27  O   UNL     1     -13.166  66.549  75.595  1.00  0.00    -0.504 OA
ATOM     28  H   UNL     1     -13.439  67.192  74.860  1.00  0.00     0.293 HD
ENDBRANCH  24  27
ENDBRANCH  18  19
ENDBRANCH  15  17
ENDBRANCH   1  15
TORSDOF 10
ENDMDL
