MODEL 1
REMARK VINA RESULT:    -6.996      0.000      0.000
REMARK INTER + INTRA:          -9.384
REMARK INTER:                  -8.837
REMARK INTRA:                  -0.547
REMARK UNBOUND:                -0.547
REMARK SMILES Oc1ccc(CCc2cc(O)cc(O)c2)cc1
REMARK SMILES IDX 6 1 5 2 4 3 3 4 2 5 16 6 17 7 1 8 7 10 8 11 15 12 9 13 13 14
REMARK SMILES IDX 10 15 12 16 14 17 11 19
REMARK H PARENT 1 9 14 18 11 20
REMARK Flexibility Score: inf
ROOT
ATOM      1  C   UNL     1      -5.218  68.668 -21.166  1.00  0.00     0.040 C 
ENDROOT
BRANCH   1   2
ATOM      2  C   UNL     1      -6.464  67.974 -20.684  1.00  0.00    -0.047 A 
ATOM      3  C   UNL     1      -6.522  67.443 -19.385  1.00  0.00     0.007 A 
ATOM      4  C   UNL     1      -7.667  66.769 -18.949  1.00  0.00     0.046 A 
ATOM      5  C   UNL     1      -8.760  66.611 -19.811  1.00  0.00     0.115 A 
ATOM      6  C   UNL     1      -7.557  67.801 -21.548  1.00  0.00     0.007 A 
ATOM      7  C   UNL     1      -8.700  67.126 -21.110  1.00  0.00     0.046 A 
BRANCH   5   8
ATOM      8  O   UNL     1      -9.907  65.941 -19.389  1.00  0.00    -0.508 OA
ATOM      9  H   UNL     1     -10.790  66.424 -19.276  1.00  0.00     0.293 HD
ENDBRANCH   5   8
ENDBRANCH   1   2
BRANCH   1  10
ATOM     10  C   UNL     1      -4.225  67.654 -21.739  1.00  0.00     0.040 C 
BRANCH  10  11
ATOM     11  C   UNL     1      -4.166  67.762 -23.240  1.00  0.00    -0.040 A 
ATOM     12  C   UNL     1      -3.294  66.944 -23.975  1.00  0.00     0.050 A 
ATOM     13  C   UNL     1      -4.942  68.721 -23.911  1.00  0.00     0.050 A 
ATOM     14  C   UNL     1      -3.215  67.066 -25.370  1.00  0.00     0.119 A 
ATOM     15  C   UNL     1      -4.865  68.846 -25.302  1.00  0.00     0.119 A 
ATOM     16  C   UNL     1      -4.003  68.015 -26.029  1.00  0.00     0.092 A 
BRANCH  14  17
ATOM     17  O   UNL     1      -2.356  66.253 -26.106  1.00  0.00    -0.508 OA
ATOM     18  H   UNL     1      -2.681  65.731 -26.911  1.00  0.00     0.293 HD
ENDBRANCH  14  17
BRANCH  15  19
ATOM     19  O   UNL     1      -5.646  69.799 -25.950  1.00  0.00    -0.508 OA
ATOM     20  H   UNL     1      -6.659  69.758 -25.928  1.00  0.00     0.293 HD
ENDBRANCH  15  19
ENDBRANCH  10  11
ENDBRANCH   1  10
TORSDOF 6
ENDMDL
MODEL 2
REMARK VINA RESULT:    -6.993      0.166      2.041
REMARK INTER + INTRA:          -9.379
REMARK INTER:                  -8.851
REMARK INTRA:                  -0.528
REMARK UNBOUND:                -0.547
REMARK SMILES Oc1ccc(CCc2cc(O)cc(O)c2)cc1
REMARK SMILES IDX 6 1 5 2 4 3 3 4 2 5 16 6 17 7 1 8 7 10 8 11 15 12 9 13 13 14
REMARK SMILES IDX 10 15 12 16 14 17 11 19
REMARK H PARENT 1 9 14 18 11 20
REMARK Flexibility Score: inf
ROOT
ATOM      1  C   UNL     1      -5.090  68.509 -21.022  1.00  0.00     0.040 C 
ENDROOT
BRANCH   1   2
ATOM      2  C   UNL     1      -6.372  67.869 -20.562  1.00  0.00    -0.047 A 
ATOM      3  C   UNL     1      -6.507  67.425 -19.236  1.00  0.00     0.007 A 
ATOM      4  C   UNL     1      -7.686  66.801 -18.818  1.00  0.00     0.046 A 
ATOM      5  C   UNL     1      -8.737  66.606 -19.723  1.00  0.00     0.115 A 
ATOM      6  C   UNL     1      -7.423  67.659 -21.469  1.00  0.00     0.007 A 
ATOM      7  C   UNL     1      -8.601  67.034 -21.048  1.00  0.00     0.046 A 
BRANCH   5   8
ATOM      8  O   UNL     1      -9.917  65.985 -19.319  1.00  0.00    -0.508 OA
ATOM      9  H   UNL     1     -10.423  66.294 -18.497  1.00  0.00     0.293 HD
ENDBRANCH   5   8
ENDBRANCH   1   2
BRANCH   1  10
ATOM     10  C   UNL     1      -4.169  67.468 -21.665  1.00  0.00     0.040 C 
BRANCH  10  11
ATOM     11  C   UNL     1      -4.057  67.704 -23.148  1.00  0.00    -0.040 A 
ATOM     12  C   UNL     1      -4.829  68.700 -23.766  1.00  0.00     0.050 A 
ATOM     13  C   UNL     1      -3.223  66.891 -23.932  1.00  0.00     0.050 A 
ATOM     14  C   UNL     1      -4.749  68.898 -25.152  1.00  0.00     0.119 A 
ATOM     15  C   UNL     1      -3.142  67.086 -25.315  1.00  0.00     0.119 A 
ATOM     16  C   UNL     1      -3.905  68.093 -25.922  1.00  0.00     0.092 A 
BRANCH  14  17
ATOM     17  O   UNL     1      -5.508  69.889 -25.772  1.00  0.00    -0.508 OA
ATOM     18  H   UNL     1      -5.521  70.841 -25.425  1.00  0.00     0.293 HD
ENDBRANCH  14  17
BRANCH  15  19
ATOM     19  O   UNL     1      -2.305  66.274 -26.075  1.00  0.00    -0.508 OA
ATOM     20  H   UNL     1      -1.963  66.568 -26.984  1.00  0.00     0.293 HD
ENDBRANCH  15  19
ENDBRANCH  10  11
ENDBRANCH   1  10
TORSDOF 6
ENDMDL
MODEL 3
REMARK VINA RESULT:    -6.911      2.878      6.413
REMARK INTER + INTRA:          -9.276
REMARK INTER:                  -8.834
REMARK INTRA:                  -0.442
REMARK UNBOUND:                -0.547
REMARK SMILES Oc1ccc(CCc2cc(O)cc(O)c2)cc1
REMARK SMILES IDX 6 1 5 2 4 3 3 4 2 5 16 6 17 7 1 8 7 10 8 11 15 12 9 13 13 14
REMARK SMILES IDX 10 15 12 16 14 17 11 19
REMARK H PARENT 1 9 14 18 11 20
REMARK Flexibility Score: inf
ROOT
ATOM      1  C   UNL     1      -3.687  67.189 -20.064  1.00  0.00     0.040 C 
ENDROOT
BRANCH   1   2
ATOM      2  C   UNL     1      -2.271  67.395 -20.530  1.00  0.00    -0.047 A 
ATOM      3  C   UNL     1      -1.475  66.294 -20.887  1.00  0.00     0.007 A 
ATOM      4  C   UNL     1      -0.149  66.483 -21.288  1.00  0.00     0.046 A 
ATOM      5  C   UNL     1       0.397  67.773 -21.326  1.00  0.00     0.115 A 
ATOM      6  C   UNL     1      -1.715  68.684 -20.557  1.00  0.00     0.007 A 
ATOM      7  C   UNL     1      -0.388  68.870 -20.958  1.00  0.00     0.046 A 
BRANCH   5   8
ATOM      8  O   UNL     1       1.717  67.975 -21.724  1.00  0.00    -0.508 OA
ATOM      9  H   UNL     1       2.246  68.781 -21.411  1.00  0.00     0.293 HD
ENDBRANCH   5   8
ENDBRANCH   1   2
BRANCH   1  10
ATOM     10  C   UNL     1      -4.463  68.508 -20.103  1.00  0.00     0.040 C 
BRANCH  10  11
ATOM     11  C   UNL     1      -5.840  68.294 -20.673  1.00  0.00    -0.040 A 
ATOM     12  C   UNL     1      -6.835  67.666 -19.907  1.00  0.00     0.050 A 
ATOM     13  C   UNL     1      -6.124  68.671 -21.996  1.00  0.00     0.050 A 
ATOM     14  C   UNL     1      -8.107  67.438 -20.449  1.00  0.00     0.119 A 
ATOM     15  C   UNL     1      -7.393  68.444 -22.539  1.00  0.00     0.119 A 
ATOM     16  C   UNL     1      -8.384  67.830 -21.763  1.00  0.00     0.092 A 
BRANCH  14  17
ATOM     17  O   UNL     1      -9.100  66.820 -19.693  1.00  0.00    -0.508 OA
ATOM     18  H   UNL     1      -8.874  66.161 -18.957  1.00  0.00     0.293 HD
ENDBRANCH  14  17
BRANCH  15  19
ATOM     19  O   UNL     1      -7.657  68.831 -23.851  1.00  0.00    -0.508 OA
ATOM     20  H   UNL     1      -7.875  69.793 -24.087  1.00  0.00     0.293 HD
ENDBRANCH  15  19
ENDBRANCH  10  11
ENDBRANCH   1  10
TORSDOF 6
ENDMDL
MODEL 4
REMARK VINA RESULT:    -6.907      3.318      3.951
REMARK INTER + INTRA:          -9.271
REMARK INTER:                  -8.691
REMARK INTRA:                  -0.580
REMARK UNBOUND:                -0.547
REMARK SMILES Oc1ccc(CCc2cc(O)cc(O)c2)cc1
REMARK SMILES IDX 6 1 5 2 4 3 3 4 2 5 16 6 17 7 1 8 7 10 8 11 15 12 9 13 13 14
REMARK SMILES IDX 10 15 12 16 14 17 11 19
REMARK H PARENT 1 9 14 18 11 20
REMARK Flexibility Score: inf
ROOT
ATOM      1  C   UNL     1      -5.224  68.582 -20.878  1.00  0.00     0.040 C 
ENDROOT
BRANCH   1   2
ATOM      2  C   UNL     1      -6.503  67.918 -20.446  1.00  0.00    -0.047 A 
ATOM      3  C   UNL     1      -6.686  67.538 -19.106  1.00  0.00     0.007 A 
ATOM      4  C   UNL     1      -7.861  66.891 -18.710  1.00  0.00     0.046 A 
ATOM      5  C   UNL     1      -8.860  66.610 -19.652  1.00  0.00     0.115 A 
ATOM      6  C   UNL     1      -7.501  67.621 -21.387  1.00  0.00     0.007 A 
ATOM      7  C   UNL     1      -8.675  66.974 -20.990  1.00  0.00     0.046 A 
BRANCH   5   8
ATOM      8  O   UNL     1     -10.035  65.965 -19.271  1.00  0.00    -0.508 OA
ATOM      9  H   UNL     1     -10.941  66.280 -19.597  1.00  0.00     0.293 HD
ENDBRANCH   5   8
ENDBRANCH   1   2
BRANCH   1  10
ATOM     10  C   UNL     1      -4.176  68.509 -19.765  1.00  0.00     0.040 C 
BRANCH  10  11
ATOM     11  C   UNL     1      -3.014  67.649 -20.188  1.00  0.00    -0.040 A 
ATOM     12  C   UNL     1      -1.902  68.224 -20.822  1.00  0.00     0.050 A 
ATOM     13  C   UNL     1      -3.060  66.258 -20.002  1.00  0.00     0.050 A 
ATOM     14  C   UNL     1      -0.835  67.419 -21.246  1.00  0.00     0.119 A 
ATOM     15  C   UNL     1      -1.996  65.453 -20.424  1.00  0.00     0.119 A 
ATOM     16  C   UNL     1      -0.883  66.036 -21.043  1.00  0.00     0.092 A 
BRANCH  14  17
ATOM     17  O   UNL     1       0.275  67.984 -21.871  1.00  0.00    -0.508 OA
ATOM     18  H   UNL     1       1.149  68.122 -21.376  1.00  0.00     0.293 HD
ENDBRANCH  14  17
BRANCH  15  19
ATOM     19  O   UNL     1      -2.057  64.075 -20.226  1.00  0.00    -0.508 OA
ATOM     20  H   UNL     1      -1.397  63.446 -20.669  1.00  0.00     0.293 HD
ENDBRANCH  15  19
ENDBRANCH  10  11
ENDBRANCH   1  10
TORSDOF 6
ENDMDL
MODEL 5
REMARK VINA RESULT:    -6.902      2.895      6.460
REMARK INTER + INTRA:          -9.265
REMARK INTER:                  -8.829
REMARK INTRA:                  -0.435
REMARK UNBOUND:                -0.547
REMARK SMILES Oc1ccc(CCc2cc(O)cc(O)c2)cc1
REMARK SMILES IDX 6 1 5 2 4 3 3 4 2 5 16 6 17 7 1 8 7 10 8 11 15 12 9 13 13 14
REMARK SMILES IDX 10 15 12 16 14 17 11 19
REMARK H PARENT 1 9 14 18 11 20
REMARK Flexibility Score: inf
ROOT
ATOM      1  C   UNL     1      -3.656  67.194 -20.003  1.00  0.00     0.040 C 
ENDROOT
BRANCH   1   2
ATOM      2  C   UNL     1      -2.249  67.430 -20.482  1.00  0.00    -0.047 A 
ATOM      3  C   UNL     1      -1.450  66.350 -20.892  1.00  0.00     0.007 A 
ATOM      4  C   UNL     1      -0.132  66.566 -21.306  1.00  0.00     0.046 A 
ATOM      5  C   UNL     1       0.403  67.861 -21.304  1.00  0.00     0.115 A 
ATOM      6  C   UNL     1      -1.705  68.724 -20.470  1.00  0.00     0.007 A 
ATOM      7  C   UNL     1      -0.386  68.937 -20.883  1.00  0.00     0.046 A 
BRANCH   5   8
ATOM      8  O   UNL     1       1.715  68.089 -21.713  1.00  0.00    -0.508 OA
ATOM      9  H   UNL     1       2.500  67.662 -21.235  1.00  0.00     0.293 HD
ENDBRANCH   5   8
ENDBRANCH   1   2
BRANCH   1  10
ATOM     10  C   UNL     1      -4.474  68.486 -20.077  1.00  0.00     0.040 C 
BRANCH  10  11
ATOM     11  C   UNL     1      -5.834  68.219 -20.667  1.00  0.00    -0.040 A 
ATOM     12  C   UNL     1      -6.137  68.645 -21.969  1.00  0.00     0.050 A 
ATOM     13  C   UNL     1      -6.826  67.592 -19.897  1.00  0.00     0.050 A 
ATOM     14  C   UNL     1      -7.413  68.425 -22.506  1.00  0.00     0.119 A 
ATOM     15  C   UNL     1      -8.101  67.372 -20.431  1.00  0.00     0.119 A 
ATOM     16  C   UNL     1      -8.391  67.787 -21.737  1.00  0.00     0.092 A 
BRANCH  14  17
ATOM     17  O   UNL     1      -7.720  68.841 -23.800  1.00  0.00    -0.508 OA
ATOM     18  H   UNL     1      -7.454  69.757 -24.140  1.00  0.00     0.293 HD
ENDBRANCH  14  17
BRANCH  15  19
ATOM     19  O   UNL     1      -9.071  66.743 -19.654  1.00  0.00    -0.508 OA
ATOM     20  H   UNL     1      -8.824  66.052 -18.954  1.00  0.00     0.293 HD
ENDBRANCH  15  19
ENDBRANCH  10  11
ENDBRANCH   1  10
TORSDOF 6
ENDMDL
MODEL 6
REMARK VINA RESULT:    -6.901      3.335      3.801
REMARK INTER + INTRA:          -9.264
REMARK INTER:                  -8.690
REMARK INTRA:                  -0.574
REMARK UNBOUND:                -0.547
REMARK SMILES Oc1ccc(CCc2cc(O)cc(O)c2)cc1
REMARK SMILES IDX 6 1 5 2 4 3 3 4 2 5 16 6 17 7 1 8 7 10 8 11 15 12 9 13 13 14
REMARK SMILES IDX 10 15 12 16 14 17 11 19
REMARK H PARENT 1 9 14 18 11 20
REMARK Flexibility Score: inf
ROOT
ATOM      1  C   UNL     1      -5.232  68.652 -20.718  1.00  0.00     0.040 C 
ENDROOT
BRANCH   1   2
ATOM      2  C   UNL     1      -6.510  67.958 -20.331  1.00  0.00    -0.047 A 
ATOM      3  C   UNL     1      -6.724  67.556 -19.002  1.00  0.00     0.007 A 
ATOM      4  C   UNL     1      -7.896  66.881 -18.649  1.00  0.00     0.046 A 
ATOM      5  C   UNL     1      -8.862  66.593 -19.623  1.00  0.00     0.115 A 
ATOM      6  C   UNL     1      -7.474  67.655 -21.305  1.00  0.00     0.007 A 
ATOM      7  C   UNL     1      -8.646  66.980 -20.950  1.00  0.00     0.046 A 
BRANCH   5   8
ATOM      8  O   UNL     1     -10.034  65.921 -19.284  1.00  0.00    -0.508 OA
ATOM      9  H   UNL     1     -10.403  65.943 -18.341  1.00  0.00     0.293 HD
ENDBRANCH   5   8
ENDBRANCH   1   2
BRANCH   1  10
ATOM     10  C   UNL     1      -4.161  68.447 -19.643  1.00  0.00     0.040 C 
BRANCH  10  11
ATOM     11  C   UNL     1      -3.038  67.595 -20.171  1.00  0.00    -0.040 A 
ATOM     12  C   UNL     1      -3.041  66.208 -19.958  1.00  0.00     0.050 A 
ATOM     13  C   UNL     1      -1.950  68.189 -20.831  1.00  0.00     0.050 A 
ATOM     14  C   UNL     1      -1.980  65.418 -20.421  1.00  0.00     0.119 A 
ATOM     15  C   UNL     1      -0.889  67.403 -21.294  1.00  0.00     0.119 A 
ATOM     16  C   UNL     1      -0.908  66.017 -21.090  1.00  0.00     0.092 A 
BRANCH  14  17
ATOM     17  O   UNL     1      -1.979  64.040 -20.218  1.00  0.00    -0.508 OA
ATOM     18  H   UNL     1      -2.629  63.432 -20.703  1.00  0.00     0.293 HD
ENDBRANCH  14  17
BRANCH  15  19
ATOM     19  O   UNL     1       0.178  68.009 -21.952  1.00  0.00    -0.508 OA
ATOM     20  H   UNL     1       1.056  67.523 -22.097  1.00  0.00     0.293 HD
ENDBRANCH  15  19
ENDBRANCH  10  11
ENDBRANCH   1  10
TORSDOF 6
ENDMDL
MODEL 7
REMARK VINA RESULT:    -6.721      1.895      5.987
REMARK INTER + INTRA:          -9.037
REMARK INTER:                  -8.287
REMARK INTRA:                  -0.750
REMARK UNBOUND:                -0.547
REMARK SMILES Oc1ccc(CCc2cc(O)cc(O)c2)cc1
REMARK SMILES IDX 6 1 5 2 4 3 3 4 2 5 16 6 17 7 1 8 7 10 8 11 15 12 9 13 13 14
REMARK SMILES IDX 10 15 12 16 14 17 11 19
REMARK H PARENT 1 9 14 18 11 20
REMARK Flexibility Score: inf
ROOT
ATOM      1  C   UNL     1      -3.019  68.264 -22.793  1.00  0.00     0.040 C 
ENDROOT
BRANCH   1   2
ATOM      2  C   UNL     1      -3.445  68.048 -24.219  1.00  0.00    -0.047 A 
ATOM      3  C   UNL     1      -4.574  68.711 -24.730  1.00  0.00     0.007 A 
ATOM      4  C   UNL     1      -4.989  68.485 -26.045  1.00  0.00     0.046 A 
ATOM      5  C   UNL     1      -4.287  67.588 -26.860  1.00  0.00     0.115 A 
ATOM      6  C   UNL     1      -2.753  67.140 -25.036  1.00  0.00     0.007 A 
ATOM      7  C   UNL     1      -3.171  66.915 -26.351  1.00  0.00     0.046 A 
BRANCH   5   8
ATOM      8  O   UNL     1      -4.691  67.353 -28.173  1.00  0.00    -0.508 OA
ATOM      9  H   UNL     1      -4.536  66.459 -28.622  1.00  0.00     0.293 HD
ENDBRANCH   5   8
ENDBRANCH   1   2
BRANCH   1  10
ATOM     10  C   UNL     1      -3.277  67.006 -21.958  1.00  0.00     0.040 C 
BRANCH  10  11
ATOM     11  C   UNL     1      -4.708  66.964 -21.493  1.00  0.00    -0.040 A 
ATOM     12  C   UNL     1      -5.454  65.781 -21.604  1.00  0.00     0.050 A 
ATOM     13  C   UNL     1      -5.324  68.124 -20.997  1.00  0.00     0.050 A 
ATOM     14  C   UNL     1      -6.797  65.750 -21.202  1.00  0.00     0.119 A 
ATOM     15  C   UNL     1      -6.664  68.096 -20.595  1.00  0.00     0.119 A 
ATOM     16  C   UNL     1      -7.398  66.907 -20.696  1.00  0.00     0.092 A 
BRANCH  14  17
ATOM     17  O   UNL     1      -7.542  64.577 -21.304  1.00  0.00    -0.508 OA
ATOM     18  H   UNL     1      -8.541  64.568 -21.139  1.00  0.00     0.293 HD
ENDBRANCH  14  17
BRANCH  15  19
ATOM     19  O   UNL     1      -7.257  69.256 -20.100  1.00  0.00    -0.508 OA
ATOM     20  H   UNL     1      -7.016  69.626 -19.187  1.00  0.00     0.293 HD
ENDBRANCH  15  19
ENDBRANCH  10  11
ENDBRANCH   1  10
TORSDOF 6
ENDMDL
MODEL 8
REMARK VINA RESULT:    -6.709      3.004      5.486
REMARK INTER + INTRA:          -9.021
REMARK INTER:                  -8.329
REMARK INTRA:                  -0.692
REMARK UNBOUND:                -0.547
REMARK SMILES Oc1ccc(CCc2cc(O)cc(O)c2)cc1
REMARK SMILES IDX 6 1 5 2 4 3 3 4 2 5 16 6 17 7 1 8 7 10 8 11 15 12 9 13 13 14
REMARK SMILES IDX 10 15 12 16 14 17 11 19
REMARK H PARENT 1 9 14 18 11 20
REMARK Flexibility Score: inf
ROOT
ATOM      1  C   UNL     1      -3.840  66.603 -20.435  1.00  0.00     0.040 C 
ENDROOT
BRANCH   1   2
ATOM      2  C   UNL     1      -2.566  67.393 -20.560  1.00  0.00    -0.047 A 
ATOM      3  C   UNL     1      -1.466  66.859 -21.250  1.00  0.00     0.007 A 
ATOM      4  C   UNL     1      -0.271  67.579 -21.339  1.00  0.00     0.046 A 
ATOM      5  C   UNL     1      -0.162  68.837 -20.730  1.00  0.00     0.115 A 
ATOM      6  C   UNL     1      -2.447  68.647 -19.941  1.00  0.00     0.007 A 
ATOM      7  C   UNL     1      -1.251  69.366 -20.031  1.00  0.00     0.046 A 
BRANCH   5   8
ATOM      8  O   UNL     1       1.024  69.564 -20.811  1.00  0.00    -0.508 OA
ATOM      9  H   UNL     1       1.058  70.548 -20.568  1.00  0.00     0.293 HD
ENDBRANCH   5   8
ENDBRANCH   1   2
BRANCH   1  10
ATOM     10  C   UNL     1      -4.228  65.989 -21.783  1.00  0.00     0.040 C 
BRANCH  10  11
ATOM     11  C   UNL     1      -4.808  67.037 -22.695  1.00  0.00    -0.040 A 
ATOM     12  C   UNL     1      -6.119  67.499 -22.499  1.00  0.00     0.050 A 
ATOM     13  C   UNL     1      -4.061  67.520 -23.781  1.00  0.00     0.050 A 
ATOM     14  C   UNL     1      -6.671  68.452 -23.368  1.00  0.00     0.119 A 
ATOM     15  C   UNL     1      -4.610  68.471 -24.650  1.00  0.00     0.119 A 
ATOM     16  C   UNL     1      -5.914  68.937 -24.439  1.00  0.00     0.092 A 
BRANCH  14  17
ATOM     17  O   UNL     1      -7.969  68.919 -23.176  1.00  0.00    -0.508 OA
ATOM     18  H   UNL     1      -8.342  69.084 -22.249  1.00  0.00     0.293 HD
ENDBRANCH  14  17
BRANCH  15  19
ATOM     19  O   UNL     1      -3.852  68.942 -25.719  1.00  0.00    -0.508 OA
ATOM     20  H   UNL     1      -3.954  68.557 -26.652  1.00  0.00     0.293 HD
ENDBRANCH  15  19
ENDBRANCH  10  11
ENDBRANCH   1  10
TORSDOF 6
ENDMDL
MODEL 9
REMARK VINA RESULT:    -6.685      1.889      6.223
REMARK INTER + INTRA:          -8.991
REMARK INTER:                  -8.248
REMARK INTRA:                  -0.743
REMARK UNBOUND:                -0.547
REMARK SMILES Oc1ccc(CCc2cc(O)cc(O)c2)cc1
REMARK SMILES IDX 6 1 5 2 4 3 3 4 2 5 16 6 17 7 1 8 7 10 8 11 15 12 9 13 13 14
REMARK SMILES IDX 10 15 12 16 14 17 11 19
REMARK H PARENT 1 9 14 18 11 20
REMARK Flexibility Score: inf
ROOT
ATOM      1  C   UNL     1      -3.018  68.227 -22.819  1.00  0.00     0.040 C 
ENDROOT
BRANCH   1   2
ATOM      2  C   UNL     1      -3.446  68.017 -24.246  1.00  0.00    -0.047 A 
ATOM      3  C   UNL     1      -4.549  68.716 -24.766  1.00  0.00     0.007 A 
ATOM      4  C   UNL     1      -4.967  68.496 -26.081  1.00  0.00     0.046 A 
ATOM      5  C   UNL     1      -4.294  67.569 -26.888  1.00  0.00     0.115 A 
ATOM      6  C   UNL     1      -2.783  67.080 -25.054  1.00  0.00     0.007 A 
ATOM      7  C   UNL     1      -3.204  66.861 -26.370  1.00  0.00     0.046 A 
BRANCH   5   8
ATOM      8  O   UNL     1      -4.701  67.341 -28.200  1.00  0.00    -0.508 OA
ATOM      9  H   UNL     1      -4.037  67.095 -28.925  1.00  0.00     0.293 HD
ENDBRANCH   5   8
ENDBRANCH   1   2
BRANCH   1  10
ATOM     10  C   UNL     1      -3.327  66.987 -21.976  1.00  0.00     0.040 C 
BRANCH  10  11
ATOM     11  C   UNL     1      -4.776  66.972 -21.569  1.00  0.00    -0.040 A 
ATOM     12  C   UNL     1      -5.378  68.129 -21.051  1.00  0.00     0.050 A 
ATOM     13  C   UNL     1      -5.522  65.785 -21.653  1.00  0.00     0.050 A 
ATOM     14  C   UNL     1      -6.719  68.107 -20.641  1.00  0.00     0.119 A 
ATOM     15  C   UNL     1      -6.860  65.760 -21.244  1.00  0.00     0.119 A 
ATOM     16  C   UNL     1      -7.457  66.923 -20.741  1.00  0.00     0.092 A 
BRANCH  14  17
ATOM     17  O   UNL     1      -7.324  69.253 -20.131  1.00  0.00    -0.508 OA
ATOM     18  H   UNL     1      -6.786  69.974 -19.665  1.00  0.00     0.293 HD
ENDBRANCH  14  17
BRANCH  15  19
ATOM     19  O   UNL     1      -7.585  64.574 -21.340  1.00  0.00    -0.508 OA
ATOM     20  H   UNL     1      -8.514  64.488 -20.944  1.00  0.00     0.293 HD
ENDBRANCH  15  19
ENDBRANCH  10  11
ENDBRANCH   1  10
TORSDOF 6
ENDMDL
