MODEL 1
REMARK VINA RESULT:    -5.315      0.000      0.000
REMARK INTER + INTRA:          -9.772
REMARK INTER:                  -9.044
REMARK INTRA:                  -0.727
REMARK UNBOUND:                -0.727
REMARK SMILES CCCCCCCCCCCCCC(=O)[O-]
REMARK SMILES IDX 8 1 9 2 10 3 11 4 12 5 13 6 14 7 15 8 16 9 7 10 6 11 5 12
REMARK SMILES IDX 4 13 3 14 2 15 1 16
REMARK H PARENT
REMARK Flexibility Score: inf
ROOT
ATOM      1  C   UNL     1     -12.124 -66.710 -33.455  1.00  0.00     0.000 C 
ENDROOT
BRANCH   1   2
ATOM      2  C   UNL     1     -10.775 -66.311 -32.843  1.00  0.00     0.000 C 
BRANCH   2   3
ATOM      3  C   UNL     1     -10.104 -65.205 -33.666  1.00  0.00     0.000 C 
BRANCH   3   4
ATOM      4  C   UNL     1      -8.682 -64.931 -33.164  1.00  0.00     0.000 C 
BRANCH   4   5
ATOM      5  C   UNL     1      -7.872 -64.148 -34.204  1.00  0.00     0.006 C 
BRANCH   5   6
ATOM      6  C   UNL     1      -8.781 -63.586 -35.301  1.00  0.00     0.053 C 
BRANCH   6   7
ATOM      7  C   UNL     1      -7.965 -62.987 -36.402  1.00  0.00     0.041 C 
ATOM      8  O   UNL     1      -8.009 -63.476 -37.561  1.00  0.00    -0.550 OA
ATOM      9  O   UNL     1      -7.192 -61.858 -36.159  1.00  0.00    -0.550 OA
ENDBRANCH   6   7
ENDBRANCH   5   6
ENDBRANCH   4   5
ENDBRANCH   3   4
ENDBRANCH   2   3
ENDBRANCH   1   2
BRANCH   1  10
ATOM     10  C   UNL     1     -11.940 -67.286 -34.864  1.00  0.00     0.000 C 
BRANCH  10  11
ATOM     11  C   UNL     1     -13.295 -67.657 -35.487  1.00  0.00    -0.000 C 
BRANCH  11  12
ATOM     12  C   UNL     1     -14.477 -66.969 -34.787  1.00  0.00    -0.000 C 
BRANCH  12  13
ATOM     13  C   UNL     1     -15.746 -67.840 -34.769  1.00  0.00    -0.000 C 
BRANCH  13  14
ATOM     14  C   UNL     1     -16.724 -67.467 -35.903  1.00  0.00    -0.000 C 
BRANCH  14  15
ATOM     15  C   UNL     1     -16.514 -66.046 -36.453  1.00  0.00    -0.003 C 
ATOM     16  C   UNL     1     -16.266 -66.018 -37.960  1.00  0.00     0.004 C 
ENDBRANCH  14  15
ENDBRANCH  13  14
ENDBRANCH  12  13
ENDBRANCH  11  12
ENDBRANCH  10  11
ENDBRANCH   1  10
TORSDOF 12
ENDMDL
MODEL 2
REMARK VINA RESULT:    -5.315      3.685      7.690
REMARK INTER + INTRA:          -9.772
REMARK INTER:                  -9.010
REMARK INTRA:                  -0.762
REMARK UNBOUND:                -0.727
REMARK SMILES CCCCCCCCCCCCCC(=O)[O-]
REMARK SMILES IDX 8 1 9 2 10 3 11 4 12 5 13 6 14 7 15 8 16 9 7 10 6 11 5 12
REMARK SMILES IDX 4 13 3 14 2 15 1 16
REMARK H PARENT
REMARK Flexibility Score: inf
ROOT
ATOM      1  C   UNL     1     -13.227 -67.880 -35.317  1.00  0.00     0.000 C 
ENDROOT
BRANCH   1   2
ATOM      2  C   UNL     1     -14.130 -67.365 -36.444  1.00  0.00     0.000 C 
BRANCH   2   3
ATOM      3  C   UNL     1     -15.545 -67.079 -35.926  1.00  0.00     0.000 C 
BRANCH   3   4
ATOM      4  C   UNL     1     -15.938 -68.067 -34.822  1.00  0.00     0.000 C 
BRANCH   4   5
ATOM      5  C   UNL     1     -16.503 -67.332 -33.601  1.00  0.00     0.006 C 
BRANCH   5   6
ATOM      6  C   UNL     1     -15.768 -66.009 -33.366  1.00  0.00     0.053 C 
BRANCH   6   7
ATOM      7  C   UNL     1     -15.086 -66.018 -32.035  1.00  0.00     0.041 C 
ATOM      8  O   UNL     1     -13.833 -65.924 -31.965  1.00  0.00    -0.550 OA
ATOM      9  O   UNL     1     -15.839 -66.081 -30.868  1.00  0.00    -0.550 OA
ENDBRANCH   6   7
ENDBRANCH   5   6
ENDBRANCH   4   5
ENDBRANCH   3   4
ENDBRANCH   2   3
ENDBRANCH   1   2
BRANCH   1  10
ATOM     10  C   UNL     1     -11.870 -67.166 -35.330  1.00  0.00     0.000 C 
BRANCH  10  11
ATOM     11  C   UNL     1     -11.356 -66.935 -33.900  1.00  0.00    -0.000 C 
BRANCH  11  12
ATOM     12  C   UNL     1     -10.598 -65.606 -33.751  1.00  0.00    -0.000 C 
BRANCH  12  13
ATOM     13  C   UNL     1      -9.446 -65.691 -32.733  1.00  0.00    -0.000 C 
BRANCH  13  14
ATOM     14  C   UNL     1      -8.256 -64.791 -33.127  1.00  0.00    -0.000 C 
BRANCH  14  15
ATOM     15  C   UNL     1      -7.029 -64.961 -32.214  1.00  0.00    -0.003 C 
ATOM     16  C   UNL     1      -7.171 -66.120 -31.230  1.00  0.00     0.004 C 
ENDBRANCH  14  15
ENDBRANCH  13  14
ENDBRANCH  12  13
ENDBRANCH  11  12
ENDBRANCH  10  11
ENDBRANCH   1  10
TORSDOF 12
ENDMDL
MODEL 3
REMARK VINA RESULT:    -5.290      1.196      2.136
REMARK INTER + INTRA:          -9.728
REMARK INTER:                  -8.718
REMARK INTRA:                  -1.010
REMARK UNBOUND:                -0.727
REMARK SMILES CCCCCCCCCCCCCC(=O)[O-]
REMARK SMILES IDX 8 1 9 2 10 3 11 4 12 5 13 6 14 7 15 8 16 9 7 10 6 11 5 12
REMARK SMILES IDX 4 13 3 14 2 15 1 16
REMARK H PARENT
REMARK Flexibility Score: inf
ROOT
ATOM      1  C   UNL     1     -11.710 -66.876 -32.018  1.00  0.00     0.000 C 
ENDROOT
BRANCH   1   2
ATOM      2  C   UNL     1     -10.298 -66.828 -32.612  1.00  0.00     0.000 C 
BRANCH   2   3
ATOM      3  C   UNL     1     -10.022 -65.468 -33.266  1.00  0.00     0.000 C 
BRANCH   3   4
ATOM      4  C   UNL     1      -8.684 -64.891 -32.791  1.00  0.00     0.000 C 
BRANCH   4   5
ATOM      5  C   UNL     1      -7.887 -64.310 -33.965  1.00  0.00     0.006 C 
BRANCH   5   6
ATOM      6  C   UNL     1      -8.820 -63.831 -35.080  1.00  0.00     0.053 C 
BRANCH   6   7
ATOM      7  C   UNL     1      -8.030 -63.267 -36.219  1.00  0.00     0.041 C 
ATOM      8  O   UNL     1      -6.818 -62.965 -36.060  1.00  0.00    -0.550 OA
ATOM      9  O   UNL     1      -8.618 -63.121 -37.469  1.00  0.00    -0.550 OA
ENDBRANCH   6   7
ENDBRANCH   5   6
ENDBRANCH   4   5
ENDBRANCH   3   4
ENDBRANCH   2   3
ENDBRANCH   1   2
BRANCH   1  10
ATOM     10  C   UNL     1     -12.562 -65.706 -32.529  1.00  0.00     0.000 C 
BRANCH  10  11
ATOM     11  C   UNL     1     -14.015 -65.833 -32.047  1.00  0.00    -0.000 C 
BRANCH  11  12
ATOM     12  C   UNL     1     -15.034 -65.645 -33.182  1.00  0.00    -0.000 C 
BRANCH  12  13
ATOM     13  C   UNL     1     -15.350 -66.958 -33.921  1.00  0.00    -0.000 C 
BRANCH  13  14
ATOM     14  C   UNL     1     -15.342 -66.779 -35.454  1.00  0.00    -0.000 C 
BRANCH  14  15
ATOM     15  C   UNL     1     -14.297 -67.651 -36.170  1.00  0.00    -0.003 C 
ATOM     16  C   UNL     1     -12.925 -67.610 -35.501  1.00  0.00     0.004 C 
ENDBRANCH  14  15
ENDBRANCH  13  14
ENDBRANCH  12  13
ENDBRANCH  11  12
ENDBRANCH  10  11
ENDBRANCH   1  10
TORSDOF 12
ENDMDL
MODEL 4
REMARK VINA RESULT:    -5.251      5.551      8.448
REMARK INTER + INTRA:          -9.662
REMARK INTER:                  -9.170
REMARK INTRA:                  -0.492
REMARK UNBOUND:                -0.727
REMARK SMILES CCCCCCCCCCCCCC(=O)[O-]
REMARK SMILES IDX 8 1 9 2 10 3 11 4 12 5 13 6 14 7 15 8 16 9 7 10 6 11 5 12
REMARK SMILES IDX 4 13 3 14 2 15 1 16
REMARK H PARENT
REMARK Flexibility Score: inf
ROOT
ATOM      1  C   UNL     1      -8.830 -67.744 -29.999  1.00  0.00     0.000 C 
ENDROOT
BRANCH   1   2
ATOM      2  C   UNL     1      -9.063 -67.083 -31.362  1.00  0.00     0.000 C 
BRANCH   2   3
ATOM      3  C   UNL     1     -10.512 -67.276 -31.826  1.00  0.00     0.000 C 
BRANCH   3   4
ATOM      4  C   UNL     1     -10.890 -66.243 -32.893  1.00  0.00     0.000 C 
BRANCH   4   5
ATOM      5  C   UNL     1     -12.140 -66.682 -33.666  1.00  0.00     0.006 C 
BRANCH   5   6
ATOM      6  C   UNL     1     -11.764 -67.285 -35.023  1.00  0.00     0.053 C 
BRANCH   6   7
ATOM      7  C   UNL     1     -12.988 -67.504 -35.855  1.00  0.00     0.041 C 
ATOM      8  O   UNL     1     -12.894 -67.594 -37.108  1.00  0.00    -0.550 OA
ATOM      9  O   UNL     1     -14.226 -67.658 -35.244  1.00  0.00    -0.550 OA
ENDBRANCH   6   7
ENDBRANCH   5   6
ENDBRANCH   4   5
ENDBRANCH   3   4
ENDBRANCH   2   3
ENDBRANCH   1   2
BRANCH   1  10
ATOM     10  C   UNL     1     -10.101 -68.441 -29.500  1.00  0.00     0.000 C 
BRANCH  10  11
ATOM     11  C   UNL     1      -9.947 -68.884 -28.037  1.00  0.00    -0.000 C 
BRANCH  11  12
ATOM     12  C   UNL     1      -9.428 -67.759 -27.128  1.00  0.00    -0.000 C 
BRANCH  12  13
ATOM     13  C   UNL     1      -9.562 -68.094 -25.631  1.00  0.00    -0.000 C 
BRANCH  13  14
ATOM     14  C   UNL     1     -10.843 -67.496 -25.013  1.00  0.00    -0.000 C 
BRANCH  14  15
ATOM     15  C   UNL     1     -10.590 -66.226 -24.184  1.00  0.00    -0.003 C 
ATOM     16  C   UNL     1     -11.814 -65.778 -23.387  1.00  0.00     0.004 C 
ENDBRANCH  14  15
ENDBRANCH  13  14
ENDBRANCH  12  13
ENDBRANCH  11  12
ENDBRANCH  10  11
ENDBRANCH   1  10
TORSDOF 12
ENDMDL
MODEL 5
REMARK VINA RESULT:    -5.236      3.509      7.411
REMARK INTER + INTRA:          -9.636
REMARK INTER:                  -8.838
REMARK INTRA:                  -0.798
REMARK UNBOUND:                -0.727
REMARK SMILES CCCCCCCCCCCCCC(=O)[O-]
REMARK SMILES IDX 8 1 9 2 10 3 11 4 12 5 13 6 14 7 15 8 16 9 7 10 6 11 5 12
REMARK SMILES IDX 4 13 3 14 2 15 1 16
REMARK H PARENT
REMARK Flexibility Score: inf
ROOT
ATOM      1  C   UNL     1     -14.248 -67.229 -34.735  1.00  0.00     0.000 C 
ENDROOT
BRANCH   1   2
ATOM      2  C   UNL     1     -15.573 -67.937 -35.041  1.00  0.00     0.000 C 
BRANCH   2   3
ATOM      3  C   UNL     1     -16.764 -67.129 -34.512  1.00  0.00     0.000 C 
BRANCH   3   4
ATOM      4  C   UNL     1     -17.297 -66.170 -35.582  1.00  0.00     0.000 C 
BRANCH   4   5
ATOM      5  C   UNL     1     -17.237 -66.810 -36.975  1.00  0.00     0.006 C 
BRANCH   5   6
ATOM      6  C   UNL     1     -16.263 -66.056 -37.885  1.00  0.00     0.053 C 
BRANCH   6   7
ATOM      7  C   UNL     1     -15.652 -66.987 -38.883  1.00  0.00     0.041 C 
ATOM      8  O   UNL     1     -16.358 -67.489 -39.797  1.00  0.00    -0.550 OA
ATOM      9  O   UNL     1     -14.291 -67.264 -38.834  1.00  0.00    -0.550 OA
ENDBRANCH   6   7
ENDBRANCH   5   6
ENDBRANCH   4   5
ENDBRANCH   3   4
ENDBRANCH   2   3
ENDBRANCH   1   2
BRANCH   1  10
ATOM     10  C   UNL     1     -13.114 -67.783 -35.605  1.00  0.00     0.000 C 
BRANCH  10  11
ATOM     11  C   UNL     1     -11.742 -67.378 -35.044  1.00  0.00    -0.000 C 
BRANCH  11  12
ATOM     12  C   UNL     1     -11.844 -66.670 -33.684  1.00  0.00    -0.000 C 
BRANCH  12  13
ATOM     13  C   UNL     1     -10.659 -65.724 -33.416  1.00  0.00    -0.000 C 
BRANCH  13  14
ATOM     14  C   UNL     1      -9.729 -66.258 -32.306  1.00  0.00    -0.000 C 
BRANCH  14  15
ATOM     15  C   UNL     1     -10.371 -67.353 -31.439  1.00  0.00    -0.003 C 
ATOM     16  C   UNL     1      -9.533 -67.715 -30.214  1.00  0.00     0.004 C 
ENDBRANCH  14  15
ENDBRANCH  13  14
ENDBRANCH  12  13
ENDBRANCH  11  12
ENDBRANCH  10  11
ENDBRANCH   1  10
TORSDOF 12
ENDMDL
MODEL 6
REMARK VINA RESULT:    -5.206      8.242     10.185
REMARK INTER + INTRA:          -9.586
REMARK INTER:                  -8.939
REMARK INTRA:                  -0.647
REMARK UNBOUND:                -0.727
REMARK SMILES CCCCCCCCCCCCCC(=O)[O-]
REMARK SMILES IDX 8 1 9 2 10 3 11 4 12 5 13 6 14 7 15 8 16 9 7 10 6 11 5 12
REMARK SMILES IDX 4 13 3 14 2 15 1 16
REMARK H PARENT
REMARK Flexibility Score: inf
ROOT
ATOM      1  C   UNL     1     -10.115 -68.631 -27.331  1.00  0.00     0.000 C 
ENDROOT
BRANCH   1   2
ATOM      2  C   UNL     1     -10.248 -68.472 -25.812  1.00  0.00     0.000 C 
BRANCH   2   3
ATOM      3  C   UNL     1      -9.221 -67.469 -25.272  1.00  0.00     0.000 C 
BRANCH   3   4
ATOM      4  C   UNL     1      -9.914 -66.299 -24.565  1.00  0.00     0.000 C 
BRANCH   4   5
ATOM      5  C   UNL     1     -11.408 -66.582 -24.367  1.00  0.00     0.006 C 
BRANCH   5   6
ATOM      6  C   UNL     1     -12.074 -65.471 -23.549  1.00  0.00     0.053 C 
BRANCH   6   7
ATOM      7  C   UNL     1     -12.463 -65.977 -22.197  1.00  0.00     0.041 C 
ATOM      8  O   UNL     1     -11.578 -66.299 -21.362  1.00  0.00    -0.550 OA
ATOM      9  O   UNL     1     -13.804 -66.047 -21.840  1.00  0.00    -0.550 OA
ENDBRANCH   6   7
ENDBRANCH   5   6
ENDBRANCH   4   5
ENDBRANCH   3   4
ENDBRANCH   2   3
ENDBRANCH   1   2
BRANCH   1  10
ATOM     10  C   UNL     1      -9.028 -67.703 -27.888  1.00  0.00     0.000 C 
BRANCH  10  11
ATOM     11  C   UNL     1      -8.727 -68.030 -29.359  1.00  0.00    -0.000 C 
BRANCH  11  12
ATOM     12  C   UNL     1      -9.983 -67.994 -30.243  1.00  0.00    -0.000 C 
BRANCH  12  13
ATOM     13  C   UNL     1      -9.749 -67.264 -31.579  1.00  0.00    -0.000 C 
BRANCH  13  14
ATOM     14  C   UNL     1     -11.073 -66.868 -32.265  1.00  0.00    -0.000 C 
BRANCH  14  15
ATOM     15  C   UNL     1     -10.905 -65.795 -33.354  1.00  0.00    -0.003 C 
ATOM     16  C   UNL     1      -9.535 -65.120 -33.321  1.00  0.00     0.004 C 
ENDBRANCH  14  15
ENDBRANCH  13  14
ENDBRANCH  12  13
ENDBRANCH  11  12
ENDBRANCH  10  11
ENDBRANCH   1  10
TORSDOF 12
ENDMDL
MODEL 7
REMARK VINA RESULT:    -5.199      7.175      9.187
REMARK INTER + INTRA:          -9.574
REMARK INTER:                  -8.937
REMARK INTRA:                  -0.637
REMARK UNBOUND:                -0.727
REMARK SMILES CCCCCCCCCCCCCC(=O)[O-]
REMARK SMILES IDX 8 1 9 2 10 3 11 4 12 5 13 6 14 7 15 8 16 9 7 10 6 11 5 12
REMARK SMILES IDX 4 13 3 14 2 15 1 16
REMARK H PARENT
REMARK Flexibility Score: inf
ROOT
ATOM      1  C   UNL     1      -9.130 -69.227 -27.180  1.00  0.00     0.000 C 
ENDROOT
BRANCH   1   2
ATOM      2  C   UNL     1     -10.368 -68.446 -26.727  1.00  0.00     0.000 C 
BRANCH   2   3
ATOM      3  C   UNL     1     -10.050 -67.569 -25.509  1.00  0.00     0.000 C 
BRANCH   3   4
ATOM      4  C   UNL     1     -11.332 -66.996 -24.894  1.00  0.00     0.000 C 
BRANCH   4   5
ATOM      5  C   UNL     1     -11.078 -65.614 -24.280  1.00  0.00     0.006 C 
BRANCH   5   6
ATOM      6  C   UNL     1     -12.391 -64.952 -23.854  1.00  0.00     0.053 C 
BRANCH   6   7
ATOM      7  C   UNL     1     -13.197 -64.567 -25.053  1.00  0.00     0.041 C 
ATOM      8  O   UNL     1     -12.889 -63.546 -25.723  1.00  0.00    -0.550 OA
ATOM      9  O   UNL     1     -14.261 -65.363 -25.462  1.00  0.00    -0.550 OA
ENDBRANCH   6   7
ENDBRANCH   5   6
ENDBRANCH   4   5
ENDBRANCH   3   4
ENDBRANCH   2   3
ENDBRANCH   1   2
BRANCH   1  10
ATOM     10  C   UNL     1      -9.182 -69.517 -28.686  1.00  0.00     0.000 C 
BRANCH  10  11
ATOM     11  C   UNL     1      -9.748 -68.315 -29.457  1.00  0.00    -0.000 C 
BRANCH  11  12
ATOM     12  C   UNL     1      -8.673 -67.567 -30.262  1.00  0.00    -0.000 C 
BRANCH  12  13
ATOM     13  C   UNL     1      -9.205 -67.019 -31.598  1.00  0.00    -0.000 C 
BRANCH  13  14
ATOM     14  C   UNL     1     -10.718 -67.268 -31.768  1.00  0.00    -0.000 C 
BRANCH  14  15
ATOM     15  C   UNL     1     -11.404 -66.269 -32.715  1.00  0.00    -0.003 C 
ATOM     16  C   UNL     1     -12.822 -65.907 -32.279  1.00  0.00     0.004 C 
ENDBRANCH  14  15
ENDBRANCH  13  14
ENDBRANCH  12  13
ENDBRANCH  11  12
ENDBRANCH  10  11
ENDBRANCH   1  10
TORSDOF 12
ENDMDL
MODEL 8
REMARK VINA RESULT:    -5.152      5.377      8.576
REMARK INTER + INTRA:          -9.494
REMARK INTER:                  -8.815
REMARK INTRA:                  -0.679
REMARK UNBOUND:                -0.727
REMARK SMILES CCCCCCCCCCCCCC(=O)[O-]
REMARK SMILES IDX 8 1 9 2 10 3 11 4 12 5 13 6 14 7 15 8 16 9 7 10 6 11 5 12
REMARK SMILES IDX 4 13 3 14 2 15 1 16
REMARK H PARENT
REMARK Flexibility Score: inf
ROOT
ATOM      1  C   UNL     1     -10.783 -67.171 -31.719  1.00  0.00     0.000 C 
ENDROOT
BRANCH   1   2
ATOM      2  C   UNL     1     -11.009 -66.500 -33.079  1.00  0.00     0.000 C 
BRANCH   2   3
ATOM      3  C   UNL     1     -12.498 -66.490 -33.447  1.00  0.00     0.000 C 
BRANCH   3   4
ATOM      4  C   UNL     1     -13.355 -66.040 -32.259  1.00  0.00     0.000 C 
BRANCH   4   5
ATOM      5  C   UNL     1     -14.797 -65.756 -32.697  1.00  0.00     0.006 C 
BRANCH   5   6
ATOM      6  C   UNL     1     -15.152 -66.541 -33.963  1.00  0.00     0.053 C 
BRANCH   6   7
ATOM      7  C   UNL     1     -16.290 -67.475 -33.698  1.00  0.00     0.041 C 
ATOM      8  O   UNL     1     -16.555 -68.398 -34.511  1.00  0.00    -0.550 OA
ATOM      9  O   UNL     1     -17.030 -67.355 -32.527  1.00  0.00    -0.550 OA
ENDBRANCH   6   7
ENDBRANCH   5   6
ENDBRANCH   4   5
ENDBRANCH   3   4
ENDBRANCH   2   3
ENDBRANCH   1   2
BRANCH   1  10
ATOM     10  C   UNL     1      -9.294 -67.177 -31.349  1.00  0.00     0.000 C 
BRANCH  10  11
ATOM     11  C   UNL     1      -9.077 -67.781 -29.953  1.00  0.00    -0.000 C 
BRANCH  11  12
ATOM     12  C   UNL     1     -10.258 -68.651 -29.493  1.00  0.00    -0.000 C 
BRANCH  12  13
ATOM     13  C   UNL     1     -10.236 -68.931 -27.980  1.00  0.00    -0.000 C 
BRANCH  13  14
ATOM     14  C   UNL     1      -9.360 -67.917 -27.214  1.00  0.00    -0.000 C 
BRANCH  14  15
ATOM     15  C   UNL     1      -9.457 -68.052 -25.685  1.00  0.00    -0.003 C 
ATOM     16  C   UNL     1     -10.639 -67.287 -25.091  1.00  0.00     0.004 C 
ENDBRANCH  14  15
ENDBRANCH  13  14
ENDBRANCH  12  13
ENDBRANCH  11  12
ENDBRANCH  10  11
ENDBRANCH   1  10
TORSDOF 12
ENDMDL
MODEL 9
REMARK VINA RESULT:    -5.054      7.575      9.615
REMARK INTER + INTRA:          -9.327
REMARK INTER:                  -8.569
REMARK INTRA:                  -0.757
REMARK UNBOUND:                -0.727
REMARK SMILES CCCCCCCCCCCCCC(=O)[O-]
REMARK SMILES IDX 8 1 9 2 10 3 11 4 12 5 13 6 14 7 15 8 16 9 7 10 6 11 5 12
REMARK SMILES IDX 4 13 3 14 2 15 1 16
REMARK H PARENT
REMARK Flexibility Score: inf
ROOT
ATOM      1  C   UNL     1      -7.787 -66.933 -27.818  1.00  0.00     0.000 C 
ENDROOT
BRANCH   1   2
ATOM      2  C   UNL     1      -8.044 -66.057 -26.587  1.00  0.00     0.000 C 
BRANCH   2   3
ATOM      3  C   UNL     1      -8.641 -66.882 -25.440  1.00  0.00     0.000 C 
BRANCH   3   4
ATOM      4  C   UNL     1      -9.717 -66.087 -24.691  1.00  0.00     0.000 C 
BRANCH   4   5
ATOM      5  C   UNL     1     -11.110 -66.676 -24.941  1.00  0.00     0.006 C 
BRANCH   5   6
ATOM      6  C   UNL     1     -12.205 -65.663 -24.592  1.00  0.00     0.053 C 
BRANCH   6   7
ATOM      7  C   UNL     1     -13.483 -66.366 -24.260  1.00  0.00     0.041 C 
ATOM      8  O   UNL     1     -14.495 -66.223 -24.995  1.00  0.00    -0.550 OA
ATOM      9  O   UNL     1     -13.543 -67.220 -23.165  1.00  0.00    -0.550 OA
ENDBRANCH   6   7
ENDBRANCH   5   6
ENDBRANCH   4   5
ENDBRANCH   3   4
ENDBRANCH   2   3
ENDBRANCH   1   2
BRANCH   1  10
ATOM     10  C   UNL     1      -9.047 -67.715 -28.210  1.00  0.00     0.000 C 
BRANCH  10  11
ATOM     11  C   UNL     1      -9.022 -68.086 -29.701  1.00  0.00    -0.000 C 
BRANCH  11  12
ATOM     12  C   UNL     1      -8.116 -67.159 -30.527  1.00  0.00    -0.000 C 
BRANCH  12  13
ATOM     13  C   UNL     1      -8.838 -66.553 -31.745  1.00  0.00    -0.000 C 
BRANCH  13  14
ATOM     14  C   UNL     1     -10.284 -67.077 -31.883  1.00  0.00    -0.000 C 
BRANCH  14  15
ATOM     15  C   UNL     1     -11.158 -66.228 -32.822  1.00  0.00    -0.003 C 
ATOM     16  C   UNL     1     -12.596 -66.081 -32.330  1.00  0.00     0.004 C 
ENDBRANCH  14  15
ENDBRANCH  13  14
ENDBRANCH  12  13
ENDBRANCH  11  12
ENDBRANCH  10  11
ENDBRANCH   1  10
TORSDOF 12
ENDMDL
