MODEL 1
REMARK VINA RESULT:    -3.765      0.000      0.000
REMARK INTER + INTRA:          -3.875
REMARK INTER:                  -3.875
REMARK INTRA:                   0.000
REMARK UNBOUND:                 0.000
REMARK SMILES Nc1ncnc2nc[nH]c12
REMARK SMILES IDX 8 1 7 2 6 3 5 4 4 5 3 6 2 7 10 8 9 9 1 11
REMARK H PARENT 9 10 1 12 1 13
REMARK Flexibility Score: inf
ROOT
ATOM      1  C   UNL     1     146.995 127.916 135.111  1.00  0.00     0.199 A 
ATOM      2  N   UNL     1     146.829 128.054 133.767  1.00  0.00    -0.217 NA
ATOM      3  C   UNL     1     146.028 129.128 133.685  1.00  0.00     0.182 A 
ATOM      4  N   UNL     1     145.553 129.698 132.553  1.00  0.00    -0.215 NA
ATOM      5  C   UNL     1     144.744 130.796 132.673  1.00  0.00     0.226 A 
ATOM      6  N   UNL     1     144.430 131.297 133.911  1.00  0.00    -0.217 NA
ATOM      7  C   UNL     1     144.910 130.724 135.054  1.00  0.00     0.152 A 
ATOM      8  C   UNL     1     145.731 129.608 134.916  1.00  0.00     0.127 A 
ATOM      9  N   UNL     1     146.334 128.852 135.841  1.00  0.00    -0.340 N 
ATOM     10  H   UNL     1     146.312 128.948 136.879  1.00  0.00     0.168 HD
ENDROOT
BRANCH   7  11
ATOM     11  N   UNL     1     144.569 131.263 136.332  1.00  0.00    -0.382 N 
ATOM     12  H   UNL     1     144.991 130.891 137.210  1.00  0.00     0.158 HD
ATOM     13  H   UNL     1     143.884 132.049 136.401  1.00  0.00     0.158 HD
ENDBRANCH   7  11
TORSDOF 1
ENDMDL
MODEL 2
REMARK VINA RESULT:    -3.655     17.618     19.005
REMARK INTER + INTRA:          -3.762
REMARK INTER:                  -3.762
REMARK INTRA:                   0.000
REMARK UNBOUND:                 0.000
REMARK SMILES Nc1ncnc2nc[nH]c12
REMARK SMILES IDX 8 1 7 2 6 3 5 4 4 5 3 6 2 7 10 8 9 9 1 11
REMARK H PARENT 9 10 1 12 1 13
REMARK Flexibility Score: inf
ROOT
ATOM      1  C   UNL     1     145.611 141.140 120.907  1.00  0.00     0.199 A 
ATOM      2  N   UNL     1     144.982 141.770 119.877  1.00  0.00    -0.217 NA
ATOM      3  C   UNL     1     144.772 142.998 120.378  1.00  0.00     0.182 A 
ATOM      4  N   UNL     1     144.171 144.036 119.750  1.00  0.00    -0.215 NA
ATOM      5  C   UNL     1     144.047 145.218 120.428  1.00  0.00     0.226 A 
ATOM      6  N   UNL     1     144.525 145.338 121.709  1.00  0.00    -0.217 NA
ATOM      7  C   UNL     1     145.133 144.293 122.343  1.00  0.00     0.152 A 
ATOM      8  C   UNL     1     145.250 143.097 121.640  1.00  0.00     0.127 A 
ATOM      9  N   UNL     1     145.789 141.925 122.000  1.00  0.00    -0.340 N 
ATOM     10  H   UNL     1     146.242 141.664 122.903  1.00  0.00     0.168 HD
ENDROOT
BRANCH   7  11
ATOM     11  N   UNL     1     145.622 144.442 123.677  1.00  0.00    -0.382 N 
ATOM     12  H   UNL     1     146.283 145.207 123.932  1.00  0.00     0.158 HD
ATOM     13  H   UNL     1     145.318 143.776 124.422  1.00  0.00     0.158 HD
ENDBRANCH   7  11
TORSDOF 1
ENDMDL
MODEL 3
REMARK VINA RESULT:    -3.646     18.619     20.033
REMARK INTER + INTRA:          -3.752
REMARK INTER:                  -3.752
REMARK INTRA:                   0.000
REMARK UNBOUND:                 0.000
REMARK SMILES Nc1ncnc2nc[nH]c12
REMARK SMILES IDX 8 1 7 2 6 3 5 4 4 5 3 6 2 7 10 8 9 9 1 11
REMARK H PARENT 9 10 1 12 1 13
REMARK Flexibility Score: inf
ROOT
ATOM      1  C   UNL     1     143.314 146.410 120.737  1.00  0.00     0.199 A 
ATOM      2  N   UNL     1     143.019 145.424 119.845  1.00  0.00    -0.217 NA
ATOM      3  C   UNL     1     143.788 144.411 120.275  1.00  0.00     0.182 A 
ATOM      4  N   UNL     1     143.873 143.174 119.731  1.00  0.00    -0.215 NA
ATOM      5  C   UNL     1     144.719 142.269 120.313  1.00  0.00     0.226 A 
ATOM      6  N   UNL     1     145.454 142.615 121.418  1.00  0.00    -0.217 NA
ATOM      7  C   UNL     1     145.369 143.862 121.969  1.00  0.00     0.152 A 
ATOM      8  C   UNL     1     144.505 144.772 121.365  1.00  0.00     0.127 A 
ATOM      9  N   UNL     1     144.220 146.042 121.678  1.00  0.00    -0.340 N 
ATOM     10  H   UNL     1     144.598 146.623 122.458  1.00  0.00     0.168 HD
ENDROOT
BRANCH   7  11
ATOM     11  N   UNL     1     146.145 144.200 123.119  1.00  0.00    -0.382 N 
ATOM     12  H   UNL     1     146.220 145.185 123.455  1.00  0.00     0.158 HD
ATOM     13  H   UNL     1     146.652 143.453 123.645  1.00  0.00     0.158 HD
ENDBRANCH   7  11
TORSDOF 1
ENDMDL
MODEL 4
REMARK VINA RESULT:    -3.593     12.077     13.638
REMARK INTER + INTRA:          -3.698
REMARK INTER:                  -3.698
REMARK INTRA:                   0.000
REMARK UNBOUND:                 0.000
REMARK SMILES Nc1ncnc2nc[nH]c12
REMARK SMILES IDX 8 1 7 2 6 3 5 4 4 5 3 6 2 7 10 8 9 9 1 11
REMARK H PARENT 9 10 1 12 1 13
REMARK Flexibility Score: inf
ROOT
ATOM      1  C   UNL     1     143.193 130.162 120.790  1.00  0.00     0.199 A 
ATOM      2  N   UNL     1     143.479 131.160 119.908  1.00  0.00    -0.217 NA
ATOM      3  C   UNL     1     144.685 131.575 120.329  1.00  0.00     0.182 A 
ATOM      4  N   UNL     1     145.433 132.565 119.787  1.00  0.00    -0.215 NA
ATOM      5  C   UNL     1     146.644 132.846 120.359  1.00  0.00     0.226 A 
ATOM      6  N   UNL     1     147.080 132.137 121.449  1.00  0.00    -0.217 NA
ATOM      7  C   UNL     1     146.327 131.137 121.996  1.00  0.00     0.152 A 
ATOM      8  C   UNL     1     145.097 130.864 121.404  1.00  0.00     0.127 A 
ATOM      9  N   UNL     1     144.163 129.958 121.717  1.00  0.00    -0.340 N 
ATOM     10  H   UNL     1     144.167 129.255 122.488  1.00  0.00     0.168 HD
ENDROOT
BRANCH   7  11
ATOM     11  N   UNL     1     146.801 130.413 123.132  1.00  0.00    -0.382 N 
ATOM     12  H   UNL     1     146.737 130.808 124.095  1.00  0.00     0.158 HD
ATOM     13  H   UNL     1     147.224 129.465 123.009  1.00  0.00     0.158 HD
ENDBRANCH   7  11
TORSDOF 1
ENDMDL
MODEL 5
REMARK VINA RESULT:    -3.564      0.927      2.936
REMARK INTER + INTRA:          -3.668
REMARK INTER:                  -3.668
REMARK INTRA:                   0.000
REMARK UNBOUND:                 0.000
REMARK SMILES Nc1ncnc2nc[nH]c12
REMARK SMILES IDX 8 1 7 2 6 3 5 4 4 5 3 6 2 7 10 8 9 9 1 11
REMARK H PARENT 9 10 1 12 1 13
REMARK Flexibility Score: inf
ROOT
ATOM      1  C   UNL     1     144.463 131.296 132.584  1.00  0.00     0.199 A 
ATOM      2  N   UNL     1     144.929 130.109 132.105  1.00  0.00    -0.217 NA
ATOM      3  C   UNL     1     145.617 129.628 133.153  1.00  0.00     0.182 A 
ATOM      4  N   UNL     1     146.289 128.454 133.208  1.00  0.00    -0.215 NA
ATOM      5  C   UNL     1     146.935 128.134 134.371  1.00  0.00     0.226 A 
ATOM      6  N   UNL     1     146.895 128.985 135.446  1.00  0.00    -0.217 NA
ATOM      7  C   UNL     1     146.217 130.170 135.393  1.00  0.00     0.152 A 
ATOM      8  C   UNL     1     145.566 130.482 134.202  1.00  0.00     0.127 A 
ATOM      9  N   UNL     1     144.837 131.552 133.864  1.00  0.00    -0.340 N 
ATOM     10  H   UNL     1     144.603 132.391 134.439  1.00  0.00     0.168 HD
ENDROOT
BRANCH   7  11
ATOM     11  N   UNL     1     146.190 131.040 136.525  1.00  0.00    -0.382 N 
ATOM     12  H   UNL     1     146.566 130.741 137.451  1.00  0.00     0.158 HD
ATOM     13  H   UNL     1     145.789 132.001 136.435  1.00  0.00     0.158 HD
ENDBRANCH   7  11
TORSDOF 1
ENDMDL
MODEL 6
REMARK VINA RESULT:    -3.540     23.872     24.775
REMARK INTER + INTRA:          -3.644
REMARK INTER:                  -3.644
REMARK INTRA:                   0.000
REMARK UNBOUND:                 0.000
REMARK SMILES Nc1ncnc2nc[nH]c12
REMARK SMILES IDX 8 1 7 2 6 3 5 4 4 5 3 6 2 7 10 8 9 9 1 11
REMARK H PARENT 9 10 1 12 1 13
REMARK Flexibility Score: inf
ROOT
ATOM      1  C   UNL     1     135.493 146.550 120.715  1.00  0.00     0.199 A 
ATOM      2  N   UNL     1     134.609 146.329 119.702  1.00  0.00    -0.217 NA
ATOM      3  C   UNL     1     133.425 146.431 120.328  1.00  0.00     0.182 A 
ATOM      4  N   UNL     1     132.201 146.296 119.767  1.00  0.00    -0.215 NA
ATOM      5  C   UNL     1     131.103 146.435 120.572  1.00  0.00     0.226 A 
ATOM      6  N   UNL     1     131.250 146.706 121.909  1.00  0.00    -0.217 NA
ATOM      7  C   UNL     1     132.485 146.844 122.477  1.00  0.00     0.152 A 
ATOM      8  C   UNL     1     133.592 146.699 121.644  1.00  0.00     0.127 A 
ATOM      9  N   UNL     1     134.901 146.778 121.915  1.00  0.00    -0.340 N 
ATOM     10  H   UNL     1     135.369 146.970 122.828  1.00  0.00     0.168 HD
ENDROOT
BRANCH   7  11
ATOM     11  N   UNL     1     132.614 147.125 123.871  1.00  0.00    -0.382 N 
ATOM     12  H   UNL     1     132.998 146.418 124.535  1.00  0.00     0.158 HD
ATOM     13  H   UNL     1     132.322 148.056 124.245  1.00  0.00     0.158 HD
ENDBRANCH   7  11
TORSDOF 1
ENDMDL
MODEL 7
REMARK VINA RESULT:    -3.487      1.180      3.302
REMARK INTER + INTRA:          -3.589
REMARK INTER:                  -3.589
REMARK INTRA:                   0.000
REMARK UNBOUND:                 0.000
REMARK SMILES Nc1ncnc2nc[nH]c12
REMARK SMILES IDX 8 1 7 2 6 3 5 4 4 5 3 6 2 7 10 8 9 9 1 11
REMARK H PARENT 9 10 1 12 1 13
REMARK Flexibility Score: inf
ROOT
ATOM      1  C   UNL     1     145.604 131.831 136.027  1.00  0.00     0.199 A 
ATOM      2  N   UNL     1     146.385 130.812 136.481  1.00  0.00    -0.217 NA
ATOM      3  C   UNL     1     146.402 129.975 135.431  1.00  0.00     0.182 A 
ATOM      4  N   UNL     1     147.048 128.788 135.354  1.00  0.00    -0.215 NA
ATOM      5  C   UNL     1     146.946 128.071 134.192  1.00  0.00     0.226 A 
ATOM      6  N   UNL     1     146.208 128.553 133.141  1.00  0.00    -0.217 NA
ATOM      7  C   UNL     1     145.557 129.751 133.216  1.00  0.00     0.152 A 
ATOM      8  C   UNL     1     145.670 130.467 134.404  1.00  0.00     0.127 A 
ATOM      9  N   UNL     1     145.151 131.649 134.761  1.00  0.00    -0.340 N 
ATOM     10  H   UNL     1     144.541 132.289 134.206  1.00  0.00     0.168 HD
ENDROOT
BRANCH   7  11
ATOM     11  N   UNL     1     144.795 130.231 132.108  1.00  0.00    -0.382 N 
ATOM     12  H   UNL     1     144.727 129.690 131.219  1.00  0.00     0.158 HD
ATOM     13  H   UNL     1     144.288 131.143 132.178  1.00  0.00     0.158 HD
ENDBRANCH   7  11
TORSDOF 1
ENDMDL
MODEL 8
REMARK VINA RESULT:    -3.404     25.313     27.038
REMARK INTER + INTRA:          -3.503
REMARK INTER:                  -3.503
REMARK INTRA:                   0.000
REMARK UNBOUND:                 0.000
REMARK SMILES Nc1ncnc2nc[nH]c12
REMARK SMILES IDX 8 1 7 2 6 3 5 4 4 5 3 6 2 7 10 8 9 9 1 11
REMARK H PARENT 9 10 1 12 1 13
REMARK Flexibility Score: inf
ROOT
ATOM      1  C   UNL     1     127.865 142.000 121.347  1.00  0.00     0.199 A 
ATOM      2  N   UNL     1     127.661 142.872 122.372  1.00  0.00    -0.217 NA
ATOM      3  C   UNL     1     127.518 144.042 121.729  1.00  0.00     0.182 A 
ATOM      4  N   UNL     1     127.290 145.251 122.293  1.00  0.00    -0.215 NA
ATOM      5  C   UNL     1     127.173 146.337 121.467  1.00  0.00     0.226 A 
ATOM      6  N   UNL     1     127.284 146.192 120.108  1.00  0.00    -0.217 NA
ATOM      7  C   UNL     1     127.513 144.972 119.537  1.00  0.00     0.152 A 
ATOM      8  C   UNL     1     127.631 143.878 120.390  1.00  0.00     0.127 A 
ATOM      9  N   UNL     1     127.852 142.585 120.122  1.00  0.00    -0.340 N 
ATOM     10  H   UNL     1     127.985 142.124 119.196  1.00  0.00     0.168 HD
ENDROOT
BRANCH   7  11
ATOM     11  N   UNL     1     127.626 144.846 118.119  1.00  0.00    -0.382 N 
ATOM     12  H   UNL     1     128.096 145.577 117.543  1.00  0.00     0.158 HD
ATOM     13  H   UNL     1     127.233 144.006 117.637  1.00  0.00     0.158 HD
ENDBRANCH   7  11
TORSDOF 1
ENDMDL
MODEL 9
REMARK VINA RESULT:    -3.369     12.345     13.848
REMARK INTER + INTRA:          -3.468
REMARK INTER:                  -3.468
REMARK INTRA:                   0.000
REMARK UNBOUND:                 0.000
REMARK SMILES Nc1ncnc2nc[nH]c12
REMARK SMILES IDX 8 1 7 2 6 3 5 4 4 5 3 6 2 7 10 8 9 9 1 11
REMARK H PARENT 9 10 1 12 1 13
REMARK Flexibility Score: inf
ROOT
ATOM      1  C   UNL     1     146.309 131.735 122.230  1.00  0.00     0.199 A 
ATOM      2  N   UNL     1     146.050 132.458 121.106  1.00  0.00    -0.217 NA
ATOM      3  C   UNL     1     145.050 131.761 120.541  1.00  0.00     0.182 A 
ATOM      4  N   UNL     1     144.413 132.056 119.384  1.00  0.00    -0.215 NA
ATOM      5  C   UNL     1     143.413 131.221 118.967  1.00  0.00     0.226 A 
ATOM      6  N   UNL     1     143.072 130.119 119.709  1.00  0.00    -0.217 NA
ATOM      7  C   UNL     1     143.713 129.820 120.877  1.00  0.00     0.152 A 
ATOM      8  C   UNL     1     144.729 130.679 121.288  1.00  0.00     0.127 A 
ATOM      9  N   UNL     1     145.518 130.640 122.369  1.00  0.00    -0.340 N 
ATOM     10  H   UNL     1     145.531 129.941 123.143  1.00  0.00     0.168 HD
ENDROOT
BRANCH   7  11
ATOM     11  N   UNL     1     143.342 128.667 121.633  1.00  0.00    -0.382 N 
ATOM     12  H   UNL     1     143.085 128.736 122.641  1.00  0.00     0.158 HD
ATOM     13  H   UNL     1     143.322 127.727 121.176  1.00  0.00     0.158 HD
ENDBRANCH   7  11
TORSDOF 1
ENDMDL
