MODEL 1
REMARK VINA RESULT:    -4.180      0.000      0.000
REMARK INTER + INTRA:          -6.869
REMARK INTER:                  -6.379
REMARK INTRA:                  -0.490
REMARK UNBOUND:                -0.490
REMARK SMILES O=C([O-])CCCCCCCCC(=O)[O-]
REMARK SMILES IDX 7 1 6 2 5 3 4 4 2 5 1 6 3 7 8 8 9 9 10 10 11 11 12 12 13 13
REMARK SMILES IDX 14 14
REMARK H PARENT
REMARK Flexibility Score: inf
ROOT
ATOM      1  C   UNL     1      17.781  -9.498  13.236  1.00  0.00     0.000 C 
ENDROOT
BRANCH   1   2
ATOM      2  C   UNL     1      16.820 -10.475  12.544  1.00  0.00     0.000 C 
BRANCH   2   3
ATOM      3  C   UNL     1      15.387  -9.924  12.432  1.00  0.00     0.006 C 
BRANCH   3   4
ATOM      4  C   UNL     1      14.290 -11.000  12.462  1.00  0.00     0.053 C 
BRANCH   4   5
ATOM      5  C   UNL     1      12.952 -10.430  12.822  1.00  0.00     0.041 C 
ATOM      6  O   UNL     1      12.798  -9.184  12.909  1.00  0.00    -0.550 OA
ATOM      7  O   UNL     1      11.885 -11.277  13.094  1.00  0.00    -0.550 OA
ENDBRANCH   4   5
ENDBRANCH   3   4
ENDBRANCH   2   3
ENDBRANCH   1   2
BRANCH   1   8
ATOM      8  C   UNL     1      17.914  -8.197  12.434  1.00  0.00     0.000 C 
BRANCH   8   9
ATOM      9  C   UNL     1      18.127  -6.994  13.366  1.00  0.00     0.000 C 
BRANCH   9  10
ATOM     10  C   UNL     1      16.981  -6.818  14.375  1.00  0.00     0.006 C 
BRANCH  10  11
ATOM     11  C   UNL     1      17.459  -6.892  15.831  1.00  0.00     0.053 C 
BRANCH  11  12
ATOM     12  C   UNL     1      16.628  -6.000  16.699  1.00  0.00     0.041 C 
ATOM     13  O   UNL     1      15.466  -5.672  16.342  1.00  0.00    -0.550 OA
ATOM     14  O   UNL     1      17.118  -5.572  17.926  1.00  0.00    -0.550 OA
ENDBRANCH  11  12
ENDBRANCH  10  11
ENDBRANCH   9  10
ENDBRANCH   8   9
ENDBRANCH   1   8
TORSDOF 9
ENDMDL
MODEL 2
REMARK VINA RESULT:    -4.172      1.349      5.988
REMARK INTER + INTRA:          -6.858
REMARK INTER:                  -6.349
REMARK INTRA:                  -0.509
REMARK UNBOUND:                -0.490
REMARK SMILES O=C([O-])CCCCCCCCC(=O)[O-]
REMARK SMILES IDX 7 1 6 2 5 3 4 4 2 5 1 6 3 7 8 8 9 9 10 10 11 11 12 12 13 13
REMARK SMILES IDX 14 14
REMARK H PARENT
REMARK Flexibility Score: inf
ROOT
ATOM      1  C   UNL     1      18.190  -9.067  13.628  1.00  0.00     0.000 C 
ENDROOT
BRANCH   1   2
ATOM      2  C   UNL     1      18.093  -7.771  12.809  1.00  0.00     0.000 C 
BRANCH   2   3
ATOM      3  C   UNL     1      17.638  -6.565  13.652  1.00  0.00     0.006 C 
BRANCH   3   4
ATOM      4  C   UNL     1      17.443  -6.875  15.145  1.00  0.00     0.053 C 
BRANCH   4   5
ATOM      5  C   UNL     1      16.284  -6.125  15.727  1.00  0.00     0.041 C 
ATOM      6  O   UNL     1      15.339  -5.745  14.987  1.00  0.00    -0.550 OA
ATOM      7  O   UNL     1      16.264  -5.818  17.082  1.00  0.00    -0.550 OA
ENDBRANCH   4   5
ENDBRANCH   3   4
ENDBRANCH   2   3
ENDBRANCH   1   2
BRANCH   1   8
ATOM      8  C   UNL     1      17.433 -10.209  12.939  1.00  0.00     0.000 C 
BRANCH   8   9
ATOM      9  C   UNL     1      16.230  -9.673  12.148  1.00  0.00     0.000 C 
BRANCH   9  10
ATOM     10  C   UNL     1      14.935 -10.446  12.443  1.00  0.00     0.006 C 
BRANCH  10  11
ATOM     11  C   UNL     1      15.070 -11.950  12.171  1.00  0.00     0.053 C 
BRANCH  11  12
ATOM     12  C   UNL     1      13.914 -12.694  12.762  1.00  0.00     0.041 C 
ATOM     13  O   UNL     1      13.958 -13.947  12.875  1.00  0.00    -0.550 OA
ATOM     14  O   UNL     1      12.808 -11.997  13.234  1.00  0.00    -0.550 OA
ENDBRANCH  11  12
ENDBRANCH  10  11
ENDBRANCH   9  10
ENDBRANCH   8   9
ENDBRANCH   1   8
TORSDOF 9
ENDMDL
MODEL 3
REMARK VINA RESULT:    -4.159      1.487      1.978
REMARK INTER + INTRA:          -6.837
REMARK INTER:                  -6.217
REMARK INTRA:                  -0.620
REMARK UNBOUND:                -0.490
REMARK SMILES O=C([O-])CCCCCCCCC(=O)[O-]
REMARK SMILES IDX 7 1 6 2 5 3 4 4 2 5 1 6 3 7 8 8 9 9 10 10 11 11 12 12 13 13
REMARK SMILES IDX 14 14
REMARK H PARENT
REMARK Flexibility Score: inf
ROOT
ATOM      1  C   UNL     1      17.360 -10.112  12.980  1.00  0.00     0.000 C 
ENDROOT
BRANCH   1   2
ATOM      2  C   UNL     1      16.256  -9.534  12.082  1.00  0.00     0.000 C 
BRANCH   2   3
ATOM      3  C   UNL     1      14.841  -9.872  12.586  1.00  0.00     0.006 C 
BRANCH   3   4
ATOM      4  C   UNL     1      14.349 -11.276  12.197  1.00  0.00     0.053 C 
BRANCH   4   5
ATOM      5  C   UNL     1      13.077 -11.640  12.899  1.00  0.00     0.041 C 
ATOM      6  O   UNL     1      12.198 -10.764  13.112  1.00  0.00    -0.550 OA
ATOM      7  O   UNL     1      12.877 -12.939  13.347  1.00  0.00    -0.550 OA
ENDBRANCH   4   5
ENDBRANCH   3   4
ENDBRANCH   2   3
ENDBRANCH   1   2
BRANCH   1   8
ATOM      8  C   UNL     1      18.210  -8.992  13.595  1.00  0.00     0.000 C 
BRANCH   8   9
ATOM      9  C   UNL     1      18.218  -7.749  12.692  1.00  0.00     0.000 C 
BRANCH   9  10
ATOM     10  C   UNL     1      17.994  -6.447  13.478  1.00  0.00     0.006 C 
BRANCH  10  11
ATOM     11  C   UNL     1      16.918  -6.589  14.562  1.00  0.00     0.053 C 
BRANCH  11  12
ATOM     12  C   UNL     1      15.685  -5.834  14.174  1.00  0.00     0.041 C 
ATOM     13  O   UNL     1      14.728  -5.724  14.986  1.00  0.00    -0.550 OA
ATOM     14  O   UNL     1      15.613  -5.210  12.935  1.00  0.00    -0.550 OA
ENDBRANCH  11  12
ENDBRANCH  10  11
ENDBRANCH   9  10
ENDBRANCH   8   9
ENDBRANCH   1   8
TORSDOF 9
ENDMDL
MODEL 4
REMARK VINA RESULT:    -4.116      1.410      2.021
REMARK INTER + INTRA:          -6.772
REMARK INTER:                  -6.177
REMARK INTRA:                  -0.595
REMARK UNBOUND:                -0.490
REMARK SMILES O=C([O-])CCCCCCCCC(=O)[O-]
REMARK SMILES IDX 7 1 6 2 5 3 4 4 2 5 1 6 3 7 8 8 9 9 10 10 11 11 12 12 13 13
REMARK SMILES IDX 14 14
REMARK H PARENT
REMARK Flexibility Score: inf
ROOT
ATOM      1  C   UNL     1      17.467 -10.008  13.000  1.00  0.00     0.000 C 
ENDROOT
BRANCH   1   2
ATOM      2  C   UNL     1      16.294  -9.506  12.144  1.00  0.00     0.000 C 
BRANCH   2   3
ATOM      3  C   UNL     1      15.018 -10.347  12.330  1.00  0.00     0.006 C 
BRANCH   3   4
ATOM      4  C   UNL     1      15.249 -11.866  12.288  1.00  0.00     0.053 C 
BRANCH   4   5
ATOM      5  C   UNL     1      14.058 -12.629  12.781  1.00  0.00     0.041 C 
ATOM      6  O   UNL     1      14.092 -13.886  12.843  1.00  0.00    -0.550 OA
ATOM      7  O   UNL     1      12.898 -11.954  13.138  1.00  0.00    -0.550 OA
ENDBRANCH   4   5
ENDBRANCH   3   4
ENDBRANCH   2   3
ENDBRANCH   1   2
BRANCH   1   8
ATOM      8  C   UNL     1      18.208  -8.836  13.658  1.00  0.00     0.000 C 
BRANCH   8   9
ATOM      9  C   UNL     1      18.215  -7.605  12.739  1.00  0.00     0.000 C 
BRANCH   9  10
ATOM     10  C   UNL     1      17.835  -6.312  13.478  1.00  0.00     0.006 C 
BRANCH  10  11
ATOM     11  C   UNL     1      16.392  -6.333  13.998  1.00  0.00     0.053 C 
BRANCH  11  12
ATOM     12  C   UNL     1      16.370  -6.161  15.484  1.00  0.00     0.041 C 
ATOM     13  O   UNL     1      17.369  -6.493  16.175  1.00  0.00    -0.550 OA
ATOM     14  O   UNL     1      15.266  -5.587  16.101  1.00  0.00    -0.550 OA
ENDBRANCH  11  12
ENDBRANCH  10  11
ENDBRANCH   9  10
ENDBRANCH   8   9
ENDBRANCH   1   8
TORSDOF 9
ENDMDL
MODEL 5
REMARK VINA RESULT:    -4.027      1.754      4.998
REMARK INTER + INTRA:          -6.636
REMARK INTER:                  -5.790
REMARK INTRA:                  -0.845
REMARK UNBOUND:                -0.490
REMARK SMILES O=C([O-])CCCCCCCCC(=O)[O-]
REMARK SMILES IDX 7 1 6 2 5 3 4 4 2 5 1 6 3 7 8 8 9 9 10 10 11 11 12 12 13 13
REMARK SMILES IDX 14 14
REMARK H PARENT
REMARK Flexibility Score: inf
ROOT
ATOM      1  C   UNL     1      17.910  -7.811  14.459  1.00  0.00     0.000 C 
ENDROOT
BRANCH   1   2
ATOM      2  C   UNL     1      17.939  -6.724  13.374  1.00  0.00     0.000 C 
BRANCH   2   3
ATOM      3  C   UNL     1      16.788  -5.712  13.512  1.00  0.00     0.006 C 
BRANCH   3   4
ATOM      4  C   UNL     1      15.780  -6.048  14.623  1.00  0.00     0.053 C 
BRANCH   4   5
ATOM      5  C   UNL     1      14.425  -5.473  14.345  1.00  0.00     0.041 C 
ATOM      6  O   UNL     1      13.730  -5.005  15.284  1.00  0.00    -0.550 OA
ATOM      7  O   UNL     1      13.916  -5.486  13.052  1.00  0.00    -0.550 OA
ENDBRANCH   4   5
ENDBRANCH   3   4
ENDBRANCH   2   3
ENDBRANCH   1   2
BRANCH   1   8
ATOM      8  C   UNL     1      18.174  -9.197  13.855  1.00  0.00     0.000 C 
BRANCH   8   9
ATOM      9  C   UNL     1      17.537  -9.321  12.462  1.00  0.00     0.000 C 
BRANCH   9  10
ATOM     10  C   UNL     1      16.169 -10.021  12.497  1.00  0.00     0.006 C 
BRANCH  10  11
ATOM     11  C   UNL     1      15.000  -9.030  12.568  1.00  0.00     0.053 C 
BRANCH  11  12
ATOM     12  C   UNL     1      13.707  -9.761  12.748  1.00  0.00     0.041 C 
ATOM     13  O   UNL     1      13.692 -11.018  12.803  1.00  0.00    -0.550 OA
ATOM     14  O   UNL     1      12.523  -9.050  12.904  1.00  0.00    -0.550 OA
ENDBRANCH  11  12
ENDBRANCH  10  11
ENDBRANCH   9  10
ENDBRANCH   8   9
ENDBRANCH   1   8
TORSDOF 9
ENDMDL
MODEL 6
REMARK VINA RESULT:    -3.993      1.711      2.349
REMARK INTER + INTRA:          -6.584
REMARK INTER:                  -6.222
REMARK INTRA:                  -0.363
REMARK UNBOUND:                -0.490
REMARK SMILES O=C([O-])CCCCCCCCC(=O)[O-]
REMARK SMILES IDX 7 1 6 2 5 3 4 4 2 5 1 6 3 7 8 8 9 9 10 10 11 11 12 12 13 13
REMARK SMILES IDX 14 14
REMARK H PARENT
REMARK Flexibility Score: inf
ROOT
ATOM      1  C   UNL     1      17.363  -7.774  12.858  1.00  0.00     0.000 C 
ENDROOT
BRANCH   1   2
ATOM      2  C   UNL     1      18.042  -8.982  13.522  1.00  0.00     0.000 C 
BRANCH   2   3
ATOM      3  C   UNL     1      17.453 -10.327  13.059  1.00  0.00     0.006 C 
BRANCH   3   4
ATOM      4  C   UNL     1      16.152 -10.203  12.250  1.00  0.00     0.053 C 
BRANCH   4   5
ATOM      5  C   UNL     1      15.278 -11.409  12.403  1.00  0.00     0.041 C 
ATOM      6  O   UNL     1      14.063 -11.277  12.707  1.00  0.00    -0.550 OA
ATOM      7  O   UNL     1      15.813 -12.681  12.244  1.00  0.00    -0.550 OA
ENDBRANCH   4   5
ENDBRANCH   3   4
ENDBRANCH   2   3
ENDBRANCH   1   2
BRANCH   1   8
ATOM      8  C   UNL     1      17.440  -6.536  13.761  1.00  0.00     0.000 C 
BRANCH   8   9
ATOM      9  C   UNL     1      17.365  -6.931  15.244  1.00  0.00     0.000 C 
BRANCH   9  10
ATOM     10  C   UNL     1      16.992  -5.749  16.152  1.00  0.00     0.006 C 
BRANCH  10  11
ATOM     11  C   UNL     1      16.497  -6.199  17.533  1.00  0.00     0.053 C 
BRANCH  11  12
ATOM     12  C   UNL     1      16.089  -5.015  18.352  1.00  0.00     0.041 C 
ATOM     13  O   UNL     1      14.962  -4.482  18.178  1.00  0.00    -0.550 OA
ATOM     14  O   UNL     1      16.934  -4.530  19.343  1.00  0.00    -0.550 OA
ENDBRANCH  11  12
ENDBRANCH  10  11
ENDBRANCH   9  10
ENDBRANCH   8   9
ENDBRANCH   1   8
TORSDOF 9
ENDMDL
MODEL 7
REMARK VINA RESULT:    -3.914      1.732      2.284
REMARK INTER + INTRA:          -6.463
REMARK INTER:                  -5.685
REMARK INTRA:                  -0.778
REMARK UNBOUND:                -0.490
REMARK SMILES O=C([O-])CCCCCCCCC(=O)[O-]
REMARK SMILES IDX 7 1 6 2 5 3 4 4 2 5 1 6 3 7 8 8 9 9 10 10 11 11 12 12 13 13
REMARK SMILES IDX 14 14
REMARK H PARENT
REMARK Flexibility Score: inf
ROOT
ATOM      1  C   UNL     1      18.251  -8.926  13.420  1.00  0.00     0.000 C 
ENDROOT
BRANCH   1   2
ATOM      2  C   UNL     1      17.367 -10.087  12.941  1.00  0.00     0.000 C 
BRANCH   2   3
ATOM      3  C   UNL     1      16.287  -9.641  11.938  1.00  0.00     0.006 C 
BRANCH   3   4
ATOM      4  C   UNL     1      14.905  -9.396  12.564  1.00  0.00     0.053 C 
BRANCH   4   5
ATOM      5  C   UNL     1      14.030 -10.610  12.487  1.00  0.00     0.041 C 
ATOM      6  O   UNL     1      14.446 -11.655  11.921  1.00  0.00    -0.550 OA
ATOM      7  O   UNL     1      12.744 -10.575  13.012  1.00  0.00    -0.550 OA
ENDBRANCH   4   5
ENDBRANCH   3   4
ENDBRANCH   2   3
ENDBRANCH   1   2
BRANCH   1   8
ATOM      8  C   UNL     1      18.233  -7.770  12.412  1.00  0.00     0.000 C 
BRANCH   8   9
ATOM      9  C   UNL     1      18.121  -6.416  13.130  1.00  0.00     0.000 C 
BRANCH   9  10
ATOM     10  C   UNL     1      16.708  -5.816  13.045  1.00  0.00     0.006 C 
BRANCH  10  11
ATOM     11  C   UNL     1      15.835  -6.187  14.250  1.00  0.00     0.053 C 
BRANCH  11  12
ATOM     12  C   UNL     1      14.591  -5.356  14.270  1.00  0.00     0.041 C 
ATOM     13  O   UNL     1      13.903  -5.270  15.321  1.00  0.00    -0.550 OA
ATOM     14  O   UNL     1      14.220  -4.635  13.142  1.00  0.00    -0.550 OA
ENDBRANCH  11  12
ENDBRANCH  10  11
ENDBRANCH   9  10
ENDBRANCH   8   9
ENDBRANCH   1   8
TORSDOF 9
ENDMDL
MODEL 8
REMARK VINA RESULT:    -3.830      2.516      6.026
REMARK INTER + INTRA:          -6.335
REMARK INTER:                  -5.731
REMARK INTRA:                  -0.604
REMARK UNBOUND:                -0.490
REMARK SMILES O=C([O-])CCCCCCCCC(=O)[O-]
REMARK SMILES IDX 7 1 6 2 5 3 4 4 2 5 1 6 3 7 8 8 9 9 10 10 11 11 12 12 13 13
REMARK SMILES IDX 14 14
REMARK H PARENT
REMARK Flexibility Score: inf
ROOT
ATOM      1  C   UNL     1      15.264  -6.413  13.061  1.00  0.00     0.000 C 
ENDROOT
BRANCH   1   2
ATOM      2  C   UNL     1      15.905  -6.266  14.449  1.00  0.00     0.000 C 
BRANCH   2   3
ATOM      3  C   UNL     1      17.400  -6.633  14.458  1.00  0.00     0.006 C 
BRANCH   3   4
ATOM      4  C   UNL     1      17.858  -7.451  13.240  1.00  0.00     0.053 C 
BRANCH   4   5
ATOM      5  C   UNL     1      18.054  -8.898  13.576  1.00  0.00     0.041 C 
ATOM      6  O   UNL     1      18.522  -9.230  14.696  1.00  0.00    -0.550 OA
ATOM      7  O   UNL     1      17.751  -9.877  12.638  1.00  0.00    -0.550 OA
ENDBRANCH   4   5
ENDBRANCH   3   4
ENDBRANCH   2   3
ENDBRANCH   1   2
BRANCH   1   8
ATOM      8  C   UNL     1      14.075  -7.382  13.105  1.00  0.00     0.000 C 
BRANCH   8   9
ATOM      9  C   UNL     1      14.208  -8.465  12.024  1.00  0.00     0.000 C 
BRANCH   9  10
ATOM     10  C   UNL     1      14.398  -9.871  12.615  1.00  0.00     0.006 C 
BRANCH  10  11
ATOM     11  C   UNL     1      13.339 -10.866  12.124  1.00  0.00     0.053 C 
BRANCH  11  12
ATOM     12  C   UNL     1      13.645 -12.243  12.624  1.00  0.00     0.041 C 
ATOM     13  O   UNL     1      12.833 -12.838  13.380  1.00  0.00    -0.550 OA
ATOM     14  O   UNL     1      14.805 -12.889  12.214  1.00  0.00    -0.550 OA
ENDBRANCH  11  12
ENDBRANCH  10  11
ENDBRANCH   9  10
ENDBRANCH   8   9
ENDBRANCH   1   8
TORSDOF 9
ENDMDL
