MODEL 1
REMARK VINA RESULT:     5.626      0.000      0.000
REMARK INTER + INTRA:           7.725
REMARK INTER:                   6.942
REMARK INTRA:                   0.784
REMARK UNBOUND:                 0.784
REMARK SMILES CC1=CC=CC(C)(C)CC1=O
REMARK SMILES IDX 1 1 2 2 3 3 10 4 11 5 9 6 4 8 5 9 6 10 7 11 8 12
REMARK H PARENT
REMARK Flexibility Score: 80.00
ROOT
ATOM      1  C   UNL     1     -11.123 -20.580 -22.570  1.00  0.00     0.048 C 
ATOM      2  C   UNL     1      -9.939 -19.724 -22.955  1.00  0.00    -0.008 C 
ATOM      3  C   UNL     1      -9.391 -18.947 -21.996  1.00  0.00     0.007 C 
ENDROOT
BRANCH   2   4
ATOM      4  C   UNL     1      -9.427 -19.863 -24.341  1.00  0.00     0.159 C 
ATOM      5  O   UNL     1      -9.852 -20.813 -25.055  1.00  0.00    -0.295 OA
BRANCH   4   6
ATOM      6  C   UNL     1      -8.433 -18.923 -24.952  1.00  0.00     0.091 CG0
ATOM      7  G   UNL     1      -7.097 -18.863 -24.181  1.00  0.00     0.000 G0
ENDBRANCH   4   6
ENDBRANCH   2   4
BRANCH   3   8
ATOM      8  C   UNL     1      -8.227 -18.034 -22.061  1.00  0.00    -0.003 C 
ATOM      9  C   UNL     1      -7.245 -17.981 -22.971  1.00  0.00    -0.020 C 
BRANCH   9  10
ATOM     10  C   UNL     1      -7.110 -18.853 -24.198  1.00  0.00    -0.010 CG0
ATOM     11  C   UNL     1      -6.618 -20.262 -23.792  1.00  0.00     0.016 C 
ATOM     12  C   UNL     1      -6.045 -18.225 -25.124  1.00  0.00     0.016 C 
ATOM     13  G   UNL     1      -8.452 -18.889 -24.961  1.00  0.00     0.000 G0
ENDBRANCH   9  10
ENDBRANCH   3   8
TORSDOF 0
ENDMDL
MODEL 2
REMARK VINA RESULT:     5.779      2.168      2.828
REMARK INTER + INTRA:           7.914
REMARK INTER:                   6.890
REMARK INTRA:                   1.024
REMARK UNBOUND:                 0.784
REMARK SMILES CC1=CC=CC(C)(C)CC1=O
REMARK SMILES IDX 1 1 2 2 3 3 10 4 11 5 9 6 4 8 5 9 6 10 7 11 8 12
REMARK H PARENT
REMARK Flexibility Score: 80.00
ROOT
ATOM      1  C   UNL     1      -9.212 -14.879 -22.644  1.00  0.00     0.048 C 
ATOM      2  C   UNL     1      -8.894 -16.312 -23.004  1.00  0.00    -0.008 C 
ATOM      3  C   UNL     1      -9.092 -17.253 -22.056  1.00  0.00     0.007 C 
ENDROOT
BRANCH   2   4
ATOM      4  C   UNL     1      -8.461 -16.578 -24.399  1.00  0.00     0.159 C 
ATOM      5  O   UNL     1      -8.109 -15.605 -25.122  1.00  0.00    -0.295 OA
BRANCH   4   6
ATOM      6  C   UNL     1      -8.404 -17.949 -24.999  1.00  0.00     0.091 CG0
ATOM      7  G   UNL     1      -7.479 -18.914 -24.226  1.00  0.00     0.000 G0
ENDBRANCH   4   6
ENDBRANCH   2   4
BRANCH   3   8
ATOM      8  C   UNL     1      -8.899 -18.721 -22.119  1.00  0.00    -0.003 C 
ATOM      9  C   UNL     1      -8.246 -19.448 -23.035  1.00  0.00    -0.020 C 
BRANCH   9  10
ATOM     10  C   UNL     1      -7.507 -18.919 -24.242  1.00  0.00    -0.010 CG0
ATOM     11  C   UNL     1      -7.028 -20.094 -25.125  1.00  0.00     0.016 C 
ATOM     12  C   UNL     1      -6.259 -18.153 -23.749  1.00  0.00     0.016 C 
ATOM     13  G   UNL     1      -8.408 -17.927 -25.010  1.00  0.00     0.000 G0
ENDBRANCH   9  10
ENDBRANCH   3   8
TORSDOF 0
ENDMDL
MODEL 3
REMARK VINA RESULT:     6.473      1.850      3.259
REMARK INTER + INTRA:           8.771
REMARK INTER:                   8.032
REMARK INTRA:                   0.738
REMARK UNBOUND:                 0.784
REMARK SMILES CC1=CC=CC(C)(C)CC1=O
REMARK SMILES IDX 1 1 2 2 3 3 10 4 11 5 9 6 4 8 5 9 6 10 7 11 8 12
REMARK H PARENT
REMARK Flexibility Score: 80.00
ROOT
ATOM      1  C   UNL     1      -6.710 -17.103 -20.934  1.00  0.00     0.048 C 
ATOM      2  C   UNL     1      -7.548 -17.509 -22.124  1.00  0.00    -0.008 C 
ATOM      3  C   UNL     1      -7.284 -16.914 -23.307  1.00  0.00     0.007 C 
ENDROOT
BRANCH   2   4
ATOM      4  C   UNL     1      -8.546 -18.587 -21.910  1.00  0.00     0.159 C 
ATOM      5  O   UNL     1      -8.612 -19.139 -20.777  1.00  0.00    -0.295 OA
BRANCH   4   6
ATOM      6  C   UNL     1      -9.497 -19.053 -22.969  1.00  0.00     0.091 CG0
ATOM      7  G   UNL     1      -8.795 -19.455 -24.285  1.00  0.00     0.000 G0
ENDBRANCH   4   6
ENDBRANCH   2   4
BRANCH   3   8
ATOM      8  C   UNL     1      -7.908 -17.120 -24.635  1.00  0.00    -0.003 C 
ATOM      9  C   UNL     1      -8.574 -18.186 -25.099  1.00  0.00    -0.020 C 
BRANCH   9  10
ATOM     10  C   UNL     1      -8.877 -19.456 -24.339  1.00  0.00    -0.010 CG0
ATOM     11  C   UNL     1      -7.606 -20.332 -24.248  1.00  0.00     0.016 C 
ATOM     12  C   UNL     1      -9.946 -20.248 -25.125  1.00  0.00     0.016 C 
ATOM     13  G   UNL     1      -9.460 -19.106 -22.952  1.00  0.00     0.000 G0
ENDBRANCH   9  10
ENDBRANCH   3   8
TORSDOF 0
ENDMDL
MODEL 4
REMARK VINA RESULT:     8.582      1.500      2.202
REMARK INTER + INTRA:          11.372
REMARK INTER:                  10.654
REMARK INTRA:                   0.718
REMARK UNBOUND:                 0.784
REMARK SMILES CC1=CC=CC(C)(C)CC1=O
REMARK SMILES IDX 1 1 2 2 3 3 10 4 11 5 9 6 4 8 5 9 6 10 7 11 8 12
REMARK H PARENT
REMARK Flexibility Score: 80.00
ROOT
ATOM      1  C   UNL     1      -9.595 -21.966 -24.296  1.00  0.00     0.048 C 
ATOM      2  C   UNL     1      -9.553 -20.535 -23.814  1.00  0.00    -0.008 C 
ATOM      3  C   UNL     1     -10.381 -20.191 -22.804  1.00  0.00     0.007 C 
ENDROOT
BRANCH   2   4
ATOM      4  C   UNL     1      -8.549 -19.640 -24.441  1.00  0.00     0.159 C 
ATOM      5  O   UNL     1      -7.620 -20.152 -25.124  1.00  0.00    -0.295 OA
BRANCH   4   6
ATOM      6  C   UNL     1      -8.584 -18.147 -24.320  1.00  0.00     0.091 CG0
ATOM      7  G   UNL     1      -8.473 -17.651 -22.861  1.00  0.00     0.000 G0
ENDBRANCH   4   6
ENDBRANCH   2   4
BRANCH   3   8
ATOM      8  C   UNL     1     -10.547 -18.893 -22.110  1.00  0.00    -0.003 C 
ATOM      9  C   UNL     1      -9.741 -17.823 -22.117  1.00  0.00    -0.020 C 
BRANCH   9  10
ATOM     10  C   UNL     1      -8.447 -17.679 -22.883  1.00  0.00    -0.010 CG0
ATOM     11  C   UNL     1      -7.303 -18.392 -22.125  1.00  0.00     0.016 C 
ATOM     12  C   UNL     1      -8.098 -16.176 -22.967  1.00  0.00     0.016 C 
ATOM     13  G   UNL     1      -8.631 -18.211 -24.321  1.00  0.00     0.000 G0
ENDBRANCH   9  10
ENDBRANCH   3   8
TORSDOF 0
ENDMDL
