MODEL 1
REMARK VINA RESULT:    48.949      0.000      0.000
REMARK INTER + INTRA:          66.579
REMARK INTER:                  66.118
REMARK INTRA:                   0.460
REMARK UNBOUND:                 0.460
REMARK SMILES O=c1c(-c2ccc(O)cc2)coc2c([C@@H]3O[C@@H](CO)[C@H](O)[C@@H](O)[C@@H]3O)c(O)ccc12
REMARK SMILES IDX 3 1 11 2 12 3 13 4 30 5 2 6 1 7 29 8 28 9 26 10 14 11 4 12
REMARK SMILES IDX 5 13 6 14 7 15 10 16 9 17 8 18 15 20 24 21 16 22 22 23 17 24
REMARK SMILES IDX 20 25 25 26 23 28 18 30 19 31 21 33 27 35
REMARK H PARENT 8 19 25 27 23 29 19 32 21 34 27 36
REMARK Flexibility Score: inf
ROOT
ATOM      1  C   UNL     1      33.278  16.634  39.795  1.00  0.00     0.065 A 
ATOM      2  C   UNL     1      33.301  15.290  39.400  1.00  0.00     0.208 A 
ATOM      3  O   UNL     1      33.891  14.369  40.151  1.00  0.00    -0.463 OA
ATOM      4  C   UNL     1      34.490  14.643  41.307  1.00  0.00     0.147 A 
ATOM      5  C   UNL     1      34.504  15.974  41.787  1.00  0.00     0.066 A 
ATOM      6  C   UNL     1      33.886  16.976  41.018  1.00  0.00     0.200 A 
ATOM      7  O   UNL     1      33.856  18.169  41.429  1.00  0.00    -0.288 OA
ATOM      8  C   UNL     1      35.116  16.261  43.017  1.00  0.00     0.020 A 
ATOM      9  C   UNL     1      35.697  15.242  43.767  1.00  0.00     0.047 A 
ATOM     10  C   UNL     1      35.688  13.921  43.303  1.00  0.00     0.125 A 
ATOM     11  C   UNL     1      35.104  13.607  42.055  1.00  0.00     0.069 A 
ENDROOT
BRANCH   1  12
ATOM     12  C   UNL     1      32.620  17.648  38.933  1.00  0.00    -0.011 A 
ATOM     13  C   UNL     1      32.634  19.006  39.299  1.00  0.00     0.013 A 
ATOM     14  C   UNL     1      32.007  19.962  38.494  1.00  0.00     0.047 A 
ATOM     15  C   UNL     1      31.356  19.573  37.317  1.00  0.00     0.115 A 
ATOM     16  C   UNL     1      31.958  17.265  37.753  1.00  0.00     0.013 A 
ATOM     17  C   UNL     1      31.332  18.224  36.950  1.00  0.00     0.047 A 
BRANCH  15  18
ATOM     18  O   UNL     1      30.728  20.517  36.506  1.00  0.00    -0.508 OA
ATOM     19  H   UNL     1      31.193  21.378  36.240  1.00  0.00     0.293 HD
ENDBRANCH  15  18
ENDBRANCH   1  12
BRANCH  11  20
ATOM     20  C   UNL     1      35.080  12.161  41.575  1.00  0.00     0.188 C 
ATOM     21  C   UNL     1      33.858  11.423  42.162  1.00  0.00     0.179 C 
ATOM     22  O   UNL     1      35.081  12.116  40.155  1.00  0.00    -0.362 OA
ATOM     23  C   UNL     1      33.858   9.957  41.691  1.00  0.00     0.177 C 
ATOM     24  C   UNL     1      35.167  10.792  39.644  1.00  0.00     0.176 C 
ATOM     25  C   UNL     1      34.024   9.875  40.162  1.00  0.00     0.177 C 
BRANCH  21  26
ATOM     26  O   UNL     1      32.671  12.059  41.758  1.00  0.00    -0.387 OA
ATOM     27  H   UNL     1      32.838  12.430  40.852  1.00  0.00     0.211 HD
ENDBRANCH  21  26
BRANCH  23  28
ATOM     28  O   UNL     1      34.889   9.240  42.321  1.00  0.00    -0.387 OA
ATOM     29  H   UNL     1      35.354   9.876  42.927  1.00  0.00     0.211 HD
ENDBRANCH  23  28
BRANCH  24  30
ATOM     30  C   UNL     1      36.585  10.197  39.803  1.00  0.00     0.191 C 
BRANCH  30  31
ATOM     31  O   UNL     1      37.123   9.868  38.549  1.00  0.00    -0.394 OA
ATOM     32  H   UNL     1      36.566   9.136  38.177  1.00  0.00     0.210 HD
ENDBRANCH  30  31
ENDBRANCH  24  30
BRANCH  25  33
ATOM     33  O   UNL     1      32.812  10.252  39.557  1.00  0.00    -0.388 OA
ATOM     34  H   UNL     1      32.922  10.119  38.579  1.00  0.00     0.211 HD
ENDBRANCH  25  33
ENDBRANCH  11  20
BRANCH  10  35
ATOM     35  O   UNL     1      36.255  12.916  44.089  1.00  0.00    -0.507 OA
ATOM     36  H   UNL     1      35.700  12.154  44.461  1.00  0.00     0.293 HD
ENDBRANCH  10  35
TORSDOF 9
ENDMDL
MODEL 2
REMARK VINA RESULT:    49.084      2.909      8.044
REMARK INTER + INTRA:          66.761
REMARK INTER:                  67.120
REMARK INTRA:                  -0.359
REMARK UNBOUND:                 0.460
REMARK SMILES O=c1c(-c2ccc(O)cc2)coc2c([C@@H]3O[C@@H](CO)[C@H](O)[C@@H](O)[C@@H]3O)c(O)ccc12
REMARK SMILES IDX 3 1 11 2 12 3 13 4 30 5 2 6 1 7 29 8 28 9 26 10 14 11 4 12
REMARK SMILES IDX 5 13 6 14 7 15 10 16 9 17 8 18 15 20 24 21 16 22 22 23 17 24
REMARK SMILES IDX 20 25 25 26 23 28 18 30 19 31 21 33 27 35
REMARK H PARENT 8 19 25 27 23 29 19 32 21 34 27 36
REMARK Flexibility Score: inf
ROOT
ATOM      1  C   UNL     1      32.094   9.317  41.194  1.00  0.00     0.065 A 
ATOM      2  C   UNL     1      31.927  10.558  41.823  1.00  0.00     0.208 A 
ATOM      3  O   UNL     1      32.870  11.488  41.758  1.00  0.00    -0.463 OA
ATOM      4  C   UNL     1      34.019  11.319  41.108  1.00  0.00     0.147 A 
ATOM      5  C   UNL     1      34.266  10.099  40.435  1.00  0.00     0.066 A 
ATOM      6  C   UNL     1      33.286   9.091  40.481  1.00  0.00     0.200 A 
ATOM      7  O   UNL     1      33.463   8.002  39.868  1.00  0.00    -0.288 OA
ATOM      8  C   UNL     1      35.467   9.927  39.730  1.00  0.00     0.020 A 
ATOM      9  C   UNL     1      36.407  10.953  39.683  1.00  0.00     0.047 A 
ATOM     10  C   UNL     1      36.172  12.165  40.343  1.00  0.00     0.125 A 
ATOM     11  C   UNL     1      34.985  12.356  41.085  1.00  0.00     0.069 A 
ENDROOT
BRANCH   1  12
ATOM     12  C   UNL     1      31.027   8.288  41.289  1.00  0.00    -0.011 A 
ATOM     13  C   UNL     1      29.677   8.651  41.134  1.00  0.00     0.013 A 
ATOM     14  C   UNL     1      28.670   7.686  41.231  1.00  0.00     0.047 A 
ATOM     15  C   UNL     1      28.998   6.349  41.487  1.00  0.00     0.115 A 
ATOM     16  C   UNL     1      31.348   6.944  41.552  1.00  0.00     0.013 A 
ATOM     17  C   UNL     1      30.338   5.982  41.648  1.00  0.00     0.047 A 
BRANCH  15  18
ATOM     18  O   UNL     1      28.003   5.379  41.585  1.00  0.00    -0.508 OA
ATOM     19  H   UNL     1      27.307   5.408  42.322  1.00  0.00     0.293 HD
ENDBRANCH  15  18
ENDBRANCH   1  12
BRANCH  11  20
ATOM     20  C   UNL     1      34.733  13.690  41.778  1.00  0.00     0.188 C 
ATOM     21  C   UNL     1      35.166  13.615  43.256  1.00  0.00     0.179 C 
ATOM     22  O   UNL     1      35.410  14.733  41.091  1.00  0.00    -0.362 OA
ATOM     23  C   UNL     1      34.883  14.960  43.952  1.00  0.00     0.177 C 
ATOM     24  C   UNL     1      35.127  16.020  41.625  1.00  0.00     0.176 C 
ATOM     25  C   UNL     1      35.468  16.128  43.138  1.00  0.00     0.177 C 
BRANCH  21  26
ATOM     26  O   UNL     1      36.534  13.306  43.344  1.00  0.00    -0.387 OA
ATOM     27  H   UNL     1      37.023  14.170  43.358  1.00  0.00     0.211 HD
ENDBRANCH  21  26
BRANCH  23  28
ATOM     28  O   UNL     1      33.500  15.141  44.122  1.00  0.00    -0.387 OA
ATOM     29  H   UNL     1      33.100  14.238  44.219  1.00  0.00     0.211 HD
ENDBRANCH  23  28
BRANCH  24  30
ATOM     30  C   UNL     1      33.708  16.507  41.254  1.00  0.00     0.191 C 
BRANCH  30  31
ATOM     31  O   UNL     1      33.696  17.045  39.958  1.00  0.00    -0.394 OA
ATOM     32  H   UNL     1      33.037  16.522  39.432  1.00  0.00     0.210 HD
ENDBRANCH  30  31
ENDBRANCH  24  30
BRANCH  25  33
ATOM     33  O   UNL     1      36.864  16.138  43.302  1.00  0.00    -0.388 OA
ATOM     34  H   UNL     1      37.042  16.232  44.275  1.00  0.00     0.211 HD
ENDBRANCH  25  33
ENDBRANCH  11  20
BRANCH  10  35
ATOM     35  O   UNL     1      37.120  13.186  40.256  1.00  0.00    -0.507 OA
ATOM     36  H   UNL     1      37.262  13.711  39.401  1.00  0.00     0.293 HD
ENDBRANCH  10  35
TORSDOF 9
ENDMDL
MODEL 3
REMARK VINA RESULT:    50.812      3.724      6.487
REMARK INTER + INTRA:          69.095
REMARK INTER:                  69.386
REMARK INTRA:                  -0.291
REMARK UNBOUND:                 0.460
REMARK SMILES O=c1c(-c2ccc(O)cc2)coc2c([C@@H]3O[C@@H](CO)[C@H](O)[C@@H](O)[C@@H]3O)c(O)ccc12
REMARK SMILES IDX 3 1 11 2 12 3 13 4 30 5 2 6 1 7 29 8 28 9 26 10 14 11 4 12
REMARK SMILES IDX 5 13 6 14 7 15 10 16 9 17 8 18 15 20 24 21 16 22 22 23 17 24
REMARK SMILES IDX 20 25 25 26 23 28 18 30 19 31 21 33 27 35
REMARK H PARENT 8 19 25 27 23 29 19 32 21 34 27 36
REMARK Flexibility Score: inf
ROOT
ATOM      1  C   UNL     1      34.410  12.624  42.011  1.00  0.00     0.065 A 
ATOM      2  C   UNL     1      33.209  12.011  42.393  1.00  0.00     0.208 A 
ATOM      3  O   UNL     1      32.829  10.861  41.852  1.00  0.00    -0.463 OA
ATOM      4  C   UNL     1      33.540  10.218  40.929  1.00  0.00     0.147 A 
ATOM      5  C   UNL     1      34.771  10.761  40.493  1.00  0.00     0.066 A 
ATOM      6  C   UNL     1      35.207  11.978  41.048  1.00  0.00     0.200 A 
ATOM      7  O   UNL     1      36.313  12.477  40.702  1.00  0.00    -0.288 OA
ATOM      8  C   UNL     1      35.533  10.073  39.536  1.00  0.00     0.020 A 
ATOM      9  C   UNL     1      35.085   8.858  39.025  1.00  0.00     0.047 A 
ATOM     10  C   UNL     1      33.870   8.309  39.450  1.00  0.00     0.125 A 
ATOM     11  C   UNL     1      33.069   8.994  40.391  1.00  0.00     0.069 A 
ENDROOT
BRANCH   1  12
ATOM     12  C   UNL     1      34.810  13.916  42.625  1.00  0.00    -0.011 A 
ATOM     13  C   UNL     1      36.010  14.014  43.352  1.00  0.00     0.013 A 
ATOM     14  C   UNL     1      36.384  15.226  43.938  1.00  0.00     0.047 A 
ATOM     15  C   UNL     1      35.565  16.354  43.809  1.00  0.00     0.115 A 
ATOM     16  C   UNL     1      33.989  15.052  42.505  1.00  0.00     0.013 A 
ATOM     17  C   UNL     1      34.367  16.263  43.093  1.00  0.00     0.047 A 
BRANCH  15  18
ATOM     18  O   UNL     1      35.928  17.568  44.388  1.00  0.00    -0.508 OA
ATOM     19  H   UNL     1      36.800  18.028  44.150  1.00  0.00     0.293 HD
ENDBRANCH  15  18
ENDBRANCH   1  12
BRANCH  11  20
ATOM     20  C   UNL     1      31.759   8.372  40.863  1.00  0.00     0.188 C 
ATOM     21  C   UNL     1      30.559   9.130  40.259  1.00  0.00     0.179 C 
ATOM     22  O   UNL     1      31.724   6.992  40.526  1.00  0.00    -0.362 OA
ATOM     23  C   UNL     1      29.242   8.510  40.762  1.00  0.00     0.177 C 
ATOM     24  C   UNL     1      30.573   6.329  41.034  1.00  0.00     0.176 C 
ATOM     25  C   UNL     1      29.246   6.984  40.557  1.00  0.00     0.177 C 
BRANCH  21  26
ATOM     26  O   UNL     1      30.611   9.077  38.855  1.00  0.00    -0.387 OA
ATOM     27  H   UNL     1      31.389   8.509  38.618  1.00  0.00     0.211 HD
ENDBRANCH  21  26
BRANCH  23  28
ATOM     28  O   UNL     1      29.049   8.808  42.121  1.00  0.00    -0.387 OA
ATOM     29  H   UNL     1      28.643   9.714  42.163  1.00  0.00     0.211 HD
ENDBRANCH  23  28
BRANCH  24  30
ATOM     30  C   UNL     1      30.660   6.098  42.560  1.00  0.00     0.191 C 
BRANCH  30  31
ATOM     31  O   UNL     1      29.522   5.416  43.019  1.00  0.00    -0.394 OA
ATOM     32  H   UNL     1      29.101   5.988  43.713  1.00  0.00     0.210 HD
ENDBRANCH  30  31
ENDBRANCH  24  30
BRANCH  25  33
ATOM     33  O   UNL     1      29.056   6.712  39.191  1.00  0.00    -0.388 OA
ATOM     34  H   UNL     1      28.080   6.777  39.015  1.00  0.00     0.211 HD
ENDBRANCH  25  33
ENDBRANCH  11  20
BRANCH  10  35
ATOM     35  O   UNL     1      33.460   7.076  38.940  1.00  0.00    -0.507 OA
ATOM     36  H   UNL     1      32.556   6.956  38.498  1.00  0.00     0.293 HD
ENDBRANCH  10  35
TORSDOF 9
ENDMDL
MODEL 4
REMARK VINA RESULT:    50.890      3.735      8.225
REMARK INTER + INTRA:          69.201
REMARK INTER:                  69.812
REMARK INTRA:                  -0.611
REMARK UNBOUND:                 0.460
REMARK SMILES O=c1c(-c2ccc(O)cc2)coc2c([C@@H]3O[C@@H](CO)[C@H](O)[C@@H](O)[C@@H]3O)c(O)ccc12
REMARK SMILES IDX 3 1 11 2 12 3 13 4 30 5 2 6 1 7 29 8 28 9 26 10 14 11 4 12
REMARK SMILES IDX 5 13 6 14 7 15 10 16 9 17 8 18 15 20 24 21 16 22 22 23 17 24
REMARK SMILES IDX 20 25 25 26 23 28 18 30 19 31 21 33 27 35
REMARK H PARENT 8 19 25 27 23 29 19 32 21 34 27 36
REMARK Flexibility Score: inf
ROOT
ATOM      1  C   UNL     1      31.848   9.341  41.405  1.00  0.00     0.065 A 
ATOM      2  C   UNL     1      32.337  10.005  42.538  1.00  0.00     0.208 A 
ATOM      3  O   UNL     1      33.086  11.094  42.419  1.00  0.00    -0.463 OA
ATOM      4  C   UNL     1      33.422  11.625  41.245  1.00  0.00     0.147 A 
ATOM      5  C   UNL     1      32.961  11.024  40.050  1.00  0.00     0.066 A 
ATOM      6  C   UNL     1      32.162   9.869  40.139  1.00  0.00     0.200 A 
ATOM      7  O   UNL     1      31.711   9.324  39.094  1.00  0.00    -0.288 OA
ATOM      8  C   UNL     1      33.295  11.596  38.813  1.00  0.00     0.020 A 
ATOM      9  C   UNL     1      34.067  12.753  38.760  1.00  0.00     0.047 A 
ATOM     10  C   UNL     1      34.527  13.358  39.936  1.00  0.00     0.125 A 
ATOM     11  C   UNL     1      34.230  12.788  41.194  1.00  0.00     0.069 A 
ENDROOT
BRANCH   1  12
ATOM     12  C   UNL     1      31.019   8.119  41.563  1.00  0.00    -0.011 A 
ATOM     13  C   UNL     1      31.631   6.866  41.745  1.00  0.00     0.013 A 
ATOM     14  C   UNL     1      30.853   5.713  41.885  1.00  0.00     0.047 A 
ATOM     15  C   UNL     1      29.455   5.796  41.842  1.00  0.00     0.115 A 
ATOM     16  C   UNL     1      29.615   8.194  41.515  1.00  0.00     0.013 A 
ATOM     17  C   UNL     1      28.840   7.038  41.656  1.00  0.00     0.047 A 
BRANCH  15  18
ATOM     18  O   UNL     1      28.670   4.654  41.982  1.00  0.00    -0.508 OA
ATOM     19  H   UNL     1      27.667   4.716  42.119  1.00  0.00     0.293 HD
ENDBRANCH  15  18
ENDBRANCH   1  12
BRANCH  11  20
ATOM     20  C   UNL     1      34.717  13.472  42.467  1.00  0.00     0.188 C 
ATOM     21  C   UNL     1      36.214  13.176  42.694  1.00  0.00     0.179 C 
ATOM     22  O   UNL     1      34.469  14.870  42.397  1.00  0.00    -0.362 OA
ATOM     23  C   UNL     1      36.688  13.851  43.995  1.00  0.00     0.177 C 
ATOM     24  C   UNL     1      34.803  15.551  43.600  1.00  0.00     0.176 C 
ATOM     25  C   UNL     1      36.285  15.337  44.016  1.00  0.00     0.177 C 
BRANCH  21  26
ATOM     26  O   UNL     1      36.969  13.646  41.605  1.00  0.00    -0.387 OA
ATOM     27  H   UNL     1      37.788  13.086  41.560  1.00  0.00     0.211 HD
ENDBRANCH  21  26
BRANCH  23  28
ATOM     28  O   UNL     1      36.147  13.193  45.112  1.00  0.00    -0.387 OA
ATOM     29  H   UNL     1      35.868  13.897  45.754  1.00  0.00     0.211 HD
ENDBRANCH  23  28
BRANCH  24  30
ATOM     30  C   UNL     1      33.777  15.283  44.725  1.00  0.00     0.191 C 
BRANCH  30  31
ATOM     31  O   UNL     1      32.468  15.384  44.231  1.00  0.00    -0.394 OA
ATOM     32  H   UNL     1      32.503  15.972  43.432  1.00  0.00     0.210 HD
ENDBRANCH  30  31
ENDBRANCH  24  30
BRANCH  25  33
ATOM     33  O   UNL     1      37.124  16.044  43.137  1.00  0.00    -0.388 OA
ATOM     34  H   UNL     1      37.136  16.989  43.445  1.00  0.00     0.211 HD
ENDBRANCH  25  33
ENDBRANCH  11  20
BRANCH  10  35
ATOM     35  O   UNL     1      35.276  14.533  39.853  1.00  0.00    -0.507 OA
ATOM     36  H   UNL     1      35.294  15.208  40.609  1.00  0.00     0.293 HD
ENDBRANCH  10  35
TORSDOF 9
ENDMDL
