MODEL 1
REMARK VINA RESULT:    -2.662      0.000      0.000
REMARK INTER + INTRA:          -3.229
REMARK INTER:                  -3.129
REMARK INTRA:                  -0.101
REMARK UNBOUND:                -0.101
REMARK SMILES O=C([O-])CCC(=O)[O-]
REMARK SMILES IDX 4 1 2 2 1 3 3 4 5 5 6 6 7 7 8 8
REMARK H PARENT
REMARK Flexibility Score: inf
ROOT
ATOM      1  C   UNL     1      45.769  18.848  77.748  1.00  0.00     0.059 C 
ENDROOT
BRANCH   1   2
ATOM      2  C   UNL     1      45.869  17.907  76.587  1.00  0.00     0.042 C 
ATOM      3  O   UNL     1      46.067  18.352  75.426  1.00  0.00    -0.550 OA
ATOM      4  O   UNL     1      45.786  16.536  76.794  1.00  0.00    -0.550 OA
ENDBRANCH   1   2
BRANCH   1   5
ATOM      5  C   UNL     1      46.477  20.177  77.463  1.00  0.00     0.059 C 
BRANCH   5   6
ATOM      6  C   UNL     1      47.903  20.154  77.921  1.00  0.00     0.042 C 
ATOM      7  O   UNL     1      48.799  20.710  77.233  1.00  0.00    -0.550 OA
ATOM      8  O   UNL     1      48.236  19.554  79.129  1.00  0.00    -0.550 OA
ENDBRANCH   5   6
ENDBRANCH   1   5
TORSDOF 3
ENDMDL
MODEL 2
REMARK VINA RESULT:    -2.626      7.591      8.299
REMARK INTER + INTRA:          -3.187
REMARK INTER:                  -3.158
REMARK INTRA:                  -0.029
REMARK UNBOUND:                -0.101
REMARK SMILES O=C([O-])CCC(=O)[O-]
REMARK SMILES IDX 4 1 2 2 1 3 3 4 5 5 6 6 7 7 8 8
REMARK H PARENT
REMARK Flexibility Score: inf
ROOT
ATOM      1  C   UNL     1      39.211  19.259  80.324  1.00  0.00     0.059 C 
ENDROOT
BRANCH   1   2
ATOM      2  C   UNL     1      37.748  18.938  80.370  1.00  0.00     0.042 C 
ATOM      3  O   UNL     1      37.340  17.792  80.046  1.00  0.00    -0.550 OA
ATOM      4  O   UNL     1      36.839  19.893  80.810  1.00  0.00    -0.550 OA
ENDBRANCH   1   2
BRANCH   1   5
ATOM      5  C   UNL     1      39.478  20.584  79.602  1.00  0.00     0.059 C 
BRANCH   5   6
ATOM      6  C   UNL     1      40.673  20.490  78.702  1.00  0.00     0.042 C 
ATOM      7  O   UNL     1      40.619  20.947  77.529  1.00  0.00    -0.550 OA
ATOM      8  O   UNL     1      41.857  19.938  79.172  1.00  0.00    -0.550 OA
ENDBRANCH   5   6
ENDBRANCH   1   5
TORSDOF 3
ENDMDL
MODEL 3
REMARK VINA RESULT:    -2.622      0.126      3.546
REMARK INTER + INTRA:          -3.182
REMARK INTER:                  -3.086
REMARK INTRA:                  -0.097
REMARK UNBOUND:                -0.101
REMARK SMILES O=C([O-])CCC(=O)[O-]
REMARK SMILES IDX 4 1 2 2 1 3 3 4 5 5 6 6 7 7 8 8
REMARK H PARENT
REMARK Flexibility Score: inf
ROOT
ATOM      1  C   UNL     1      46.536  20.194  77.437  1.00  0.00     0.059 C 
ENDROOT
BRANCH   1   2
ATOM      2  C   UNL     1      47.918  20.145  78.012  1.00  0.00     0.042 C 
ATOM      3  O   UNL     1      48.869  20.728  77.428  1.00  0.00    -0.550 OA
ATOM      4  O   UNL     1      48.149  19.490  79.216  1.00  0.00    -0.550 OA
ENDBRANCH   1   2
BRANCH   1   5
ATOM      5  C   UNL     1      45.752  18.911  77.734  1.00  0.00     0.059 C 
BRANCH   5   6
ATOM      6  C   UNL     1      45.883  17.915  76.623  1.00  0.00     0.042 C 
ATOM      7  O   UNL     1      45.983  18.306  75.430  1.00  0.00    -0.550 OA
ATOM      8  O   UNL     1      45.937  16.557  76.909  1.00  0.00    -0.550 OA
ENDBRANCH   5   6
ENDBRANCH   1   5
TORSDOF 3
ENDMDL
MODEL 4
REMARK VINA RESULT:    -2.605      7.634      8.711
REMARK INTER + INTRA:          -3.162
REMARK INTER:                  -3.125
REMARK INTRA:                  -0.038
REMARK UNBOUND:                -0.101
REMARK SMILES O=C([O-])CCC(=O)[O-]
REMARK SMILES IDX 4 1 2 2 1 3 3 4 5 5 6 6 7 7 8 8
REMARK H PARENT
REMARK Flexibility Score: inf
ROOT
ATOM      1  C   UNL     1      40.088  19.588  79.930  1.00  0.00     0.059 C 
ENDROOT
BRANCH   1   2
ATOM      2  C   UNL     1      40.930  20.289  78.910  1.00  0.00     0.042 C 
ATOM      3  O   UNL     1      40.391  21.021  78.038  1.00  0.00    -0.550 OA
ATOM      4  O   UNL     1      42.314  20.170  78.948  1.00  0.00    -0.550 OA
ENDBRANCH   1   2
BRANCH   1   5
ATOM      5  C   UNL     1      38.748  20.300  80.146  1.00  0.00     0.059 C 
BRANCH   5   6
ATOM      6  C   UNL     1      37.730  19.388  80.759  1.00  0.00     0.042 C 
ATOM      7  O   UNL     1      37.283  19.622  81.914  1.00  0.00    -0.550 OA
ATOM      8  O   UNL     1      37.243  18.304  80.041  1.00  0.00    -0.550 OA
ENDBRANCH   5   6
ENDBRANCH   1   5
TORSDOF 3
ENDMDL
MODEL 5
REMARK VINA RESULT:    -2.574     17.863     18.610
REMARK INTER + INTRA:          -3.126
REMARK INTER:                  -3.082
REMARK INTRA:                  -0.044
REMARK UNBOUND:                -0.101
REMARK SMILES O=C([O-])CCC(=O)[O-]
REMARK SMILES IDX 4 1 2 2 1 3 3 4 5 5 6 6 7 7 8 8
REMARK H PARENT
REMARK Flexibility Score: inf
ROOT
ATOM      1  C   UNL     1      45.168  30.369  91.388  1.00  0.00     0.059 C 
ENDROOT
BRANCH   1   2
ATOM      2  C   UNL     1      44.069  30.665  92.361  1.00  0.00     0.042 C 
ATOM      3  O   UNL     1      44.151  31.663  93.125  1.00  0.00    -0.550 OA
ATOM      4  O   UNL     1      42.935  29.863  92.395  1.00  0.00    -0.550 OA
ENDBRANCH   1   2
BRANCH   1   5
ATOM      5  C   UNL     1      45.465  31.572  90.485  1.00  0.00     0.059 C 
BRANCH   5   6
ATOM      6  C   UNL     1      46.885  31.566  90.007  1.00  0.00     0.042 C 
ATOM      7  O   UNL     1      47.213  32.229  88.987  1.00  0.00    -0.550 OA
ATOM      8  O   UNL     1      47.854  30.864  90.711  1.00  0.00    -0.550 OA
ENDBRANCH   5   6
ENDBRANCH   1   5
TORSDOF 3
ENDMDL
MODEL 6
REMARK VINA RESULT:    -2.551      1.330      2.054
REMARK INTER + INTRA:          -3.099
REMARK INTER:                  -3.027
REMARK INTRA:                  -0.072
REMARK UNBOUND:                -0.101
REMARK SMILES O=C([O-])CCC(=O)[O-]
REMARK SMILES IDX 4 1 2 2 1 3 3 4 5 5 6 6 7 7 8 8
REMARK H PARENT
REMARK Flexibility Score: inf
ROOT
ATOM      1  C   UNL     1      45.971  18.378  75.954  1.00  0.00     0.059 C 
ENDROOT
BRANCH   1   2
ATOM      2  C   UNL     1      46.008  16.881  75.998  1.00  0.00     0.042 C 
ATOM      3  O   UNL     1      45.961  16.278  77.103  1.00  0.00    -0.550 OA
ATOM      4  O   UNL     1      46.053  16.151  74.817  1.00  0.00    -0.550 OA
ENDBRANCH   1   2
BRANCH   1   5
ATOM      5  C   UNL     1      45.596  18.975  77.315  1.00  0.00     0.059 C 
BRANCH   5   6
ATOM      6  C   UNL     1      46.587  20.008  77.757  1.00  0.00     0.042 C 
ATOM      7  O   UNL     1      46.417  20.627  78.841  1.00  0.00    -0.550 OA
ATOM      8  O   UNL     1      47.721  20.257  76.994  1.00  0.00    -0.550 OA
ENDBRANCH   5   6
ENDBRANCH   1   5
TORSDOF 3
ENDMDL
MODEL 7
REMARK VINA RESULT:    -2.542     17.795     18.808
REMARK INTER + INTRA:          -3.088
REMARK INTER:                  -3.033
REMARK INTRA:                  -0.055
REMARK UNBOUND:                -0.101
REMARK SMILES O=C([O-])CCC(=O)[O-]
REMARK SMILES IDX 4 1 2 2 1 3 3 4 5 5 6 6 7 7 8 8
REMARK H PARENT
REMARK Flexibility Score: inf
ROOT
ATOM      1  C   UNL     1      45.586  31.626  90.185  1.00  0.00     0.059 C 
ENDROOT
BRANCH   1   2
ATOM      2  C   UNL     1      47.032  31.696  89.801  1.00  0.00     0.042 C 
ATOM      3  O   UNL     1      47.382  32.313  88.761  1.00  0.00    -0.550 OA
ATOM      4  O   UNL     1      47.997  31.118  90.616  1.00  0.00    -0.550 OA
ENDBRANCH   1   2
BRANCH   1   5
ATOM      5  C   UNL     1      45.341  30.584  91.282  1.00  0.00     0.059 C 
BRANCH   5   6
ATOM      6  C   UNL     1      44.332  31.060  92.281  1.00  0.00     0.042 C 
ATOM      7  O   UNL     1      43.416  30.290  92.674  1.00  0.00    -0.550 OA
ATOM      8  O   UNL     1      44.427  32.341  92.810  1.00  0.00    -0.550 OA
ENDBRANCH   5   6
ENDBRANCH   1   5
TORSDOF 3
ENDMDL
MODEL 8
REMARK VINA RESULT:    -2.521      9.514     11.275
REMARK INTER + INTRA:          -3.064
REMARK INTER:                  -3.010
REMARK INTRA:                  -0.054
REMARK UNBOUND:                -0.101
REMARK SMILES O=C([O-])CCC(=O)[O-]
REMARK SMILES IDX 4 1 2 2 1 3 3 4 5 5 6 6 7 7 8 8
REMARK H PARENT
REMARK Flexibility Score: inf
ROOT
ATOM      1  C   UNL     1      54.472  17.945  86.061  1.00  0.00     0.059 C 
ENDROOT
BRANCH   1   2
ATOM      2  C   UNL     1      55.500  16.904  85.741  1.00  0.00     0.042 C 
ATOM      3  O   UNL     1      56.123  16.944  84.647  1.00  0.00    -0.550 OA
ATOM      4  O   UNL     1      55.799  15.913  86.667  1.00  0.00    -0.550 OA
ENDBRANCH   1   2
BRANCH   1   5
ATOM      5  C   UNL     1      54.098  18.772  84.826  1.00  0.00     0.059 C 
BRANCH   5   6
ATOM      6  C   UNL     1      52.635  19.092  84.798  1.00  0.00     0.042 C 
ATOM      7  O   UNL     1      51.801  18.288  85.293  1.00  0.00    -0.550 OA
ATOM      8  O   UNL     1      52.196  20.296  84.263  1.00  0.00    -0.550 OA
ENDBRANCH   5   6
ENDBRANCH   1   5
TORSDOF 3
ENDMDL
MODEL 9
REMARK VINA RESULT:    -2.454      9.918     11.658
REMARK INTER + INTRA:          -2.985
REMARK INTER:                  -2.885
REMARK INTRA:                  -0.100
REMARK UNBOUND:                -0.101
REMARK SMILES O=C([O-])CCC(=O)[O-]
REMARK SMILES IDX 4 1 2 2 1 3 3 4 5 5 6 6 7 7 8 8
REMARK H PARENT
REMARK Flexibility Score: inf
ROOT
ATOM      1  C   UNL     1      54.869  19.143  85.121  1.00  0.00     0.059 C 
ENDROOT
BRANCH   1   2
ATOM      2  C   UNL     1      53.402  19.295  84.860  1.00  0.00     0.042 C 
ATOM      3  O   UNL     1      52.582  18.482  85.364  1.00  0.00    -0.550 OA
ATOM      4  O   UNL     1      52.936  20.358  84.097  1.00  0.00    -0.550 OA
ENDBRANCH   1   2
BRANCH   1   5
ATOM      5  C   UNL     1      55.325  17.688  84.970  1.00  0.00     0.059 C 
BRANCH   5   6
ATOM      6  C   UNL     1      55.586  17.050  86.301  1.00  0.00     0.042 C 
ATOM      7  O   UNL     1      56.035  15.875  86.363  1.00  0.00    -0.550 OA
ATOM      8  O   UNL     1      55.372  17.767  87.471  1.00  0.00    -0.550 OA
ENDBRANCH   5   6
ENDBRANCH   1   5
TORSDOF 3
ENDMDL
