MODEL 1
REMARK VINA RESULT:    -6.366      0.000      0.000
REMARK INTER + INTRA:          -7.776
REMARK INTER:                  -7.483
REMARK INTRA:                  -0.293
REMARK UNBOUND:                -0.293
REMARK SMILES O=c1cc(-c2ccc(O)c(O)c2)oc2cc(O)cc(O)c12
REMARK SMILES IDX 4 1 3 2 2 3 1 4 21 5 19 6 18 7 16 8 15 9 14 10 13 11 5 12
REMARK SMILES IDX 6 13 7 14 8 15 12 16 10 17 9 18 11 20 20 22 17 24
REMARK H PARENT 9 19 11 21 20 23 17 25
REMARK Flexibility Score: inf
ROOT
ATOM      1  C   UNL     1      17.703  40.853   5.800  1.00  0.00     0.138 A 
ATOM      2  C   UNL     1      17.788  41.685   4.677  1.00  0.00     0.100 A 
ATOM      3  C   UNL     1      18.702  41.388   3.664  1.00  0.00     0.197 A 
ATOM      4  O   UNL     1      18.712  42.119   2.640  1.00  0.00    -0.289 OA
ATOM      5  C   UNL     1      19.557  40.267   3.796  1.00  0.00     0.107 A 
ATOM      6  C   UNL     1      20.554  39.891   2.849  1.00  0.00     0.134 A 
ATOM      7  C   UNL     1      21.261  38.696   3.028  1.00  0.00     0.093 A 
ATOM      8  C   UNL     1      21.049  37.895   4.153  1.00  0.00     0.123 A 
ATOM      9  C   UNL     1      20.115  38.283   5.112  1.00  0.00     0.094 A 
ATOM     10  C   UNL     1      19.369  39.451   4.943  1.00  0.00     0.146 A 
ATOM     11  O   UNL     1      18.478  39.776   5.874  1.00  0.00    -0.456 OA
ENDROOT
BRANCH   1  12
ATOM     12  C   UNL     1      16.748  41.123   6.906  1.00  0.00     0.021 A 
ATOM     13  C   UNL     1      16.947  40.513   8.156  1.00  0.00     0.016 A 
ATOM     14  C   UNL     1      16.069  40.757   9.214  1.00  0.00     0.051 A 
ATOM     15  C   UNL     1      14.983  41.621   9.047  1.00  0.00     0.157 A 
ATOM     16  C   UNL     1      15.661  42.004   6.746  1.00  0.00     0.062 A 
ATOM     17  C   UNL     1      14.779  42.252   7.809  1.00  0.00     0.158 A 
BRANCH  15  18
ATOM     18  O   UNL     1      14.122  41.844  10.121  1.00  0.00    -0.504 OA
ATOM     19  H   UNL     1      13.119  41.740  10.036  1.00  0.00     0.293 HD
ENDBRANCH  15  18
BRANCH  17  20
ATOM     20  O   UNL     1      13.704  43.123   7.639  1.00  0.00    -0.504 OA
ATOM     21  H   UNL     1      13.817  44.128   7.716  1.00  0.00     0.293 HD
ENDBRANCH  17  20
ENDBRANCH   1  12
BRANCH   6  22
ATOM     22  O   UNL     1      20.905  40.662   1.735  1.00  0.00    -0.507 OA
ATOM     23  H   UNL     1      20.689  40.426   0.779  1.00  0.00     0.293 HD
ENDBRANCH   6  22
BRANCH   8  24
ATOM     24  O   UNL     1      21.768  36.716   4.332  1.00  0.00    -0.508 OA
ATOM     25  H   UNL     1      22.011  36.377   5.256  1.00  0.00     0.293 HD
ENDBRANCH   8  24
TORSDOF 5
ENDMDL
MODEL 2
REMARK VINA RESULT:    -6.136      1.195      2.751
REMARK INTER + INTRA:          -7.505
REMARK INTER:                  -7.198
REMARK INTRA:                  -0.307
REMARK UNBOUND:                -0.293
REMARK SMILES O=c1cc(-c2ccc(O)c(O)c2)oc2cc(O)cc(O)c12
REMARK SMILES IDX 4 1 3 2 2 3 1 4 21 5 19 6 18 7 16 8 15 9 14 10 13 11 5 12
REMARK SMILES IDX 6 13 7 14 8 15 12 16 10 17 9 18 11 20 20 22 17 24
REMARK H PARENT 9 19 11 21 20 23 17 25
REMARK Flexibility Score: inf
ROOT
ATOM      1  C   UNL     1      17.889  40.658   5.995  1.00  0.00     0.138 A 
ATOM      2  C   UNL     1      18.647  39.481   6.046  1.00  0.00     0.100 A 
ATOM      3  C   UNL     1      19.566  39.208   5.032  1.00  0.00     0.197 A 
ATOM      4  O   UNL     1      20.276  38.174   5.136  1.00  0.00    -0.289 OA
ATOM      5  C   UNL     1      19.702  40.105   3.945  1.00  0.00     0.107 A 
ATOM      6  C   UNL     1      20.576  39.910   2.835  1.00  0.00     0.134 A 
ATOM      7  C   UNL     1      20.712  40.922   1.877  1.00  0.00     0.093 A 
ATOM      8  C   UNL     1      19.959  42.097   1.958  1.00  0.00     0.123 A 
ATOM      9  C   UNL     1      19.063  42.273   3.010  1.00  0.00     0.094 A 
ATOM     10  C   UNL     1      18.931  41.296   3.999  1.00  0.00     0.146 A 
ATOM     11  O   UNL     1      18.075  41.511   4.993  1.00  0.00    -0.456 OA
ENDROOT
BRANCH   1  12
ATOM     12  C   UNL     1      16.897  40.997   7.048  1.00  0.00     0.021 A 
ATOM     13  C   UNL     1      17.084  40.518   8.355  1.00  0.00     0.016 A 
ATOM     14  C   UNL     1      16.170  40.829   9.365  1.00  0.00     0.051 A 
ATOM     15  C   UNL     1      15.060  41.632   9.090  1.00  0.00     0.157 A 
ATOM     16  C   UNL     1      15.784  41.818   6.779  1.00  0.00     0.062 A 
ATOM     17  C   UNL     1      14.866  42.133   7.793  1.00  0.00     0.158 A 
BRANCH  15  18
ATOM     18  O   UNL     1      14.164  41.924  10.118  1.00  0.00    -0.504 OA
ATOM     19  H   UNL     1      13.307  42.437   9.954  1.00  0.00     0.293 HD
ENDBRANCH  15  18
BRANCH  17  20
ATOM     20  O   UNL     1      13.767  42.944   7.515  1.00  0.00    -0.504 OA
ATOM     21  H   UNL     1      13.293  43.465   8.243  1.00  0.00     0.293 HD
ENDBRANCH  17  20
ENDBRANCH   1  12
BRANCH   6  22
ATOM     22  O   UNL     1      21.309  38.740   2.613  1.00  0.00    -0.507 OA
ATOM     23  H   UNL     1      21.461  38.317   1.710  1.00  0.00     0.293 HD
ENDBRANCH   6  22
BRANCH   8  24
ATOM     24  O   UNL     1      20.089  43.092   0.992  1.00  0.00    -0.508 OA
ATOM     25  H   UNL     1      19.881  42.914   0.016  1.00  0.00     0.293 HD
ENDBRANCH   8  24
TORSDOF 5
ENDMDL
MODEL 3
REMARK VINA RESULT:    -5.259      2.066      2.183
REMARK INTER + INTRA:          -6.474
REMARK INTER:                  -6.157
REMARK INTRA:                  -0.318
REMARK UNBOUND:                -0.293
REMARK SMILES O=c1cc(-c2ccc(O)c(O)c2)oc2cc(O)cc(O)c12
REMARK SMILES IDX 4 1 3 2 2 3 1 4 21 5 19 6 18 7 16 8 15 9 14 10 13 11 5 12
REMARK SMILES IDX 6 13 7 14 8 15 12 16 10 17 9 18 11 20 20 22 17 24
REMARK H PARENT 9 19 11 21 20 23 17 25
REMARK Flexibility Score: inf
ROOT
ATOM      1  C   UNL     1      18.598  41.561   6.725  1.00  0.00     0.138 A 
ATOM      2  C   UNL     1      19.673  42.458   6.769  1.00  0.00     0.100 A 
ATOM      3  C   UNL     1      20.767  42.267   5.924  1.00  0.00     0.197 A 
ATOM      4  O   UNL     1      21.689  43.124   5.943  1.00  0.00    -0.289 OA
ATOM      5  C   UNL     1      20.796  41.152   5.052  1.00  0.00     0.107 A 
ATOM      6  C   UNL     1      21.875  40.835   4.175  1.00  0.00     0.134 A 
ATOM      7  C   UNL     1      21.743  39.772   3.274  1.00  0.00     0.093 A 
ATOM      8  C   UNL     1      20.592  38.978   3.260  1.00  0.00     0.123 A 
ATOM      9  C   UNL     1      19.555  39.248   4.150  1.00  0.00     0.094 A 
ATOM     10  C   UNL     1      19.644  40.322   5.037  1.00  0.00     0.146 A 
ATOM     11  O   UNL     1      18.625  40.553   5.858  1.00  0.00    -0.456 OA
ENDROOT
BRANCH   1  12
ATOM     12  C   UNL     1      17.410  41.717   7.603  1.00  0.00     0.021 A 
ATOM     13  C   UNL     1      17.394  42.736   8.571  1.00  0.00     0.016 A 
ATOM     14  C   UNL     1      16.286  42.908   9.403  1.00  0.00     0.051 A 
ATOM     15  C   UNL     1      15.171  42.076   9.278  1.00  0.00     0.157 A 
ATOM     16  C   UNL     1      16.278  40.889   7.471  1.00  0.00     0.062 A 
ATOM     17  C   UNL     1      15.164  41.062   8.305  1.00  0.00     0.158 A 
BRANCH  15  18
ATOM     18  O   UNL     1      14.080  42.271  10.124  1.00  0.00    -0.504 OA
ATOM     19  H   UNL     1      13.746  43.195  10.367  1.00  0.00     0.293 HD
ENDBRANCH  15  18
BRANCH  17  20
ATOM     20  O   UNL     1      14.050  40.235   8.168  1.00  0.00    -0.504 OA
ATOM     21  H   UNL     1      14.135  39.279   7.844  1.00  0.00     0.293 HD
ENDBRANCH  17  20
ENDBRANCH   1  12
BRANCH   6  22
ATOM     22  O   UNL     1      23.100  41.510   4.167  1.00  0.00    -0.507 OA
ATOM     23  H   UNL     1      23.746  41.524   3.392  1.00  0.00     0.293 HD
ENDBRANCH   6  22
BRANCH   8  24
ATOM     24  O   UNL     1      20.475  37.912   2.370  1.00  0.00    -0.508 OA
ATOM     25  H   UNL     1      20.577  38.043   1.370  1.00  0.00     0.293 HD
ENDBRANCH   8  24
TORSDOF 5
ENDMDL
MODEL 4
REMARK VINA RESULT:    -5.007      2.312      2.969
REMARK INTER + INTRA:          -6.178
REMARK INTER:                  -5.893
REMARK INTRA:                  -0.285
REMARK UNBOUND:                -0.293
REMARK SMILES O=c1cc(-c2ccc(O)c(O)c2)oc2cc(O)cc(O)c12
REMARK SMILES IDX 4 1 3 2 2 3 1 4 21 5 19 6 18 7 16 8 15 9 14 10 13 11 5 12
REMARK SMILES IDX 6 13 7 14 8 15 12 16 10 17 9 18 11 20 20 22 17 24
REMARK H PARENT 9 19 11 21 20 23 17 25
REMARK Flexibility Score: inf
ROOT
ATOM      1  C   UNL     1      18.401  41.835   6.542  1.00  0.00     0.138 A 
ATOM      2  C   UNL     1      19.640  42.345   6.953  1.00  0.00     0.100 A 
ATOM      3  C   UNL     1      20.690  42.432   6.038  1.00  0.00     0.197 A 
ATOM      4  O   UNL     1      21.770  42.951   6.421  1.00  0.00    -0.289 OA
ATOM      5  C   UNL     1      20.505  41.975   4.711  1.00  0.00     0.107 A 
ATOM      6  C   UNL     1      21.515  41.976   3.704  1.00  0.00     0.134 A 
ATOM      7  C   UNL     1      21.184  41.609   2.394  1.00  0.00     0.093 A 
ATOM      8  C   UNL     1      19.893  41.183   2.069  1.00  0.00     0.123 A 
ATOM      9  C   UNL     1      18.914  41.127   3.058  1.00  0.00     0.094 A 
ATOM     10  C   UNL     1      19.205  41.520   4.366  1.00  0.00     0.146 A 
ATOM     11  O   UNL     1      18.238  41.465   5.276  1.00  0.00    -0.456 OA
ENDROOT
BRANCH   1  12
ATOM     12  C   UNL     1      17.251  41.721   7.475  1.00  0.00     0.021 A 
ATOM     13  C   UNL     1      16.845  42.846   8.213  1.00  0.00     0.016 A 
ATOM     14  C   UNL     1      15.761  42.766   9.091  1.00  0.00     0.051 A 
ATOM     15  C   UNL     1      15.058  41.569   9.240  1.00  0.00     0.157 A 
ATOM     16  C   UNL     1      16.530  40.519   7.618  1.00  0.00     0.062 A 
ATOM     17  C   UNL     1      15.441  40.439   8.497  1.00  0.00     0.158 A 
BRANCH  15  18
ATOM     18  O   UNL     1      13.982  41.519  10.125  1.00  0.00    -0.504 OA
ATOM     19  H   UNL     1      13.933  42.109  10.946  1.00  0.00     0.293 HD
ENDBRANCH  15  18
BRANCH  17  20
ATOM     20  O   UNL     1      14.736  39.244   8.633  1.00  0.00    -0.504 OA
ATOM     21  H   UNL     1      15.049  38.511   9.259  1.00  0.00     0.293 HD
ENDBRANCH  17  20
ENDBRANCH   1  12
BRANCH   6  22
ATOM     22  O   UNL     1      22.855  42.302   3.940  1.00  0.00    -0.507 OA
ATOM     23  H   UNL     1      23.178  43.187   4.301  1.00  0.00     0.293 HD
ENDBRANCH   6  22
BRANCH   8  24
ATOM     24  O   UNL     1      19.577  40.804   0.766  1.00  0.00    -0.508 OA
ATOM     25  H   UNL     1      19.737  39.859   0.435  1.00  0.00     0.293 HD
ENDBRANCH   8  24
TORSDOF 5
ENDMDL
MODEL 5
REMARK VINA RESULT:    -4.837      1.431      6.933
REMARK INTER + INTRA:          -5.979
REMARK INTER:                  -5.661
REMARK INTRA:                  -0.317
REMARK UNBOUND:                -0.293
REMARK SMILES O=c1cc(-c2ccc(O)c(O)c2)oc2cc(O)cc(O)c12
REMARK SMILES IDX 4 1 3 2 2 3 1 4 21 5 19 6 18 7 16 8 15 9 14 10 13 11 5 12
REMARK SMILES IDX 6 13 7 14 8 15 12 16 10 17 9 18 11 20 20 22 17 24
REMARK H PARENT 9 19 11 21 20 23 17 25
REMARK Flexibility Score: inf
ROOT
ATOM      1  C   UNL     1      18.721  40.187   5.233  1.00  0.00     0.138 A 
ATOM      2  C   UNL     1      18.209  41.371   4.684  1.00  0.00     0.100 A 
ATOM      3  C   UNL     1      17.155  42.027   5.321  1.00  0.00     0.197 A 
ATOM      4  O   UNL     1      16.758  43.120   4.839  1.00  0.00    -0.289 OA
ATOM      5  C   UNL     1      16.590  41.476   6.496  1.00  0.00     0.107 A 
ATOM      6  C   UNL     1      15.487  42.035   7.207  1.00  0.00     0.134 A 
ATOM      7  C   UNL     1      15.089  41.466   8.422  1.00  0.00     0.093 A 
ATOM      8  C   UNL     1      15.717  40.321   8.922  1.00  0.00     0.123 A 
ATOM      9  C   UNL     1      16.760  39.737   8.207  1.00  0.00     0.094 A 
ATOM     10  C   UNL     1      17.202  40.301   7.009  1.00  0.00     0.146 A 
ATOM     11  O   UNL     1      18.210  39.720   6.367  1.00  0.00    -0.456 OA
ENDROOT
BRANCH   1  12
ATOM     12  C   UNL     1      19.842  39.449   4.596  1.00  0.00     0.021 A 
ATOM     13  C   UNL     1      20.456  39.979   3.449  1.00  0.00     0.016 A 
ATOM     14  C   UNL     1      21.517  39.308   2.836  1.00  0.00     0.051 A 
ATOM     15  C   UNL     1      21.990  38.103   3.362  1.00  0.00     0.157 A 
ATOM     16  C   UNL     1      20.331  38.241   5.130  1.00  0.00     0.062 A 
ATOM     17  C   UNL     1      21.397  37.567   4.517  1.00  0.00     0.158 A 
BRANCH  15  18
ATOM     18  O   UNL     1      23.049  37.455   2.728  1.00  0.00    -0.504 OA
ATOM     19  H   UNL     1      22.939  36.990   1.835  1.00  0.00     0.293 HD
ENDBRANCH  15  18
BRANCH  17  20
ATOM     20  O   UNL     1      21.871  36.371   5.054  1.00  0.00    -0.504 OA
ATOM     21  H   UNL     1      22.850  36.113   4.996  1.00  0.00     0.293 HD
ENDBRANCH  17  20
ENDBRANCH   1  12
BRANCH   6  22
ATOM     22  O   UNL     1      14.737  43.125   6.754  1.00  0.00    -0.507 OA
ATOM     23  H   UNL     1      15.123  43.950   6.319  1.00  0.00     0.293 HD
ENDBRANCH   6  22
BRANCH   8  24
ATOM     24  O   UNL     1      15.304  39.752  10.125  1.00  0.00    -0.508 OA
ATOM     25  H   UNL     1      15.891  39.100  10.632  1.00  0.00     0.293 HD
ENDBRANCH   8  24
TORSDOF 5
ENDMDL
MODEL 6
REMARK VINA RESULT:    -4.607      3.024      6.632
REMARK INTER + INTRA:          -5.708
REMARK INTER:                  -5.405
REMARK INTRA:                  -0.303
REMARK UNBOUND:                -0.293
REMARK SMILES O=c1cc(-c2ccc(O)c(O)c2)oc2cc(O)cc(O)c12
REMARK SMILES IDX 4 1 3 2 2 3 1 4 21 5 19 6 18 7 16 8 15 9 14 10 13 11 5 12
REMARK SMILES IDX 6 13 7 14 8 15 12 16 10 17 9 18 11 20 20 22 17 24
REMARK H PARENT 9 19 11 21 20 23 17 25
REMARK Flexibility Score: inf
ROOT
ATOM      1  C   UNL     1      18.605  42.317   4.948  1.00  0.00     0.138 A 
ATOM      2  C   UNL     1      19.625  42.760   5.800  1.00  0.00     0.100 A 
ATOM      3  C   UNL     1      19.522  42.537   7.174  1.00  0.00     0.197 A 
ATOM      4  O   UNL     1      20.481  42.891   7.907  1.00  0.00    -0.289 OA
ATOM      5  C   UNL     1      18.374  41.894   7.698  1.00  0.00     0.107 A 
ATOM      6  C   UNL     1      18.141  41.651   9.084  1.00  0.00     0.134 A 
ATOM      7  C   UNL     1      17.024  40.903   9.475  1.00  0.00     0.093 A 
ATOM      8  C   UNL     1      16.100  40.442   8.534  1.00  0.00     0.123 A 
ATOM      9  C   UNL     1      16.291  40.721   7.183  1.00  0.00     0.094 A 
ATOM     10  C   UNL     1      17.413  41.435   6.758  1.00  0.00     0.146 A 
ATOM     11  O   UNL     1      17.564  41.667   5.459  1.00  0.00    -0.456 OA
ENDROOT
BRANCH   1  12
ATOM     12  C   UNL     1      18.665  42.528   3.478  1.00  0.00     0.021 A 
ATOM     13  C   UNL     1      19.910  42.510   2.827  1.00  0.00     0.016 A 
ATOM     14  C   UNL     1      19.992  42.698   1.445  1.00  0.00     0.051 A 
ATOM     15  C   UNL     1      18.835  42.896   0.688  1.00  0.00     0.157 A 
ATOM     16  C   UNL     1      17.500  42.714   2.709  1.00  0.00     0.062 A 
ATOM     17  C   UNL     1      17.581  42.901   1.321  1.00  0.00     0.158 A 
BRANCH  15  18
ATOM     18  O   UNL     1      18.948  43.083  -0.689  1.00  0.00    -0.504 OA
ATOM     19  H   UNL     1      18.169  42.938  -1.318  1.00  0.00     0.293 HD
ENDBRANCH  15  18
BRANCH  17  20
ATOM     20  O   UNL     1      16.421  43.087   0.570  1.00  0.00    -0.504 OA
ATOM     21  H   UNL     1      15.531  42.702   0.863  1.00  0.00     0.293 HD
ENDBRANCH  17  20
ENDBRANCH   1  12
BRANCH   6  22
ATOM     22  O   UNL     1      18.955  42.139  10.111  1.00  0.00    -0.507 OA
ATOM     23  H   UNL     1      18.898  43.068  10.500  1.00  0.00     0.293 HD
ENDBRANCH   6  22
BRANCH   8  24
ATOM     24  O   UNL     1      14.983  39.711   8.934  1.00  0.00    -0.508 OA
ATOM     25  H   UNL     1      14.710  39.652   9.908  1.00  0.00     0.293 HD
ENDBRANCH   8  24
TORSDOF 5
ENDMDL
MODEL 7
REMARK VINA RESULT:    -4.024      3.476      6.644
REMARK INTER + INTRA:          -5.023
REMARK INTER:                  -4.727
REMARK INTRA:                  -0.296
REMARK UNBOUND:                -0.293
REMARK SMILES O=c1cc(-c2ccc(O)c(O)c2)oc2cc(O)cc(O)c12
REMARK SMILES IDX 4 1 3 2 2 3 1 4 21 5 19 6 18 7 16 8 15 9 14 10 13 11 5 12
REMARK SMILES IDX 6 13 7 14 8 15 12 16 10 17 9 18 11 20 20 22 17 24
REMARK H PARENT 9 19 11 21 20 23 17 25
REMARK Flexibility Score: inf
ROOT
ATOM      1  C   UNL     1      18.876  42.744   4.992  1.00  0.00     0.138 A 
ATOM      2  C   UNL     1      17.725  42.576   5.774  1.00  0.00     0.100 A 
ATOM      3  C   UNL     1      17.837  42.513   7.163  1.00  0.00     0.197 A 
ATOM      4  O   UNL     1      16.780  42.424   7.841  1.00  0.00    -0.289 OA
ATOM      5  C   UNL     1      19.114  42.589   7.770  1.00  0.00     0.107 A 
ATOM      6  C   UNL     1      19.353  42.496   9.173  1.00  0.00     0.134 A 
ATOM      7  C   UNL     1      20.646  42.702   9.668  1.00  0.00     0.093 A 
ATOM      8  C   UNL     1      21.720  42.937   8.804  1.00  0.00     0.123 A 
ATOM      9  C   UNL     1      21.504  42.976   7.429  1.00  0.00     0.094 A 
ATOM     10  C   UNL     1      20.220  42.809   6.907  1.00  0.00     0.146 A 
ATOM     11  O   UNL     1      20.057  42.868   5.590  1.00  0.00    -0.456 OA
ENDROOT
BRANCH   1  12
ATOM     12  C   UNL     1      18.814  42.817   3.510  1.00  0.00     0.021 A 
ATOM     13  C   UNL     1      20.006  42.891   2.770  1.00  0.00     0.016 A 
ATOM     14  C   UNL     1      19.975  42.952   1.375  1.00  0.00     0.051 A 
ATOM     15  C   UNL     1      18.756  42.929   0.694  1.00  0.00     0.157 A 
ATOM     16  C   UNL     1      17.588  42.779   2.818  1.00  0.00     0.062 A 
ATOM     17  C   UNL     1      17.555  42.838   1.417  1.00  0.00     0.158 A 
BRANCH  15  18
ATOM     18  O   UNL     1      18.756  42.993  -0.699  1.00  0.00    -0.504 OA
ATOM     19  H   UNL     1      19.551  42.698  -1.252  1.00  0.00     0.293 HD
ENDBRANCH  15  18
BRANCH  17  20
ATOM     20  O   UNL     1      16.335  42.804   0.742  1.00  0.00    -0.504 OA
ATOM     21  H   UNL     1      16.179  43.344  -0.101  1.00  0.00     0.293 HD
ENDBRANCH  17  20
ENDBRANCH   1  12
BRANCH   6  22
ATOM     22  O   UNL     1      18.368  42.181  10.115  1.00  0.00    -0.507 OA
ATOM     23  H   UNL     1      18.187  41.255  10.472  1.00  0.00     0.293 HD
ENDBRANCH   6  22
BRANCH   8  24
ATOM     24  O   UNL     1      23.006  43.125   9.305  1.00  0.00    -0.508 OA
ATOM     25  H   UNL     1      23.302  44.016   9.686  1.00  0.00     0.293 HD
ENDBRANCH   8  24
TORSDOF 5
ENDMDL
MODEL 8
REMARK VINA RESULT:    -3.788      2.600      6.804
REMARK INTER + INTRA:          -4.745
REMARK INTER:                  -4.474
REMARK INTRA:                  -0.271
REMARK UNBOUND:                -0.293
REMARK SMILES O=c1cc(-c2ccc(O)c(O)c2)oc2cc(O)cc(O)c12
REMARK SMILES IDX 4 1 3 2 2 3 1 4 21 5 19 6 18 7 16 8 15 9 14 10 13 11 5 12
REMARK SMILES IDX 6 13 7 14 8 15 12 16 10 17 9 18 11 20 20 22 17 24
REMARK H PARENT 9 19 11 21 20 23 17 25
REMARK Flexibility Score: inf
ROOT
ATOM      1  C   UNL     1      17.960  41.799   4.966  1.00  0.00     0.138 A 
ATOM      2  C   UNL     1      16.786  41.212   5.456  1.00  0.00     0.100 A 
ATOM      3  C   UNL     1      16.604  41.078   6.834  1.00  0.00     0.197 A 
ATOM      4  O   UNL     1      15.514  40.604   7.245  1.00  0.00    -0.289 OA
ATOM      5  C   UNL     1      17.620  41.506   7.722  1.00  0.00     0.107 A 
ATOM      6  C   UNL     1      17.562  41.382   9.142  1.00  0.00     0.134 A 
ATOM      7  C   UNL     1      18.575  41.947   9.926  1.00  0.00     0.093 A 
ATOM      8  C   UNL     1      19.674  42.579   9.337  1.00  0.00     0.123 A 
ATOM      9  C   UNL     1      19.766  42.657   7.949  1.00  0.00     0.094 A 
ATOM     10  C   UNL     1      18.754  42.134   7.142  1.00  0.00     0.146 A 
ATOM     11  O   UNL     1      18.874  42.243   5.823  1.00  0.00    -0.456 OA
ENDROOT
BRANCH   1  12
ATOM     12  C   UNL     1      18.204  41.965   3.510  1.00  0.00     0.021 A 
ATOM     13  C   UNL     1      17.490  42.943   2.796  1.00  0.00     0.016 A 
ATOM     14  C   UNL     1      17.707  43.125   1.429  1.00  0.00     0.051 A 
ATOM     15  C   UNL     1      18.647  42.344   0.752  1.00  0.00     0.157 A 
ATOM     16  C   UNL     1      19.161  41.190   2.826  1.00  0.00     0.062 A 
ATOM     17  C   UNL     1      19.381  41.373   1.453  1.00  0.00     0.158 A 
BRANCH  15  18
ATOM     18  O   UNL     1      18.841  42.547  -0.614  1.00  0.00    -0.504 OA
ATOM     19  H   UNL     1      19.004  41.780  -1.254  1.00  0.00     0.293 HD
ENDBRANCH  15  18
BRANCH  17  20
ATOM     20  O   UNL     1      20.328  40.598   0.786  1.00  0.00    -0.504 OA
ATOM     21  H   UNL     1      21.187  40.304   1.236  1.00  0.00     0.293 HD
ENDBRANCH  17  20
ENDBRANCH   1  12
BRANCH   6  22
ATOM     22  O   UNL     1      16.553  40.697   9.826  1.00  0.00    -0.507 OA
ATOM     23  H   UNL     1      16.028  41.069  10.603  1.00  0.00     0.293 HD
ENDBRANCH   6  22
BRANCH   8  24
ATOM     24  O   UNL     1      20.686  43.125  10.125  1.00  0.00    -0.508 OA
ATOM     25  H   UNL     1      21.373  43.762   9.739  1.00  0.00     0.293 HD
ENDBRANCH   8  24
TORSDOF 5
ENDMDL
