MODEL 1
REMARK VINA RESULT:    -4.158      0.000      0.000
REMARK INTER + INTRA:          -6.477
REMARK INTER:                  -6.346
REMARK INTRA:                  -0.131
REMARK UNBOUND:                -0.131
REMARK SMILES CC1=CCC[C@@H](C)C(=O)C[C@H](C(C)C)C(=O)C1
REMARK SMILES IDX 8 1 9 2 6 3 7 4 5 5 4 6 3 7 2 8 1 9 10 11 11 12 15 13 16 14
REMARK SMILES IDX 17 15 12 17 13 18 14 19
REMARK H PARENT
REMARK Flexibility Score: 70.00
ROOT
ATOM      1  C   UNL     1      -8.588  18.885  12.746  1.00  0.00     0.136 C 
ATOM      2  O   UNL     1      -8.495  20.089  12.556  1.00  0.00    -0.299 OA
ENDROOT
BRANCH   1   3
ATOM      3  C   UNL     1      -9.687  18.126  12.004  1.00  0.00     0.053 C 
ATOM      4  C   UNL     1      -9.767  18.537  10.522  1.00  0.00     0.016 C 
BRANCH   3   5
ATOM      5  C   UNL     1     -11.091  18.069  12.665  1.00  0.00     0.015 C 
BRANCH   5   6
ATOM      6  C   UNL     1     -11.748  16.697  12.924  1.00  0.00     0.028 C 
BRANCH   6   7
ATOM      7  C   UNL     1     -10.816  15.512  12.970  1.00  0.00    -0.028 C 
ATOM      8  C   UNL     1      -9.823  15.266  13.867  1.00  0.00    -0.070 CG0
ATOM      9  C   UNL     1      -8.955  14.060  13.594  1.00  0.00     0.039 C 
ATOM     10  G   UNL     1      -9.615  15.981  15.201  1.00  0.00     0.000 G0
ENDBRANCH   6   7
ENDBRANCH   5   6
ENDBRANCH   3   5
ENDBRANCH   1   3
BRANCH   1  11
ATOM     11  C   UNL     1      -7.524  18.235  13.605  1.00  0.00     0.087 C 
BRANCH  11  12
ATOM     12  C   UNL     1      -7.986  18.037  15.075  1.00  0.00     0.066 C 
BRANCH  12  13
ATOM     13  C   UNL     1      -8.244  16.569  15.411  1.00  0.00     0.140 C 
ATOM     14  O   UNL     1      -7.367  15.868  15.894  1.00  0.00    -0.299 OA
BRANCH  13  15
ATOM     15  C   UNL     1      -9.611  15.975  15.200  1.00  0.00     0.106 CG0
ATOM     16  G   UNL     1      -9.844  15.262  13.868  1.00  0.00     0.000 G0
ENDBRANCH  13  15
ENDBRANCH  12  13
BRANCH  12  17
ATOM     17  C   UNL     1      -7.055  18.786  16.082  1.00  0.00    -0.006 C 
ATOM     18  C   UNL     1      -6.827  20.250  15.677  1.00  0.00     0.008 C 
ATOM     19  C   UNL     1      -7.502  18.694  17.554  1.00  0.00     0.008 C 
ENDBRANCH  12  17
ENDBRANCH  11  12
ENDBRANCH   1  11
TORSDOF 1
ENDMDL
MODEL 2
REMARK VINA RESULT:    -3.914      6.774      8.537
REMARK INTER + INTRA:          -6.104
REMARK INTER:                  -5.762
REMARK INTRA:                  -0.342
REMARK UNBOUND:                -0.131
REMARK SMILES CC1=CCC[C@@H](C)C(=O)C[C@H](C(C)C)C(=O)C1
REMARK SMILES IDX 8 1 9 2 6 3 7 4 5 5 4 6 3 7 2 8 1 9 10 11 11 12 15 13 16 14
REMARK SMILES IDX 17 15 12 17 13 18 14 19
REMARK H PARENT
REMARK Flexibility Score: 70.00
ROOT
ATOM      1  C   UNL     1      -9.424  20.557   6.279  1.00  0.00     0.136 C 
ATOM      2  O   UNL     1     -10.392  21.287   6.124  1.00  0.00    -0.299 OA
ENDROOT
BRANCH   1   3
ATOM      3  C   UNL     1      -8.118  20.944   5.588  1.00  0.00     0.053 C 
ATOM      4  C   UNL     1      -8.033  20.372   4.160  1.00  0.00     0.016 C 
BRANCH   3   5
ATOM      5  C   UNL     1      -6.798  20.729   6.376  1.00  0.00     0.015 C 
BRANCH   5   6
ATOM      6  C   UNL     1      -5.865  19.564   5.984  1.00  0.00     0.028 C 
BRANCH   6   7
ATOM      7  C   UNL     1      -5.328  18.731   7.122  1.00  0.00    -0.028 C 
ATOM      8  C   UNL     1      -5.885  17.621   7.678  1.00  0.00    -0.070 CG0
ATOM      9  C   UNL     1      -5.191  17.063   8.898  1.00  0.00     0.039 C 
ATOM     10  G   UNL     1      -7.027  16.794   7.090  1.00  0.00     0.000 G0
ENDBRANCH   6   7
ENDBRANCH   5   6
ENDBRANCH   3   5
ENDBRANCH   1   3
BRANCH   1  11
ATOM     11  C   UNL     1      -9.575  19.400   7.245  1.00  0.00     0.087 C 
BRANCH  11  12
ATOM     12  C   UNL     1      -9.266  18.029   6.583  1.00  0.00     0.066 C 
BRANCH  12  13
ATOM     13  C   UNL     1      -8.422  17.127   7.482  1.00  0.00     0.140 C 
ATOM     14  O   UNL     1      -8.883  16.646   8.507  1.00  0.00    -0.299 OA
BRANCH  13  15
ATOM     15  C   UNL     1      -7.014  16.770   7.086  1.00  0.00     0.106 CG0
ATOM     16  G   UNL     1      -5.902  17.633   7.679  1.00  0.00     0.000 G0
ENDBRANCH  13  15
ENDBRANCH  12  13
BRANCH  12  17
ATOM     17  C   UNL     1     -10.554  17.358   6.006  1.00  0.00    -0.006 C 
ATOM     18  C   UNL     1     -11.008  18.016   4.694  1.00  0.00     0.008 C 
ATOM     19  C   UNL     1     -10.460  15.829   5.842  1.00  0.00     0.008 C 
ENDBRANCH  12  17
ENDBRANCH  11  12
ENDBRANCH   1  11
TORSDOF 1
ENDMDL
MODEL 3
REMARK VINA RESULT:    -3.872      7.008      8.786
REMARK INTER + INTRA:          -6.040
REMARK INTER:                  -5.840
REMARK INTRA:                  -0.200
REMARK UNBOUND:                -0.131
REMARK SMILES CC1=CCC[C@@H](C)C(=O)C[C@H](C(C)C)C(=O)C1
REMARK SMILES IDX 8 1 9 2 6 3 7 4 5 5 4 6 3 7 2 8 1 9 10 11 11 12 15 13 16 14
REMARK SMILES IDX 17 15 12 17 13 18 14 19
REMARK H PARENT
REMARK Flexibility Score: 70.00
ROOT
ATOM      1  C   UNL     1     -10.826  18.174   5.214  1.00  0.00     0.136 C 
ATOM      2  O   UNL     1     -10.568  18.334   4.029  1.00  0.00    -0.299 OA
ENDROOT
BRANCH   1   3
ATOM      3  C   UNL     1     -11.319  19.381   6.008  1.00  0.00     0.053 C 
ATOM      4  C   UNL     1     -12.704  19.857   5.529  1.00  0.00     0.016 C 
BRANCH   3   5
ATOM      5  C   UNL     1     -10.335  20.567   6.197  1.00  0.00     0.015 C 
BRANCH   5   6
ATOM      6  C   UNL     1      -9.078  20.374   7.071  1.00  0.00     0.028 C 
BRANCH   6   7
ATOM      7  C   UNL     1      -7.844  19.877   6.360  1.00  0.00    -0.028 C 
ATOM      8  C   UNL     1      -7.099  18.777   6.652  1.00  0.00    -0.070 CG0
ATOM      9  C   UNL     1      -5.833  18.592   5.849  1.00  0.00     0.039 C 
ATOM     10  G   UNL     1      -7.506  17.632   7.579  1.00  0.00     0.000 G0
ENDBRANCH   6   7
ENDBRANCH   5   6
ENDBRANCH   3   5
ENDBRANCH   1   3
BRANCH   1  11
ATOM     11  C   UNL     1     -10.753  16.761   5.754  1.00  0.00     0.087 C 
BRANCH  11  12
ATOM     12  C   UNL     1      -9.312  16.363   6.179  1.00  0.00     0.066 C 
BRANCH  12  13
ATOM     13  C   UNL     1      -8.873  17.059   7.467  1.00  0.00     0.140 C 
ATOM     14  O   UNL     1      -9.622  17.136   8.430  1.00  0.00    -0.299 OA
BRANCH  13  15
ATOM     15  C   UNL     1      -7.480  17.615   7.588  1.00  0.00     0.106 CG0
ATOM     16  G   UNL     1      -7.125  18.767   6.649  1.00  0.00     0.000 G0
ENDBRANCH  13  15
ENDBRANCH  12  13
BRANCH  12  17
ATOM     17  C   UNL     1      -9.112  14.813   6.171  1.00  0.00    -0.006 C 
ATOM     18  C   UNL     1      -9.820  14.147   4.981  1.00  0.00     0.008 C 
ATOM     19  C   UNL     1      -7.642  14.359   6.251  1.00  0.00     0.008 C 
ENDBRANCH  12  17
ENDBRANCH  11  12
ENDBRANCH   1  11
TORSDOF 1
ENDMDL
MODEL 4
REMARK VINA RESULT:    -3.858      6.850      8.815
REMARK INTER + INTRA:          -6.020
REMARK INTER:                  -5.500
REMARK INTRA:                  -0.519
REMARK UNBOUND:                -0.131
REMARK SMILES CC1=CCC[C@@H](C)C(=O)C[C@H](C(C)C)C(=O)C1
REMARK SMILES IDX 8 1 9 2 6 3 7 4 5 5 4 6 3 7 2 8 1 9 10 11 11 12 15 13 16 14
REMARK SMILES IDX 17 15 12 17 13 18 14 19
REMARK H PARENT
REMARK Flexibility Score: 70.00
ROOT
ATOM      1  C   UNL     1      -9.907  19.261   8.120  1.00  0.00     0.136 C 
ATOM      2  O   UNL     1      -9.603  19.635   9.243  1.00  0.00    -0.299 OA
ENDROOT
BRANCH   1   3
ATOM      3  C   UNL     1     -10.355  20.315   7.111  1.00  0.00     0.053 C 
ATOM      4  C   UNL     1     -11.730  19.979   6.502  1.00  0.00     0.016 C 
BRANCH   3   5
ATOM      5  C   UNL     1      -9.333  20.752   6.026  1.00  0.00     0.015 C 
BRANCH   5   6
ATOM      6  C   UNL     1      -7.961  21.306   6.461  1.00  0.00     0.028 C 
BRANCH   6   7
ATOM      7  C   UNL     1      -6.754  20.677   5.811  1.00  0.00    -0.028 C 
ATOM      8  C   UNL     1      -6.080  19.563   6.206  1.00  0.00    -0.070 CG0
ATOM      9  C   UNL     1      -4.821  19.234   5.439  1.00  0.00     0.039 C 
ATOM     10  G   UNL     1      -6.562  18.529   7.223  1.00  0.00     0.000 G0
ENDBRANCH   6   7
ENDBRANCH   5   6
ENDBRANCH   3   5
ENDBRANCH   1   3
BRANCH   1  11
ATOM     11  C   UNL     1      -9.690  17.797   7.795  1.00  0.00     0.087 C 
BRANCH  11  12
ATOM     12  C   UNL     1      -8.912  17.593   6.465  1.00  0.00     0.066 C 
BRANCH  12  13
ATOM     13  C   UNL     1      -7.416  17.383   6.694  1.00  0.00     0.140 C 
ATOM     14  O   UNL     1      -6.877  16.323   6.412  1.00  0.00    -0.299 OA
BRANCH  13  15
ATOM     15  C   UNL     1      -6.567  18.508   7.224  1.00  0.00     0.106 CG0
ATOM     16  G   UNL     1      -6.093  19.540   6.202  1.00  0.00     0.000 G0
ENDBRANCH  13  15
ENDBRANCH  12  13
BRANCH  12  17
ATOM     17  C   UNL     1      -9.592  16.523   5.552  1.00  0.00    -0.006 C 
ATOM     18  C   UNL     1     -10.533  15.604   6.346  1.00  0.00     0.008 C 
ATOM     19  C   UNL     1     -10.311  17.100   4.318  1.00  0.00     0.008 C 
ENDBRANCH  12  17
ENDBRANCH  11  12
ENDBRANCH   1  11
TORSDOF 1
ENDMDL
MODEL 5
REMARK VINA RESULT:    -3.777      2.030      4.399
REMARK INTER + INTRA:          -5.896
REMARK INTER:                  -5.580
REMARK INTRA:                  -0.316
REMARK UNBOUND:                -0.131
REMARK SMILES CC1=CCC[C@@H](C)C(=O)C[C@H](C(C)C)C(=O)C1
REMARK SMILES IDX 8 1 9 2 6 3 7 4 5 5 4 6 3 7 2 8 1 9 10 11 11 12 15 13 16 14
REMARK SMILES IDX 17 15 12 17 13 18 14 19
REMARK H PARENT
REMARK Flexibility Score: 70.00
ROOT
ATOM      1  C   UNL     1      -9.365  18.554  11.782  1.00  0.00     0.136 C 
ATOM      2  O   UNL     1      -9.339  19.488  10.994  1.00  0.00    -0.299 OA
ENDROOT
BRANCH   1   3
ATOM      3  C   UNL     1      -8.388  18.580  12.955  1.00  0.00     0.053 C 
ATOM      4  C   UNL     1      -8.073  20.019  13.407  1.00  0.00     0.016 C 
BRANCH   3   5
ATOM      5  C   UNL     1      -7.103  17.716  12.840  1.00  0.00     0.015 C 
BRANCH   5   6
ATOM      6  C   UNL     1      -7.019  16.381  13.609  1.00  0.00     0.028 C 
BRANCH   6   7
ATOM      7  C   UNL     1      -7.924  16.248  14.809  1.00  0.00    -0.028 C 
ATOM      8  C   UNL     1      -9.124  15.612  14.882  1.00  0.00    -0.070 CG0
ATOM      9  C   UNL     1      -9.878  15.749  16.184  1.00  0.00     0.039 C 
ATOM     10  G   UNL     1      -9.694  14.639  13.851  1.00  0.00     0.000 G0
ENDBRANCH   6   7
ENDBRANCH   5   6
ENDBRANCH   3   5
ENDBRANCH   1   3
BRANCH   1  11
ATOM     11  C   UNL     1     -10.450  17.516  11.590  1.00  0.00     0.087 C 
BRANCH  11  12
ATOM     12  C   UNL     1      -9.899  16.064  11.638  1.00  0.00     0.066 C 
BRANCH  12  13
ATOM     13  C   UNL     1     -10.552  15.231  12.741  1.00  0.00     0.140 C 
ATOM     14  O   UNL     1     -11.752  15.000  12.731  1.00  0.00    -0.299 OA
BRANCH  13  15
ATOM     15  C   UNL     1      -9.709  14.631  13.834  1.00  0.00     0.106 CG0
ATOM     16  G   UNL     1      -9.131  15.605  14.859  1.00  0.00     0.000 G0
ENDBRANCH  13  15
ENDBRANCH  12  13
BRANCH  12  17
ATOM     17  C   UNL     1      -9.898  15.395  10.226  1.00  0.00    -0.006 C 
ATOM     18  C   UNL     1      -9.364  16.343   9.141  1.00  0.00     0.008 C 
ATOM     19  C   UNL     1      -9.175  14.036  10.163  1.00  0.00     0.008 C 
ENDBRANCH  12  17
ENDBRANCH  11  12
ENDBRANCH   1  11
TORSDOF 1
ENDMDL
MODEL 6
REMARK VINA RESULT:    -3.771      6.498      7.943
REMARK INTER + INTRA:          -5.886
REMARK INTER:                  -5.856
REMARK INTRA:                  -0.030
REMARK UNBOUND:                -0.131
REMARK SMILES CC1=CCC[C@@H](C)C(=O)C[C@H](C(C)C)C(=O)C1
REMARK SMILES IDX 8 1 9 2 6 3 7 4 5 5 4 6 3 7 2 8 1 9 10 11 11 12 15 13 16 14
REMARK SMILES IDX 17 15 12 17 13 18 14 19
REMARK H PARENT
REMARK Flexibility Score: 70.00
ROOT
ATOM      1  C   UNL     1     -10.681  19.802   6.005  1.00  0.00     0.136 C 
ATOM      2  O   UNL     1     -10.643  21.024   5.975  1.00  0.00    -0.299 OA
ENDROOT
BRANCH   1   3
ATOM      3  C   UNL     1     -11.116  19.069   4.738  1.00  0.00     0.053 C 
ATOM      4  C   UNL     1     -12.649  19.046   4.586  1.00  0.00     0.016 C 
BRANCH   3   5
ATOM      5  C   UNL     1     -10.487  17.676   4.463  1.00  0.00     0.015 C 
BRANCH   5   6
ATOM      6  C   UNL     1     -10.741  16.523   5.456  1.00  0.00     0.028 C 
BRANCH   6   7
ATOM      7  C   UNL     1      -9.557  15.641   5.766  1.00  0.00    -0.028 C 
ATOM      8  C   UNL     1      -8.657  15.777   6.777  1.00  0.00    -0.070 CG0
ATOM      9  C   UNL     1      -7.490  14.818   6.770  1.00  0.00     0.039 C 
ATOM     10  G   UNL     1      -8.805  16.680   8.001  1.00  0.00     0.000 G0
ENDBRANCH   6   7
ENDBRANCH   5   6
ENDBRANCH   3   5
ENDBRANCH   1   3
BRANCH   1  11
ATOM     11  C   UNL     1     -10.172  19.123   7.259  1.00  0.00     0.087 C 
BRANCH  11  12
ATOM     12  C   UNL     1      -8.627  19.216   7.399  1.00  0.00     0.066 C 
BRANCH  12  13
ATOM     13  C   UNL     1      -8.024  17.959   8.024  1.00  0.00     0.140 C 
ATOM     14  O   UNL     1      -6.933  17.989   8.575  1.00  0.00    -0.299 OA
BRANCH  13  15
ATOM     15  C   UNL     1      -8.796  16.667   8.017  1.00  0.00     0.106 CG0
ATOM     16  G   UNL     1      -8.643  15.790   6.775  1.00  0.00     0.000 G0
ENDBRANCH  13  15
ENDBRANCH  12  13
BRANCH  12  17
ATOM     17  C   UNL     1      -7.950  19.677   6.069  1.00  0.00    -0.006 C 
ATOM     18  C   UNL     1      -7.210  21.014   6.232  1.00  0.00     0.008 C 
ATOM     19  C   UNL     1      -7.030  18.624   5.423  1.00  0.00     0.008 C 
ENDBRANCH  12  17
ENDBRANCH  11  12
ENDBRANCH   1  11
TORSDOF 1
ENDMDL
MODEL 7
REMARK VINA RESULT:    -3.730      4.239      7.038
REMARK INTER + INTRA:          -5.824
REMARK INTER:                  -5.524
REMARK INTRA:                  -0.300
REMARK UNBOUND:                -0.131
REMARK SMILES CC1=CCC[C@@H](C)C(=O)C[C@H](C(C)C)C(=O)C1
REMARK SMILES IDX 8 1 9 2 6 3 7 4 5 5 4 6 3 7 2 8 1 9 10 11 11 12 15 13 16 14
REMARK SMILES IDX 17 15 12 17 13 18 14 19
REMARK H PARENT
REMARK Flexibility Score: 70.00
ROOT
ATOM      1  C   UNL     1      -9.955  18.622   9.692  1.00  0.00     0.136 C 
ATOM      2  O   UNL     1      -9.658  19.778   9.957  1.00  0.00    -0.299 OA
ENDROOT
BRANCH   1   3
ATOM      3  C   UNL     1     -10.352  17.703  10.845  1.00  0.00     0.053 C 
ATOM      4  C   UNL     1     -10.277  18.423  12.204  1.00  0.00     0.016 C 
BRANCH   3   5
ATOM      5  C   UNL     1      -9.699  16.295  10.899  1.00  0.00     0.015 C 
BRANCH   5   6
ATOM      6  C   UNL     1      -8.168  16.168  10.761  1.00  0.00     0.028 C 
BRANCH   6   7
ATOM      7  C   UNL     1      -7.671  15.411   9.554  1.00  0.00    -0.028 C 
ATOM      8  C   UNL     1      -7.273  15.919   8.356  1.00  0.00    -0.070 CG0
ATOM      9  C   UNL     1      -6.947  14.915   7.276  1.00  0.00     0.039 C 
ATOM     10  G   UNL     1      -6.961  17.385   8.057  1.00  0.00     0.000 G0
ENDBRANCH   6   7
ENDBRANCH   5   6
ENDBRANCH   3   5
ENDBRANCH   1   3
BRANCH   1  11
ATOM     11  C   UNL     1     -10.021  18.242   8.227  1.00  0.00     0.087 C 
BRANCH  11  12
ATOM     12  C   UNL     1      -8.944  18.969   7.376  1.00  0.00     0.066 C 
BRANCH  12  13
ATOM     13  C   UNL     1      -7.793  18.044   6.981  1.00  0.00     0.140 C 
ATOM     14  O   UNL     1      -7.503  17.862   5.808  1.00  0.00    -0.299 OA
BRANCH  13  15
ATOM     15  C   UNL     1      -6.958  17.381   8.043  1.00  0.00     0.106 CG0
ATOM     16  G   UNL     1      -7.284  15.920   8.351  1.00  0.00     0.000 G0
ENDBRANCH  13  15
ENDBRANCH  12  13
BRANCH  12  17
ATOM     17  C   UNL     1      -9.580  19.766   6.192  1.00  0.00    -0.006 C 
ATOM     18  C   UNL     1     -11.073  20.046   6.422  1.00  0.00     0.008 C 
ATOM     19  C   UNL     1      -8.836  21.063   5.822  1.00  0.00     0.008 C 
ENDBRANCH  12  17
ENDBRANCH  11  12
ENDBRANCH   1  11
TORSDOF 1
ENDMDL
MODEL 8
REMARK VINA RESULT:    -3.609      4.758      7.593
REMARK INTER + INTRA:          -5.639
REMARK INTER:                  -5.384
REMARK INTRA:                  -0.256
REMARK UNBOUND:                -0.131
REMARK SMILES CC1=CCC[C@@H](C)C(=O)C[C@H](C(C)C)C(=O)C1
REMARK SMILES IDX 8 1 9 2 6 3 7 4 5 5 4 6 3 7 2 8 1 9 10 11 11 12 15 13 16 14
REMARK SMILES IDX 17 15 12 17 13 18 14 19
REMARK H PARENT
REMARK Flexibility Score: 70.00
ROOT
ATOM      1  C   UNL     1      -7.128  20.019   6.547  1.00  0.00     0.136 C 
ATOM      2  O   UNL     1      -6.562  20.871   5.879  1.00  0.00    -0.299 OA
ENDROOT
BRANCH   1   3
ATOM      3  C   UNL     1      -6.271  18.943   7.209  1.00  0.00     0.053 C 
ATOM      4  C   UNL     1      -4.888  19.483   7.620  1.00  0.00     0.016 C 
BRANCH   3   5
ATOM      5  C   UNL     1      -6.166  17.568   6.495  1.00  0.00     0.015 C 
BRANCH   5   6
ATOM      6  C   UNL     1      -6.851  16.336   7.123  1.00  0.00     0.028 C 
BRANCH   6   7
ATOM      7  C   UNL     1      -6.909  16.304   8.629  1.00  0.00    -0.028 C 
ATOM      8  C   UNL     1      -7.912  16.747   9.435  1.00  0.00    -0.070 CG0
ATOM      9  C   UNL     1      -7.644  16.710  10.922  1.00  0.00     0.039 C 
ATOM     10  G   UNL     1      -9.330  17.108   8.995  1.00  0.00     0.000 G0
ENDBRANCH   6   7
ENDBRANCH   5   6
ENDBRANCH   3   5
ENDBRANCH   1   3
BRANCH   1  11
ATOM     11  C   UNL     1      -8.619  20.183   6.760  1.00  0.00     0.087 C 
BRANCH  11  12
ATOM     12  C   UNL     1      -9.337  18.826   6.999  1.00  0.00     0.066 C 
BRANCH  12  13
ATOM     13  C   UNL     1      -9.522  18.520   8.485  1.00  0.00     0.140 C 
ATOM     14  O   UNL     1      -9.875  19.389   9.269  1.00  0.00    -0.299 OA
BRANCH  13  15
ATOM     15  C   UNL     1      -9.325  17.119   8.999  1.00  0.00     0.106 CG0
ATOM     16  G   UNL     1      -7.910  16.753   9.447  1.00  0.00     0.000 G0
ENDBRANCH  13  15
ENDBRANCH  12  13
BRANCH  12  17
ATOM     17  C   UNL     1     -10.633  18.694   6.137  1.00  0.00    -0.006 C 
ATOM     18  C   UNL     1     -11.327  20.050   5.930  1.00  0.00     0.008 C 
ATOM     19  C   UNL     1     -10.434  17.976   4.788  1.00  0.00     0.008 C 
ENDBRANCH  12  17
ENDBRANCH  11  12
ENDBRANCH   1  11
TORSDOF 1
ENDMDL
MODEL 9
REMARK VINA RESULT:    -3.595      3.450      4.803
REMARK INTER + INTRA:          -5.618
REMARK INTER:                  -5.375
REMARK INTRA:                  -0.243
REMARK UNBOUND:                -0.131
REMARK SMILES CC1=CCC[C@@H](C)C(=O)C[C@H](C(C)C)C(=O)C1
REMARK SMILES IDX 8 1 9 2 6 3 7 4 5 5 4 6 3 7 2 8 1 9 10 11 11 12 15 13 16 14
REMARK SMILES IDX 17 15 12 17 13 18 14 19
REMARK H PARENT
REMARK Flexibility Score: 70.00
ROOT
ATOM      1  C   UNL     1      -9.465  18.027   9.730  1.00  0.00     0.136 C 
ATOM      2  O   UNL     1      -9.930  19.114   9.419  1.00  0.00    -0.299 OA
ENDROOT
BRANCH   1   3
ATOM      3  C   UNL     1      -8.921  17.136   8.615  1.00  0.00     0.053 C 
ATOM      4  C   UNL     1      -8.152  17.947   7.556  1.00  0.00     0.016 C 
BRANCH   3   5
ATOM      5  C   UNL     1      -9.900  16.119   7.967  1.00  0.00     0.015 C 
BRANCH   5   6
ATOM      6  C   UNL     1      -9.461  14.650   7.799  1.00  0.00     0.028 C 
BRANCH   6   7
ATOM      7  C   UNL     1      -8.086  14.304   8.313  1.00  0.00    -0.028 C 
ATOM      8  C   UNL     1      -7.685  14.186   9.608  1.00  0.00    -0.070 CG0
ATOM      9  C   UNL     1      -6.209  13.958   9.836  1.00  0.00     0.039 C 
ATOM     10  G   UNL     1      -8.598  14.086  10.829  1.00  0.00     0.000 G0
ENDBRANCH   6   7
ENDBRANCH   5   6
ENDBRANCH   3   5
ENDBRANCH   1   3
BRANCH   1  11
ATOM     11  C   UNL     1      -9.357  17.716  11.208  1.00  0.00     0.087 C 
BRANCH  11  12
ATOM     12  C   UNL     1      -9.846  16.281  11.551  1.00  0.00     0.066 C 
BRANCH  12  13
ATOM     13  C   UNL     1      -8.688  15.298  11.716  1.00  0.00     0.140 C 
ATOM     14  O   UNL     1      -7.841  15.459  12.583  1.00  0.00    -0.299 OA
BRANCH  13  15
ATOM     15  C   UNL     1      -8.604  14.076  10.841  1.00  0.00     0.106 CG0
ATOM     16  G   UNL     1      -7.698  14.178   9.615  1.00  0.00     0.000 G0
ENDBRANCH  13  15
ENDBRANCH  12  13
BRANCH  12  17
ATOM     17  C   UNL     1     -10.876  16.283  12.725  1.00  0.00    -0.006 C 
ATOM     18  C   UNL     1     -11.482  17.676  12.957  1.00  0.00     0.008 C 
ATOM     19  C   UNL     1     -11.986  15.222  12.603  1.00  0.00     0.008 C 
ENDBRANCH  12  17
ENDBRANCH  11  12
ENDBRANCH   1  11
TORSDOF 1
ENDMDL
