MODEL 1
REMARK VINA RESULT:    -5.604      0.000      0.000
REMARK INTER + INTRA:          -5.604
REMARK INTER:                  -5.604
REMARK INTRA:                   0.000
REMARK UNBOUND:                 0.000
REMARK SMILES C=C1CCC[C@]2(C)CC(=O)C(=C(C)C)C[C@@H]12
REMARK SMILES IDX 13 1 12 2 11 3 15 4 16 5 2 6 1 7 3 8 4 9 5 10 6 11 8 12 9 13
REMARK SMILES IDX 10 14 7 15 14 16
REMARK H PARENT
REMARK Flexibility Score: inf
ROOT
ATOM      1  C   UNL     1     130.708 144.326 116.029  1.00  0.00     0.039 C 
ATOM      2  C   UNL     1     129.354 143.681 115.835  1.00  0.00    -0.070 C 
ATOM      3  C   UNL     1     129.219 142.322 115.773  1.00  0.00    -0.006 C 
ATOM      4  C   UNL     1     130.430 141.405 115.874  1.00  0.00     0.047 C 
ATOM      5  C   UNL     1     130.250 140.086 115.082  1.00  0.00     0.025 C 
ATOM      6  C   UNL     1     131.419 139.105 115.178  1.00  0.00    -0.073 C 
ATOM      7  C   UNL     1     132.536 139.331 115.897  1.00  0.00     0.008 C 
ATOM      8  C   UNL     1     131.296 137.837 114.367  1.00  0.00     0.031 C 
ATOM      9  C   UNL     1     129.976 137.129 114.683  1.00  0.00     0.005 C 
ATOM     10  C   UNL     1     128.775 138.081 114.551  1.00  0.00     0.008 C 
ATOM     11  C   UNL     1     128.911 139.362 115.428  1.00  0.00    -0.018 C 
ATOM     12  C   UNL     1     127.735 140.309 115.084  1.00  0.00     0.088 C 
ATOM     13  C   UNL     1     127.885 141.657 115.729  1.00  0.00     0.159 C 
ATOM     14  O   UNL     1     126.867 142.197 116.239  1.00  0.00    -0.295 OA
ATOM     15  C   UNL     1     128.835 138.974 116.931  1.00  0.00     0.012 C 
ATOM     16  C   UNL     1     128.170 144.607 115.677  1.00  0.00     0.039 C 
ENDROOT
TORSDOF 0
ENDMDL
MODEL 2
REMARK VINA RESULT:    -5.548      1.768      5.427
REMARK INTER + INTRA:          -5.548
REMARK INTER:                  -5.548
REMARK INTRA:                   0.000
REMARK UNBOUND:                 0.000
REMARK SMILES C=C1CCC[C@]2(C)CC(=O)C(=C(C)C)C[C@@H]12
REMARK SMILES IDX 13 1 12 2 11 3 15 4 16 5 2 6 1 7 3 8 4 9 5 10 6 11 8 12 9 13
REMARK SMILES IDX 10 14 7 15 14 16
REMARK H PARENT
REMARK Flexibility Score: inf
ROOT
ATOM      1  C   UNL     1     127.166 137.660 114.549  1.00  0.00     0.039 C 
ATOM      2  C   UNL     1     128.631 138.017 114.671  1.00  0.00    -0.070 C 
ATOM      3  C   UNL     1     129.025 139.247 115.118  1.00  0.00    -0.006 C 
ATOM      4  C   UNL     1     128.005 140.314 115.490  1.00  0.00     0.047 C 
ATOM      5  C   UNL     1     128.527 141.753 115.246  1.00  0.00     0.025 C 
ATOM      6  C   UNL     1     127.560 142.870 115.639  1.00  0.00    -0.073 C 
ATOM      7  C   UNL     1     126.340 142.659 116.171  1.00  0.00     0.008 C 
ATOM      8  C   UNL     1     128.019 144.280 115.357  1.00  0.00     0.031 C 
ATOM      9  C   UNL     1     129.399 144.525 115.973  1.00  0.00     0.005 C 
ATOM     10  C   UNL     1     130.406 143.439 115.559  1.00  0.00     0.008 C 
ATOM     11  C   UNL     1     129.924 141.996 115.898  1.00  0.00    -0.018 C 
ATOM     12  C   UNL     1     130.935 140.994 115.287  1.00  0.00     0.088 C 
ATOM     13  C   UNL     1     130.455 139.575 115.385  1.00  0.00     0.159 C 
ATOM     14  O   UNL     1     131.282 138.681 115.709  1.00  0.00    -0.295 OA
ATOM     15  C   UNL     1     129.883 141.810 117.439  1.00  0.00     0.012 C 
ATOM     16  C   UNL     1     129.629 136.967 114.241  1.00  0.00     0.039 C 
ENDROOT
TORSDOF 0
ENDMDL
MODEL 3
REMARK VINA RESULT:    -5.417     12.680     15.301
REMARK INTER + INTRA:          -5.417
REMARK INTER:                  -5.417
REMARK INTRA:                   0.000
REMARK UNBOUND:                 0.000
REMARK SMILES C=C1CCC[C@]2(C)CC(=O)C(=C(C)C)C[C@@H]12
REMARK SMILES IDX 13 1 12 2 11 3 15 4 16 5 2 6 1 7 3 8 4 9 5 10 6 11 8 12 9 13
REMARK SMILES IDX 10 14 7 15 14 16
REMARK H PARENT
REMARK Flexibility Score: inf
ROOT
ATOM      1  C   UNL     1     140.131 136.759 119.512  1.00  0.00     0.039 C 
ATOM      2  C   UNL     1     139.464 135.998 120.636  1.00  0.00    -0.070 C 
ATOM      3  C   UNL     1     140.193 135.473 121.666  1.00  0.00    -0.006 C 
ATOM      4  C   UNL     1     141.708 135.614 121.712  1.00  0.00     0.047 C 
ATOM      5  C   UNL     1     142.399 134.428 122.429  1.00  0.00     0.025 C 
ATOM      6  C   UNL     1     143.921 134.533 122.541  1.00  0.00    -0.073 C 
ATOM      7  C   UNL     1     144.642 135.570 122.072  1.00  0.00     0.008 C 
ATOM      8  C   UNL     1     144.626 133.362 123.183  1.00  0.00     0.031 C 
ATOM      9  C   UNL     1     144.009 133.053 124.550  1.00  0.00     0.005 C 
ATOM     10  C   UNL     1     142.481 132.897 124.461  1.00  0.00     0.008 C 
ATOM     11  C   UNL     1     141.776 134.137 123.830  1.00  0.00    -0.018 C 
ATOM     12  C   UNL     1     140.278 133.794 123.642  1.00  0.00     0.088 C 
ATOM     13  C   UNL     1     139.550 134.848 122.858  1.00  0.00     0.159 C 
ATOM     14  O   UNL     1     138.399 135.195 123.238  1.00  0.00    -0.295 OA
ATOM     15  C   UNL     1     141.909 135.353 124.787  1.00  0.00     0.012 C 
ATOM     16  C   UNL     1     137.967 135.816 120.545  1.00  0.00     0.039 C 
ENDROOT
TORSDOF 0
ENDMDL
MODEL 4
REMARK VINA RESULT:    -5.413     13.770     16.624
REMARK INTER + INTRA:          -5.413
REMARK INTER:                  -5.413
REMARK INTRA:                   0.000
REMARK UNBOUND:                 0.000
REMARK SMILES C=C1CCC[C@]2(C)CC(=O)C(=C(C)C)C[C@@H]12
REMARK SMILES IDX 13 1 12 2 11 3 15 4 16 5 2 6 1 7 3 8 4 9 5 10 6 11 8 12 9 13
REMARK SMILES IDX 10 14 7 15 14 16
REMARK H PARENT
REMARK Flexibility Score: inf
ROOT
ATOM      1  C   UNL     1     139.020 133.289 122.912  1.00  0.00     0.039 C 
ATOM      2  C   UNL     1     139.691 134.419 122.164  1.00  0.00    -0.070 C 
ATOM      3  C   UNL     1     141.035 134.643 122.277  1.00  0.00    -0.006 C 
ATOM      4  C   UNL     1     141.905 133.778 123.178  1.00  0.00     0.047 C 
ATOM      5  C   UNL     1     143.116 134.548 123.761  1.00  0.00     0.025 C 
ATOM      6  C   UNL     1     144.050 133.719 124.643  1.00  0.00    -0.073 C 
ATOM      7  C   UNL     1     143.872 132.410 124.909  1.00  0.00     0.008 C 
ATOM      8  C   UNL     1     145.206 134.459 125.273  1.00  0.00     0.031 C 
ATOM      9  C   UNL     1     146.005 135.208 124.203  1.00  0.00     0.005 C 
ATOM     10  C   UNL     1     145.096 136.087 123.327  1.00  0.00     0.008 C 
ATOM     11  C   UNL     1     143.935 135.289 122.659  1.00  0.00    -0.018 C 
ATOM     12  C   UNL     1     143.003 136.301 121.947  1.00  0.00     0.088 C 
ATOM     13  C   UNL     1     141.745 135.654 121.442  1.00  0.00     0.159 C 
ATOM     14  O   UNL     1     141.320 135.975 120.300  1.00  0.00    -0.295 OA
ATOM     15  C   UNL     1     144.518 134.303 121.609  1.00  0.00     0.012 C 
ATOM     16  C   UNL     1     138.803 135.305 121.321  1.00  0.00     0.039 C 
ENDROOT
TORSDOF 0
ENDMDL
MODEL 5
REMARK VINA RESULT:    -5.398     13.690     16.707
REMARK INTER + INTRA:          -5.398
REMARK INTER:                  -5.398
REMARK INTRA:                   0.000
REMARK UNBOUND:                 0.000
REMARK SMILES C=C1CCC[C@]2(C)CC(=O)C(=C(C)C)C[C@@H]12
REMARK SMILES IDX 13 1 12 2 11 3 15 4 16 5 2 6 1 7 3 8 4 9 5 10 6 11 8 12 9 13
REMARK SMILES IDX 10 14 7 15 14 16
REMARK H PARENT
REMARK Flexibility Score: inf
ROOT
ATOM      1  C   UNL     1     143.881 132.010 125.131  1.00  0.00     0.039 C 
ATOM      2  C   UNL     1     144.528 132.915 124.107  1.00  0.00    -0.070 C 
ATOM      3  C   UNL     1     143.799 133.847 123.424  1.00  0.00    -0.006 C 
ATOM      4  C   UNL     1     142.301 133.996 123.650  1.00  0.00     0.047 C 
ATOM      5  C   UNL     1     141.549 134.483 122.386  1.00  0.00     0.025 C 
ATOM      6  C   UNL     1     140.044 134.689 122.564  1.00  0.00    -0.073 C 
ATOM      7  C   UNL     1     139.386 134.484 123.722  1.00  0.00     0.008 C 
ATOM      8  C   UNL     1     139.277 135.106 121.332  1.00  0.00     0.031 C 
ATOM      9  C   UNL     1     139.917 136.345 120.699  1.00  0.00     0.005 C 
ATOM     10  C   UNL     1     141.425 136.149 120.467  1.00  0.00     0.008 C 
ATOM     11  C   UNL     1     142.197 135.758 121.764  1.00  0.00    -0.018 C 
ATOM     12  C   UNL     1     143.659 135.428 121.372  1.00  0.00     0.088 C 
ATOM     13  C   UNL     1     144.435 134.847 122.519  1.00  0.00     0.159 C 
ATOM     14  O   UNL     1     145.621 135.234 122.701  1.00  0.00    -0.295 OA
ATOM     15  C   UNL     1     142.188 136.954 122.755  1.00  0.00     0.012 C 
ATOM     16  C   UNL     1     146.004 132.713 123.851  1.00  0.00     0.039 C 
ENDROOT
TORSDOF 0
ENDMDL
MODEL 6
REMARK VINA RESULT:    -5.323      2.250      4.455
REMARK INTER + INTRA:          -5.323
REMARK INTER:                  -5.323
REMARK INTRA:                   0.000
REMARK UNBOUND:                 0.000
REMARK SMILES C=C1CCC[C@]2(C)CC(=O)C(=C(C)C)C[C@@H]12
REMARK SMILES IDX 13 1 12 2 11 3 15 4 16 5 2 6 1 7 3 8 4 9 5 10 6 11 8 12 9 13
REMARK SMILES IDX 10 14 7 15 14 16
REMARK H PARENT
REMARK Flexibility Score: inf
ROOT
ATOM      1  C   UNL     1     126.048 139.964 114.058  1.00  0.00     0.039 C 
ATOM      2  C   UNL     1     127.026 138.835 113.819  1.00  0.00    -0.070 C 
ATOM      3  C   UNL     1     128.232 138.794 114.460  1.00  0.00    -0.006 C 
ATOM      4  C   UNL     1     128.650 139.897 115.423  1.00  0.00     0.047 C 
ATOM      5  C   UNL     1     130.184 140.111 115.459  1.00  0.00     0.025 C 
ATOM      6  C   UNL     1     130.668 141.180 116.440  1.00  0.00    -0.073 C 
ATOM      7  C   UNL     1     129.852 141.896 117.238  1.00  0.00     0.008 C 
ATOM      8  C   UNL     1     132.153 141.451 116.453  1.00  0.00     0.031 C 
ATOM      9  C   UNL     1     132.931 140.148 116.655  1.00  0.00     0.005 C 
ATOM     10  C   UNL     1     132.496 139.066 115.652  1.00  0.00     0.008 C 
ATOM     11  C   UNL     1     130.964 138.779 115.688  1.00  0.00    -0.018 C 
ATOM     12  C   UNL     1     130.630 137.806 114.530  1.00  0.00     0.088 C 
ATOM     13  C   UNL     1     129.150 137.623 114.354  1.00  0.00     0.159 C 
ATOM     14  O   UNL     1     128.708 136.464 114.131  1.00  0.00    -0.295 OA
ATOM     15  C   UNL     1     130.591 138.114 117.042  1.00  0.00     0.012 C 
ATOM     16  C   UNL     1     126.620 137.780 112.815  1.00  0.00     0.039 C 
ENDROOT
TORSDOF 0
ENDMDL
MODEL 7
REMARK VINA RESULT:    -5.252      9.575     12.035
REMARK INTER + INTRA:          -5.252
REMARK INTER:                  -5.252
REMARK INTRA:                   0.000
REMARK UNBOUND:                 0.000
REMARK SMILES C=C1CCC[C@]2(C)CC(=O)C(=C(C)C)C[C@@H]12
REMARK SMILES IDX 13 1 12 2 11 3 15 4 16 5 2 6 1 7 3 8 4 9 5 10 6 11 8 12 9 13
REMARK SMILES IDX 10 14 7 15 14 16
REMARK H PARENT
REMARK Flexibility Score: inf
ROOT
ATOM      1  C   UNL     1     139.759 139.295 118.731  1.00  0.00     0.039 C 
ATOM      2  C   UNL     1     138.565 138.387 118.920  1.00  0.00    -0.070 C 
ATOM      3  C   UNL     1     138.557 137.419 119.884  1.00  0.00    -0.006 C 
ATOM      4  C   UNL     1     139.759 137.201 120.793  1.00  0.00     0.047 C 
ATOM      5  C   UNL     1     139.907 135.728 121.250  1.00  0.00     0.025 C 
ATOM      6  C   UNL     1     141.076 135.456 122.198  1.00  0.00    -0.073 C 
ATOM      7  C   UNL     1     141.929 136.403 122.634  1.00  0.00     0.008 C 
ATOM      8  C   UNL     1     141.278 134.018 122.611  1.00  0.00     0.031 C 
ATOM      9  C   UNL     1     139.981 133.439 123.181  1.00  0.00     0.005 C 
ATOM     10  C   UNL     1     138.794 133.659 122.227  1.00  0.00     0.008 C 
ATOM     11  C   UNL     1     138.584 135.157 121.849  1.00  0.00    -0.018 C 
ATOM     12  C   UNL     1     137.480 135.229 120.765  1.00  0.00     0.088 C 
ATOM     13  C   UNL     1     137.342 136.608 120.188  1.00  0.00     0.159 C 
ATOM     14  O   UNL     1     136.184 137.063 119.982  1.00  0.00    -0.295 OA
ATOM     15  C   UNL     1     138.126 135.951 123.102  1.00  0.00     0.012 C 
ATOM     16  C   UNL     1     137.404 138.576 117.971  1.00  0.00     0.039 C 
ENDROOT
TORSDOF 0
ENDMDL
MODEL 8
REMARK VINA RESULT:    -5.152      1.439      2.111
REMARK INTER + INTRA:          -5.152
REMARK INTER:                  -5.152
REMARK INTRA:                   0.000
REMARK UNBOUND:                 0.000
REMARK SMILES C=C1CCC[C@]2(C)CC(=O)C(=C(C)C)C[C@@H]12
REMARK SMILES IDX 13 1 12 2 11 3 15 4 16 5 2 6 1 7 3 8 4 9 5 10 6 11 8 12 9 13
REMARK SMILES IDX 10 14 7 15 14 16
REMARK H PARENT
REMARK Flexibility Score: inf
ROOT
ATOM      1  C   UNL     1     131.390 142.198 116.395  1.00  0.00     0.039 C 
ATOM      2  C   UNL     1     130.023 142.502 115.823  1.00  0.00    -0.070 C 
ATOM      3  C   UNL     1     129.167 141.500 115.463  1.00  0.00    -0.006 C 
ATOM      4  C   UNL     1     129.564 140.037 115.602  1.00  0.00     0.047 C 
ATOM      5  C   UNL     1     128.893 139.130 114.540  1.00  0.00     0.025 C 
ATOM      6  C   UNL     1     129.223 137.641 114.655  1.00  0.00    -0.073 C 
ATOM      7  C   UNL     1     130.025 137.117 115.602  1.00  0.00     0.008 C 
ATOM      8  C   UNL     1     128.631 136.743 113.595  1.00  0.00     0.031 C 
ATOM      9  C   UNL     1     127.117 136.950 113.507  1.00  0.00     0.005 C 
ATOM     10  C   UNL     1     126.756 138.437 113.346  1.00  0.00     0.008 C 
ATOM     11  C   UNL     1     127.348 139.335 114.474  1.00  0.00    -0.018 C 
ATOM     12  C   UNL     1     127.061 140.813 114.113  1.00  0.00     0.088 C 
ATOM     13  C   UNL     1     127.764 141.768 115.034  1.00  0.00     0.159 C 
ATOM     14  O   UNL     1     127.138 142.783 115.442  1.00  0.00    -0.295 OA
ATOM     15  C   UNL     1     126.661 138.993 115.825  1.00  0.00     0.012 C 
ATOM     16  C   UNL     1     129.669 143.959 115.635  1.00  0.00     0.039 C 
ENDROOT
TORSDOF 0
ENDMDL
MODEL 9
REMARK VINA RESULT:    -5.076     13.464     15.712
REMARK INTER + INTRA:          -5.076
REMARK INTER:                  -5.076
REMARK INTRA:                   0.000
REMARK UNBOUND:                 0.000
REMARK SMILES C=C1CCC[C@]2(C)CC(=O)C(=C(C)C)C[C@@H]12
REMARK SMILES IDX 13 1 12 2 11 3 15 4 16 5 2 6 1 7 3 8 4 9 5 10 6 11 8 12 9 13
REMARK SMILES IDX 10 14 7 15 14 16
REMARK H PARENT
REMARK Flexibility Score: inf
ROOT
ATOM      1  C   UNL     1     145.782 140.895 121.379  1.00  0.00     0.039 C 
ATOM      2  C   UNL     1     144.320 140.756 121.742  1.00  0.00    -0.070 C 
ATOM      3  C   UNL     1     143.474 141.828 121.700  1.00  0.00    -0.006 C 
ATOM      4  C   UNL     1     143.974 143.211 121.307  1.00  0.00     0.047 C 
ATOM      5  C   UNL     1     143.180 144.352 121.992  1.00  0.00     0.025 C 
ATOM      6  C   UNL     1     143.612 145.767 121.604  1.00  0.00    -0.073 C 
ATOM      7  C   UNL     1     144.597 146.042 120.727  1.00  0.00     0.008 C 
ATOM      8  C   UNL     1     142.895 146.898 122.302  1.00  0.00     0.031 C 
ATOM      9  C   UNL     1     141.379 146.741 122.154  1.00  0.00     0.005 C 
ATOM     10  C   UNL     1     140.910 145.339 122.580  1.00  0.00     0.008 C 
ATOM     11  C   UNL     1     141.638 144.192 121.815  1.00  0.00    -0.018 C 
ATOM     12  C   UNL     1     141.206 142.844 122.443  1.00  0.00     0.088 C 
ATOM     13  C   UNL     1     142.004 141.689 121.911  1.00  0.00     0.159 C 
ATOM     14  O   UNL     1     141.402 140.616 121.636  1.00  0.00    -0.295 OA
ATOM     15  C   UNL     1     141.222 144.218 120.319  1.00  0.00     0.012 C 
ATOM     16  C   UNL     1     143.854 139.389 122.188  1.00  0.00     0.039 C 
ENDROOT
TORSDOF 0
ENDMDL
