MODEL 1
REMARK VINA RESULT:    -4.938      0.000      0.000
REMARK INTER + INTRA:         -10.332
REMARK INTER:                  -8.691
REMARK INTRA:                  -1.641
REMARK UNBOUND:                -1.641
REMARK SMILES CCCCCCCCCCCCCCC(=O)[O-]
REMARK SMILES IDX 9 1 10 2 11 3 12 4 13 5 14 6 15 7 16 8 17 9 8 10 7 11 6 12
REMARK SMILES IDX 5 13 4 14 3 15 2 16 1 17
REMARK H PARENT
REMARK Flexibility Score: inf
ROOT
ATOM      1  C   UNL     1     163.475 165.591 158.528  1.00  0.00     0.000 C 
ENDROOT
BRANCH   1   2
ATOM      2  C   UNL     1     162.219 164.724 158.384  1.00  0.00     0.000 C 
BRANCH   2   3
ATOM      3  C   UNL     1     162.575 163.230 158.413  1.00  0.00     0.000 C 
BRANCH   3   4
ATOM      4  C   UNL     1     161.542 162.381 159.175  1.00  0.00     0.000 C 
BRANCH   4   5
ATOM      5  C   UNL     1     160.133 162.361 158.555  1.00  0.00     0.006 C 
BRANCH   5   6
ATOM      6  C   UNL     1     159.142 163.269 159.295  1.00  0.00     0.053 C 
BRANCH   6   7
ATOM      7  C   UNL     1     157.742 162.986 158.849  1.00  0.00     0.041 C 
ATOM      8  O   UNL     1     157.512 162.056 158.032  1.00  0.00    -0.550 OA
ATOM      9  O   UNL     1     156.684 163.718 159.373  1.00  0.00    -0.550 OA
ENDBRANCH   6   7
ENDBRANCH   5   6
ENDBRANCH   4   5
ENDBRANCH   3   4
ENDBRANCH   2   3
ENDBRANCH   1   2
BRANCH   1  10
ATOM     10  C   UNL     1     163.374 166.505 159.757  1.00  0.00     0.000 C 
BRANCH  10  11
ATOM     11  C   UNL     1     162.492 167.725 159.464  1.00  0.00    -0.000 C 
BRANCH  11  12
ATOM     12  C   UNL     1     161.399 167.884 160.532  1.00  0.00    -0.000 C 
BRANCH  12  13
ATOM     13  C   UNL     1     160.048 167.298 160.073  1.00  0.00    -0.000 C 
BRANCH  13  14
ATOM     14  C   UNL     1     159.455 166.272 161.055  1.00  0.00    -0.000 C 
BRANCH  14  15
ATOM     15  C   UNL     1     160.384 165.977 162.242  1.00  0.00    -0.000 C 
BRANCH  15  16
ATOM     16  C   UNL     1     161.117 164.645 162.046  1.00  0.00    -0.003 C 
ATOM     17  C   UNL     1     161.515 164.033 163.387  1.00  0.00     0.004 C 
ENDBRANCH  15  16
ENDBRANCH  14  15
ENDBRANCH  13  14
ENDBRANCH  12  13
ENDBRANCH  11  12
ENDBRANCH  10  11
ENDBRANCH   1  10
TORSDOF 13
ENDMDL
MODEL 2
REMARK VINA RESULT:    -4.916      2.642      4.118
REMARK INTER + INTRA:         -10.294
REMARK INTER:                  -8.180
REMARK INTRA:                  -2.114
REMARK UNBOUND:                -1.641
REMARK SMILES CCCCCCCCCCCCCCC(=O)[O-]
REMARK SMILES IDX 9 1 10 2 11 3 12 4 13 5 14 6 15 7 16 8 17 9 8 10 7 11 6 12
REMARK SMILES IDX 5 13 4 14 3 15 2 16 1 17
REMARK H PARENT
REMARK Flexibility Score: inf
ROOT
ATOM      1  C   UNL     1     161.397 162.518 159.135  1.00  0.00     0.000 C 
ENDROOT
BRANCH   1   2
ATOM      2  C   UNL     1     162.741 162.511 158.397  1.00  0.00     0.000 C 
BRANCH   2   3
ATOM      3  C   UNL     1     163.111 163.921 157.913  1.00  0.00     0.000 C 
BRANCH   3   4
ATOM      4  C   UNL     1     162.828 165.011 158.962  1.00  0.00     0.000 C 
BRANCH   4   5
ATOM      5  C   UNL     1     162.133 166.272 158.417  1.00  0.00     0.006 C 
BRANCH   5   6
ATOM      6  C   UNL     1     161.076 165.959 157.350  1.00  0.00     0.053 C 
BRANCH   6   7
ATOM      7  C   UNL     1     161.465 166.562 156.037  1.00  0.00     0.041 C 
ATOM      8  O   UNL     1     162.640 166.977 155.853  1.00  0.00    -0.550 OA
ATOM      9  O   UNL     1     160.544 166.622 154.999  1.00  0.00    -0.550 OA
ENDBRANCH   6   7
ENDBRANCH   5   6
ENDBRANCH   4   5
ENDBRANCH   3   4
ENDBRANCH   2   3
ENDBRANCH   1   2
BRANCH   1  10
ATOM     10  C   UNL     1     160.225 162.480 158.146  1.00  0.00     0.000 C 
BRANCH  10  11
ATOM     11  C   UNL     1     158.963 163.092 158.765  1.00  0.00    -0.000 C 
BRANCH  11  12
ATOM     12  C   UNL     1     159.279 163.767 160.109  1.00  0.00    -0.000 C 
BRANCH  12  13
ATOM     13  C   UNL     1     158.832 165.243 160.138  1.00  0.00    -0.000 C 
BRANCH  13  14
ATOM     14  C   UNL     1     159.372 166.027 161.347  1.00  0.00    -0.000 C 
BRANCH  14  15
ATOM     15  C   UNL     1     160.746 165.528 161.817  1.00  0.00    -0.000 C 
BRANCH  15  16
ATOM     16  C   UNL     1     160.677 165.004 163.255  1.00  0.00    -0.003 C 
ATOM     17  C   UNL     1     161.678 163.873 163.478  1.00  0.00     0.004 C 
ENDBRANCH  15  16
ENDBRANCH  14  15
ENDBRANCH  13  14
ENDBRANCH  12  13
ENDBRANCH  11  12
ENDBRANCH  10  11
ENDBRANCH   1  10
TORSDOF 13
ENDMDL
MODEL 3
REMARK VINA RESULT:    -4.803      2.481      4.639
REMARK INTER + INTRA:         -10.094
REMARK INTER:                  -8.305
REMARK INTRA:                  -1.789
REMARK UNBOUND:                -1.641
REMARK SMILES CCCCCCCCCCCCCCC(=O)[O-]
REMARK SMILES IDX 9 1 10 2 11 3 12 4 13 5 14 6 15 7 16 8 17 9 8 10 7 11 6 12
REMARK SMILES IDX 5 13 4 14 3 15 2 16 1 17
REMARK H PARENT
REMARK Flexibility Score: inf
ROOT
ATOM      1  C   UNL     1     158.610 165.957 160.262  1.00  0.00     0.000 C 
ENDROOT
BRANCH   1   2
ATOM      2  C   UNL     1     158.860 164.467 160.521  1.00  0.00     0.000 C 
BRANCH   2   3
ATOM      3  C   UNL     1     158.227 163.603 159.420  1.00  0.00     0.000 C 
BRANCH   3   4
ATOM      4  C   UNL     1     159.257 163.069 158.408  1.00  0.00     0.000 C 
BRANCH   4   5
ATOM      5  C   UNL     1     160.559 162.532 159.029  1.00  0.00     0.006 C 
BRANCH   5   6
ATOM      6  C   UNL     1     161.818 163.091 158.353  1.00  0.00     0.053 C 
BRANCH   6   7
ATOM      7  C   UNL     1     162.945 162.111 158.456  1.00  0.00     0.041 C 
ATOM      8  O   UNL     1     162.719 160.919 158.789  1.00  0.00    -0.550 OA
ATOM      9  O   UNL     1     164.238 162.504 158.136  1.00  0.00    -0.550 OA
ENDBRANCH   6   7
ENDBRANCH   5   6
ENDBRANCH   4   5
ENDBRANCH   3   4
ENDBRANCH   2   3
ENDBRANCH   1   2
BRANCH   1  10
ATOM     10  C   UNL     1     159.871 166.785 160.543  1.00  0.00     0.000 C 
BRANCH  10  11
ATOM     11  C   UNL     1     160.781 166.075 161.552  1.00  0.00    -0.000 C 
BRANCH  11  12
ATOM     12  C   UNL     1     162.097 165.635 160.893  1.00  0.00    -0.000 C 
BRANCH  12  13
ATOM     13  C   UNL     1     162.783 166.790 160.134  1.00  0.00    -0.000 C 
BRANCH  13  14
ATOM     14  C   UNL     1     163.478 166.347 158.835  1.00  0.00    -0.000 C 
BRANCH  14  15
ATOM     15  C   UNL     1     163.234 167.315 157.667  1.00  0.00    -0.000 C 
BRANCH  15  16
ATOM     16  C   UNL     1     162.456 166.628 156.539  1.00  0.00    -0.003 C 
ATOM     17  C   UNL     1     161.019 166.331 156.963  1.00  0.00     0.004 C 
ENDBRANCH  15  16
ENDBRANCH  14  15
ENDBRANCH  13  14
ENDBRANCH  12  13
ENDBRANCH  11  12
ENDBRANCH  10  11
ENDBRANCH   1  10
TORSDOF 13
ENDMDL
MODEL 4
REMARK VINA RESULT:    -4.784      3.486      4.949
REMARK INTER + INTRA:         -10.062
REMARK INTER:                  -8.362
REMARK INTRA:                  -1.700
REMARK UNBOUND:                -1.641
REMARK SMILES CCCCCCCCCCCCCCC(=O)[O-]
REMARK SMILES IDX 9 1 10 2 11 3 12 4 13 5 14 6 15 7 16 8 17 9 8 10 7 11 6 12
REMARK SMILES IDX 5 13 4 14 3 15 2 16 1 17
REMARK H PARENT
REMARK Flexibility Score: inf
ROOT
ATOM      1  C   UNL     1     162.077 163.337 158.198  1.00  0.00     0.000 C 
ENDROOT
BRANCH   1   2
ATOM      2  C   UNL     1     162.018 164.523 159.168  1.00  0.00     0.000 C 
BRANCH   2   3
ATOM      3  C   UNL     1     162.261 165.849 158.433  1.00  0.00     0.000 C 
BRANCH   3   4
ATOM      4  C   UNL     1     161.157 166.184 157.415  1.00  0.00     0.000 C 
BRANCH   4   5
ATOM      5  C   UNL     1     161.663 166.600 156.022  1.00  0.00     0.006 C 
BRANCH   5   6
ATOM      6  C   UNL     1     160.595 166.455 154.930  1.00  0.00     0.053 C 
BRANCH   6   7
ATOM      7  C   UNL     1     161.086 167.032 153.639  1.00  0.00     0.041 C 
ATOM      8  O   UNL     1     162.320 167.073 153.392  1.00  0.00    -0.550 OA
ATOM      9  O   UNL     1     160.179 167.480 152.688  1.00  0.00    -0.550 OA
ENDBRANCH   6   7
ENDBRANCH   5   6
ENDBRANCH   4   5
ENDBRANCH   3   4
ENDBRANCH   2   3
ENDBRANCH   1   2
BRANCH   1  10
ATOM     10  C   UNL     1     160.880 162.399 158.401  1.00  0.00     0.000 C 
BRANCH  10  11
ATOM     11  C   UNL     1     159.583 163.047 157.903  1.00  0.00    -0.000 C 
BRANCH  11  12
ATOM     12  C   UNL     1     158.404 162.699 158.825  1.00  0.00    -0.000 C 
BRANCH  12  13
ATOM     13  C   UNL     1     157.794 163.951 159.488  1.00  0.00    -0.000 C 
BRANCH  13  14
ATOM     14  C   UNL     1     158.605 164.471 160.688  1.00  0.00    -0.000 C 
BRANCH  14  15
ATOM     15  C   UNL     1     158.903 165.975 160.601  1.00  0.00    -0.000 C 
BRANCH  15  16
ATOM     16  C   UNL     1     159.862 166.410 161.715  1.00  0.00    -0.003 C 
ATOM     17  C   UNL     1     160.455 165.200 162.434  1.00  0.00     0.004 C 
ENDBRANCH  15  16
ENDBRANCH  14  15
ENDBRANCH  13  14
ENDBRANCH  12  13
ENDBRANCH  11  12
ENDBRANCH  10  11
ENDBRANCH   1  10
TORSDOF 13
ENDMDL
MODEL 5
REMARK VINA RESULT:    -4.780      2.104      4.651
REMARK INTER + INTRA:         -10.053
REMARK INTER:                  -8.218
REMARK INTRA:                  -1.835
REMARK UNBOUND:                -1.641
REMARK SMILES CCCCCCCCCCCCCCC(=O)[O-]
REMARK SMILES IDX 9 1 10 2 11 3 12 4 13 5 14 6 15 7 16 8 17 9 8 10 7 11 6 12
REMARK SMILES IDX 5 13 4 14 3 15 2 16 1 17
REMARK H PARENT
REMARK Flexibility Score: inf
ROOT
ATOM      1  C   UNL     1     163.329 166.703 160.130  1.00  0.00     0.000 C 
ENDROOT
BRANCH   1   2
ATOM      2  C   UNL     1     162.452 167.854 159.626  1.00  0.00     0.000 C 
BRANCH   2   3
ATOM      3  C   UNL     1     161.245 168.072 160.550  1.00  0.00     0.000 C 
BRANCH   3   4
ATOM      4  C   UNL     1     159.972 167.363 160.055  1.00  0.00     0.000 C 
BRANCH   4   5
ATOM      5  C   UNL     1     159.626 166.058 160.794  1.00  0.00     0.006 C 
BRANCH   5   6
ATOM      6  C   UNL     1     160.166 166.023 162.230  1.00  0.00     0.053 C 
BRANCH   6   7
ATOM      7  C   UNL     1     160.977 164.785 162.454  1.00  0.00     0.041 C 
ATOM      8  O   UNL     1     161.220 164.390 163.624  1.00  0.00    -0.550 OA
ATOM      9  O   UNL     1     161.423 164.041 161.370  1.00  0.00    -0.550 OA
ENDBRANCH   6   7
ENDBRANCH   5   6
ENDBRANCH   4   5
ENDBRANCH   3   4
ENDBRANCH   2   3
ENDBRANCH   1   2
BRANCH   1  10
ATOM     10  C   UNL     1     163.839 165.847 158.964  1.00  0.00     0.000 C 
BRANCH  10  11
ATOM     11  C   UNL     1     162.775 165.722 157.867  1.00  0.00    -0.000 C 
BRANCH  11  12
ATOM     12  C   UNL     1     161.990 164.409 158.007  1.00  0.00    -0.000 C 
BRANCH  12  13
ATOM     13  C   UNL     1     160.519 164.560 157.567  1.00  0.00    -0.000 C 
BRANCH  13  14
ATOM     14  C   UNL     1     159.725 163.243 157.606  1.00  0.00    -0.000 C 
BRANCH  14  15
ATOM     15  C   UNL     1     159.288 162.851 159.025  1.00  0.00    -0.000 C 
BRANCH  15  16
ATOM     16  C   UNL     1     157.793 163.120 159.232  1.00  0.00    -0.003 C 
ATOM     17  C   UNL     1     156.949 162.343 158.224  1.00  0.00     0.004 C 
ENDBRANCH  15  16
ENDBRANCH  14  15
ENDBRANCH  13  14
ENDBRANCH  12  13
ENDBRANCH  11  12
ENDBRANCH  10  11
ENDBRANCH   1  10
TORSDOF 13
ENDMDL
MODEL 6
REMARK VINA RESULT:    -4.710      1.261      2.109
REMARK INTER + INTRA:          -9.930
REMARK INTER:                  -8.247
REMARK INTRA:                  -1.683
REMARK UNBOUND:                -1.641
REMARK SMILES CCCCCCCCCCCCCCC(=O)[O-]
REMARK SMILES IDX 9 1 10 2 11 3 12 4 13 5 14 6 15 7 16 8 17 9 8 10 7 11 6 12
REMARK SMILES IDX 5 13 4 14 3 15 2 16 1 17
REMARK H PARENT
REMARK Flexibility Score: inf
ROOT
ATOM      1  C   UNL     1     164.015 163.027 158.076  1.00  0.00     0.000 C 
ENDROOT
BRANCH   1   2
ATOM      2  C   UNL     1     163.091 161.911 158.576  1.00  0.00     0.000 C 
BRANCH   2   3
ATOM      3  C   UNL     1     161.845 162.492 159.262  1.00  0.00     0.000 C 
BRANCH   3   4
ATOM      4  C   UNL     1     160.530 162.041 158.602  1.00  0.00     0.000 C 
BRANCH   4   5
ATOM      5  C   UNL     1     159.540 163.177 158.285  1.00  0.00     0.006 C 
BRANCH   5   6
ATOM      6  C   UNL     1     158.080 162.790 158.556  1.00  0.00     0.053 C 
BRANCH   6   7
ATOM      7  C   UNL     1     157.464 163.733 159.541  1.00  0.00     0.041 C 
ATOM      8  O   UNL     1     156.238 164.008 159.474  1.00  0.00    -0.550 OA
ATOM      9  O   UNL     1     158.235 164.271 160.564  1.00  0.00    -0.550 OA
ENDBRANCH   6   7
ENDBRANCH   5   6
ENDBRANCH   4   5
ENDBRANCH   3   4
ENDBRANCH   2   3
ENDBRANCH   1   2
BRANCH   1  10
ATOM     10  C   UNL     1     163.237 164.333 157.866  1.00  0.00     0.000 C 
BRANCH  10  11
ATOM     11  C   UNL     1     163.976 165.520 158.495  1.00  0.00    -0.000 C 
BRANCH  11  12
ATOM     12  C   UNL     1     163.049 166.737 158.633  1.00  0.00    -0.000 C 
BRANCH  12  13
ATOM     13  C   UNL     1     161.591 166.404 158.249  1.00  0.00    -0.000 C 
BRANCH  13  14
ATOM     14  C   UNL     1     160.599 166.549 159.416  1.00  0.00    -0.000 C 
BRANCH  14  15
ATOM     15  C   UNL     1     161.292 166.616 160.785  1.00  0.00    -0.000 C 
BRANCH  15  16
ATOM     16  C   UNL     1     161.508 165.212 161.360  1.00  0.00    -0.003 C 
ATOM     17  C   UNL     1     160.809 165.056 162.708  1.00  0.00     0.004 C 
ENDBRANCH  15  16
ENDBRANCH  14  15
ENDBRANCH  13  14
ENDBRANCH  12  13
ENDBRANCH  11  12
ENDBRANCH  10  11
ENDBRANCH   1  10
TORSDOF 13
ENDMDL
MODEL 7
REMARK VINA RESULT:    -4.644      3.170      5.416
REMARK INTER + INTRA:          -9.814
REMARK INTER:                  -8.337
REMARK INTRA:                  -1.478
REMARK UNBOUND:                -1.641
REMARK SMILES CCCCCCCCCCCCCCC(=O)[O-]
REMARK SMILES IDX 9 1 10 2 11 3 12 4 13 5 14 6 15 7 16 8 17 9 8 10 7 11 6 12
REMARK SMILES IDX 5 13 4 14 3 15 2 16 1 17
REMARK H PARENT
REMARK Flexibility Score: inf
ROOT
ATOM      1  C   UNL     1     161.480 162.421 158.134  1.00  0.00     0.000 C 
ENDROOT
BRANCH   1   2
ATOM      2  C   UNL     1     160.186 162.060 158.872  1.00  0.00     0.000 C 
BRANCH   2   3
ATOM      3  C   UNL     1     158.999 162.871 158.332  1.00  0.00     0.000 C 
BRANCH   3   4
ATOM      4  C   UNL     1     158.233 163.624 159.434  1.00  0.00     0.000 C 
BRANCH   4   5
ATOM      5  C   UNL     1     159.121 164.323 160.479  1.00  0.00     0.006 C 
BRANCH   5   6
ATOM      6  C   UNL     1     158.873 165.835 160.559  1.00  0.00     0.053 C 
BRANCH   6   7
ATOM      7  C   UNL     1     159.834 166.473 161.513  1.00  0.00     0.041 C 
ATOM      8  O   UNL     1     159.988 165.997 162.669  1.00  0.00    -0.550 OA
ATOM      9  O   UNL     1     160.594 167.563 161.110  1.00  0.00    -0.550 OA
ENDBRANCH   6   7
ENDBRANCH   5   6
ENDBRANCH   4   5
ENDBRANCH   3   4
ENDBRANCH   2   3
ENDBRANCH   1   2
BRANCH   1  10
ATOM     10  C   UNL     1     162.394 163.284 159.013  1.00  0.00     0.000 C 
BRANCH  10  11
ATOM     11  C   UNL     1     162.917 164.498 158.237  1.00  0.00    -0.000 C 
BRANCH  11  12
ATOM     12  C   UNL     1     162.103 165.758 158.570  1.00  0.00    -0.000 C 
BRANCH  12  13
ATOM     13  C   UNL     1     161.107 166.121 157.449  1.00  0.00    -0.000 C 
BRANCH  13  14
ATOM     14  C   UNL     1     161.784 166.593 156.151  1.00  0.00    -0.000 C 
BRANCH  14  15
ATOM     15  C   UNL     1     160.820 166.638 154.957  1.00  0.00    -0.000 C 
BRANCH  15  16
ATOM     16  C   UNL     1     161.540 167.110 153.689  1.00  0.00    -0.003 C 
ATOM     17  C   UNL     1     160.573 167.208 152.511  1.00  0.00     0.004 C 
ENDBRANCH  15  16
ENDBRANCH  14  15
ENDBRANCH  13  14
ENDBRANCH  12  13
ENDBRANCH  11  12
ENDBRANCH  10  11
ENDBRANCH   1  10
TORSDOF 13
ENDMDL
MODEL 8
REMARK VINA RESULT:    -4.618      3.704      4.862
REMARK INTER + INTRA:          -9.769
REMARK INTER:                  -7.917
REMARK INTRA:                  -1.852
REMARK UNBOUND:                -1.641
REMARK SMILES CCCCCCCCCCCCCCC(=O)[O-]
REMARK SMILES IDX 9 1 10 2 11 3 12 4 13 5 14 6 15 7 16 8 17 9 8 10 7 11 6 12
REMARK SMILES IDX 5 13 4 14 3 15 2 16 1 17
REMARK H PARENT
REMARK Flexibility Score: inf
ROOT
ATOM      1  C   UNL     1     163.516 166.489 159.374  1.00  0.00     0.000 C 
ENDROOT
BRANCH   1   2
ATOM      2  C   UNL     1     162.958 167.155 158.110  1.00  0.00     0.000 C 
BRANCH   2   3
ATOM      3  C   UNL     1     162.417 166.106 157.128  1.00  0.00     0.000 C 
BRANCH   3   4
ATOM      4  C   UNL     1     160.943 166.340 156.750  1.00  0.00     0.000 C 
BRANCH   4   5
ATOM      5  C   UNL     1     160.636 166.244 155.244  1.00  0.00     0.006 C 
BRANCH   5   6
ATOM      6  C   UNL     1     161.731 166.867 154.370  1.00  0.00     0.053 C 
BRANCH   6   7
ATOM      7  C   UNL     1     161.314 166.868 152.932  1.00  0.00     0.041 C 
ATOM      8  O   UNL     1     160.254 167.449 152.580  1.00  0.00    -0.550 OA
ATOM      9  O   UNL     1     162.120 166.267 151.974  1.00  0.00    -0.550 OA
ENDBRANCH   6   7
ENDBRANCH   5   6
ENDBRANCH   4   5
ENDBRANCH   3   4
ENDBRANCH   2   3
ENDBRANCH   1   2
BRANCH   1  10
ATOM     10  C   UNL     1     162.414 166.287 160.422  1.00  0.00     0.000 C 
BRANCH  10  11
ATOM     11  C   UNL     1     161.338 167.372 160.305  1.00  0.00    -0.000 C 
BRANCH  11  12
ATOM     12  C   UNL     1     159.931 166.769 160.437  1.00  0.00    -0.000 C 
BRANCH  12  13
ATOM     13  C   UNL     1     159.970 165.291 160.877  1.00  0.00    -0.000 C 
BRANCH  13  14
ATOM     14  C   UNL     1     159.012 164.386 160.083  1.00  0.00    -0.000 C 
BRANCH  14  15
ATOM     15  C   UNL     1     159.711 163.631 158.943  1.00  0.00    -0.000 C 
BRANCH  15  16
ATOM     16  C   UNL     1     161.125 163.205 159.354  1.00  0.00    -0.003 C 
ATOM     17  C   UNL     1     161.811 162.425 158.235  1.00  0.00     0.004 C 
ENDBRANCH  15  16
ENDBRANCH  14  15
ENDBRANCH  13  14
ENDBRANCH  12  13
ENDBRANCH  11  12
ENDBRANCH  10  11
ENDBRANCH   1  10
TORSDOF 13
ENDMDL
MODEL 9
REMARK VINA RESULT:    -4.604      2.762      5.443
REMARK INTER + INTRA:          -9.744
REMARK INTER:                  -8.077
REMARK INTRA:                  -1.668
REMARK UNBOUND:                -1.641
REMARK SMILES CCCCCCCCCCCCCCC(=O)[O-]
REMARK SMILES IDX 9 1 10 2 11 3 12 4 13 5 14 6 15 7 16 8 17 9 8 10 7 11 6 12
REMARK SMILES IDX 5 13 4 14 3 15 2 16 1 17
REMARK H PARENT
REMARK Flexibility Score: inf
ROOT
ATOM      1  C   UNL     1     159.855 165.352 161.446  1.00  0.00     0.000 C 
ENDROOT
BRANCH   1   2
ATOM      2  C   UNL     1     160.313 166.800 161.659  1.00  0.00     0.000 C 
BRANCH   2   3
ATOM      3  C   UNL     1     160.703 167.456 160.326  1.00  0.00     0.000 C 
BRANCH   3   4
ATOM      4  C   UNL     1     162.221 167.659 160.177  1.00  0.00     0.000 C 
BRANCH   4   5
ATOM      5  C   UNL     1     162.972 166.482 159.529  1.00  0.00     0.006 C 
BRANCH   5   6
ATOM      6  C   UNL     1     162.244 165.908 158.307  1.00  0.00     0.053 C 
BRANCH   6   7
ATOM      7  C   UNL     1     162.518 166.743 157.095  1.00  0.00     0.041 C 
ATOM      8  O   UNL     1     163.588 167.400 157.007  1.00  0.00    -0.550 OA
ATOM      9  O   UNL     1     161.612 166.759 156.043  1.00  0.00    -0.550 OA
ENDBRANCH   6   7
ENDBRANCH   5   6
ENDBRANCH   4   5
ENDBRANCH   3   4
ENDBRANCH   2   3
ENDBRANCH   1   2
BRANCH   1  10
ATOM     10  C   UNL     1     159.144 165.193 160.096  1.00  0.00     0.000 C 
BRANCH  10  11
ATOM     11  C   UNL     1     158.034 164.139 160.180  1.00  0.00    -0.000 C 
BRANCH  11  12
ATOM     12  C   UNL     1     158.173 163.100 159.056  1.00  0.00    -0.000 C 
BRANCH  12  13
ATOM     13  C   UNL     1     159.411 163.362 158.172  1.00  0.00    -0.000 C 
BRANCH  13  14
ATOM     14  C   UNL     1     160.423 162.204 158.172  1.00  0.00    -0.000 C 
BRANCH  14  15
ATOM     15  C   UNL     1     161.497 162.349 159.260  1.00  0.00    -0.000 C 
BRANCH  15  16
ATOM     16  C   UNL     1     162.766 161.575 158.885  1.00  0.00    -0.003 C 
ATOM     17  C   UNL     1     163.751 162.465 158.130  1.00  0.00     0.004 C 
ENDBRANCH  15  16
ENDBRANCH  14  15
ENDBRANCH  13  14
ENDBRANCH  12  13
ENDBRANCH  11  12
ENDBRANCH  10  11
ENDBRANCH   1  10
TORSDOF 13
ENDMDL
