MODEL 1
REMARK VINA RESULT:    -5.671      0.000      0.000
REMARK INTER + INTRA:         -11.265
REMARK INTER:                 -10.479
REMARK INTRA:                  -0.786
REMARK UNBOUND:                -0.786
REMARK SMILES CCCCCCCCCCCCCCCCO
REMARK SMILES IDX 9 1 8 2 7 3 6 4 5 5 4 6 3 7 2 8 1 9 10 10 11 11 12 12 13 13
REMARK SMILES IDX 14 14 15 15 16 16 17 17
REMARK H PARENT 17 18
REMARK Flexibility Score: inf
ROOT
ATOM      1  C   UNL     1      -1.258  -8.445   1.428  1.00  0.00     0.000 C 
ENDROOT
BRANCH   1   2
ATOM      2  C   UNL     1      -1.013  -8.827  -0.041  1.00  0.00    -0.000 C 
BRANCH   2   3
ATOM      3  C   UNL     1       0.382  -8.412  -0.534  1.00  0.00    -0.000 C 
BRANCH   3   4
ATOM      4  C   UNL     1       1.503  -8.785   0.453  1.00  0.00    -0.000 C 
BRANCH   4   5
ATOM      5  C   UNL     1       2.934  -8.596  -0.082  1.00  0.00    -0.000 C 
BRANCH   5   6
ATOM      6  C   UNL     1       3.003  -7.646  -1.290  1.00  0.00    -0.000 C 
BRANCH   6   7
ATOM      7  C   UNL     1       3.669  -6.300  -0.935  1.00  0.00    -0.000 C 
BRANCH   7   8
ATOM      8  C   UNL     1       2.771  -5.080  -1.204  1.00  0.00    -0.003 C 
ATOM      9  C   UNL     1       1.555  -5.411  -2.068  1.00  0.00     0.004 C 
ENDBRANCH   7   8
ENDBRANCH   6   7
ENDBRANCH   5   6
ENDBRANCH   4   5
ENDBRANCH   3   4
ENDBRANCH   2   3
ENDBRANCH   1   2
BRANCH   1  10
ATOM     10  C   UNL     1      -2.665  -8.822   1.915  1.00  0.00     0.000 C 
BRANCH  10  11
ATOM     11  C   UNL     1      -3.385  -7.602   2.509  1.00  0.00     0.000 C 
BRANCH  11  12
ATOM     12  C   UNL     1      -4.913  -7.668   2.339  1.00  0.00     0.000 C 
BRANCH  12  13
ATOM     13  C   UNL     1      -5.645  -6.319   2.488  1.00  0.00     0.000 C 
BRANCH  13  14
ATOM     14  C   UNL     1      -4.731  -5.092   2.669  1.00  0.00     0.002 C 
BRANCH  14  15
ATOM     15  C   UNL     1      -4.401  -4.733   4.130  1.00  0.00     0.028 C 
BRANCH  15  16
ATOM     16  C   UNL     1      -5.510  -5.115   5.123  1.00  0.00     0.156 C 
BRANCH  16  17
ATOM     17  O   UNL     1      -4.979  -5.736   6.262  1.00  0.00    -0.396 OA
ATOM     18  H   UNL     1      -5.512  -6.560   6.412  1.00  0.00     0.210 HD
ENDBRANCH  16  17
ENDBRANCH  15  16
ENDBRANCH  14  15
ENDBRANCH  13  14
ENDBRANCH  12  13
ENDBRANCH  11  12
ENDBRANCH  10  11
ENDBRANCH   1  10
TORSDOF 15
ENDMDL
MODEL 2
REMARK VINA RESULT:    -5.569      3.248      7.999
REMARK INTER + INTRA:         -11.075
REMARK INTER:                  -9.986
REMARK INTRA:                  -1.089
REMARK UNBOUND:                -0.786
REMARK SMILES CCCCCCCCCCCCCCCCO
REMARK SMILES IDX 9 1 8 2 7 3 6 4 5 5 4 6 3 7 2 8 1 9 10 10 11 11 12 12 13 13
REMARK SMILES IDX 14 14 15 15 16 16 17 17
REMARK H PARENT 17 18
REMARK Flexibility Score: inf
ROOT
ATOM      1  C   UNL     1      -1.489  -8.500   1.723  1.00  0.00     0.000 C 
ENDROOT
BRANCH   1   2
ATOM      2  C   UNL     1      -2.761  -7.879   2.324  1.00  0.00    -0.000 C 
BRANCH   2   3
ATOM      3  C   UNL     1      -4.009  -8.142   1.466  1.00  0.00    -0.000 C 
BRANCH   3   4
ATOM      4  C   UNL     1      -5.290  -8.304   2.305  1.00  0.00    -0.000 C 
BRANCH   4   5
ATOM      5  C   UNL     1      -5.613  -7.121   3.237  1.00  0.00    -0.000 C 
BRANCH   5   6
ATOM      6  C   UNL     1      -6.351  -5.976   2.521  1.00  0.00    -0.000 C 
BRANCH   6   7
ATOM      7  C   UNL     1      -5.789  -4.591   2.905  1.00  0.00    -0.000 C 
BRANCH   7   8
ATOM      8  C   UNL     1      -4.682  -4.652   3.972  1.00  0.00    -0.003 C 
ATOM      9  C   UNL     1      -3.288  -4.399   3.403  1.00  0.00     0.004 C 
ENDBRANCH   7   8
ENDBRANCH   6   7
ENDBRANCH   5   6
ENDBRANCH   4   5
ENDBRANCH   3   4
ENDBRANCH   2   3
ENDBRANCH   1   2
BRANCH   1  10
ATOM     10  C   UNL     1      -1.645  -8.851   0.236  1.00  0.00     0.000 C 
BRANCH  10  11
ATOM     11  C   UNL     1      -0.395  -8.441  -0.558  1.00  0.00     0.000 C 
BRANCH  11  12
ATOM     12  C   UNL     1       0.842  -8.243   0.335  1.00  0.00     0.000 C 
BRANCH  12  13
ATOM     13  C   UNL     1       1.951  -7.359  -0.272  1.00  0.00     0.000 C 
BRANCH  13  14
ATOM     14  C   UNL     1       1.463  -6.272  -1.249  1.00  0.00     0.002 C 
BRANCH  14  15
ATOM     15  C   UNL     1       2.541  -5.271  -1.705  1.00  0.00     0.028 C 
BRANCH  15  16
ATOM     16  C   UNL     1       3.435  -5.803  -2.836  1.00  0.00     0.156 C 
BRANCH  16  17
ATOM     17  O   UNL     1       2.667  -6.339  -3.879  1.00  0.00    -0.396 OA
ATOM     18  H   UNL     1       3.253  -6.362  -4.681  1.00  0.00     0.210 HD
ENDBRANCH  16  17
ENDBRANCH  15  16
ENDBRANCH  14  15
ENDBRANCH  13  14
ENDBRANCH  12  13
ENDBRANCH  11  12
ENDBRANCH  10  11
ENDBRANCH   1  10
TORSDOF 15
ENDMDL
MODEL 3
REMARK VINA RESULT:    -5.556      1.381      1.984
REMARK INTER + INTRA:         -11.052
REMARK INTER:                 -10.349
REMARK INTRA:                  -0.702
REMARK UNBOUND:                -0.786
REMARK SMILES CCCCCCCCCCCCCCCCO
REMARK SMILES IDX 9 1 8 2 7 3 6 4 5 5 4 6 3 7 2 8 1 9 10 10 11 11 12 12 13 13
REMARK SMILES IDX 14 14 15 15 16 16 17 17
REMARK H PARENT 17 18
REMARK Flexibility Score: inf
ROOT
ATOM      1  C   UNL     1      -3.029  -8.578   1.369  1.00  0.00     0.000 C 
ENDROOT
BRANCH   1   2
ATOM      2  C   UNL     1      -1.497  -8.453   1.327  1.00  0.00    -0.000 C 
BRANCH   2   3
ATOM      3  C   UNL     1      -0.909  -8.847  -0.037  1.00  0.00    -0.000 C 
BRANCH   3   4
ATOM      4  C   UNL     1       0.234  -7.920  -0.488  1.00  0.00    -0.000 C 
BRANCH   4   5
ATOM      5  C   UNL     1       1.649  -8.401  -0.117  1.00  0.00    -0.000 C 
BRANCH   5   6
ATOM      6  C   UNL     1       2.758  -7.504  -0.694  1.00  0.00    -0.000 C 
BRANCH   6   7
ATOM      7  C   UNL     1       2.396  -6.006  -0.615  1.00  0.00    -0.000 C 
BRANCH   7   8
ATOM      8  C   UNL     1       2.681  -5.236  -1.916  1.00  0.00    -0.003 C 
ATOM      9  C   UNL     1       3.082  -6.146  -3.074  1.00  0.00     0.004 C 
ENDBRANCH   7   8
ENDBRANCH   6   7
ENDBRANCH   5   6
ENDBRANCH   4   5
ENDBRANCH   3   4
ENDBRANCH   2   3
ENDBRANCH   1   2
BRANCH   1  10
ATOM     10  C   UNL     1      -3.655  -7.829   2.554  1.00  0.00     0.000 C 
BRANCH  10  11
ATOM     11  C   UNL     1      -3.549  -6.309   2.360  1.00  0.00     0.000 C 
BRANCH  11  12
ATOM     12  C   UNL     1      -3.523  -5.536   3.691  1.00  0.00     0.000 C 
BRANCH  12  13
ATOM     13  C   UNL     1      -4.711  -4.579   3.913  1.00  0.00     0.000 C 
BRANCH  13  14
ATOM     14  C   UNL     1      -6.081  -5.263   4.092  1.00  0.00     0.002 C 
BRANCH  14  15
ATOM     15  C   UNL     1      -6.528  -5.458   5.553  1.00  0.00     0.028 C 
BRANCH  15  16
ATOM     16  C   UNL     1      -7.868  -4.782   5.882  1.00  0.00     0.156 C 
BRANCH  16  17
ATOM     17  O   UNL     1      -8.315  -5.139   7.161  1.00  0.00    -0.396 OA
ATOM     18  H   UNL     1      -7.509  -5.385   7.687  1.00  0.00     0.210 HD
ENDBRANCH  16  17
ENDBRANCH  15  16
ENDBRANCH  14  15
ENDBRANCH  13  14
ENDBRANCH  12  13
ENDBRANCH  11  12
ENDBRANCH  10  11
ENDBRANCH   1  10
TORSDOF 15
ENDMDL
MODEL 4
REMARK VINA RESULT:    -5.441      2.773      7.891
REMARK INTER + INTRA:         -10.840
REMARK INTER:                  -9.876
REMARK INTRA:                  -0.963
REMARK UNBOUND:                -0.786
REMARK SMILES CCCCCCCCCCCCCCCCO
REMARK SMILES IDX 9 1 8 2 7 3 6 4 5 5 4 6 3 7 2 8 1 9 10 10 11 11 12 12 13 13
REMARK SMILES IDX 14 14 15 15 16 16 17 17
REMARK H PARENT 17 18
REMARK Flexibility Score: inf
ROOT
ATOM      1  C   UNL     1      -1.826  -8.603   0.818  1.00  0.00     0.000 C 
ENDROOT
BRANCH   1   2
ATOM      2  C   UNL     1      -2.438  -9.018   2.166  1.00  0.00    -0.000 C 
BRANCH   2   3
ATOM      3  C   UNL     1      -3.945  -8.726   2.246  1.00  0.00    -0.000 C 
BRANCH   3   4
ATOM      4  C   UNL     1      -4.362  -7.502   1.411  1.00  0.00    -0.000 C 
BRANCH   4   5
ATOM      5  C   UNL     1      -4.653  -6.226   2.223  1.00  0.00    -0.000 C 
BRANCH   5   6
ATOM      6  C   UNL     1      -3.449  -5.760   3.060  1.00  0.00    -0.000 C 
BRANCH   6   7
ATOM      7  C   UNL     1      -3.882  -5.117   4.394  1.00  0.00    -0.000 C 
BRANCH   7   8
ATOM      8  C   UNL     1      -5.396  -4.866   4.493  1.00  0.00    -0.003 C 
ATOM      9  C   UNL     1      -6.089  -5.776   5.505  1.00  0.00     0.004 C 
ENDBRANCH   7   8
ENDBRANCH   6   7
ENDBRANCH   5   6
ENDBRANCH   4   5
ENDBRANCH   3   4
ENDBRANCH   2   3
ENDBRANCH   1   2
BRANCH   1  10
ATOM     10  C   UNL     1      -0.315  -8.346   0.904  1.00  0.00     0.000 C 
BRANCH  10  11
ATOM     11  C   UNL     1       0.310  -8.271  -0.497  1.00  0.00     0.000 C 
BRANCH  11  12
ATOM     12  C   UNL     1       1.162  -7.007  -0.706  1.00  0.00     0.000 C 
BRANCH  12  13
ATOM     13  C   UNL     1       2.683  -7.213  -0.557  1.00  0.00     0.000 C 
BRANCH  13  14
ATOM     14  C   UNL     1       3.148  -8.683  -0.540  1.00  0.00     0.002 C 
BRANCH  14  15
ATOM     15  C   UNL     1       3.980  -9.091   0.690  1.00  0.00     0.028 C 
BRANCH  15  16
ATOM     16  C   UNL     1       3.128  -9.447   1.918  1.00  0.00     0.156 C 
BRANCH  16  17
ATOM     17  O   UNL     1       2.959 -10.834   2.033  1.00  0.00    -0.396 OA
ATOM     18  H   UNL     1       2.684 -11.011   2.971  1.00  0.00     0.210 HD
ENDBRANCH  16  17
ENDBRANCH  15  16
ENDBRANCH  14  15
ENDBRANCH  13  14
ENDBRANCH  12  13
ENDBRANCH  11  12
ENDBRANCH  10  11
ENDBRANCH   1  10
TORSDOF 15
ENDMDL
MODEL 5
REMARK VINA RESULT:    -5.258      3.250      7.989
REMARK INTER + INTRA:         -10.501
REMARK INTER:                  -9.654
REMARK INTRA:                  -0.847
REMARK UNBOUND:                -0.786
REMARK SMILES CCCCCCCCCCCCCCCCO
REMARK SMILES IDX 9 1 8 2 7 3 6 4 5 5 4 6 3 7 2 8 1 9 10 10 11 11 12 12 13 13
REMARK SMILES IDX 14 14 15 15 16 16 17 17
REMARK H PARENT 17 18
REMARK Flexibility Score: inf
ROOT
ATOM      1  C   UNL     1       0.201  -8.168  -0.491  1.00  0.00     0.000 C 
ENDROOT
BRANCH   1   2
ATOM      2  C   UNL     1      -0.530  -8.180   0.862  1.00  0.00    -0.000 C 
BRANCH   2   3
ATOM      3  C   UNL     1      -1.943  -8.776   0.765  1.00  0.00    -0.000 C 
BRANCH   3   4
ATOM      4  C   UNL     1      -2.663  -8.839   2.124  1.00  0.00    -0.000 C 
BRANCH   4   5
ATOM      5  C   UNL     1      -4.198  -8.739   2.056  1.00  0.00    -0.000 C 
BRANCH   5   6
ATOM      6  C   UNL     1      -4.749  -7.475   2.738  1.00  0.00    -0.000 C 
BRANCH   6   7
ATOM      7  C   UNL     1      -3.921  -6.219   2.393  1.00  0.00    -0.000 C 
BRANCH   7   8
ATOM      8  C   UNL     1      -4.677  -4.901   2.633  1.00  0.00    -0.003 C 
ATOM      9  C   UNL     1      -4.309  -4.233   3.956  1.00  0.00     0.004 C 
ENDBRANCH   7   8
ENDBRANCH   6   7
ENDBRANCH   5   6
ENDBRANCH   4   5
ENDBRANCH   3   4
ENDBRANCH   2   3
ENDBRANCH   1   2
BRANCH   1  10
ATOM     10  C   UNL     1       1.449  -9.062  -0.501  1.00  0.00     0.000 C 
BRANCH  10  11
ATOM     11  C   UNL     1       2.556  -8.468   0.383  1.00  0.00     0.000 C 
BRANCH  11  12
ATOM     12  C   UNL     1       3.787  -8.016  -0.422  1.00  0.00     0.000 C 
BRANCH  12  13
ATOM     13  C   UNL     1       4.016  -6.491  -0.464  1.00  0.00     0.000 C 
BRANCH  13  14
ATOM     14  C   UNL     1       2.736  -5.637  -0.547  1.00  0.00     0.002 C 
BRANCH  14  15
ATOM     15  C   UNL     1       2.355  -5.165  -1.963  1.00  0.00     0.028 C 
BRANCH  15  16
ATOM     16  C   UNL     1       3.325  -5.647  -3.053  1.00  0.00     0.156 C 
BRANCH  16  17
ATOM     17  O   UNL     1       2.674  -6.471  -3.981  1.00  0.00    -0.396 OA
ATOM     18  H   UNL     1       2.693  -5.992  -4.850  1.00  0.00     0.210 HD
ENDBRANCH  16  17
ENDBRANCH  15  16
ENDBRANCH  14  15
ENDBRANCH  13  14
ENDBRANCH  12  13
ENDBRANCH  11  12
ENDBRANCH  10  11
ENDBRANCH   1  10
TORSDOF 15
ENDMDL
MODEL 6
REMARK VINA RESULT:    -4.968      2.512      3.197
REMARK INTER + INTRA:          -9.965
REMARK INTER:                  -9.264
REMARK INTRA:                  -0.701
REMARK UNBOUND:                -0.786
REMARK SMILES CCCCCCCCCCCCCCCCO
REMARK SMILES IDX 9 1 8 2 7 3 6 4 5 5 4 6 3 7 2 8 1 9 10 10 11 11 12 12 13 13
REMARK SMILES IDX 14 14 15 15 16 16 17 17
REMARK H PARENT 17 18
REMARK Flexibility Score: inf
ROOT
ATOM      1  C   UNL     1      -1.450  -8.609   1.832  1.00  0.00     0.000 C 
ENDROOT
BRANCH   1   2
ATOM      2  C   UNL     1      -1.630  -8.643   0.306  1.00  0.00    -0.000 C 
BRANCH   2   3
ATOM      3  C   UNL     1      -0.516  -9.430  -0.403  1.00  0.00    -0.000 C 
BRANCH   3   4
ATOM      4  C   UNL     1       0.892  -8.890  -0.090  1.00  0.00    -0.000 C 
BRANCH   4   5
ATOM      5  C   UNL     1       1.160  -7.450  -0.568  1.00  0.00    -0.000 C 
BRANCH   5   6
ATOM      6  C   UNL     1       2.633  -7.033  -0.417  1.00  0.00    -0.000 C 
BRANCH   6   7
ATOM      7  C   UNL     1       2.842  -5.527  -0.685  1.00  0.00    -0.000 C 
BRANCH   7   8
ATOM      8  C   UNL     1       2.672  -5.137  -2.163  1.00  0.00    -0.003 C 
ATOM      9  C   UNL     1       3.277  -6.158  -3.125  1.00  0.00     0.004 C 
ENDBRANCH   7   8
ENDBRANCH   6   7
ENDBRANCH   5   6
ENDBRANCH   4   5
ENDBRANCH   3   4
ENDBRANCH   2   3
ENDBRANCH   1   2
BRANCH   1  10
ATOM     10  C   UNL     1      -2.733  -8.204   2.574  1.00  0.00     0.000 C 
BRANCH  10  11
ATOM     11  C   UNL     1      -3.650  -7.370   1.666  1.00  0.00     0.000 C 
BRANCH  11  12
ATOM     12  C   UNL     1      -4.436  -6.295   2.437  1.00  0.00     0.000 C 
BRANCH  12  13
ATOM     13  C   UNL     1      -5.943  -6.580   2.602  1.00  0.00     0.000 C 
BRANCH  13  14
ATOM     14  C   UNL     1      -6.421  -7.933   2.038  1.00  0.00     0.002 C 
BRANCH  14  15
ATOM     15  C   UNL     1      -7.321  -7.841   0.792  1.00  0.00     0.028 C 
BRANCH  15  16
ATOM     16  C   UNL     1      -7.827  -9.204   0.296  1.00  0.00     0.156 C 
BRANCH  16  17
ATOM     17  O   UNL     1      -9.219  -9.200   0.134  1.00  0.00    -0.396 OA
ATOM     18  H   UNL     1      -9.612  -9.275   1.042  1.00  0.00     0.210 HD
ENDBRANCH  16  17
ENDBRANCH  15  16
ENDBRANCH  14  15
ENDBRANCH  13  14
ENDBRANCH  12  13
ENDBRANCH  11  12
ENDBRANCH  10  11
ENDBRANCH   1  10
TORSDOF 15
ENDMDL
MODEL 7
REMARK VINA RESULT:    -4.937      5.826      8.766
REMARK INTER + INTRA:          -9.908
REMARK INTER:                  -9.065
REMARK INTRA:                  -0.843
REMARK UNBOUND:                -0.786
REMARK SMILES CCCCCCCCCCCCCCCCO
REMARK SMILES IDX 9 1 8 2 7 3 6 4 5 5 4 6 3 7 2 8 1 9 10 10 11 11 12 12 13 13
REMARK SMILES IDX 14 14 15 15 16 16 17 17
REMARK H PARENT 17 18
REMARK Flexibility Score: inf
ROOT
ATOM      1  C   UNL     1      -8.075  -8.891   0.613  1.00  0.00     0.000 C 
ENDROOT
BRANCH   1   2
ATOM      2  C   UNL     1      -6.732  -9.544   0.246  1.00  0.00    -0.000 C 
BRANCH   2   3
ATOM      3  C   UNL     1      -5.614  -8.511   0.031  1.00  0.00    -0.000 C 
BRANCH   3   4
ATOM      4  C   UNL     1      -4.523  -8.574   1.115  1.00  0.00    -0.000 C 
BRANCH   4   5
ATOM      5  C   UNL     1      -4.940  -8.029   2.493  1.00  0.00    -0.000 C 
BRANCH   5   6
ATOM      6  C   UNL     1      -5.213  -6.515   2.482  1.00  0.00    -0.000 C 
BRANCH   6   7
ATOM      7  C   UNL     1      -3.956  -5.693   2.835  1.00  0.00    -0.000 C 
BRANCH   7   8
ATOM      8  C   UNL     1      -4.172  -4.708   3.997  1.00  0.00    -0.003 C 
ATOM      9  C   UNL     1      -5.159  -5.223   5.042  1.00  0.00     0.004 C 
ENDBRANCH   7   8
ENDBRANCH   6   7
ENDBRANCH   5   6
ENDBRANCH   4   5
ENDBRANCH   3   4
ENDBRANCH   2   3
ENDBRANCH   1   2
BRANCH   1  10
ATOM     10  C   UNL     1      -9.283  -9.667   0.067  1.00  0.00     0.000 C 
BRANCH  10  11
ATOM     11  C   UNL     1      -8.834 -10.754  -0.922  1.00  0.00     0.000 C 
BRANCH  11  12
ATOM     12  C   UNL     1      -9.830 -10.959  -2.077  1.00  0.00     0.000 C 
BRANCH  12  13
ATOM     13  C   UNL     1     -10.131 -12.431  -2.426  1.00  0.00     0.000 C 
BRANCH  13  14
ATOM     14  C   UNL     1      -8.902 -13.280  -2.805  1.00  0.00     0.002 C 
BRANCH  14  15
ATOM     15  C   UNL     1      -8.377 -14.204  -1.690  1.00  0.00     0.028 C 
BRANCH  15  16
ATOM     16  C   UNL     1      -9.481 -14.752  -0.775  1.00  0.00     0.156 C 
BRANCH  16  17
ATOM     17  O   UNL     1      -9.403 -14.190   0.507  1.00  0.00    -0.396 OA
ATOM     18  H   UNL     1      -9.287 -14.945   1.142  1.00  0.00     0.210 HD
ENDBRANCH  16  17
ENDBRANCH  15  16
ENDBRANCH  14  15
ENDBRANCH  13  14
ENDBRANCH  12  13
ENDBRANCH  11  12
ENDBRANCH  10  11
ENDBRANCH   1  10
TORSDOF 15
ENDMDL
MODEL 8
REMARK VINA RESULT:    -4.810      3.775      4.757
REMARK INTER + INTRA:          -9.674
REMARK INTER:                  -9.098
REMARK INTRA:                  -0.575
REMARK UNBOUND:                -0.786
REMARK SMILES CCCCCCCCCCCCCCCCO
REMARK SMILES IDX 9 1 8 2 7 3 6 4 5 5 4 6 3 7 2 8 1 9 10 10 11 11 12 12 13 13
REMARK SMILES IDX 14 14 15 15 16 16 17 17
REMARK H PARENT 17 18
REMARK Flexibility Score: inf
ROOT
ATOM      1  C   UNL     1      -3.286  -7.960   2.128  1.00  0.00     0.000 C 
ENDROOT
BRANCH   1   2
ATOM      2  C   UNL     1      -2.556  -8.340   0.829  1.00  0.00    -0.000 C 
BRANCH   2   3
ATOM      3  C   UNL     1      -1.040  -8.492   1.028  1.00  0.00    -0.000 C 
BRANCH   3   4
ATOM      4  C   UNL     1      -0.271  -8.618  -0.300  1.00  0.00    -0.000 C 
BRANCH   4   5
ATOM      5  C   UNL     1       1.196  -9.068  -0.166  1.00  0.00    -0.000 C 
BRANCH   5   6
ATOM      6  C   UNL     1       2.186  -8.090  -0.820  1.00  0.00    -0.000 C 
BRANCH   6   7
ATOM      7  C   UNL     1       2.130  -6.687  -0.179  1.00  0.00    -0.000 C 
BRANCH   7   8
ATOM      8  C   UNL     1       2.718  -5.580  -1.070  1.00  0.00    -0.003 C 
ATOM      9  C   UNL     1       2.169  -5.604  -2.495  1.00  0.00     0.004 C 
ENDBRANCH   7   8
ENDBRANCH   6   7
ENDBRANCH   5   6
ENDBRANCH   4   5
ENDBRANCH   3   4
ENDBRANCH   2   3
ENDBRANCH   1   2
BRANCH   1  10
ATOM     10  C   UNL     1      -4.519  -8.836   2.397  1.00  0.00     0.000 C 
BRANCH  10  11
ATOM     11  C   UNL     1      -5.804  -8.129   1.939  1.00  0.00     0.000 C 
BRANCH  11  12
ATOM     12  C   UNL     1      -6.453  -8.802   0.717  1.00  0.00     0.000 C 
BRANCH  12  13
ATOM     13  C   UNL     1      -7.967  -8.554   0.564  1.00  0.00     0.000 C 
BRANCH  13  14
ATOM     14  C   UNL     1      -8.773  -9.741   0.001  1.00  0.00     0.002 C 
BRANCH  14  15
ATOM     15  C   UNL     1      -7.950 -10.772  -0.794  1.00  0.00     0.028 C 
BRANCH  15  16
ATOM     16  C   UNL     1      -8.793 -11.922  -1.367  1.00  0.00     0.156 C 
BRANCH  16  17
ATOM     17  O   UNL     1      -9.110 -12.860  -0.376  1.00  0.00    -0.396 OA
ATOM     18  H   UNL     1      -8.799 -12.479   0.487  1.00  0.00     0.210 HD
ENDBRANCH  16  17
ENDBRANCH  15  16
ENDBRANCH  14  15
ENDBRANCH  13  14
ENDBRANCH  12  13
ENDBRANCH  11  12
ENDBRANCH  10  11
ENDBRANCH   1  10
TORSDOF 15
ENDMDL
MODEL 9
REMARK VINA RESULT:    -4.798      5.438      9.009
REMARK INTER + INTRA:          -9.651
REMARK INTER:                  -8.855
REMARK INTRA:                  -0.796
REMARK UNBOUND:                -0.786
REMARK SMILES CCCCCCCCCCCCCCCCO
REMARK SMILES IDX 9 1 8 2 7 3 6 4 5 5 4 6 3 7 2 8 1 9 10 10 11 11 12 12 13 13
REMARK SMILES IDX 14 14 15 15 16 16 17 17
REMARK H PARENT 17 18
REMARK Flexibility Score: inf
ROOT
ATOM      1  C   UNL     1      -7.967  -8.670   0.544  1.00  0.00     0.000 C 
ENDROOT
BRANCH   1   2
ATOM      2  C   UNL     1      -9.162  -9.600   0.278  1.00  0.00    -0.000 C 
BRANCH   2   3
ATOM      3  C   UNL     1      -8.896 -10.591  -0.866  1.00  0.00    -0.000 C 
BRANCH   3   4
ATOM      4  C   UNL     1     -10.128 -10.819  -1.760  1.00  0.00    -0.000 C 
BRANCH   4   5
ATOM      5  C   UNL     1      -9.877 -11.683  -3.011  1.00  0.00    -0.000 C 
BRANCH   5   6
ATOM      6  C   UNL     1      -9.079 -12.962  -2.706  1.00  0.00    -0.000 C 
BRANCH   6   7
ATOM      7  C   UNL     1      -9.914 -13.998  -1.924  1.00  0.00    -0.000 C 
BRANCH   7   8
ATOM      8  C   UNL     1      -9.163 -14.623  -0.736  1.00  0.00    -0.003 C 
ATOM      9  C   UNL     1      -7.717 -14.143  -0.623  1.00  0.00     0.004 C 
ENDBRANCH   7   8
ENDBRANCH   6   7
ENDBRANCH   5   6
ENDBRANCH   4   5
ENDBRANCH   3   4
ENDBRANCH   2   3
ENDBRANCH   1   2
BRANCH   1  10
ATOM     10  C   UNL     1      -6.639  -9.430   0.673  1.00  0.00     0.000 C 
BRANCH  10  11
ATOM     11  C   UNL     1      -5.459  -8.549   0.235  1.00  0.00     0.000 C 
BRANCH  11  12
ATOM     12  C   UNL     1      -4.688  -7.947   1.423  1.00  0.00     0.000 C 
BRANCH  12  13
ATOM     13  C   UNL     1      -5.505  -6.987   2.311  1.00  0.00     0.000 C 
BRANCH  13  14
ATOM     14  C   UNL     1      -4.901  -5.580   2.487  1.00  0.00     0.002 C 
BRANCH  14  15
ATOM     15  C   UNL     1      -4.505  -5.214   3.930  1.00  0.00     0.028 C 
BRANCH  15  16
ATOM     16  C   UNL     1      -5.579  -5.565   4.970  1.00  0.00     0.156 C 
BRANCH  16  17
ATOM     17  O   UNL     1      -5.015  -5.740   6.241  1.00  0.00    -0.396 OA
ATOM     18  H   UNL     1      -5.688  -5.420   6.898  1.00  0.00     0.210 HD
ENDBRANCH  16  17
ENDBRANCH  15  16
ENDBRANCH  14  15
ENDBRANCH  13  14
ENDBRANCH  12  13
ENDBRANCH  11  12
ENDBRANCH  10  11
ENDBRANCH   1  10
TORSDOF 15
ENDMDL
