MODEL 1
REMARK VINA RESULT:    -6.991      0.000      0.000
REMARK INTER + INTRA:         -11.558
REMARK INTER:                 -10.874
REMARK INTRA:                  -0.683
REMARK UNBOUND:                -0.683
REMARK SMILES COc1cc(CNC(=O)CCCCC=CC(C)C)ccc1O
REMARK SMILES IDX 11 1 12 2 13 3 14 4 15 5 16 6 17 7 18 8 10 9 8 10 9 11 7 12
REMARK SMILES IDX 6 14 5 15 4 16 19 17 3 18 20 19 21 20 2 21 1 22 22 23
REMARK H PARENT 7 13 22 24
REMARK Flexibility Score: inf
ROOT
ATOM      1  C   UNL     1      20.006  -8.447  21.761  1.00  0.00     0.010 C 
ENDROOT
BRANCH   1   2
ATOM      2  C   UNL     1      19.360  -7.386  22.658  1.00  0.00     0.005 C 
BRANCH   2   3
ATOM      3  C   UNL     1      20.311  -6.968  23.788  1.00  0.00     0.027 C 
BRANCH   3   4
ATOM      4  C   UNL     1      19.653  -7.090  25.134  1.00  0.00    -0.031 C 
ATOM      5  C   UNL     1      20.351  -7.436  26.232  1.00  0.00    -0.028 C 
BRANCH   5   6
ATOM      6  C   UNL     1      19.714  -7.574  27.597  1.00  0.00     0.005 C 
ATOM      7  C   UNL     1      18.374  -8.315  27.518  1.00  0.00     0.012 C 
ATOM      8  C   UNL     1      20.665  -8.252  28.589  1.00  0.00     0.012 C 
ENDBRANCH   5   6
ENDBRANCH   3   4
ENDBRANCH   2   3
ENDBRANCH   1   2
BRANCH   1   9
ATOM      9  C   UNL     1      19.460  -9.843  22.076  1.00  0.00     0.100 C 
BRANCH   9  10
ATOM     10  C   UNL     1      18.693 -10.373  20.902  1.00  0.00     0.220 C 
ATOM     11  O   UNL     1      18.198 -11.531  20.958  1.00  0.00    -0.275 OA
ATOM     12  N   UNL     1      18.478  -9.545  19.749  1.00  0.00    -0.352 N 
ATOM     13  H   UNL     1      18.952  -8.615  19.697  1.00  0.00     0.163 HD
BRANCH  12  14
ATOM     14  C   UNL     1      17.484  -9.869  18.730  1.00  0.00     0.151 C 
BRANCH  14  15
ATOM     15  C   UNL     1      18.167 -10.446  17.521  1.00  0.00    -0.025 A 
ATOM     16  C   UNL     1      18.518 -11.805  17.482  1.00  0.00     0.056 A 
ATOM     17  C   UNL     1      18.395  -9.643  16.394  1.00  0.00     0.009 A 
ATOM     18  C   UNL     1      19.111 -12.359  16.329  1.00  0.00     0.160 A 
ATOM     19  C   UNL     1      18.990 -10.184  15.252  1.00  0.00     0.050 A 
ATOM     20  C   UNL     1      19.348 -11.537  15.217  1.00  0.00     0.157 A 
BRANCH  18  21
ATOM     21  O   UNL     1      19.473 -13.712  16.252  1.00  0.00    -0.493 OA
ATOM     22  C   UNL     1      18.585 -14.767  15.892  1.00  0.00     0.278 C 
ENDBRANCH  18  21
BRANCH  20  23
ATOM     23  O   UNL     1      19.940 -12.078  14.076  1.00  0.00    -0.504 OA
ATOM     24  H   UNL     1      20.450 -11.500  13.417  1.00  0.00     0.293 HD
ENDBRANCH  20  23
ENDBRANCH  14  15
ENDBRANCH  12  14
ENDBRANCH   9  10
ENDBRANCH   1   9
TORSDOF 10
ENDMDL
MODEL 2
REMARK VINA RESULT:    -6.929      3.250     10.526
REMARK INTER + INTRA:         -11.461
REMARK INTER:                 -10.799
REMARK INTRA:                  -0.662
REMARK UNBOUND:                -0.683
REMARK SMILES COc1cc(CNC(=O)CCCCC=CC(C)C)ccc1O
REMARK SMILES IDX 11 1 12 2 13 3 14 4 15 5 16 6 17 7 18 8 10 9 8 10 9 11 7 12
REMARK SMILES IDX 6 14 5 15 4 16 19 17 3 18 20 19 21 20 2 21 1 22 22 23
REMARK H PARENT 7 13 22 24
REMARK Flexibility Score: inf
ROOT
ATOM      1  C   UNL     1      19.184 -13.196  15.890  1.00  0.00     0.010 C 
ENDROOT
BRANCH   1   2
ATOM      2  C   UNL     1      19.021 -14.122  14.680  1.00  0.00     0.005 C 
BRANCH   2   3
ATOM      3  C   UNL     1      20.112 -13.855  13.634  1.00  0.00     0.027 C 
BRANCH   3   4
ATOM      4  C   UNL     1      19.521 -13.632  12.269  1.00  0.00    -0.031 C 
ATOM      5  C   UNL     1      20.274 -13.699  11.154  1.00  0.00    -0.028 C 
BRANCH   5   6
ATOM      6  C   UNL     1      19.708 -13.471   9.771  1.00  0.00     0.005 C 
ATOM      7  C   UNL     1      18.363 -12.736   9.828  1.00  0.00     0.012 C 
ATOM      8  C   UNL     1      20.707 -12.729   8.876  1.00  0.00     0.012 C 
ENDBRANCH   5   6
ENDBRANCH   3   4
ENDBRANCH   2   3
ENDBRANCH   1   2
BRANCH   1   9
ATOM      9  C   UNL     1      19.223 -11.726  15.461  1.00  0.00     0.100 C 
BRANCH   9  10
ATOM     10  C   UNL     1      18.638 -10.860  16.536  1.00  0.00     0.220 C 
ATOM     11  O   UNL     1      18.411  -9.643  16.295  1.00  0.00    -0.275 OA
ATOM     12  N   UNL     1      18.289 -11.428  17.807  1.00  0.00    -0.352 N 
ATOM     13  H   UNL     1      18.546 -12.420  18.007  1.00  0.00     0.163 HD
BRANCH  12  14
ATOM     14  C   UNL     1      17.432 -10.732  18.763  1.00  0.00     0.151 C 
BRANCH  14  15
ATOM     15  C   UNL     1      18.270 -10.151  19.868  1.00  0.00    -0.025 A 
ATOM     16  C   UNL     1      18.119  -8.807  20.245  1.00  0.00     0.056 A 
ATOM     17  C   UNL     1      19.161 -10.970  20.577  1.00  0.00     0.009 A 
ATOM     18  C   UNL     1      18.867  -8.275  21.314  1.00  0.00     0.160 A 
ATOM     19  C   UNL     1      19.912 -10.446  21.632  1.00  0.00     0.050 A 
ATOM     20  C   UNL     1      19.768  -9.103  22.002  1.00  0.00     0.157 A 
BRANCH  18  21
ATOM     21  O   UNL     1      18.742  -6.938  21.721  1.00  0.00    -0.493 OA
ATOM     22  C   UNL     1      18.633  -5.830  20.833  1.00  0.00     0.278 C 
ENDBRANCH  18  21
BRANCH  20  23
ATOM     23  O   UNL     1      20.515  -8.581  23.056  1.00  0.00    -0.504 OA
ATOM     24  H   UNL     1      20.072  -8.186  23.878  1.00  0.00     0.293 HD
ENDBRANCH  20  23
ENDBRANCH  14  15
ENDBRANCH  12  14
ENDBRANCH   9  10
ENDBRANCH   1   9
TORSDOF 10
ENDMDL
MODEL 3
REMARK VINA RESULT:    -6.771      3.717     10.197
REMARK INTER + INTRA:         -11.214
REMARK INTER:                 -10.424
REMARK INTRA:                  -0.790
REMARK UNBOUND:                -0.683
REMARK SMILES COc1cc(CNC(=O)CCCCC=CC(C)C)ccc1O
REMARK SMILES IDX 11 1 12 2 13 3 14 4 15 5 16 6 17 7 18 8 10 9 8 10 9 11 7 12
REMARK SMILES IDX 6 14 5 15 4 16 19 17 3 18 20 19 21 20 2 21 1 22 22 23
REMARK H PARENT 7 13 22 24
REMARK Flexibility Score: inf
ROOT
ATOM      1  C   UNL     1      19.174 -12.204  15.365  1.00  0.00     0.010 C 
ENDROOT
BRANCH   1   2
ATOM      2  C   UNL     1      20.170 -12.404  14.217  1.00  0.00     0.005 C 
BRANCH   2   3
ATOM      3  C   UNL     1      20.130 -13.848  13.700  1.00  0.00     0.027 C 
BRANCH   3   4
ATOM      4  C   UNL     1      19.597 -13.914  12.295  1.00  0.00    -0.031 C 
ATOM      5  C   UNL     1      20.236 -13.323  11.269  1.00  0.00    -0.028 C 
BRANCH   5   6
ATOM      6  C   UNL     1      19.719 -13.367   9.848  1.00  0.00     0.005 C 
ATOM      7  C   UNL     1      18.330 -12.726   9.737  1.00  0.00     0.012 C 
ATOM      8  C   UNL     1      20.709 -12.717   8.875  1.00  0.00     0.012 C 
ENDBRANCH   5   6
ENDBRANCH   3   4
ENDBRANCH   2   3
ENDBRANCH   1   2
BRANCH   1   9
ATOM      9  C   UNL     1      18.421 -13.501  15.676  1.00  0.00     0.100 C 
BRANCH   9  10
ATOM     10  C   UNL     1      18.377 -13.728  17.157  1.00  0.00     0.220 C 
ATOM     11  O   UNL     1      19.244 -14.470  17.695  1.00  0.00    -0.275 OA
ATOM     12  N   UNL     1      17.392 -13.060  17.959  1.00  0.00    -0.352 N 
ATOM     13  H   UNL     1      16.646 -12.503  17.486  1.00  0.00     0.163 HD
BRANCH  12  14
ATOM     14  C   UNL     1      17.496 -12.978  19.414  1.00  0.00     0.151 C 
BRANCH  14  15
ATOM     15  C   UNL     1      17.902 -11.587  19.816  1.00  0.00    -0.025 A 
ATOM     16  C   UNL     1      17.449 -10.475  19.088  1.00  0.00     0.056 A 
ATOM     17  C   UNL     1      18.679 -11.388  20.966  1.00  0.00     0.009 A 
ATOM     18  C   UNL     1      17.786  -9.168  19.494  1.00  0.00     0.160 A 
ATOM     19  C   UNL     1      19.023 -10.096  21.369  1.00  0.00     0.050 A 
ATOM     20  C   UNL     1      18.580  -8.987  20.637  1.00  0.00     0.157 A 
BRANCH  18  21
ATOM     21  O   UNL     1      17.352  -8.033  18.794  1.00  0.00    -0.493 OA
ATOM     22  C   UNL     1      17.426  -7.879  17.379  1.00  0.00     0.278 C 
ENDBRANCH  18  21
BRANCH  20  23
ATOM     23  O   UNL     1      18.922  -7.698  21.040  1.00  0.00    -0.504 OA
ATOM     24  H   UNL     1      19.889  -7.406  21.129  1.00  0.00     0.293 HD
ENDBRANCH  20  23
ENDBRANCH  14  15
ENDBRANCH  12  14
ENDBRANCH   9  10
ENDBRANCH   1   9
TORSDOF 10
ENDMDL
MODEL 4
REMARK VINA RESULT:    -6.746      1.715      2.510
REMARK INTER + INTRA:         -11.176
REMARK INTER:                 -10.595
REMARK INTRA:                  -0.581
REMARK UNBOUND:                -0.683
REMARK SMILES COc1cc(CNC(=O)CCCCC=CC(C)C)ccc1O
REMARK SMILES IDX 11 1 12 2 13 3 14 4 15 5 16 6 17 7 18 8 10 9 8 10 9 11 7 12
REMARK SMILES IDX 6 14 5 15 4 16 19 17 3 18 20 19 21 20 2 21 1 22 22 23
REMARK H PARENT 7 13 22 24
REMARK Flexibility Score: inf
ROOT
ATOM      1  C   UNL     1      19.773  -6.704  21.650  1.00  0.00     0.010 C 
ENDROOT
BRANCH   1   2
ATOM      2  C   UNL     1      19.214  -7.218  22.981  1.00  0.00     0.005 C 
BRANCH   2   3
ATOM      3  C   UNL     1      20.299  -7.223  24.067  1.00  0.00     0.027 C 
BRANCH   3   4
ATOM      4  C   UNL     1      19.700  -7.122  25.443  1.00  0.00    -0.031 C 
ATOM      5  C   UNL     1      20.280  -7.702  26.510  1.00  0.00    -0.028 C 
BRANCH   5   6
ATOM      6  C   UNL     1      19.696  -7.623  27.903  1.00  0.00     0.005 C 
ATOM      7  C   UNL     1      18.354  -8.360  27.991  1.00  0.00     0.012 C 
ATOM      8  C   UNL     1      20.685  -8.145  28.951  1.00  0.00     0.012 C 
ENDBRANCH   5   6
ENDBRANCH   3   4
ENDBRANCH   2   3
ENDBRANCH   1   2
BRANCH   1   9
ATOM      9  C   UNL     1      18.739  -5.850  20.909  1.00  0.00     0.100 C 
BRANCH   9  10
ATOM     10  C   UNL     1      17.842  -6.726  20.088  1.00  0.00     0.220 C 
ATOM     11  O   UNL     1      16.655  -6.922  20.465  1.00  0.00    -0.275 OA
ATOM     12  N   UNL     1      18.316  -7.288  18.855  1.00  0.00    -0.352 N 
ATOM     13  H   UNL     1      19.320  -7.166  18.595  1.00  0.00     0.163 HD
BRANCH  12  14
ATOM     14  C   UNL     1      17.413  -7.866  17.863  1.00  0.00     0.151 C 
BRANCH  14  15
ATOM     15  C   UNL     1      17.677  -9.341  17.736  1.00  0.00    -0.025 A 
ATOM     16  C   UNL     1      18.624  -9.818  16.816  1.00  0.00     0.056 A 
ATOM     17  C   UNL     1      17.026 -10.246  18.587  1.00  0.00     0.009 A 
ATOM     18  C   UNL     1      18.910 -11.195  16.731  1.00  0.00     0.160 A 
ATOM     19  C   UNL     1      17.299 -11.613  18.502  1.00  0.00     0.050 A 
ATOM     20  C   UNL     1      18.238 -12.089  17.578  1.00  0.00     0.157 A 
BRANCH  18  21
ATOM     21  O   UNL     1      19.852 -11.709  15.827  1.00  0.00    -0.493 OA
ATOM     22  C   UNL     1      19.567 -12.054  14.474  1.00  0.00     0.278 C 
ENDBRANCH  18  21
BRANCH  20  23
ATOM     23  O   UNL     1      18.512 -13.453  17.496  1.00  0.00    -0.504 OA
ATOM     24  H   UNL     1      17.869 -14.100  17.051  1.00  0.00     0.293 HD
ENDBRANCH  20  23
ENDBRANCH  14  15
ENDBRANCH  12  14
ENDBRANCH   9  10
ENDBRANCH   1   9
TORSDOF 10
ENDMDL
MODEL 5
REMARK VINA RESULT:    -6.744      1.724      2.739
REMARK INTER + INTRA:         -11.173
REMARK INTER:                 -10.483
REMARK INTRA:                  -0.689
REMARK UNBOUND:                -0.683
REMARK SMILES COc1cc(CNC(=O)CCCCC=CC(C)C)ccc1O
REMARK SMILES IDX 11 1 12 2 13 3 14 4 15 5 16 6 17 7 18 8 10 9 8 10 9 11 7 12
REMARK SMILES IDX 6 14 5 15 4 16 19 17 3 18 20 19 21 20 2 21 1 22 22 23
REMARK H PARENT 7 13 22 24
REMARK Flexibility Score: inf
ROOT
ATOM      1  C   UNL     1      19.564  -8.710  22.780  1.00  0.00     0.010 C 
ENDROOT
BRANCH   1   2
ATOM      2  C   UNL     1      19.997  -7.245  22.666  1.00  0.00     0.005 C 
BRANCH   2   3
ATOM      3  C   UNL     1      20.366  -6.673  24.041  1.00  0.00     0.027 C 
BRANCH   3   4
ATOM      4  C   UNL     1      19.926  -7.585  25.153  1.00  0.00    -0.031 C 
ATOM      5  C   UNL     1      20.335  -7.401  26.422  1.00  0.00    -0.028 C 
BRANCH   5   6
ATOM      6  C   UNL     1      19.914  -8.306  27.557  1.00  0.00     0.005 C 
ATOM      7  C   UNL     1      20.623  -7.932  28.865  1.00  0.00     0.012 C 
ATOM      8  C   UNL     1      18.391  -8.307  27.733  1.00  0.00     0.012 C 
ENDBRANCH   5   6
ENDBRANCH   3   4
ENDBRANCH   2   3
ENDBRANCH   1   2
BRANCH   1   9
ATOM      9  C   UNL     1      20.580  -9.641  22.112  1.00  0.00     0.100 C 
BRANCH   9  10
ATOM     10  C   UNL     1      19.871 -10.764  21.417  1.00  0.00     0.220 C 
ATOM     11  O   UNL     1      18.745 -11.141  21.842  1.00  0.00    -0.275 OA
ATOM     12  N   UNL     1      20.444 -11.364  20.246  1.00  0.00    -0.352 N 
ATOM     13  H   UNL     1      21.405 -11.082  19.951  1.00  0.00     0.163 HD
BRANCH  12  14
ATOM     14  C   UNL     1      19.670 -12.218  19.349  1.00  0.00     0.151 C 
BRANCH  14  15
ATOM     15  C   UNL     1      19.315 -11.455  18.103  1.00  0.00    -0.025 A 
ATOM     16  C   UNL     1      18.717 -10.187  18.191  1.00  0.00     0.056 A 
ATOM     17  C   UNL     1      19.643 -11.976  16.843  1.00  0.00     0.009 A 
ATOM     18  C   UNL     1      18.431  -9.448  17.026  1.00  0.00     0.160 A 
ATOM     19  C   UNL     1      19.354 -11.253  15.684  1.00  0.00     0.050 A 
ATOM     20  C   UNL     1      18.749  -9.992  15.772  1.00  0.00     0.157 A 
BRANCH  18  21
ATOM     21  O   UNL     1      17.837  -8.178  17.073  1.00  0.00    -0.493 OA
ATOM     22  C   UNL     1      16.735  -7.833  17.908  1.00  0.00     0.278 C 
ENDBRANCH  18  21
BRANCH  20  23
ATOM     23  O   UNL     1      18.463  -9.269  14.615  1.00  0.00    -0.504 OA
ATOM     24  H   UNL     1      17.515  -9.178  14.265  1.00  0.00     0.293 HD
ENDBRANCH  20  23
ENDBRANCH  14  15
ENDBRANCH  12  14
ENDBRANCH   9  10
ENDBRANCH   1   9
TORSDOF 10
ENDMDL
MODEL 6
REMARK VINA RESULT:    -6.726      1.911      2.372
REMARK INTER + INTRA:         -11.144
REMARK INTER:                 -10.276
REMARK INTRA:                  -0.869
REMARK UNBOUND:                -0.683
REMARK SMILES COc1cc(CNC(=O)CCCCC=CC(C)C)ccc1O
REMARK SMILES IDX 11 1 12 2 13 3 14 4 15 5 16 6 17 7 18 8 10 9 8 10 9 11 7 12
REMARK SMILES IDX 6 14 5 15 4 16 19 17 3 18 20 19 21 20 2 21 1 22 22 23
REMARK H PARENT 7 13 22 24
REMARK Flexibility Score: inf
ROOT
ATOM      1  C   UNL     1      20.225  -8.354  22.112  1.00  0.00     0.010 C 
ENDROOT
BRANCH   1   2
ATOM      2  C   UNL     1      19.904  -8.367  23.610  1.00  0.00     0.005 C 
BRANCH   2   3
ATOM      3  C   UNL     1      20.261  -7.023  24.260  1.00  0.00     0.027 C 
BRANCH   3   4
ATOM      4  C   UNL     1      19.731  -6.933  25.664  1.00  0.00    -0.031 C 
ATOM      5  C   UNL     1      20.238  -7.683  26.660  1.00  0.00    -0.028 C 
BRANCH   5   6
ATOM      6  C   UNL     1      19.720  -7.618  28.079  1.00  0.00     0.005 C 
ATOM      7  C   UNL     1      18.397  -8.381  28.228  1.00  0.00     0.012 C 
ATOM      8  C   UNL     1      20.767  -8.124  29.078  1.00  0.00     0.012 C 
ENDBRANCH   5   6
ENDBRANCH   3   4
ENDBRANCH   2   3
ENDBRANCH   1   2
BRANCH   1   9
ATOM      9  C   UNL     1      20.234  -6.925  21.560  1.00  0.00     0.100 C 
BRANCH   9  10
ATOM     10  C   UNL     1      19.165  -6.768  20.521  1.00  0.00     0.220 C 
ATOM     11  O   UNL     1      19.355  -5.982  19.553  1.00  0.00    -0.275 OA
ATOM     12  N   UNL     1      17.963  -7.548  20.600  1.00  0.00    -0.352 N 
ATOM     13  H   UNL     1      17.799  -8.142  21.443  1.00  0.00     0.163 HD
BRANCH  12  14
ATOM     14  C   UNL     1      17.046  -7.685  19.472  1.00  0.00     0.151 C 
BRANCH  14  15
ATOM     15  C   UNL     1      17.525  -8.779  18.558  1.00  0.00    -0.025 A 
ATOM     16  C   UNL     1      17.390 -10.126  18.929  1.00  0.00     0.056 A 
ATOM     17  C   UNL     1      18.047  -8.461  17.296  1.00  0.00     0.009 A 
ATOM     18  C   UNL     1      17.791 -11.154  18.052  1.00  0.00     0.160 A 
ATOM     19  C   UNL     1      18.454  -9.474  16.426  1.00  0.00     0.050 A 
ATOM     20  C   UNL     1      18.328 -10.818  16.800  1.00  0.00     0.157 A 
BRANCH  18  21
ATOM     21  O   UNL     1      17.670 -12.511  18.387  1.00  0.00    -0.493 OA
ATOM     22  C   UNL     1      16.451 -13.247  18.348  1.00  0.00     0.278 C 
ENDBRANCH  18  21
BRANCH  20  23
ATOM     23  O   UNL     1      18.732 -11.830  15.931  1.00  0.00    -0.504 OA
ATOM     24  H   UNL     1      19.692 -12.156  15.903  1.00  0.00     0.293 HD
ENDBRANCH  20  23
ENDBRANCH  14  15
ENDBRANCH  12  14
ENDBRANCH   9  10
ENDBRANCH   1   9
TORSDOF 10
ENDMDL
MODEL 7
REMARK VINA RESULT:    -6.711      3.941     10.224
REMARK INTER + INTRA:         -11.122
REMARK INTER:                 -10.153
REMARK INTRA:                  -0.969
REMARK UNBOUND:                -0.683
REMARK SMILES COc1cc(CNC(=O)CCCCC=CC(C)C)ccc1O
REMARK SMILES IDX 11 1 12 2 13 3 14 4 15 5 16 6 17 7 18 8 10 9 8 10 9 11 7 12
REMARK SMILES IDX 6 14 5 15 4 16 19 17 3 18 20 19 21 20 2 21 1 22 22 23
REMARK H PARENT 7 13 22 24
REMARK Flexibility Score: inf
ROOT
ATOM      1  C   UNL     1      18.759 -14.359  15.085  1.00  0.00     0.010 C 
ENDROOT
BRANCH   1   2
ATOM      2  C   UNL     1      19.613 -13.547  14.107  1.00  0.00     0.005 C 
BRANCH   2   3
ATOM      3  C   UNL     1      20.637 -14.442  13.396  1.00  0.00     0.027 C 
BRANCH   3   4
ATOM      4  C   UNL     1      20.452 -14.411  11.904  1.00  0.00    -0.031 C 
ATOM      5  C   UNL     1      19.748 -13.437  11.299  1.00  0.00    -0.028 C 
BRANCH   5   6
ATOM      6  C   UNL     1      19.540 -13.385   9.802  1.00  0.00     0.005 C 
ATOM      7  C   UNL     1      18.231 -12.671   9.442  1.00  0.00     0.012 C 
ATOM      8  C   UNL     1      20.737 -12.739   9.096  1.00  0.00     0.012 C 
ENDBRANCH   5   6
ENDBRANCH   3   4
ENDBRANCH   2   3
ENDBRANCH   1   2
BRANCH   1   9
ATOM      9  C   UNL     1      19.635 -15.113  16.091  1.00  0.00     0.100 C 
BRANCH   9  10
ATOM     10  C   UNL     1      19.537 -14.470  17.441  1.00  0.00     0.220 C 
ATOM     11  O   UNL     1      20.504 -14.569  18.245  1.00  0.00    -0.275 OA
ATOM     12  N   UNL     1      18.377 -13.700  17.790  1.00  0.00    -0.352 N 
ATOM     13  H   UNL     1      17.563 -13.686  17.136  1.00  0.00     0.163 HD
BRANCH  12  14
ATOM     14  C   UNL     1      18.358 -12.794  18.935  1.00  0.00     0.151 C 
BRANCH  14  15
ATOM     15  C   UNL     1      18.159 -11.381  18.460  1.00  0.00    -0.025 A 
ATOM     16  C   UNL     1      17.786 -10.372  19.362  1.00  0.00     0.056 A 
ATOM     17  C   UNL     1      18.415 -11.048  17.122  1.00  0.00     0.009 A 
ATOM     18  C   UNL     1      17.650  -9.038  18.929  1.00  0.00     0.160 A 
ATOM     19  C   UNL     1      18.274  -9.729  16.684  1.00  0.00     0.050 A 
ATOM     20  C   UNL     1      17.892  -8.725  17.583  1.00  0.00     0.157 A 
BRANCH  18  21
ATOM     21  O   UNL     1      17.281  -8.003  19.801  1.00  0.00    -0.493 OA
ATOM     22  C   UNL     1      18.175  -7.338  20.690  1.00  0.00     0.278 C 
ENDBRANCH  18  21
BRANCH  20  23
ATOM     23  O   UNL     1      17.754  -7.408  17.146  1.00  0.00    -0.504 OA
ATOM     24  H   UNL     1      18.032  -6.624  17.726  1.00  0.00     0.293 HD
ENDBRANCH  20  23
ENDBRANCH  14  15
ENDBRANCH  12  14
ENDBRANCH   9  10
ENDBRANCH   1   9
TORSDOF 10
ENDMDL
MODEL 8
REMARK VINA RESULT:    -6.635      1.440      2.219
REMARK INTER + INTRA:         -11.004
REMARK INTER:                 -10.467
REMARK INTRA:                  -0.537
REMARK UNBOUND:                -0.683
REMARK SMILES COc1cc(CNC(=O)CCCCC=CC(C)C)ccc1O
REMARK SMILES IDX 11 1 12 2 13 3 14 4 15 5 16 6 17 7 18 8 10 9 8 10 9 11 7 12
REMARK SMILES IDX 6 14 5 15 4 16 19 17 3 18 20 19 21 20 2 21 1 22 22 23
REMARK H PARENT 7 13 22 24
REMARK Flexibility Score: inf
ROOT
ATOM      1  C   UNL     1      19.719  -7.815  21.484  1.00  0.00     0.010 C 
ENDROOT
BRANCH   1   2
ATOM      2  C   UNL     1      19.205  -7.095  22.735  1.00  0.00     0.005 C 
BRANCH   2   3
ATOM      3  C   UNL     1      20.236  -7.162  23.870  1.00  0.00     0.027 C 
BRANCH   3   4
ATOM      4  C   UNL     1      19.571  -7.329  25.208  1.00  0.00    -0.031 C 
ATOM      5  C   UNL     1      20.285  -7.421  26.346  1.00  0.00    -0.028 C 
BRANCH   5   6
ATOM      6  C   UNL     1      19.642  -7.598  27.703  1.00  0.00     0.005 C 
ATOM      7  C   UNL     1      18.349  -8.417  27.609  1.00  0.00     0.012 C 
ATOM      8  C   UNL     1      20.621  -8.220  28.705  1.00  0.00     0.012 C 
ENDBRANCH   5   6
ENDBRANCH   3   4
ENDBRANCH   2   3
ENDBRANCH   1   2
BRANCH   1   9
ATOM      9  C   UNL     1      19.087  -9.204  21.346  1.00  0.00     0.100 C 
BRANCH   9  10
ATOM     10  C   UNL     1      18.789  -9.493  19.906  1.00  0.00     0.220 C 
ATOM     11  O   UNL     1      17.791  -8.951  19.359  1.00  0.00    -0.275 OA
ATOM     12  N   UNL     1      19.668 -10.334  19.144  1.00  0.00    -0.352 N 
ATOM     13  H   UNL     1      20.451 -10.824  19.632  1.00  0.00     0.163 HD
BRANCH  12  14
ATOM     14  C   UNL     1      19.623 -10.391  17.685  1.00  0.00     0.151 C 
BRANCH  14  15
ATOM     15  C   UNL     1      19.207 -11.767  17.244  1.00  0.00    -0.025 A 
ATOM     16  C   UNL     1      19.229 -12.115  15.883  1.00  0.00     0.056 A 
ATOM     17  C   UNL     1      18.862 -12.735  18.197  1.00  0.00     0.009 A 
ATOM     18  C   UNL     1      18.890 -13.420  15.473  1.00  0.00     0.160 A 
ATOM     19  C   UNL     1      18.517 -14.028  17.796  1.00  0.00     0.050 A 
ATOM     20  C   UNL     1      18.530 -14.372  16.439  1.00  0.00     0.157 A 
BRANCH  18  21
ATOM     21  O   UNL     1      18.902 -13.806  14.124  1.00  0.00    -0.493 OA
ATOM     22  C   UNL     1      20.078 -13.917  13.326  1.00  0.00     0.278 C 
ENDBRANCH  18  21
BRANCH  20  23
ATOM     23  O   UNL     1      18.187 -15.663  16.039  1.00  0.00    -0.504 OA
ATOM     24  H   UNL     1      18.065 -16.413  16.710  1.00  0.00     0.293 HD
ENDBRANCH  20  23
ENDBRANCH  14  15
ENDBRANCH  12  14
ENDBRANCH   9  10
ENDBRANCH   1   9
TORSDOF 10
ENDMDL
MODEL 9
REMARK VINA RESULT:    -6.629      3.440     10.592
REMARK INTER + INTRA:         -10.994
REMARK INTER:                 -10.435
REMARK INTRA:                  -0.559
REMARK UNBOUND:                -0.683
REMARK SMILES COc1cc(CNC(=O)CCCCC=CC(C)C)ccc1O
REMARK SMILES IDX 11 1 12 2 13 3 14 4 15 5 16 6 17 7 18 8 10 9 8 10 9 11 7 12
REMARK SMILES IDX 6 14 5 15 4 16 19 17 3 18 20 19 21 20 2 21 1 22 22 23
REMARK H PARENT 7 13 22 24
REMARK Flexibility Score: inf
ROOT
ATOM      1  C   UNL     1      19.158 -12.287  15.357  1.00  0.00     0.010 C 
ENDROOT
BRANCH   1   2
ATOM      2  C   UNL     1      20.249 -12.614  14.331  1.00  0.00     0.005 C 
BRANCH   2   3
ATOM      3  C   UNL     1      19.918 -13.905  13.570  1.00  0.00     0.027 C 
BRANCH   3   4
ATOM      4  C   UNL     1      19.386 -13.611  12.194  1.00  0.00    -0.031 C 
ATOM      5  C   UNL     1      20.162 -13.719  11.099  1.00  0.00    -0.028 C 
BRANCH   5   6
ATOM      6  C   UNL     1      19.656 -13.422   9.706  1.00  0.00     0.005 C 
ATOM      7  C   UNL     1      18.324 -12.662   9.742  1.00  0.00     0.012 C 
ATOM      8  C   UNL     1      20.704 -12.664   8.882  1.00  0.00     0.012 C 
ENDBRANCH   5   6
ENDBRANCH   3   4
ENDBRANCH   2   3
ENDBRANCH   1   2
BRANCH   1   9
ATOM      9  C   UNL     1      19.449 -10.962  16.069  1.00  0.00     0.100 C 
BRANCH   9  10
ATOM     10  C   UNL     1      19.602 -11.194  17.542  1.00  0.00     0.220 C 
ATOM     11  O   UNL     1      20.670 -11.698  17.982  1.00  0.00    -0.275 OA
ATOM     12  N   UNL     1      18.563 -10.790  18.446  1.00  0.00    -0.352 N 
ATOM     13  H   UNL     1      17.661 -10.435  18.056  1.00  0.00     0.163 HD
BRANCH  12  14
ATOM     14  C   UNL     1      18.779 -10.686  19.887  1.00  0.00     0.151 C 
BRANCH  14  15
ATOM     15  C   UNL     1      18.579  -9.262  20.328  1.00  0.00    -0.025 A 
ATOM     16  C   UNL     1      19.167  -8.795  21.515  1.00  0.00     0.056 A 
ATOM     17  C   UNL     1      17.859  -8.371  19.519  1.00  0.00     0.009 A 
ATOM     18  C   UNL     1      19.023  -7.448  21.903  1.00  0.00     0.160 A 
ATOM     19  C   UNL     1      17.706  -7.037  19.903  1.00  0.00     0.050 A 
ATOM     20  C   UNL     1      18.285  -6.574  21.091  1.00  0.00     0.157 A 
BRANCH  18  21
ATOM     21  O   UNL     1      19.598  -6.944  23.080  1.00  0.00    -0.493 OA
ATOM     22  C   UNL     1      19.832  -7.712  24.257  1.00  0.00     0.278 C 
ENDBRANCH  18  21
BRANCH  20  23
ATOM     23  O   UNL     1      18.134  -5.242  21.473  1.00  0.00    -0.504 OA
ATOM     24  H   UNL     1      17.232  -4.863  21.737  1.00  0.00     0.293 HD
ENDBRANCH  20  23
ENDBRANCH  14  15
ENDBRANCH  12  14
ENDBRANCH   9  10
ENDBRANCH   1   9
TORSDOF 10
ENDMDL
