MODEL 1
REMARK VINA RESULT:    -3.813      0.000      0.000
REMARK INTER + INTRA:          -5.065
REMARK INTER:                  -4.928
REMARK INTRA:                  -0.137
REMARK UNBOUND:                -0.137
REMARK SMILES CCCCCCC(=O)[O-]
REMARK SMILES IDX 5 1 6 2 7 3 8 4 9 5 4 6 3 7 2 8 1 9
REMARK H PARENT
REMARK Flexibility Score: inf
ROOT
ATOM      1  C   UNL     1       4.731  23.778 -54.962  1.00  0.00     0.006 C 
ENDROOT
BRANCH   1   2
ATOM      2  C   UNL     1       4.586  25.124 -55.688  1.00  0.00     0.053 C 
BRANCH   2   3
ATOM      3  C   UNL     1       3.979  24.966 -57.048  1.00  0.00     0.041 C 
ATOM      4  O   UNL     1       2.729  24.994 -57.192  1.00  0.00    -0.550 OA
ATOM      5  O   UNL     1       4.798  24.820 -58.161  1.00  0.00    -0.550 OA
ENDBRANCH   2   3
ENDBRANCH   1   2
BRANCH   1   6
ATOM      6  C   UNL     1       4.900  23.897 -53.436  1.00  0.00     0.000 C 
BRANCH   6   7
ATOM      7  C   UNL     1       5.121  22.535 -52.755  1.00  0.00    -0.000 C 
BRANCH   7   8
ATOM      8  C   UNL     1       6.418  21.851 -53.216  1.00  0.00    -0.003 C 
ATOM      9  C   UNL     1       6.160  20.561 -53.993  1.00  0.00     0.004 C 
ENDBRANCH   7   8
ENDBRANCH   6   7
ENDBRANCH   1   6
TORSDOF 5
ENDMDL
MODEL 2
REMARK VINA RESULT:    -3.766     18.618     19.791
REMARK INTER + INTRA:          -5.005
REMARK INTER:                  -4.896
REMARK INTRA:                  -0.109
REMARK UNBOUND:                -0.137
REMARK SMILES CCCCCCC(=O)[O-]
REMARK SMILES IDX 5 1 6 2 7 3 8 4 9 5 4 6 3 7 2 8 1 9
REMARK H PARENT
REMARK Flexibility Score: inf
ROOT
ATOM      1  C   UNL     1      -5.448   8.269 -57.840  1.00  0.00     0.006 C 
ENDROOT
BRANCH   1   2
ATOM      2  C   UNL     1      -4.457   8.090 -59.002  1.00  0.00     0.053 C 
BRANCH   2   3
ATOM      3  C   UNL     1      -3.052   8.411 -58.595  1.00  0.00     0.041 C 
ATOM      4  O   UNL     1      -2.361   7.561 -57.976  1.00  0.00    -0.550 OA
ATOM      5  O   UNL     1      -2.495   9.639 -58.931  1.00  0.00    -0.550 OA
ENDBRANCH   2   3
ENDBRANCH   1   2
BRANCH   1   6
ATOM      6  C   UNL     1      -5.987   6.948 -57.261  1.00  0.00     0.000 C 
BRANCH   6   7
ATOM      7  C   UNL     1      -7.459   6.694 -57.634  1.00  0.00    -0.000 C 
BRANCH   7   8
ATOM      8  C   UNL     1      -7.827   5.203 -57.590  1.00  0.00    -0.003 C 
ATOM      9  C   UNL     1      -9.336   4.967 -57.645  1.00  0.00     0.004 C 
ENDBRANCH   7   8
ENDBRANCH   6   7
ENDBRANCH   1   6
TORSDOF 5
ENDMDL
MODEL 3
REMARK VINA RESULT:    -3.758      4.055      4.819
REMARK INTER + INTRA:          -4.993
REMARK INTER:                  -4.838
REMARK INTRA:                  -0.155
REMARK UNBOUND:                -0.137
REMARK SMILES CCCCCCC(=O)[O-]
REMARK SMILES IDX 5 1 6 2 7 3 8 4 9 5 4 6 3 7 2 8 1 9
REMARK H PARENT
REMARK Flexibility Score: inf
ROOT
ATOM      1  C   UNL     1       4.417  23.744 -52.073  1.00  0.00     0.006 C 
ENDROOT
BRANCH   1   2
ATOM      2  C   UNL     1       3.596  24.908 -51.498  1.00  0.00     0.053 C 
BRANCH   2   3
ATOM      3  C   UNL     1       2.733  24.475 -50.353  1.00  0.00     0.041 C 
ATOM      4  O   UNL     1       1.536  24.855 -50.281  1.00  0.00    -0.550 OA
ATOM      5  O   UNL     1       3.245  23.623 -49.382  1.00  0.00    -0.550 OA
ENDBRANCH   2   3
ENDBRANCH   1   2
BRANCH   1   6
ATOM      6  C   UNL     1       4.801  23.912 -53.555  1.00  0.00     0.000 C 
BRANCH   6   7
ATOM      7  C   UNL     1       5.084  22.569 -54.251  1.00  0.00    -0.000 C 
BRANCH   7   8
ATOM      8  C   UNL     1       5.403  21.445 -53.252  1.00  0.00    -0.003 C 
ATOM      9  C   UNL     1       6.904  21.209 -53.092  1.00  0.00     0.004 C 
ENDBRANCH   7   8
ENDBRANCH   6   7
ENDBRANCH   1   6
TORSDOF 5
ENDMDL
MODEL 4
REMARK VINA RESULT:    -3.740      3.805      5.080
REMARK INTER + INTRA:          -4.971
REMARK INTER:                  -4.845
REMARK INTRA:                  -0.126
REMARK UNBOUND:                -0.137
REMARK SMILES CCCCCCC(=O)[O-]
REMARK SMILES IDX 5 1 6 2 7 3 8 4 9 5 4 6 3 7 2 8 1 9
REMARK H PARENT
REMARK Flexibility Score: inf
ROOT
ATOM      1  C   UNL     1       5.109  23.475 -53.254  1.00  0.00     0.006 C 
ENDROOT
BRANCH   1   2
ATOM      2  C   UNL     1       5.298  22.080 -52.639  1.00  0.00     0.053 C 
BRANCH   2   3
ATOM      3  C   UNL     1       6.399  21.316 -53.308  1.00  0.00     0.041 C 
ATOM      4  O   UNL     1       6.129  20.431 -54.162  1.00  0.00    -0.550 OA
ATOM      5  O   UNL     1       7.725  21.606 -53.012  1.00  0.00    -0.550 OA
ENDBRANCH   2   3
ENDBRANCH   1   2
BRANCH   1   6
ATOM      6  C   UNL     1       4.271  24.438 -52.392  1.00  0.00     0.000 C 
BRANCH   6   7
ATOM      7  C   UNL     1       3.824  23.806 -51.061  1.00  0.00    -0.000 C 
BRANCH   7   8
ATOM      8  C   UNL     1       2.775  24.658 -50.330  1.00  0.00    -0.003 C 
ATOM      9  C   UNL     1       2.562  24.216 -48.882  1.00  0.00     0.004 C 
ENDBRANCH   7   8
ENDBRANCH   6   7
ENDBRANCH   1   6
TORSDOF 5
ENDMDL
MODEL 5
REMARK VINA RESULT:    -3.723     17.576     18.853
REMARK INTER + INTRA:          -4.949
REMARK INTER:                  -4.702
REMARK INTRA:                  -0.247
REMARK UNBOUND:                -0.137
REMARK SMILES CCCCCCC(=O)[O-]
REMARK SMILES IDX 5 1 6 2 7 3 8 4 9 5 4 6 3 7 2 8 1 9
REMARK H PARENT
REMARK Flexibility Score: inf
ROOT
ATOM      1  C   UNL     1      -3.127   9.142 -58.262  1.00  0.00     0.006 C 
ENDROOT
BRANCH   1   2
ATOM      2  C   UNL     1      -2.515   7.820 -58.752  1.00  0.00     0.053 C 
BRANCH   2   3
ATOM      3  C   UNL     1      -2.034   6.970 -57.616  1.00  0.00     0.041 C 
ATOM      4  O   UNL     1      -2.693   6.910 -56.545  1.00  0.00    -0.550 OA
ATOM      5  O   UNL     1      -0.874   6.218 -57.754  1.00  0.00    -0.550 OA
ENDBRANCH   2   3
ENDBRANCH   1   2
BRANCH   1   6
ATOM      6  C   UNL     1      -4.654   9.234 -58.436  1.00  0.00     0.000 C 
BRANCH   6   7
ATOM      7  C   UNL     1      -5.283   7.898 -58.872  1.00  0.00    -0.000 C 
BRANCH   7   8
ATOM      8  C   UNL     1      -6.162   7.276 -57.776  1.00  0.00    -0.003 C 
ATOM      9  C   UNL     1      -7.646   7.585 -57.964  1.00  0.00     0.004 C 
ENDBRANCH   7   8
ENDBRANCH   6   7
ENDBRANCH   1   6
TORSDOF 5
ENDMDL
MODEL 6
REMARK VINA RESULT:    -3.638     17.807     19.134
REMARK INTER + INTRA:          -4.839
REMARK INTER:                  -4.478
REMARK INTRA:                  -0.361
REMARK UNBOUND:                -0.137
REMARK SMILES CCCCCCC(=O)[O-]
REMARK SMILES IDX 5 1 6 2 7 3 8 4 9 5 4 6 3 7 2 8 1 9
REMARK H PARENT
REMARK Flexibility Score: inf
ROOT
ATOM      1  C   UNL     1      -2.852   6.012 -59.770  1.00  0.00     0.006 C 
ENDROOT
BRANCH   1   2
ATOM      2  C   UNL     1      -1.642   6.828 -59.288  1.00  0.00     0.053 C 
BRANCH   2   3
ATOM      3  C   UNL     1      -1.182   6.399 -57.929  1.00  0.00     0.041 C 
ATOM      4  O   UNL     1      -1.798   6.784 -56.900  1.00  0.00    -0.550 OA
ATOM      5  O   UNL     1      -0.093   5.546 -57.801  1.00  0.00    -0.550 OA
ENDBRANCH   2   3
ENDBRANCH   1   2
BRANCH   1   6
ATOM      6  C   UNL     1      -4.154   6.825 -59.889  1.00  0.00     0.000 C 
BRANCH   6   7
ATOM      7  C   UNL     1      -4.923   6.912 -58.558  1.00  0.00    -0.000 C 
BRANCH   7   8
ATOM      8  C   UNL     1      -5.233   8.362 -58.152  1.00  0.00    -0.003 C 
ATOM      9  C   UNL     1      -4.257   9.366 -58.764  1.00  0.00     0.004 C 
ENDBRANCH   7   8
ENDBRANCH   6   7
ENDBRANCH   1   6
TORSDOF 5
ENDMDL
MODEL 7
REMARK VINA RESULT:    -3.629     18.597     19.885
REMARK INTER + INTRA:          -4.827
REMARK INTER:                  -4.577
REMARK INTRA:                  -0.250
REMARK UNBOUND:                -0.137
REMARK SMILES CCCCCCC(=O)[O-]
REMARK SMILES IDX 5 1 6 2 7 3 8 4 9 5 4 6 3 7 2 8 1 9
REMARK H PARENT
REMARK Flexibility Score: inf
ROOT
ATOM      1  C   UNL     1      -5.267   7.927 -57.738  1.00  0.00     0.006 C 
ENDROOT
BRANCH   1   2
ATOM      2  C   UNL     1      -6.105   6.646 -57.611  1.00  0.00     0.053 C 
BRANCH   2   3
ATOM      3  C   UNL     1      -7.570   6.915 -57.779  1.00  0.00     0.041 C 
ATOM      4  O   UNL     1      -7.981   8.088 -57.973  1.00  0.00    -0.550 OA
ATOM      5  O   UNL     1      -8.477   5.862 -57.753  1.00  0.00    -0.550 OA
ENDBRANCH   2   3
ENDBRANCH   1   2
BRANCH   1   6
ATOM      6  C   UNL     1      -4.374   7.976 -58.992  1.00  0.00     0.000 C 
BRANCH   6   7
ATOM      7  C   UNL     1      -2.876   8.064 -58.651  1.00  0.00    -0.000 C 
BRANCH   7   8
ATOM      8  C   UNL     1      -2.072   6.890 -59.230  1.00  0.00    -0.003 C 
ATOM      9  C   UNL     1      -2.932   5.942 -60.065  1.00  0.00     0.004 C 
ENDBRANCH   7   8
ENDBRANCH   6   7
ENDBRANCH   1   6
TORSDOF 5
ENDMDL
MODEL 8
REMARK VINA RESULT:    -3.603     17.111     18.473
REMARK INTER + INTRA:          -4.793
REMARK INTER:                  -4.359
REMARK INTRA:                  -0.434
REMARK UNBOUND:                -0.137
REMARK SMILES CCCCCCC(=O)[O-]
REMARK SMILES IDX 5 1 6 2 7 3 8 4 9 5 4 6 3 7 2 8 1 9
REMARK H PARENT
REMARK Flexibility Score: inf
ROOT
ATOM      1  C   UNL     1      -4.968   7.489 -59.141  1.00  0.00     0.006 C 
ENDROOT
BRANCH   1   2
ATOM      2  C   UNL     1      -5.076   8.504 -57.992  1.00  0.00     0.053 C 
BRANCH   2   3
ATOM      3  C   UNL     1      -3.738   9.047 -57.595  1.00  0.00     0.041 C 
ATOM      4  O   UNL     1      -3.119   9.832 -58.361  1.00  0.00    -0.550 OA
ATOM      5  O   UNL     1      -3.189   8.710 -56.364  1.00  0.00    -0.550 OA
ENDBRANCH   2   3
ENDBRANCH   1   2
BRANCH   1   6
ATOM      6  C   UNL     1      -4.078   6.272 -58.828  1.00  0.00     0.000 C 
BRANCH   6   7
ATOM      7  C   UNL     1      -2.982   6.051 -59.886  1.00  0.00    -0.000 C 
BRANCH   7   8
ATOM      8  C   UNL     1      -1.666   6.757 -59.526  1.00  0.00    -0.003 C 
ATOM      9  C   UNL     1      -1.128   6.339 -58.158  1.00  0.00     0.004 C 
ENDBRANCH   7   8
ENDBRANCH   6   7
ENDBRANCH   1   6
TORSDOF 5
ENDMDL
