MODEL 1
REMARK VINA RESULT:    -3.808      0.000      0.000
REMARK INTER + INTRA:          -5.960
REMARK INTER:                  -5.589
REMARK INTRA:                  -0.371
REMARK UNBOUND:                -0.371
REMARK SMILES O=C([O-])CCCCCCCC(=O)[O-]
REMARK SMILES IDX 7 1 6 2 5 3 4 4 2 5 1 6 3 7 8 8 9 9 10 10 11 11 12 12 13 13
REMARK H PARENT
REMARK Flexibility Score: inf
ROOT
ATOM      1  C   UNL     1      25.186  34.499  14.022  1.00  0.00     0.000 C 
ENDROOT
BRANCH   1   2
ATOM      2  C   UNL     1      26.615  34.392  13.445  1.00  0.00     0.000 C 
BRANCH   2   3
ATOM      3  C   UNL     1      26.661  33.823  12.017  1.00  0.00     0.006 C 
BRANCH   3   4
ATOM      4  C   UNL     1      25.793  32.571  11.845  1.00  0.00     0.053 C 
BRANCH   4   5
ATOM      5  C   UNL     1      24.825  32.756  10.719  1.00  0.00     0.041 C 
ATOM      6  O   UNL     1      24.032  33.734  10.719  1.00  0.00    -0.550 OA
ATOM      7  O   UNL     1      24.764  31.821   9.694  1.00  0.00    -0.550 OA
ENDBRANCH   4   5
ENDBRANCH   3   4
ENDBRANCH   2   3
ENDBRANCH   1   2
BRANCH   1   8
ATOM      8  C   UNL     1      24.929  35.859  14.686  1.00  0.00     0.000 C 
BRANCH   8   9
ATOM      9  C   UNL     1      23.629  36.489  14.166  1.00  0.00     0.006 C 
BRANCH   9  10
ATOM     10  C   UNL     1      23.305  37.815  14.866  1.00  0.00     0.053 C 
BRANCH  10  11
ATOM     11  C   UNL     1      24.098  38.952  14.298  1.00  0.00     0.041 C 
ATOM     12  O   UNL     1      24.101  39.165  13.057  1.00  0.00    -0.550 OA
ATOM     13  O   UNL     1      24.862  39.756  15.135  1.00  0.00    -0.550 OA
ENDBRANCH  10  11
ENDBRANCH   9  10
ENDBRANCH   8   9
ENDBRANCH   1   8
TORSDOF 8
ENDMDL
MODEL 2
REMARK VINA RESULT:    -3.778      2.074      2.812
REMARK INTER + INTRA:          -5.916
REMARK INTER:                  -5.251
REMARK INTRA:                  -0.665
REMARK UNBOUND:                -0.371
REMARK SMILES O=C([O-])CCCCCCCC(=O)[O-]
REMARK SMILES IDX 7 1 6 2 5 3 4 4 2 5 1 6 3 7 8 8 9 9 10 10 11 11 12 12 13 13
REMARK H PARENT
REMARK Flexibility Score: inf
ROOT
ATOM      1  C   UNL     1      22.889  34.719  11.559  1.00  0.00     0.000 C 
ENDROOT
BRANCH   1   2
ATOM      2  C   UNL     1      23.827  33.741  10.819  1.00  0.00     0.000 C 
BRANCH   2   3
ATOM      3  C   UNL     1      24.283  32.553  11.683  1.00  0.00     0.006 C 
BRANCH   3   4
ATOM      4  C   UNL     1      25.807  32.383  11.707  1.00  0.00     0.053 C 
BRANCH   4   5
ATOM      5  C   UNL     1      26.442  33.475  12.510  1.00  0.00     0.041 C 
ATOM      6  O   UNL     1      27.205  34.307  11.955  1.00  0.00    -0.550 OA
ATOM      7  O   UNL     1      26.229  33.543  13.881  1.00  0.00    -0.550 OA
ENDBRANCH   4   5
ENDBRANCH   3   4
ENDBRANCH   2   3
ENDBRANCH   1   2
BRANCH   1   8
ATOM      8  C   UNL     1      22.641  34.297  13.014  1.00  0.00     0.000 C 
BRANCH   8   9
ATOM      9  C   UNL     1      22.692  35.510  13.956  1.00  0.00     0.006 C 
BRANCH   9  10
ATOM     10  C   UNL     1      24.050  36.221  13.914  1.00  0.00     0.053 C 
BRANCH  10  11
ATOM     11  C   UNL     1      23.920  37.685  14.201  1.00  0.00     0.041 C 
ATOM     12  O   UNL     1      23.058  38.096  15.021  1.00  0.00    -0.550 OA
ATOM     13  O   UNL     1      24.727  38.600  13.535  1.00  0.00    -0.550 OA
ENDBRANCH  10  11
ENDBRANCH   9  10
ENDBRANCH   8   9
ENDBRANCH   1   8
TORSDOF 8
ENDMDL
MODEL 3
REMARK VINA RESULT:    -3.769      0.095      6.143
REMARK INTER + INTRA:          -5.902
REMARK INTER:                  -5.517
REMARK INTRA:                  -0.385
REMARK UNBOUND:                -0.371
REMARK SMILES O=C([O-])CCCCCCCC(=O)[O-]
REMARK SMILES IDX 7 1 6 2 5 3 4 4 2 5 1 6 3 7 8 8 9 9 10 10 11 11 12 12 13 13
REMARK H PARENT
REMARK Flexibility Score: inf
ROOT
ATOM      1  C   UNL     1      25.231  34.491  14.017  1.00  0.00     0.000 C 
ENDROOT
BRANCH   1   2
ATOM      2  C   UNL     1      24.981  35.935  14.506  1.00  0.00     0.000 C 
BRANCH   2   3
ATOM      3  C   UNL     1      23.606  36.492  14.102  1.00  0.00     0.006 C 
BRANCH   3   4
ATOM      4  C   UNL     1      23.253  37.795  14.830  1.00  0.00     0.053 C 
BRANCH   4   5
ATOM      5  C   UNL     1      24.085  38.925  14.311  1.00  0.00     0.041 C 
ATOM      6  O   UNL     1      24.098  39.189  13.081  1.00  0.00    -0.550 OA
ATOM      7  O   UNL     1      24.884  39.656  15.181  1.00  0.00    -0.550 OA
ENDBRANCH   4   5
ENDBRANCH   3   4
ENDBRANCH   2   3
ENDBRANCH   1   2
BRANCH   1   8
ATOM      8  C   UNL     1      26.657  34.299  13.481  1.00  0.00     0.000 C 
BRANCH   8   9
ATOM      9  C   UNL     1      26.637  33.809  12.025  1.00  0.00     0.006 C 
BRANCH   9  10
ATOM     10  C   UNL     1      25.773  32.555  11.847  1.00  0.00     0.053 C 
BRANCH  10  11
ATOM     11  C   UNL     1      24.782  32.716  10.735  1.00  0.00     0.041 C 
ATOM     12  O   UNL     1      24.760  31.893   9.782  1.00  0.00    -0.550 OA
ATOM     13  O   UNL     1      23.907  33.794  10.733  1.00  0.00    -0.550 OA
ENDBRANCH  10  11
ENDBRANCH   9  10
ENDBRANCH   8   9
ENDBRANCH   1   8
TORSDOF 8
ENDMDL
MODEL 4
REMARK VINA RESULT:    -3.710      0.611      6.180
REMARK INTER + INTRA:          -5.816
REMARK INTER:                  -5.373
REMARK INTRA:                  -0.443
REMARK UNBOUND:                -0.371
REMARK SMILES O=C([O-])CCCCCCCC(=O)[O-]
REMARK SMILES IDX 7 1 6 2 5 3 4 4 2 5 1 6 3 7 8 8 9 9 10 10 11 11 12 12 13 13
REMARK H PARENT
REMARK Flexibility Score: inf
ROOT
ATOM      1  C   UNL     1      25.508  35.328  13.911  1.00  0.00     0.000 C 
ENDROOT
BRANCH   1   2
ATOM      2  C   UNL     1      23.986  35.437  13.675  1.00  0.00     0.000 C 
BRANCH   2   3
ATOM      3  C   UNL     1      23.335  36.630  14.395  1.00  0.00     0.006 C 
BRANCH   3   4
ATOM      4  C   UNL     1      24.351  37.503  15.142  1.00  0.00     0.053 C 
BRANCH   4   5
ATOM      5  C   UNL     1      24.440  38.857  14.512  1.00  0.00     0.041 C 
ATOM      6  O   UNL     1      24.782  39.854  15.199  1.00  0.00    -0.550 OA
ATOM      7  O   UNL     1      24.095  39.026  13.177  1.00  0.00    -0.550 OA
ENDBRANCH   4   5
ENDBRANCH   3   4
ENDBRANCH   2   3
ENDBRANCH   1   2
BRANCH   1   8
ATOM      8  C   UNL     1      26.032  33.905  13.666  1.00  0.00     0.000 C 
BRANCH   8   9
ATOM      9  C   UNL     1      26.371  33.690  12.184  1.00  0.00     0.006 C 
BRANCH   9  10
ATOM     10  C   UNL     1      25.817  32.365  11.648  1.00  0.00     0.053 C 
BRANCH  10  11
ATOM     11  C   UNL     1      24.798  32.583  10.571  1.00  0.00     0.041 C 
ATOM     12  O   UNL     1      24.687  31.757   9.627  1.00  0.00    -0.550 OA
ATOM     13  O   UNL     1      23.995  33.717  10.591  1.00  0.00    -0.550 OA
ENDBRANCH  10  11
ENDBRANCH   9  10
ENDBRANCH   8   9
ENDBRANCH   1   8
TORSDOF 8
ENDMDL
MODEL 5
REMARK VINA RESULT:    -3.707      2.080      5.754
REMARK INTER + INTRA:          -5.811
REMARK INTER:                  -5.098
REMARK INTRA:                  -0.713
REMARK UNBOUND:                -0.371
REMARK SMILES O=C([O-])CCCCCCCC(=O)[O-]
REMARK SMILES IDX 7 1 6 2 5 3 4 4 2 5 1 6 3 7 8 8 9 9 10 10 11 11 12 12 13 13
REMARK H PARENT
REMARK Flexibility Score: inf
ROOT
ATOM      1  C   UNL     1      22.892  35.299  12.466  1.00  0.00     0.000 C 
ENDROOT
BRANCH   1   2
ATOM      2  C   UNL     1      23.072  34.641  13.851  1.00  0.00     0.000 C 
BRANCH   2   3
ATOM      3  C   UNL     1      23.995  35.432  14.794  1.00  0.00     0.006 C 
BRANCH   3   4
ATOM      4  C   UNL     1      24.403  36.796  14.224  1.00  0.00     0.053 C 
BRANCH   4   5
ATOM      5  C   UNL     1      23.745  37.900  14.990  1.00  0.00     0.041 C 
ATOM      6  O   UNL     1      24.386  38.946  15.271  1.00  0.00    -0.550 OA
ATOM      7  O   UNL     1      22.438  37.752  15.436  1.00  0.00    -0.550 OA
ENDBRANCH   4   5
ENDBRANCH   3   4
ENDBRANCH   2   3
ENDBRANCH   1   2
BRANCH   1   8
ATOM      8  C   UNL     1      23.016  34.283  11.321  1.00  0.00     0.000 C 
BRANCH   8   9
ATOM      9  C   UNL     1      23.949  33.126  11.709  1.00  0.00     0.006 C 
BRANCH   9  10
ATOM     10  C   UNL     1      25.359  33.298  11.130  1.00  0.00     0.053 C 
BRANCH  10  11
ATOM     11  C   UNL     1      26.373  33.549  12.203  1.00  0.00     0.041 C 
ATOM     12  O   UNL     1      27.381  34.266  11.967  1.00  0.00    -0.550 OA
ATOM     13  O   UNL     1      26.224  32.963  13.454  1.00  0.00    -0.550 OA
ENDBRANCH  10  11
ENDBRANCH   9  10
ENDBRANCH   8   9
ENDBRANCH   1   8
TORSDOF 8
ENDMDL
MODEL 6
REMARK VINA RESULT:    -3.705      1.556      2.250
REMARK INTER + INTRA:          -5.809
REMARK INTER:                  -5.469
REMARK INTRA:                  -0.339
REMARK UNBOUND:                -0.371
REMARK SMILES O=C([O-])CCCCCCCC(=O)[O-]
REMARK SMILES IDX 7 1 6 2 5 3 4 4 2 5 1 6 3 7 8 8 9 9 10 10 11 11 12 12 13 13
REMARK H PARENT
REMARK Flexibility Score: inf
ROOT
ATOM      1  C   UNL     1      23.507  35.058  12.946  1.00  0.00     0.000 C 
ENDROOT
BRANCH   1   2
ATOM      2  C   UNL     1      22.718  34.592  11.702  1.00  0.00     0.000 C 
BRANCH   2   3
ATOM      3  C   UNL     1      23.594  33.909  10.638  1.00  0.00     0.006 C 
BRANCH   3   4
ATOM      4  C   UNL     1      24.928  33.402  11.199  1.00  0.00     0.053 C 
BRANCH   4   5
ATOM      5  C   UNL     1      25.157  31.979  10.798  1.00  0.00     0.041 C 
ATOM      6  O   UNL     1      25.627  31.155  11.626  1.00  0.00    -0.550 OA
ATOM      7  O   UNL     1      24.897  31.574   9.495  1.00  0.00    -0.550 OA
ENDBRANCH   4   5
ENDBRANCH   3   4
ENDBRANCH   2   3
ENDBRANCH   1   2
BRANCH   1   8
ATOM      8  C   UNL     1      22.583  35.394  14.125  1.00  0.00     0.000 C 
BRANCH   8   9
ATOM      9  C   UNL     1      23.031  36.686  14.825  1.00  0.00     0.006 C 
BRANCH   9  10
ATOM     10  C   UNL     1      24.349  37.228  14.257  1.00  0.00     0.053 C 
BRANCH  10  11
ATOM     11  C   UNL     1      24.348  38.724  14.182  1.00  0.00     0.041 C 
ATOM     12  O   UNL     1      24.695  39.409  15.180  1.00  0.00    -0.550 OA
ATOM     13  O   UNL     1      23.932  39.363  13.021  1.00  0.00    -0.550 OA
ENDBRANCH  10  11
ENDBRANCH   9  10
ENDBRANCH   8   9
ENDBRANCH   1   8
TORSDOF 8
ENDMDL
MODEL 7
REMARK VINA RESULT:    -3.686      2.293      2.856
REMARK INTER + INTRA:          -5.781
REMARK INTER:                  -5.123
REMARK INTRA:                  -0.658
REMARK UNBOUND:                -0.371
REMARK SMILES O=C([O-])CCCCCCCC(=O)[O-]
REMARK SMILES IDX 7 1 6 2 5 3 4 4 2 5 1 6 3 7 8 8 9 9 10 10 11 11 12 12 13 13
REMARK H PARENT
REMARK Flexibility Score: inf
ROOT
ATOM      1  C   UNL     1      25.559  35.273  13.892  1.00  0.00     0.000 C 
ENDROOT
BRANCH   1   2
ATOM      2  C   UNL     1      26.673  34.279  13.498  1.00  0.00     0.000 C 
BRANCH   2   3
ATOM      3  C   UNL     1      26.630  33.859  12.019  1.00  0.00     0.006 C 
BRANCH   3   4
ATOM      4  C   UNL     1      25.836  32.567  11.788  1.00  0.00     0.053 C 
BRANCH   4   5
ATOM      5  C   UNL     1      24.785  32.779  10.744  1.00  0.00     0.041 C 
ATOM      6  O   UNL     1      24.714  32.009   9.751  1.00  0.00    -0.550 OA
ATOM      7  O   UNL     1      23.916  33.858  10.842  1.00  0.00    -0.550 OA
ENDBRANCH   4   5
ENDBRANCH   3   4
ENDBRANCH   2   3
ENDBRANCH   1   2
BRANCH   1   8
ATOM      8  C   UNL     1      24.681  34.739  15.033  1.00  0.00     0.000 C 
BRANCH   8   9
ATOM      9  C   UNL     1      23.482  33.952  14.484  1.00  0.00     0.006 C 
BRANCH   9  10
ATOM     10  C   UNL     1      22.405  34.871  13.894  1.00  0.00     0.053 C 
BRANCH  10  11
ATOM     11  C   UNL     1      21.611  35.555  14.964  1.00  0.00     0.041 C 
ATOM     12  O   UNL     1      21.877  36.742  15.289  1.00  0.00    -0.550 OA
ATOM     13  O   UNL     1      20.600  34.871  15.627  1.00  0.00    -0.550 OA
ENDBRANCH  10  11
ENDBRANCH   9  10
ENDBRANCH   8   9
ENDBRANCH   1   8
TORSDOF 8
ENDMDL
MODEL 8
REMARK VINA RESULT:    -3.651      1.734      2.485
REMARK INTER + INTRA:          -5.729
REMARK INTER:                  -4.927
REMARK INTRA:                  -0.801
REMARK UNBOUND:                -0.371
REMARK SMILES O=C([O-])CCCCCCCC(=O)[O-]
REMARK SMILES IDX 7 1 6 2 5 3 4 4 2 5 1 6 3 7 8 8 9 9 10 10 11 11 12 12 13 13
REMARK H PARENT
REMARK Flexibility Score: inf
ROOT
ATOM      1  C   UNL     1      26.531  34.630  13.162  1.00  0.00     0.000 C 
ENDROOT
BRANCH   1   2
ATOM      2  C   UNL     1      26.802  33.497  12.149  1.00  0.00     0.000 C 
BRANCH   2   3
ATOM      3  C   UNL     1      25.558  32.654  11.819  1.00  0.00     0.006 C 
BRANCH   3   4
ATOM      4  C   UNL     1      24.601  33.358  10.849  1.00  0.00     0.053 C 
BRANCH   4   5
ATOM      5  C   UNL     1      23.423  33.912  11.586  1.00  0.00     0.041 C 
ATOM      6  O   UNL     1      22.805  34.910  11.134  1.00  0.00    -0.550 OA
ATOM      7  O   UNL     1      23.039  33.356  12.800  1.00  0.00    -0.550 OA
ENDBRANCH   4   5
ENDBRANCH   3   4
ENDBRANCH   2   3
ENDBRANCH   1   2
BRANCH   1   8
ATOM      8  C   UNL     1      26.042  34.094  14.515  1.00  0.00     0.000 C 
BRANCH   8   9
ATOM      9  C   UNL     1      25.077  35.084  15.184  1.00  0.00     0.006 C 
BRANCH   9  10
ATOM     10  C   UNL     1      24.651  36.211  14.235  1.00  0.00     0.053 C 
BRANCH  10  11
ATOM     11  C   UNL     1      23.308  36.767  14.599  1.00  0.00     0.041 C 
ATOM     12  O   UNL     1      23.189  37.979  14.916  1.00  0.00    -0.550 OA
ATOM     13  O   UNL     1      22.194  35.937  14.623  1.00  0.00    -0.550 OA
ENDBRANCH  10  11
ENDBRANCH   9  10
ENDBRANCH   8   9
ENDBRANCH   1   8
TORSDOF 8
ENDMDL
MODEL 9
REMARK VINA RESULT:    -3.603      1.717      5.179
REMARK INTER + INTRA:          -5.659
REMARK INTER:                  -4.961
REMARK INTRA:                  -0.698
REMARK UNBOUND:                -0.371
REMARK SMILES O=C([O-])CCCCCCCC(=O)[O-]
REMARK SMILES IDX 7 1 6 2 5 3 4 4 2 5 1 6 3 7 8 8 9 9 10 10 11 11 12 12 13 13
REMARK H PARENT
REMARK Flexibility Score: inf
ROOT
ATOM      1  C   UNL     1      26.543  34.588  13.152  1.00  0.00     0.000 C 
ENDROOT
BRANCH   1   2
ATOM      2  C   UNL     1      26.142  34.269  14.609  1.00  0.00     0.000 C 
BRANCH   2   3
ATOM      3  C   UNL     1      25.107  35.246  15.191  1.00  0.00     0.006 C 
BRANCH   3   4
ATOM      4  C   UNL     1      24.804  36.423  14.255  1.00  0.00     0.053 C 
BRANCH   4   5
ATOM      5  C   UNL     1      23.917  37.417  14.936  1.00  0.00     0.041 C 
ATOM      6  O   UNL     1      24.381  38.523  15.317  1.00  0.00    -0.550 OA
ATOM      7  O   UNL     1      22.589  37.102  15.193  1.00  0.00    -0.550 OA
ENDBRANCH   4   5
ENDBRANCH   3   4
ENDBRANCH   2   3
ENDBRANCH   1   2
BRANCH   1   8
ATOM      8  C   UNL     1      26.465  33.352  12.245  1.00  0.00     0.000 C 
BRANCH   8   9
ATOM      9  C   UNL     1      25.285  33.459  11.267  1.00  0.00     0.006 C 
BRANCH   9  10
ATOM     10  C   UNL     1      23.953  33.068  11.919  1.00  0.00     0.053 C 
BRANCH  10  11
ATOM     11  C   UNL     1      22.957  34.185  11.863  1.00  0.00     0.041 C 
ATOM     12  O   UNL     1      22.801  34.843  10.800  1.00  0.00    -0.550 OA
ATOM     13  O   UNL     1      22.225  34.524  12.994  1.00  0.00    -0.550 OA
ENDBRANCH  10  11
ENDBRANCH   9  10
ENDBRANCH   8   9
ENDBRANCH   1   8
TORSDOF 8
ENDMDL
