MODEL 1
REMARK VINA RESULT:    -6.922      0.000      0.000
REMARK INTER + INTRA:          -7.487
REMARK INTER:                  -7.327
REMARK INTRA:                  -0.160
REMARK UNBOUND:                -0.160
REMARK SMILES C=C(C)[C@@H]1CC[C@]2(C)CCCC(=C)[C@H]2C1
REMARK SMILES IDX 4 1 5 2 6 3 7 4 9 5 10 6 11 7 12 8 13 9 14 10 15 11 8 12
REMARK SMILES IDX 2 13 3 14 1 15
REMARK H PARENT
REMARK Flexibility Score: inf
ROOT
ATOM      1  C   UNL     1     110.716 110.511 110.659  1.00  0.00     0.015 C 
ATOM      2  C   UNL     1     112.254 110.652 110.720  1.00  0.00     0.008 C 
ATOM      3  C   UNL     1     112.864 111.464 109.568  1.00  0.00     0.008 C 
ATOM      4  C   UNL     1     112.386 111.013 108.161  1.00  0.00    -0.026 C 
ATOM      5  C   UNL     1     113.004 111.983 107.086  1.00  0.00     0.008 C 
ATOM      6  C   UNL     1     112.024 112.452 105.992  1.00  0.00     0.005 C 
ATOM      7  C   UNL     1     111.074 111.343 105.531  1.00  0.00     0.031 C 
ATOM      8  C   UNL     1     110.349 110.710 106.698  1.00  0.00    -0.074 C 
ATOM      9  C   UNL     1     109.313 109.891 106.435  1.00  0.00     0.008 C 
ATOM     10  C   UNL     1     110.823 111.059 108.112  1.00  0.00     0.021 C 
ATOM     11  C   UNL     1     110.165 110.225 109.241  1.00  0.00     0.016 C 
ATOM     12  C   UNL     1     112.912 109.576 107.877  1.00  0.00     0.012 C 
ENDROOT
BRANCH   1  13
ATOM     13  C   UNL     1     109.970 111.628 111.390  1.00  0.00    -0.077 C 
ATOM     14  C   UNL     1     109.191 111.266 112.630  1.00  0.00     0.039 C 
ATOM     15  C   UNL     1     109.985 112.907 110.976  1.00  0.00     0.008 C 
ENDBRANCH   1  13
TORSDOF 1
ENDMDL
MODEL 2
REMARK VINA RESULT:    -6.912      3.073      4.891
REMARK INTER + INTRA:          -7.476
REMARK INTER:                  -7.320
REMARK INTRA:                  -0.156
REMARK UNBOUND:                -0.160
REMARK SMILES C=C(C)[C@@H]1CC[C@]2(C)CCCC(=C)[C@H]2C1
REMARK SMILES IDX 4 1 5 2 6 3 7 4 9 5 10 6 11 7 12 8 13 9 14 10 15 11 8 12
REMARK SMILES IDX 2 13 3 14 1 15
REMARK H PARENT
REMARK Flexibility Score: inf
ROOT
ATOM      1  C   UNL     1     110.652 110.488 115.533  1.00  0.00     0.015 C 
ATOM      2  C   UNL     1     112.192 110.608 115.585  1.00  0.00     0.008 C 
ATOM      3  C   UNL     1     112.804 111.448 114.454  1.00  0.00     0.008 C 
ATOM      4  C   UNL     1     112.308 111.045 113.038  1.00  0.00    -0.026 C 
ATOM      5  C   UNL     1     112.931 112.040 111.988  1.00  0.00     0.008 C 
ATOM      6  C   UNL     1     111.948 112.554 110.917  1.00  0.00     0.005 C 
ATOM      7  C   UNL     1     110.981 111.472 110.430  1.00  0.00     0.031 C 
ATOM      8  C   UNL     1     110.256 110.813 111.583  1.00  0.00    -0.074 C 
ATOM      9  C   UNL     1     109.209 110.015 111.303  1.00  0.00     0.008 C 
ATOM     10  C   UNL     1     110.746 111.113 113.003  1.00  0.00     0.021 C 
ATOM     11  C   UNL     1     110.086 110.253 114.112  1.00  0.00     0.016 C 
ATOM     12  C   UNL     1     112.814 109.611 112.706  1.00  0.00     0.012 C 
ENDROOT
BRANCH   1  13
ATOM     13  C   UNL     1     109.926 111.591 116.303  1.00  0.00    -0.077 C 
ATOM     14  C   UNL     1     109.098 111.192 117.500  1.00  0.00     0.039 C 
ATOM     15  C   UNL     1     110.000 112.889 115.962  1.00  0.00     0.008 C 
ENDBRANCH   1  13
TORSDOF 1
ENDMDL
MODEL 3
REMARK VINA RESULT:    -6.880      1.218      3.101
REMARK INTER + INTRA:          -7.442
REMARK INTER:                  -7.284
REMARK INTRA:                  -0.157
REMARK UNBOUND:                -0.160
REMARK SMILES C=C(C)[C@@H]1CC[C@]2(C)CCCC(=C)[C@H]2C1
REMARK SMILES IDX 4 1 5 2 6 3 7 4 9 5 10 6 11 7 12 8 13 9 14 10 15 11 8 12
REMARK SMILES IDX 2 13 3 14 1 15
REMARK H PARENT
REMARK Flexibility Score: inf
ROOT
ATOM      1  C   UNL     1     111.443 111.870 110.609  1.00  0.00     0.015 C 
ATOM      2  C   UNL     1     109.903 111.752 110.629  1.00  0.00     0.008 C 
ATOM      3  C   UNL     1     109.315 110.902 109.493  1.00  0.00     0.008 C 
ATOM      4  C   UNL     1     109.842 111.290 108.085  1.00  0.00    -0.026 C 
ATOM      5  C   UNL     1     109.241 110.285 107.031  1.00  0.00     0.008 C 
ATOM      6  C   UNL     1     110.247 109.759 105.987  1.00  0.00     0.005 C 
ATOM      7  C   UNL     1     111.226 110.835 105.511  1.00  0.00     0.031 C 
ATOM      8  C   UNL     1     111.925 111.505 106.672  1.00  0.00    -0.074 C 
ATOM      9  C   UNL     1     112.980 112.299 106.408  1.00  0.00     0.008 C 
ATOM     10  C   UNL     1     111.405 111.220 108.085  1.00  0.00     0.021 C 
ATOM     11  C   UNL     1     112.041 112.091 109.199  1.00  0.00     0.016 C 
ATOM     12  C   UNL     1     109.345 112.721 107.727  1.00  0.00     0.012 C 
ENDROOT
BRANCH   1  13
ATOM     13  C   UNL     1     112.151 110.774 111.407  1.00  0.00    -0.077 C 
ATOM     14  C   UNL     1     112.879 111.172 112.666  1.00  0.00     0.039 C 
ATOM     15  C   UNL     1     112.146 109.482 111.034  1.00  0.00     0.008 C 
ENDBRANCH   1  13
TORSDOF 1
ENDMDL
MODEL 4
REMARK VINA RESULT:    -6.872      2.992      5.764
REMARK INTER + INTRA:          -7.434
REMARK INTER:                  -7.277
REMARK INTRA:                  -0.157
REMARK UNBOUND:                -0.160
REMARK SMILES C=C(C)[C@@H]1CC[C@]2(C)CCCC(=C)[C@H]2C1
REMARK SMILES IDX 4 1 5 2 6 3 7 4 9 5 10 6 11 7 12 8 13 9 14 10 15 11 8 12
REMARK SMILES IDX 2 13 3 14 1 15
REMARK H PARENT
REMARK Flexibility Score: inf
ROOT
ATOM      1  C   UNL     1     111.438 111.900 115.489  1.00  0.00     0.015 C 
ATOM      2  C   UNL     1     109.896 111.800 115.540  1.00  0.00     0.008 C 
ATOM      3  C   UNL     1     109.275 110.957 114.416  1.00  0.00     0.008 C 
ATOM      4  C   UNL     1     109.778 111.339 112.997  1.00  0.00    -0.026 C 
ATOM      5  C   UNL     1     109.144 110.342 111.955  1.00  0.00     0.008 C 
ATOM      6  C   UNL     1     110.122 109.804 110.892  1.00  0.00     0.005 C 
ATOM      7  C   UNL     1     111.105 110.868 110.395  1.00  0.00     0.031 C 
ATOM      8  C   UNL     1     111.835 111.529 111.543  1.00  0.00    -0.074 C 
ATOM      9  C   UNL     1     112.894 112.311 111.257  1.00  0.00     0.008 C 
ATOM     10  C   UNL     1     111.340 111.250 112.965  1.00  0.00     0.021 C 
ATOM     11  C   UNL     1     112.009 112.113 114.066  1.00  0.00     0.016 C 
ATOM     12  C   UNL     1     109.292 112.776 112.649  1.00  0.00     0.012 C 
ENDROOT
BRANCH   1  13
ATOM     13  C   UNL     1     112.148 110.794 116.271  1.00  0.00    -0.077 C 
ATOM     14  C   UNL     1     112.883 111.179 117.532  1.00  0.00     0.039 C 
ATOM     15  C   UNL     1     112.139 109.507 115.887  1.00  0.00     0.008 C 
ENDBRANCH   1  13
TORSDOF 1
ENDMDL
MODEL 5
REMARK VINA RESULT:    -6.695      1.200      4.697
REMARK INTER + INTRA:          -7.246
REMARK INTER:                  -6.934
REMARK INTRA:                  -0.312
REMARK UNBOUND:                -0.160
REMARK SMILES C=C(C)[C@@H]1CC[C@]2(C)CCCC(=C)[C@H]2C1
REMARK SMILES IDX 4 1 5 2 6 3 7 4 9 5 10 6 11 7 12 8 13 9 14 10 15 11 8 12
REMARK SMILES IDX 2 13 3 14 1 15
REMARK H PARENT
REMARK Flexibility Score: inf
ROOT
ATOM      1  C   UNL     1     111.315 111.581 107.596  1.00  0.00     0.015 C 
ATOM      2  C   UNL     1     112.813 111.230 107.746  1.00  0.00     0.008 C 
ATOM      3  C   UNL     1     113.168 110.501 109.050  1.00  0.00     0.008 C 
ATOM      4  C   UNL     1     112.611 111.192 110.325  1.00  0.00    -0.026 C 
ATOM      5  C   UNL     1     112.959 110.297 111.573  1.00  0.00     0.008 C 
ATOM      6  C   UNL     1     111.808 110.108 112.580  1.00  0.00     0.005 C 
ATOM      7  C   UNL     1     110.987 111.384 112.789  1.00  0.00     0.031 C 
ATOM      8  C   UNL     1     110.493 111.949 111.476  1.00  0.00    -0.074 C 
ATOM      9  C   UNL     1     109.568 112.926 111.512  1.00  0.00     0.008 C 
ATOM     10  C   UNL     1     111.062 111.360 110.181  1.00  0.00     0.021 C 
ATOM     11  C   UNL     1     110.661 112.119 108.891  1.00  0.00     0.016 C 
ATOM     12  C   UNL     1     113.309 112.571 110.508  1.00  0.00     0.012 C 
ENDROOT
BRANCH   1  13
ATOM     13  C   UNL     1     110.496 110.487 106.909  1.00  0.00    -0.077 C 
ATOM     14  C   UNL     1     111.181 109.642 105.863  1.00  0.00     0.039 C 
ATOM     15  C   UNL     1     109.206 110.249 107.201  1.00  0.00     0.008 C 
ENDBRANCH   1  13
TORSDOF 1
ENDMDL
MODEL 6
REMARK VINA RESULT:    -6.677      3.378      7.503
REMARK INTER + INTRA:          -7.227
REMARK INTER:                  -6.945
REMARK INTRA:                  -0.282
REMARK UNBOUND:                -0.160
REMARK SMILES C=C(C)[C@@H]1CC[C@]2(C)CCCC(=C)[C@H]2C1
REMARK SMILES IDX 4 1 5 2 6 3 7 4 9 5 10 6 11 7 12 8 13 9 14 10 15 11 8 12
REMARK SMILES IDX 2 13 3 14 1 15
REMARK H PARENT
REMARK Flexibility Score: inf
ROOT
ATOM      1  C   UNL     1     110.725 110.782 112.373  1.00  0.00     0.015 C 
ATOM      2  C   UNL     1     109.292 111.291 112.647  1.00  0.00     0.008 C 
ATOM      3  C   UNL     1     109.114 111.993 114.001  1.00  0.00     0.008 C 
ATOM      4  C   UNL     1     109.675 111.185 115.203  1.00  0.00    -0.026 C 
ATOM      5  C   UNL     1     109.519 112.054 116.508  1.00  0.00     0.008 C 
ATOM      6  C   UNL     1     110.752 112.064 117.434  1.00  0.00     0.005 C 
ATOM      7  C   UNL     1     111.433 110.696 117.531  1.00  0.00     0.031 C 
ATOM      8  C   UNL     1     111.766 110.141 116.164  1.00  0.00    -0.074 C 
ATOM      9  C   UNL     1     112.573 109.067 116.093  1.00  0.00     0.008 C 
ATOM     10  C   UNL     1     111.181 110.852 114.939  1.00  0.00     0.021 C 
ATOM     11  C   UNL     1     111.402 110.114 113.594  1.00  0.00     0.016 C 
ATOM     12  C   UNL     1     108.837 109.886 115.384  1.00  0.00     0.012 C 
ENDROOT
BRANCH   1  13
ATOM     13  C   UNL     1     111.615 111.809 111.670  1.00  0.00    -0.077 C 
ATOM     14  C   UNL     1     111.019 112.602 110.533  1.00  0.00     0.039 C 
ATOM     15  C   UNL     1     112.891 112.034 112.026  1.00  0.00     0.008 C 
ENDBRANCH   1  13
TORSDOF 1
ENDMDL
MODEL 7
REMARK VINA RESULT:    -6.668      3.825      7.570
REMARK INTER + INTRA:          -7.218
REMARK INTER:                  -6.902
REMARK INTRA:                  -0.316
REMARK UNBOUND:                -0.160
REMARK SMILES C=C(C)[C@@H]1CC[C@]2(C)CCCC(=C)[C@H]2C1
REMARK SMILES IDX 4 1 5 2 6 3 7 4 9 5 10 6 11 7 12 8 13 9 14 10 15 11 8 12
REMARK SMILES IDX 2 13 3 14 1 15
REMARK H PARENT
REMARK Flexibility Score: inf
ROOT
ATOM      1  C   UNL     1     111.249 111.709 112.738  1.00  0.00     0.015 C 
ATOM      2  C   UNL     1     112.739 111.323 112.870  1.00  0.00     0.008 C 
ATOM      3  C   UNL     1     113.084 110.546 114.149  1.00  0.00     0.008 C 
ATOM      4  C   UNL     1     112.545 111.207 115.448  1.00  0.00    -0.026 C 
ATOM      5  C   UNL     1     112.880 110.266 116.665  1.00  0.00     0.008 C 
ATOM      6  C   UNL     1     111.728 110.069 117.671  1.00  0.00     0.005 C 
ATOM      7  C   UNL     1     110.933 111.354 117.923  1.00  0.00     0.031 C 
ATOM      8  C   UNL     1     110.448 111.971 116.631  1.00  0.00    -0.074 C 
ATOM      9  C   UNL     1     109.542 112.964 116.701  1.00  0.00     0.008 C 
ATOM     10  C   UNL     1     110.999 111.411 115.316  1.00  0.00     0.021 C 
ATOM     11  C   UNL     1     110.609 112.219 114.052  1.00  0.00     0.016 C 
ATOM     12  C   UNL     1     113.272 112.565 115.672  1.00  0.00     0.012 C 
ENDROOT
BRANCH   1  13
ATOM     13  C   UNL     1     110.405 110.654 112.019  1.00  0.00    -0.077 C 
ATOM     14  C   UNL     1     111.088 109.777 110.998  1.00  0.00     0.039 C 
ATOM     15  C   UNL     1     109.096 110.476 112.264  1.00  0.00     0.008 C 
ENDBRANCH   1  13
TORSDOF 1
ENDMDL
MODEL 8
REMARK VINA RESULT:    -6.668      1.356      4.975
REMARK INTER + INTRA:          -7.218
REMARK INTER:                  -6.925
REMARK INTRA:                  -0.293
REMARK UNBOUND:                -0.160
REMARK SMILES C=C(C)[C@@H]1CC[C@]2(C)CCCC(=C)[C@H]2C1
REMARK SMILES IDX 4 1 5 2 6 3 7 4 9 5 10 6 11 7 12 8 13 9 14 10 15 11 8 12
REMARK SMILES IDX 2 13 3 14 1 15
REMARK H PARENT
REMARK Flexibility Score: inf
ROOT
ATOM      1  C   UNL     1     110.723 110.745 107.518  1.00  0.00     0.015 C 
ATOM      2  C   UNL     1     109.287 111.228 107.821  1.00  0.00     0.008 C 
ATOM      3  C   UNL     1     109.120 111.910 109.187  1.00  0.00     0.008 C 
ATOM      4  C   UNL     1     109.712 111.095 110.370  1.00  0.00    -0.026 C 
ATOM      5  C   UNL     1     109.564 111.944 111.688  1.00  0.00     0.008 C 
ATOM      6  C   UNL     1     110.811 111.962 112.594  1.00  0.00     0.005 C 
ATOM      7  C   UNL     1     111.514 110.603 112.663  1.00  0.00     0.031 C 
ATOM      8  C   UNL     1     111.833 110.071 111.284  1.00  0.00    -0.074 C 
ATOM      9  C   UNL     1     112.655 109.010 111.186  1.00  0.00     0.008 C 
ATOM     10  C   UNL     1     111.218 110.788 110.078  1.00  0.00     0.021 C 
ATOM     11  C   UNL     1     111.429 110.071 108.720  1.00  0.00     0.016 C 
ATOM     12  C   UNL     1     108.897 109.781 110.546  1.00  0.00     0.012 C 
ENDROOT
BRANCH   1  13
ATOM     13  C   UNL     1     111.586 111.794 106.815  1.00  0.00    -0.077 C 
ATOM     14  C   UNL     1     110.941 112.637 105.743  1.00  0.00     0.039 C 
ATOM     15  C   UNL     1     112.880 111.994 107.116  1.00  0.00     0.008 C 
ENDBRANCH   1  13
TORSDOF 1
ENDMDL
MODEL 9
REMARK VINA RESULT:    -6.594      4.859      7.883
REMARK INTER + INTRA:          -7.139
REMARK INTER:                  -6.886
REMARK INTRA:                  -0.254
REMARK UNBOUND:                -0.160
REMARK SMILES C=C(C)[C@@H]1CC[C@]2(C)CCCC(=C)[C@H]2C1
REMARK SMILES IDX 4 1 5 2 6 3 7 4 9 5 10 6 11 7 12 8 13 9 14 10 15 11 8 12
REMARK SMILES IDX 2 13 3 14 1 15
REMARK H PARENT
REMARK Flexibility Score: inf
ROOT
ATOM      1  C   UNL     1     112.229 111.431 117.756  1.00  0.00     0.015 C 
ATOM      2  C   UNL     1     110.775 111.816 118.113  1.00  0.00     0.008 C 
ATOM      3  C   UNL     1     109.720 111.309 117.118  1.00  0.00     0.008 C 
ATOM      4  C   UNL     1     110.051 111.634 115.636  1.00  0.00    -0.026 C 
ATOM      5  C   UNL     1     108.949 110.979 114.721  1.00  0.00     0.008 C 
ATOM      6  C   UNL     1     109.488 110.254 113.471  1.00  0.00     0.005 C 
ATOM      7  C   UNL     1     110.654 110.995 112.811  1.00  0.00     0.031 C 
ATOM      8  C   UNL     1     111.756 111.293 113.803  1.00  0.00    -0.074 C 
ATOM      9  C   UNL     1     112.940 111.725 113.328  1.00  0.00     0.008 C 
ATOM     10  C   UNL     1     111.466 111.064 115.290  1.00  0.00     0.021 C 
ATOM     11  C   UNL     1     112.568 111.575 116.252  1.00  0.00     0.016 C 
ATOM     12  C   UNL     1     110.002 113.175 115.424  1.00  0.00     0.012 C 
ENDROOT
BRANCH   1  13
ATOM     13  C   UNL     1     112.673 110.096 118.356  1.00  0.00    -0.077 C 
ATOM     14  C   UNL     1     112.464 109.880 119.834  1.00  0.00     0.039 C 
ATOM     15  C   UNL     1     113.232 109.118 117.623  1.00  0.00     0.008 C 
ENDBRANCH   1  13
TORSDOF 1
ENDMDL
