MODEL 1
REMARK VINA RESULT:    -4.810      0.000      0.000
REMARK INTER + INTRA:          -5.439
REMARK INTER:                  -5.373
REMARK INTRA:                  -0.066
REMARK UNBOUND:                -0.066
REMARK SMILES COc1ccc(C(=O)[O-])cc1
REMARK SMILES IDX 6 1 5 2 10 3 4 4 11 5 3 6 7 7 8 8 9 9 2 10 1 11
REMARK H PARENT
REMARK Flexibility Score: inf
ROOT
ATOM      1  C   UNL     1      -2.157 -25.109   0.205  1.00  0.00    -0.003 A 
ATOM      2  C   UNL     1      -2.302 -26.445   0.615  1.00  0.00     0.014 A 
ATOM      3  C   UNL     1      -1.597 -24.180   1.101  1.00  0.00     0.014 A 
ATOM      4  C   UNL     1      -1.896 -26.842   1.893  1.00  0.00     0.047 A 
ATOM      5  C   UNL     1      -1.192 -24.579   2.378  1.00  0.00     0.047 A 
ATOM      6  C   UNL     1      -1.340 -25.919   2.783  1.00  0.00     0.118 A 
ENDROOT
BRANCH   1   7
ATOM      7  C   UNL     1      -2.585 -24.690  -1.147  1.00  0.00     0.071 C 
ATOM      8  O   UNL     1      -3.426 -25.371  -1.793  1.00  0.00    -0.545 OA
ATOM      9  O   UNL     1      -2.065 -23.537  -1.725  1.00  0.00    -0.545 OA
ENDBRANCH   1   7
BRANCH   6  10
ATOM     10  O   UNL     1      -0.950 -26.370   4.053  1.00  0.00    -0.497 OA
ATOM     11  C   UNL     1      -0.363 -27.643   4.309  1.00  0.00     0.278 C 
ENDBRANCH   6  10
TORSDOF 2
ENDMDL
MODEL 2
REMARK VINA RESULT:    -4.808      0.061      1.461
REMARK INTER + INTRA:          -5.436
REMARK INTER:                  -5.373
REMARK INTRA:                  -0.063
REMARK UNBOUND:                -0.066
REMARK SMILES COc1ccc(C(=O)[O-])cc1
REMARK SMILES IDX 6 1 5 2 10 3 4 4 11 5 3 6 7 7 8 8 9 9 2 10 1 11
REMARK H PARENT
REMARK Flexibility Score: inf
ROOT
ATOM      1  C   UNL     1      -2.154 -25.128   0.233  1.00  0.00    -0.003 A 
ATOM      2  C   UNL     1      -1.580 -24.209   1.128  1.00  0.00     0.014 A 
ATOM      3  C   UNL     1      -2.307 -26.467   0.637  1.00  0.00     0.014 A 
ATOM      4  C   UNL     1      -1.170 -24.621   2.400  1.00  0.00     0.047 A 
ATOM      5  C   UNL     1      -1.895 -26.877   1.909  1.00  0.00     0.047 A 
ATOM      6  C   UNL     1      -1.322 -25.952   2.801  1.00  0.00     0.118 A 
ENDROOT
BRANCH   1   7
ATOM      7  C   UNL     1      -2.589 -24.691  -1.112  1.00  0.00     0.071 C 
ATOM      8  O   UNL     1      -3.441 -25.357  -1.758  1.00  0.00    -0.545 OA
ATOM      9  O   UNL     1      -2.060 -23.538  -1.682  1.00  0.00    -0.545 OA
ENDBRANCH   1   7
BRANCH   6  10
ATOM     10  O   UNL     1      -0.893 -26.313   4.088  1.00  0.00    -0.497 OA
ATOM     11  C   UNL     1      -0.382 -27.597   4.434  1.00  0.00     0.278 C 
ENDBRANCH   6  10
TORSDOF 2
ENDMDL
MODEL 3
REMARK VINA RESULT:    -4.703      1.018      4.994
REMARK INTER + INTRA:          -5.319
REMARK INTER:                  -5.262
REMARK INTRA:                  -0.057
REMARK UNBOUND:                -0.066
REMARK SMILES COc1ccc(C(=O)[O-])cc1
REMARK SMILES IDX 6 1 5 2 10 3 4 4 11 5 3 6 7 7 8 8 9 9 2 10 1 11
REMARK H PARENT
REMARK Flexibility Score: inf
ROOT
ATOM      1  C   UNL     1      -1.215 -26.199   2.671  1.00  0.00    -0.003 A 
ATOM      2  C   UNL     1      -0.877 -24.837   2.593  1.00  0.00     0.014 A 
ATOM      3  C   UNL     1      -1.946 -26.780   1.619  1.00  0.00     0.014 A 
ATOM      4  C   UNL     1      -1.262 -24.074   1.486  1.00  0.00     0.047 A 
ATOM      5  C   UNL     1      -2.330 -26.015   0.513  1.00  0.00     0.047 A 
ATOM      6  C   UNL     1      -1.988 -24.652   0.440  1.00  0.00     0.118 A 
ENDROOT
BRANCH   1   7
ATOM      7  C   UNL     1      -0.806 -27.005   3.842  1.00  0.00     0.071 C 
ATOM      8  O   UNL     1      -0.793 -26.499   4.996  1.00  0.00    -0.545 OA
ATOM      9  O   UNL     1      -0.429 -28.334   3.684  1.00  0.00    -0.545 OA
ENDBRANCH   1   7
BRANCH   6  10
ATOM     10  O   UNL     1      -2.350 -23.842  -0.647  1.00  0.00    -0.497 OA
ATOM     11  C   UNL     1      -1.612 -23.752  -1.863  1.00  0.00     0.278 C 
ENDBRANCH   6  10
TORSDOF 2
ENDMDL
MODEL 4
REMARK VINA RESULT:    -4.700      1.708      2.478
REMARK INTER + INTRA:          -5.316
REMARK INTER:                  -5.254
REMARK INTRA:                  -0.062
REMARK UNBOUND:                -0.066
REMARK SMILES COc1ccc(C(=O)[O-])cc1
REMARK SMILES IDX 6 1 5 2 10 3 4 4 11 5 3 6 7 7 8 8 9 9 2 10 1 11
REMARK H PARENT
REMARK Flexibility Score: inf
ROOT
ATOM      1  C   UNL     1      -1.482 -26.017   1.801  1.00  0.00    -0.003 A 
ATOM      2  C   UNL     1      -1.026 -27.243   1.286  1.00  0.00     0.014 A 
ATOM      3  C   UNL     1      -1.414 -25.795   3.188  1.00  0.00     0.014 A 
ATOM      4  C   UNL     1      -0.514 -28.224   2.141  1.00  0.00     0.047 A 
ATOM      5  C   UNL     1      -0.902 -26.777   4.041  1.00  0.00     0.047 A 
ATOM      6  C   UNL     1      -0.447 -28.003   3.519  1.00  0.00     0.118 A 
ENDROOT
BRANCH   1   7
ATOM      7  C   UNL     1      -2.022 -24.980   0.895  1.00  0.00     0.071 C 
ATOM      8  O   UNL     1      -1.794 -23.759   1.110  1.00  0.00    -0.545 OA
ATOM      9  O   UNL     1      -2.792 -25.338  -0.205  1.00  0.00    -0.545 OA
ENDBRANCH   1   7
BRANCH   6  10
ATOM     10  O   UNL     1       0.075 -29.020   4.333  1.00  0.00    -0.497 OA
ATOM     11  C   UNL     1      -0.150 -29.123   5.736  1.00  0.00     0.278 C 
ENDBRANCH   6  10
TORSDOF 2
ENDMDL
MODEL 5
REMARK VINA RESULT:    -4.665      1.368      5.023
REMARK INTER + INTRA:          -5.277
REMARK INTER:                  -5.208
REMARK INTRA:                  -0.068
REMARK UNBOUND:                -0.066
REMARK SMILES COc1ccc(C(=O)[O-])cc1
REMARK SMILES IDX 6 1 5 2 10 3 4 4 11 5 3 6 7 7 8 8 9 9 2 10 1 11
REMARK H PARENT
REMARK Flexibility Score: inf
ROOT
ATOM      1  C   UNL     1      -0.953 -26.813   3.421  1.00  0.00    -0.003 A 
ATOM      2  C   UNL     1      -1.471 -27.501   2.311  1.00  0.00     0.014 A 
ATOM      3  C   UNL     1      -0.879 -25.409   3.377  1.00  0.00     0.014 A 
ATOM      4  C   UNL     1      -1.907 -26.799   1.182  1.00  0.00     0.047 A 
ATOM      5  C   UNL     1      -1.315 -24.709   2.248  1.00  0.00     0.047 A 
ATOM      6  C   UNL     1      -1.834 -25.404   1.140  1.00  0.00     0.118 A 
ENDROOT
BRANCH   1   7
ATOM      7  C   UNL     1      -0.493 -27.557   4.614  1.00  0.00     0.071 C 
ATOM      8  O   UNL     1      -0.495 -27.012   5.750  1.00  0.00    -0.545 OA
ATOM      9  O   UNL     1      -0.051 -28.871   4.498  1.00  0.00    -0.545 OA
ENDBRANCH   1   7
BRANCH   6  10
ATOM     10  O   UNL     1      -2.284 -24.748  -0.016  1.00  0.00    -0.497 OA
ATOM     11  C   UNL     1      -3.042 -25.370  -1.050  1.00  0.00     0.278 C 
ENDBRANCH   6  10
TORSDOF 2
ENDMDL
MODEL 6
REMARK VINA RESULT:    -4.663      2.054      5.629
REMARK INTER + INTRA:          -5.275
REMARK INTER:                  -5.217
REMARK INTRA:                  -0.058
REMARK UNBOUND:                -0.066
REMARK SMILES COc1ccc(C(=O)[O-])cc1
REMARK SMILES IDX 6 1 5 2 10 3 4 4 11 5 3 6 7 7 8 8 9 9 2 10 1 11
REMARK H PARENT
REMARK Flexibility Score: inf
ROOT
ATOM      1  C   UNL     1      -0.400 -28.000   3.762  1.00  0.00    -0.003 A 
ATOM      2  C   UNL     1      -0.863 -26.741   4.183  1.00  0.00     0.014 A 
ATOM      3  C   UNL     1      -0.634 -28.402   2.435  1.00  0.00     0.014 A 
ATOM      4  C   UNL     1      -1.545 -25.904   3.294  1.00  0.00     0.047 A 
ATOM      5  C   UNL     1      -1.316 -27.563   1.548  1.00  0.00     0.047 A 
ATOM      6  C   UNL     1      -1.777 -26.304   1.975  1.00  0.00     0.118 A 
ENDROOT
BRANCH   1   7
ATOM      7  C   UNL     1       0.322 -28.884   4.703  1.00  0.00     0.071 C 
ATOM      8  O   UNL     1       1.541 -29.146   4.529  1.00  0.00    -0.545 OA
ATOM      9  O   UNL     1      -0.339 -29.440   5.794  1.00  0.00    -0.545 OA
ENDBRANCH   1   7
BRANCH   6  10
ATOM     10  O   UNL     1      -2.466 -25.426   1.124  1.00  0.00    -0.497 OA
ATOM     11  C   UNL     1      -2.521 -25.558  -0.294  1.00  0.00     0.278 C 
ENDBRANCH   6  10
TORSDOF 2
ENDMDL
MODEL 7
REMARK VINA RESULT:    -4.407      4.148      7.109
REMARK INTER + INTRA:          -4.989
REMARK INTER:                  -4.926
REMARK INTRA:                  -0.063
REMARK UNBOUND:                -0.066
REMARK SMILES COc1ccc(C(=O)[O-])cc1
REMARK SMILES IDX 6 1 5 2 10 3 4 4 11 5 3 6 7 7 8 8 9 9 2 10 1 11
REMARK H PARENT
REMARK Flexibility Score: inf
ROOT
ATOM      1  C   UNL     1      -0.386 -27.723   6.723  1.00  0.00    -0.003 A 
ATOM      2  C   UNL     1      -0.479 -26.780   5.686  1.00  0.00     0.014 A 
ATOM      3  C   UNL     1      -0.118 -29.065   6.399  1.00  0.00     0.014 A 
ATOM      4  C   UNL     1      -0.308 -27.172   4.354  1.00  0.00     0.047 A 
ATOM      5  C   UNL     1       0.053 -29.455   5.068  1.00  0.00     0.047 A 
ATOM      6  C   UNL     1      -0.041 -28.506   4.033  1.00  0.00     0.118 A 
ENDROOT
BRANCH   1   7
ATOM      7  C   UNL     1      -0.566 -27.307   8.131  1.00  0.00     0.071 C 
ATOM      8  O   UNL     1       0.192 -26.442   8.646  1.00  0.00    -0.545 OA
ATOM      9  O   UNL     1      -1.576 -27.866   8.907  1.00  0.00    -0.545 OA
ENDBRANCH   1   7
BRANCH   6  10
ATOM     10  O   UNL     1       0.122 -28.846   2.682  1.00  0.00    -0.497 OA
ATOM     11  C   UNL     1      -0.274 -28.019   1.591  1.00  0.00     0.278 C 
ENDBRANCH   6  10
TORSDOF 2
ENDMDL
MODEL 8
REMARK VINA RESULT:    -4.360      4.328      5.549
REMARK INTER + INTRA:          -4.936
REMARK INTER:                  -4.874
REMARK INTRA:                  -0.062
REMARK UNBOUND:                -0.066
REMARK SMILES COc1ccc(C(=O)[O-])cc1
REMARK SMILES IDX 6 1 5 2 10 3 4 4 11 5 3 6 7 7 8 8 9 9 2 10 1 11
REMARK H PARENT
REMARK Flexibility Score: inf
ROOT
ATOM      1  C   UNL     1       0.076 -28.749   3.859  1.00  0.00    -0.003 A 
ATOM      2  C   UNL     1      -0.324 -27.404   3.933  1.00  0.00     0.014 A 
ATOM      3  C   UNL     1       0.252 -29.473   5.053  1.00  0.00     0.014 A 
ATOM      4  C   UNL     1      -0.542 -26.797   5.173  1.00  0.00     0.047 A 
ATOM      5  C   UNL     1       0.034 -28.864   6.292  1.00  0.00     0.047 A 
ATOM      6  C   UNL     1      -0.367 -27.516   6.359  1.00  0.00     0.118 A 
ENDROOT
BRANCH   1   7
ATOM      7  C   UNL     1       0.305 -29.391   2.546  1.00  0.00     0.071 C 
ATOM      8  O   UNL     1       0.750 -30.568   2.477  1.00  0.00    -0.545 OA
ATOM      9  O   UNL     1       0.035 -28.702   1.369  1.00  0.00    -0.545 OA
ENDBRANCH   1   7
BRANCH   6  10
ATOM     10  O   UNL     1      -0.599 -26.859   7.577  1.00  0.00    -0.497 OA
ATOM     11  C   UNL     1       0.368 -26.726   8.615  1.00  0.00     0.278 C 
ENDBRANCH   6  10
TORSDOF 2
ENDMDL
MODEL 9
REMARK VINA RESULT:    -4.263      2.156      2.876
REMARK INTER + INTRA:          -4.828
REMARK INTER:                  -4.764
REMARK INTRA:                  -0.064
REMARK UNBOUND:                -0.066
REMARK SMILES COc1ccc(C(=O)[O-])cc1
REMARK SMILES IDX 6 1 5 2 10 3 4 4 11 5 3 6 7 7 8 8 9 9 2 10 1 11
REMARK H PARENT
REMARK Flexibility Score: inf
ROOT
ATOM      1  C   UNL     1      -1.155 -26.184   1.309  1.00  0.00    -0.003 A 
ATOM      2  C   UNL     1      -0.059 -25.717   2.054  1.00  0.00     0.014 A 
ATOM      3  C   UNL     1      -1.411 -27.566   1.268  1.00  0.00     0.014 A 
ATOM      4  C   UNL     1       0.762 -26.614   2.744  1.00  0.00     0.047 A 
ATOM      5  C   UNL     1      -0.588 -28.462   1.958  1.00  0.00     0.047 A 
ATOM      6  C   UNL     1       0.508 -27.988   2.703  1.00  0.00     0.118 A 
ENDROOT
BRANCH   1   7
ATOM      7  C   UNL     1      -2.024 -25.233   0.581  1.00  0.00     0.071 C 
ATOM      8  O   UNL     1      -2.811 -25.641  -0.315  1.00  0.00    -0.545 OA
ATOM      9  O   UNL     1      -1.983 -23.875   0.876  1.00  0.00    -0.545 OA
ENDBRANCH   1   7
BRANCH   6  10
ATOM     10  O   UNL     1       1.363 -28.846   3.412  1.00  0.00    -0.497 OA
ATOM     11  C   UNL     1       1.682 -30.175   3.011  1.00  0.00     0.278 C 
ENDBRANCH   6  10
TORSDOF 2
ENDMDL
