MODEL 1
REMARK VINA RESULT:    -5.580      0.000      0.000
REMARK INTER + INTRA:         -14.811
REMARK INTER:                 -12.756
REMARK INTRA:                  -2.055
REMARK UNBOUND:                -2.055
REMARK SMILES CCCCCCCCCCCCCCCCCCCCCCCC(=O)[O-]
REMARK SMILES IDX 13 1 14 2 15 3 16 4 17 5 18 6 19 7 20 8 21 9 22 10 23 11
REMARK SMILES IDX 24 12 25 13 26 14 12 15 11 16 10 17 9 18 8 19 7 20 6 21 5 22
REMARK SMILES IDX 4 23 3 24 2 25 1 26
REMARK H PARENT
REMARK Flexibility Score: inf
ROOT
ATOM      1  C   UNL     1     -19.182  37.495  88.443  1.00  0.00     0.000 C 
ENDROOT
BRANCH   1   2
ATOM      2  C   UNL     1     -18.830  37.296  89.930  1.00  0.00     0.000 C 
BRANCH   2   3
ATOM      3  C   UNL     1     -18.197  38.523  90.628  1.00  0.00     0.000 C 
BRANCH   3   4
ATOM      4  C   UNL     1     -19.073  39.145  91.732  1.00  0.00     0.000 C 
BRANCH   4   5
ATOM      5  C   UNL     1     -20.551  39.363  91.359  1.00  0.00     0.000 C 
BRANCH   5   6
ATOM      6  C   UNL     1     -20.985  40.836  91.224  1.00  0.00     0.000 C 
BRANCH   6   7
ATOM      7  C   UNL     1     -20.445  41.562  89.980  1.00  0.00     0.000 C 
BRANCH   7   8
ATOM      8  C   UNL     1     -21.537  42.330  89.215  1.00  0.00     0.000 C 
BRANCH   8   9
ATOM      9  C   UNL     1     -21.719  41.830  87.772  1.00  0.00     0.000 C 
BRANCH   9  10
ATOM     10  C   UNL     1     -20.640  42.296  86.775  1.00  0.00     0.006 C 
BRANCH  10  11
ATOM     11  C   UNL     1     -20.177  43.747  86.987  1.00  0.00     0.053 C 
BRANCH  11  12
ATOM     12  C   UNL     1     -19.974  44.481  85.696  1.00  0.00     0.041 C 
ATOM     13  O   UNL     1     -20.894  44.517  84.835  1.00  0.00    -0.550 OA
ATOM     14  O   UNL     1     -18.755  45.096  85.426  1.00  0.00    -0.550 OA
ENDBRANCH  11  12
ENDBRANCH  10  11
ENDBRANCH   9  10
ENDBRANCH   8   9
ENDBRANCH   7   8
ENDBRANCH   6   7
ENDBRANCH   5   6
ENDBRANCH   4   5
ENDBRANCH   3   4
ENDBRANCH   2   3
ENDBRANCH   1   2
BRANCH   1  15
ATOM     15  C   UNL     1     -20.508  38.228  88.151  1.00  0.00     0.000 C 
BRANCH  15  16
ATOM     16  C   UNL     1     -20.732  38.586  86.667  1.00  0.00     0.000 C 
BRANCH  16  17
ATOM     17  C   UNL     1     -19.423  38.601  85.858  1.00  0.00     0.000 C 
BRANCH  17  18
ATOM     18  C   UNL     1     -19.504  37.713  84.605  1.00  0.00    -0.000 C 
BRANCH  18  19
ATOM     19  C   UNL     1     -18.233  36.868  84.414  1.00  0.00    -0.000 C 
BRANCH  19  20
ATOM     20  C   UNL     1     -17.368  37.419  83.273  1.00  0.00    -0.000 C 
BRANCH  20  21
ATOM     21  C   UNL     1     -16.459  36.325  82.695  1.00  0.00    -0.000 C 
BRANCH  21  22
ATOM     22  C   UNL     1     -17.213  35.022  82.373  1.00  0.00    -0.000 C 
BRANCH  22  23
ATOM     23  C   UNL     1     -17.476  34.813  80.867  1.00  0.00    -0.000 C 
BRANCH  23  24
ATOM     24  C   UNL     1     -17.446  36.138  80.084  1.00  0.00    -0.000 C 
BRANCH  24  25
ATOM     25  C   UNL     1     -18.848  36.731  79.863  1.00  0.00    -0.003 C 
ATOM     26  C   UNL     1     -18.999  37.397  78.495  1.00  0.00     0.004 C 
ENDBRANCH  24  25
ENDBRANCH  23  24
ENDBRANCH  22  23
ENDBRANCH  21  22
ENDBRANCH  20  21
ENDBRANCH  19  20
ENDBRANCH  18  19
ENDBRANCH  17  18
ENDBRANCH  16  17
ENDBRANCH  15  16
ENDBRANCH   1  15
TORSDOF 22
ENDMDL
MODEL 2
REMARK VINA RESULT:    -5.579      3.467      8.074
REMARK INTER + INTRA:         -14.809
REMARK INTER:                 -12.511
REMARK INTRA:                  -2.298
REMARK UNBOUND:                -2.055
REMARK SMILES CCCCCCCCCCCCCCCCCCCCCCCC(=O)[O-]
REMARK SMILES IDX 13 1 14 2 15 3 16 4 17 5 18 6 19 7 20 8 21 9 22 10 23 11
REMARK SMILES IDX 24 12 25 13 26 14 12 15 11 16 10 17 9 18 8 19 7 20 6 21 5 22
REMARK SMILES IDX 4 23 3 24 2 25 1 26
REMARK H PARENT
REMARK Flexibility Score: inf
ROOT
ATOM      1  C   UNL     1     -19.157  39.696  90.948  1.00  0.00     0.000 C 
ENDROOT
BRANCH   1   2
ATOM      2  C   UNL     1     -20.065  38.513  90.560  1.00  0.00     0.000 C 
BRANCH   2   3
ATOM      3  C   UNL     1     -19.461  37.528  89.531  1.00  0.00     0.000 C 
BRANCH   3   4
ATOM      4  C   UNL     1     -19.252  38.129  88.127  1.00  0.00     0.000 C 
BRANCH   4   5
ATOM      5  C   UNL     1     -20.507  38.183  87.238  1.00  0.00     0.000 C 
BRANCH   5   6
ATOM      6  C   UNL     1     -20.239  38.235  85.721  1.00  0.00     0.000 C 
BRANCH   6   7
ATOM      7  C   UNL     1     -18.945  37.541  85.266  1.00  0.00     0.000 C 
BRANCH   7   8
ATOM      8  C   UNL     1     -18.869  37.360  83.739  1.00  0.00     0.000 C 
BRANCH   8   9
ATOM      9  C   UNL     1     -17.487  37.714  83.164  1.00  0.00     0.000 C 
BRANCH   9  10
ATOM     10  C   UNL     1     -16.828  36.613  82.312  1.00  0.00     0.006 C 
BRANCH  10  11
ATOM     11  C   UNL     1     -17.441  36.454  80.911  1.00  0.00     0.053 C 
BRANCH  11  12
ATOM     12  C   UNL     1     -17.853  35.043  80.619  1.00  0.00     0.041 C 
ATOM     13  O   UNL     1     -18.379  34.336  81.521  1.00  0.00    -0.550 OA
ATOM     14  O   UNL     1     -17.623  34.493  79.361  1.00  0.00    -0.550 OA
ENDBRANCH  11  12
ENDBRANCH  10  11
ENDBRANCH   9  10
ENDBRANCH   8   9
ENDBRANCH   7   8
ENDBRANCH   6   7
ENDBRANCH   5   6
ENDBRANCH   4   5
ENDBRANCH   3   4
ENDBRANCH   2   3
ENDBRANCH   1   2
BRANCH   1  15
ATOM     15  C   UNL     1     -19.438  41.031  90.226  1.00  0.00     0.000 C 
BRANCH  15  16
ATOM     16  C   UNL     1     -20.839  41.135  89.589  1.00  0.00     0.000 C 
BRANCH  16  17
ATOM     17  C   UNL     1     -20.925  42.245  88.526  1.00  0.00     0.000 C 
BRANCH  17  18
ATOM     18  C   UNL     1     -20.344  41.800  87.173  1.00  0.00    -0.000 C 
BRANCH  18  19
ATOM     19  C   UNL     1     -20.103  42.989  86.229  1.00  0.00    -0.000 C 
BRANCH  19  20
ATOM     20  C   UNL     1     -20.382  44.323  86.935  1.00  0.00    -0.000 C 
BRANCH  20  21
ATOM     21  C   UNL     1     -20.955  45.355  85.954  1.00  0.00    -0.000 C 
BRANCH  21  22
ATOM     22  C   UNL     1     -20.777  44.950  84.479  1.00  0.00    -0.000 C 
BRANCH  22  23
ATOM     23  C   UNL     1     -20.284  46.098  83.574  1.00  0.00    -0.000 C 
BRANCH  23  24
ATOM     24  C   UNL     1     -18.890  46.604  83.988  1.00  0.00    -0.000 C 
BRANCH  24  25
ATOM     25  C   UNL     1     -17.819  45.501  83.943  1.00  0.00    -0.003 C 
ATOM     26  C   UNL     1     -17.174  45.247  85.305  1.00  0.00     0.004 C 
ENDBRANCH  24  25
ENDBRANCH  23  24
ENDBRANCH  22  23
ENDBRANCH  21  22
ENDBRANCH  20  21
ENDBRANCH  19  20
ENDBRANCH  18  19
ENDBRANCH  17  18
ENDBRANCH  16  17
ENDBRANCH  15  16
ENDBRANCH   1  15
TORSDOF 22
ENDMDL
MODEL 3
REMARK VINA RESULT:    -5.575      4.998      6.691
REMARK INTER + INTRA:         -14.799
REMARK INTER:                 -11.614
REMARK INTRA:                  -3.185
REMARK UNBOUND:                -2.055
REMARK SMILES CCCCCCCCCCCCCCCCCCCCCCCC(=O)[O-]
REMARK SMILES IDX 13 1 14 2 15 3 16 4 17 5 18 6 19 7 20 8 21 9 22 10 23 11
REMARK SMILES IDX 24 12 25 13 26 14 12 15 11 16 10 17 9 18 8 19 7 20 6 21 5 22
REMARK SMILES IDX 4 23 3 24 2 25 1 26
REMARK H PARENT
REMARK Flexibility Score: inf
ROOT
ATOM      1  C   UNL     1     -18.039  39.515  90.249  1.00  0.00     0.000 C 
ENDROOT
BRANCH   1   2
ATOM      2  C   UNL     1     -18.734  40.836  90.631  1.00  0.00     0.000 C 
BRANCH   2   3
ATOM      3  C   UNL     1     -19.925  40.695  91.608  1.00  0.00     0.000 C 
BRANCH   3   4
ATOM      4  C   UNL     1     -21.288  41.089  91.007  1.00  0.00     0.000 C 
BRANCH   4   5
ATOM      5  C   UNL     1     -21.234  42.130  89.874  1.00  0.00     0.000 C 
BRANCH   5   6
ATOM      6  C   UNL     1     -22.459  43.062  89.777  1.00  0.00     0.000 C 
BRANCH   6   7
ATOM      7  C   UNL     1     -23.221  42.997  88.443  1.00  0.00     0.000 C 
BRANCH   7   8
ATOM      8  C   UNL     1     -23.799  44.359  88.018  1.00  0.00     0.000 C 
BRANCH   8   9
ATOM      9  C   UNL     1     -24.357  45.166  89.203  1.00  0.00     0.000 C 
BRANCH   9  10
ATOM     10  C   UNL     1     -25.783  44.785  89.644  1.00  0.00     0.006 C 
BRANCH  10  11
ATOM     11  C   UNL     1     -25.850  44.098  91.018  1.00  0.00     0.053 C 
BRANCH  11  12
ATOM     12  C   UNL     1     -27.200  43.511  91.302  1.00  0.00     0.041 C 
ATOM     13  O   UNL     1     -27.317  42.549  92.110  1.00  0.00    -0.550 OA
ATOM     14  O   UNL     1     -28.327  43.999  90.647  1.00  0.00    -0.550 OA
ENDBRANCH  11  12
ENDBRANCH  10  11
ENDBRANCH   9  10
ENDBRANCH   8   9
ENDBRANCH   7   8
ENDBRANCH   6   7
ENDBRANCH   5   6
ENDBRANCH   4   5
ENDBRANCH   3   4
ENDBRANCH   2   3
ENDBRANCH   1   2
BRANCH   1  15
ATOM     15  C   UNL     1     -18.713  38.223  90.755  1.00  0.00     0.000 C 
BRANCH  15  16
ATOM     16  C   UNL     1     -19.250  37.299  89.643  1.00  0.00     0.000 C 
BRANCH  16  17
ATOM     17  C   UNL     1     -19.485  38.044  88.316  1.00  0.00     0.000 C 
BRANCH  17  18
ATOM     18  C   UNL     1     -20.922  38.577  88.195  1.00  0.00    -0.000 C 
BRANCH  18  19
ATOM     19  C   UNL     1     -21.038  39.689  87.139  1.00  0.00    -0.000 C 
BRANCH  19  20
ATOM     20  C   UNL     1     -19.660  40.262  86.784  1.00  0.00    -0.000 C 
BRANCH  20  21
ATOM     21  C   UNL     1     -19.571  41.749  87.155  1.00  0.00    -0.000 C 
BRANCH  21  22
ATOM     22  C   UNL     1     -20.235  42.671  86.116  1.00  0.00    -0.000 C 
BRANCH  22  23
ATOM     23  C   UNL     1     -20.173  44.168  86.485  1.00  0.00    -0.000 C 
BRANCH  23  24
ATOM     24  C   UNL     1     -19.740  45.042  85.294  1.00  0.00    -0.000 C 
BRANCH  24  25
ATOM     25  C   UNL     1     -18.396  44.601  84.690  1.00  0.00    -0.003 C 
ATOM     26  C   UNL     1     -17.269  45.596  84.967  1.00  0.00     0.004 C 
ENDBRANCH  24  25
ENDBRANCH  23  24
ENDBRANCH  22  23
ENDBRANCH  21  22
ENDBRANCH  20  21
ENDBRANCH  19  20
ENDBRANCH  18  19
ENDBRANCH  17  18
ENDBRANCH  16  17
ENDBRANCH  15  16
ENDBRANCH   1  15
TORSDOF 22
ENDMDL
MODEL 4
REMARK VINA RESULT:    -5.551      4.841      7.615
REMARK INTER + INTRA:         -14.744
REMARK INTER:                 -11.714
REMARK INTRA:                  -3.030
REMARK UNBOUND:                -2.055
REMARK SMILES CCCCCCCCCCCCCCCCCCCCCCCC(=O)[O-]
REMARK SMILES IDX 13 1 14 2 15 3 16 4 17 5 18 6 19 7 20 8 21 9 22 10 23 11
REMARK SMILES IDX 24 12 25 13 26 14 12 15 11 16 10 17 9 18 8 19 7 20 6 21 5 22
REMARK SMILES IDX 4 23 3 24 2 25 1 26
REMARK H PARENT
REMARK Flexibility Score: inf
ROOT
ATOM      1  C   UNL     1     -21.537  42.085  89.946  1.00  0.00     0.000 C 
ENDROOT
BRANCH   1   2
ATOM      2  C   UNL     1     -22.732  43.058  89.974  1.00  0.00     0.000 C 
BRANCH   2   3
ATOM      3  C   UNL     1     -22.972  43.845  88.665  1.00  0.00     0.000 C 
BRANCH   3   4
ATOM      4  C   UNL     1     -22.570  45.331  88.737  1.00  0.00     0.000 C 
BRANCH   4   5
ATOM      5  C   UNL     1     -23.597  46.322  88.158  1.00  0.00     0.000 C 
BRANCH   5   6
ATOM      6  C   UNL     1     -24.708  45.690  87.295  1.00  0.00     0.000 C 
BRANCH   6   7
ATOM      7  C   UNL     1     -26.105  45.682  87.937  1.00  0.00     0.000 C 
BRANCH   7   8
ATOM      8  C   UNL     1     -26.219  46.646  89.131  1.00  0.00     0.000 C 
BRANCH   8   9
ATOM      9  C   UNL     1     -26.599  45.933  90.440  1.00  0.00     0.000 C 
BRANCH   9  10
ATOM     10  C   UNL     1     -25.957  44.548  90.644  1.00  0.00     0.006 C 
BRANCH  10  11
ATOM     11  C   UNL     1     -26.815  43.576  91.470  1.00  0.00     0.053 C 
BRANCH  11  12
ATOM     12  C   UNL     1     -27.919  42.957  90.667  1.00  0.00     0.041 C 
ATOM     13  O   UNL     1     -27.749  42.705  89.443  1.00  0.00    -0.550 OA
ATOM     14  O   UNL     1     -29.150  42.692  91.259  1.00  0.00    -0.550 OA
ENDBRANCH  11  12
ENDBRANCH  10  11
ENDBRANCH   9  10
ENDBRANCH   8   9
ENDBRANCH   7   8
ENDBRANCH   6   7
ENDBRANCH   5   6
ENDBRANCH   4   5
ENDBRANCH   3   4
ENDBRANCH   2   3
ENDBRANCH   1   2
BRANCH   1  15
ATOM     15  C   UNL     1     -21.243  41.334  91.262  1.00  0.00     0.000 C 
BRANCH  15  16
ATOM     16  C   UNL     1     -20.106  40.295  91.168  1.00  0.00     0.000 C 
BRANCH  16  17
ATOM     17  C   UNL     1     -20.629  38.864  90.945  1.00  0.00     0.000 C 
BRANCH  17  18
ATOM     18  C   UNL     1     -19.611  37.982  90.203  1.00  0.00    -0.000 C 
BRANCH  18  19
ATOM     19  C   UNL     1     -19.571  38.288  88.697  1.00  0.00    -0.000 C 
BRANCH  19  20
ATOM     20  C   UNL     1     -20.984  38.500  88.138  1.00  0.00    -0.000 C 
BRANCH  20  21
ATOM     21  C   UNL     1     -20.980  39.548  87.016  1.00  0.00    -0.000 C 
BRANCH  21  22
ATOM     22  C   UNL     1     -19.587  40.153  86.761  1.00  0.00    -0.000 C 
BRANCH  22  23
ATOM     23  C   UNL     1     -19.481  41.647  87.132  1.00  0.00    -0.000 C 
BRANCH  23  24
ATOM     24  C   UNL     1     -20.421  42.523  86.284  1.00  0.00    -0.000 C 
BRANCH  24  25
ATOM     25  C   UNL     1     -20.034  44.012  86.312  1.00  0.00    -0.003 C 
ATOM     26  C   UNL     1     -18.960  44.362  85.283  1.00  0.00     0.004 C 
ENDBRANCH  24  25
ENDBRANCH  23  24
ENDBRANCH  22  23
ENDBRANCH  21  22
ENDBRANCH  20  21
ENDBRANCH  19  20
ENDBRANCH  18  19
ENDBRANCH  17  18
ENDBRANCH  16  17
ENDBRANCH  15  16
ENDBRANCH   1  15
TORSDOF 22
ENDMDL
MODEL 5
REMARK VINA RESULT:    -5.535      4.596      8.622
REMARK INTER + INTRA:         -14.707
REMARK INTER:                 -12.337
REMARK INTRA:                  -2.371
REMARK UNBOUND:                -2.055
REMARK SMILES CCCCCCCCCCCCCCCCCCCCCCCC(=O)[O-]
REMARK SMILES IDX 13 1 14 2 15 3 16 4 17 5 18 6 19 7 20 8 21 9 22 10 23 11
REMARK SMILES IDX 24 12 25 13 26 14 12 15 11 16 10 17 9 18 8 19 7 20 6 21 5 22
REMARK SMILES IDX 4 23 3 24 2 25 1 26
REMARK H PARENT
REMARK Flexibility Score: inf
ROOT
ATOM      1  C   UNL     1     -19.578  46.253  82.761  1.00  0.00     0.000 C 
ENDROOT
BRANCH   1   2
ATOM      2  C   UNL     1     -21.060  46.322  83.177  1.00  0.00     0.000 C 
BRANCH   2   3
ATOM      3  C   UNL     1     -21.331  47.008  84.537  1.00  0.00     0.000 C 
BRANCH   3   4
ATOM      4  C   UNL     1     -21.941  46.079  85.605  1.00  0.00     0.000 C 
BRANCH   4   5
ATOM      5  C   UNL     1     -23.244  46.582  86.252  1.00  0.00     0.000 C 
BRANCH   5   6
ATOM      6  C   UNL     1     -23.471  46.134  87.709  1.00  0.00     0.000 C 
BRANCH   6   7
ATOM      7  C   UNL     1     -23.662  44.621  87.902  1.00  0.00     0.000 C 
BRANCH   7   8
ATOM      8  C   UNL     1     -24.558  44.280  89.106  1.00  0.00     0.000 C 
BRANCH   8   9
ATOM      9  C   UNL     1     -25.578  45.388  89.423  1.00  0.00     0.000 C 
BRANCH   9  10
ATOM     10  C   UNL     1     -26.620  45.031  90.500  1.00  0.00     0.006 C 
BRANCH  10  11
ATOM     11  C   UNL     1     -26.724  43.526  90.797  1.00  0.00     0.053 C 
BRANCH  11  12
ATOM     12  C   UNL     1     -28.011  42.930  90.311  1.00  0.00     0.041 C 
ATOM     13  O   UNL     1     -28.048  42.309  89.214  1.00  0.00    -0.550 OA
ATOM     14  O   UNL     1     -29.179  43.091  91.050  1.00  0.00    -0.550 OA
ENDBRANCH  11  12
ENDBRANCH  10  11
ENDBRANCH   9  10
ENDBRANCH   8   9
ENDBRANCH   7   8
ENDBRANCH   6   7
ENDBRANCH   5   6
ENDBRANCH   4   5
ENDBRANCH   3   4
ENDBRANCH   2   3
ENDBRANCH   1   2
BRANCH   1  15
ATOM     15  C   UNL     1     -18.589  47.047  83.639  1.00  0.00     0.000 C 
BRANCH  15  16
ATOM     16  C   UNL     1     -17.641  46.176  84.490  1.00  0.00     0.000 C 
BRANCH  16  17
ATOM     17  C   UNL     1     -18.073  44.699  84.532  1.00  0.00     0.000 C 
BRANCH  17  18
ATOM     18  C   UNL     1     -18.931  44.379  85.767  1.00  0.00    -0.000 C 
BRANCH  18  19
ATOM     19  C   UNL     1     -19.261  42.880  85.869  1.00  0.00    -0.000 C 
BRANCH  19  20
ATOM     20  C   UNL     1     -20.632  42.658  86.520  1.00  0.00    -0.000 C 
BRANCH  20  21
ATOM     21  C   UNL     1     -20.572  42.924  88.031  1.00  0.00    -0.000 C 
BRANCH  21  22
ATOM     22  C   UNL     1     -20.857  41.670  88.877  1.00  0.00    -0.000 C 
BRANCH  22  23
ATOM     23  C   UNL     1     -21.186  40.417  88.039  1.00  0.00    -0.000 C 
BRANCH  23  24
ATOM     24  C   UNL     1     -20.708  39.122  88.721  1.00  0.00    -0.000 C 
BRANCH  24  25
ATOM     25  C   UNL     1     -20.020  38.153  87.745  1.00  0.00    -0.003 C 
ATOM     26  C   UNL     1     -20.091  38.627  86.294  1.00  0.00     0.004 C 
ENDBRANCH  24  25
ENDBRANCH  23  24
ENDBRANCH  22  23
ENDBRANCH  21  22
ENDBRANCH  20  21
ENDBRANCH  19  20
ENDBRANCH  18  19
ENDBRANCH  17  18
ENDBRANCH  16  17
ENDBRANCH  15  16
ENDBRANCH   1  15
TORSDOF 22
ENDMDL
MODEL 6
REMARK VINA RESULT:    -5.523      4.795      8.351
REMARK INTER + INTRA:         -14.680
REMARK INTER:                 -12.298
REMARK INTRA:                  -2.382
REMARK UNBOUND:                -2.055
REMARK SMILES CCCCCCCCCCCCCCCCCCCCCCCC(=O)[O-]
REMARK SMILES IDX 13 1 14 2 15 3 16 4 17 5 18 6 19 7 20 8 21 9 22 10 23 11
REMARK SMILES IDX 24 12 25 13 26 14 12 15 11 16 10 17 9 18 8 19 7 20 6 21 5 22
REMARK SMILES IDX 4 23 3 24 2 25 1 26
REMARK H PARENT
REMARK Flexibility Score: inf
ROOT
ATOM      1  C   UNL     1     -19.177  43.980  85.778  1.00  0.00     0.000 C 
ENDROOT
BRANCH   1   2
ATOM      2  C   UNL     1     -19.645  45.387  85.358  1.00  0.00     0.000 C 
BRANCH   2   3
ATOM      3  C   UNL     1     -21.057  45.451  84.730  1.00  0.00     0.000 C 
BRANCH   3   4
ATOM      4  C   UNL     1     -22.065  46.305  85.524  1.00  0.00     0.000 C 
BRANCH   4   5
ATOM      5  C   UNL     1     -22.086  46.060  87.044  1.00  0.00     0.000 C 
BRANCH   5   6
ATOM      6  C   UNL     1     -23.397  45.467  87.598  1.00  0.00     0.000 C 
BRANCH   6   7
ATOM      7  C   UNL     1     -24.681  46.017  86.956  1.00  0.00     0.000 C 
BRANCH   7   8
ATOM      8  C   UNL     1     -25.951  45.632  87.737  1.00  0.00     0.000 C 
BRANCH   8   9
ATOM      9  C   UNL     1     -26.187  46.524  88.968  1.00  0.00     0.000 C 
BRANCH   9  10
ATOM     10  C   UNL     1     -26.475  45.769  90.280  1.00  0.00     0.006 C 
BRANCH  10  11
ATOM     11  C   UNL     1     -26.526  44.240  90.124  1.00  0.00     0.053 C 
BRANCH  11  12
ATOM     12  C   UNL     1     -27.652  43.619  90.895  1.00  0.00     0.041 C 
ATOM     13  O   UNL     1     -28.836  44.015  90.719  1.00  0.00    -0.550 OA
ATOM     14  O   UNL     1     -27.391  42.629  91.838  1.00  0.00    -0.550 OA
ENDBRANCH  11  12
ENDBRANCH  10  11
ENDBRANCH   9  10
ENDBRANCH   8   9
ENDBRANCH   7   8
ENDBRANCH   6   7
ENDBRANCH   5   6
ENDBRANCH   4   5
ENDBRANCH   3   4
ENDBRANCH   2   3
ENDBRANCH   1   2
BRANCH   1  15
ATOM     15  C   UNL     1     -20.292  42.952  86.066  1.00  0.00     0.000 C 
BRANCH  15  16
ATOM     16  C   UNL     1     -20.504  42.638  87.562  1.00  0.00     0.000 C 
BRANCH  16  17
ATOM     17  C   UNL     1     -20.580  41.126  87.843  1.00  0.00     0.000 C 
BRANCH  17  18
ATOM     18  C   UNL     1     -19.548  40.330  87.028  1.00  0.00    -0.000 C 
BRANCH  18  19
ATOM     19  C   UNL     1     -20.016  38.891  86.752  1.00  0.00    -0.000 C 
BRANCH  19  20
ATOM     20  C   UNL     1     -20.562  38.233  88.026  1.00  0.00    -0.000 C 
BRANCH  20  21
ATOM     21  C   UNL     1     -19.472  37.412  88.730  1.00  0.00    -0.000 C 
BRANCH  21  22
ATOM     22  C   UNL     1     -19.198  37.882  90.170  1.00  0.00    -0.000 C 
BRANCH  22  23
ATOM     23  C   UNL     1     -20.318  38.766  90.759  1.00  0.00    -0.000 C 
BRANCH  23  24
ATOM     24  C   UNL     1     -19.769  39.824  91.733  1.00  0.00    -0.000 C 
BRANCH  24  25
ATOM     25  C   UNL     1     -18.788  40.800  91.060  1.00  0.00    -0.003 C 
ATOM     26  C   UNL     1     -17.432  40.854  91.764  1.00  0.00     0.004 C 
ENDBRANCH  24  25
ENDBRANCH  23  24
ENDBRANCH  22  23
ENDBRANCH  21  22
ENDBRANCH  20  21
ENDBRANCH  19  20
ENDBRANCH  18  19
ENDBRANCH  17  18
ENDBRANCH  16  17
ENDBRANCH  15  16
ENDBRANCH   1  15
TORSDOF 22
ENDMDL
MODEL 7
REMARK VINA RESULT:    -5.521      4.946      9.531
REMARK INTER + INTRA:         -14.677
REMARK INTER:                 -11.780
REMARK INTRA:                  -2.897
REMARK UNBOUND:                -2.055
REMARK SMILES CCCCCCCCCCCCCCCCCCCCCCCC(=O)[O-]
REMARK SMILES IDX 13 1 14 2 15 3 16 4 17 5 18 6 19 7 20 8 21 9 22 10 23 11
REMARK SMILES IDX 24 12 25 13 26 14 12 15 11 16 10 17 9 18 8 19 7 20 6 21 5 22
REMARK SMILES IDX 4 23 3 24 2 25 1 26
REMARK H PARENT
REMARK Flexibility Score: inf
ROOT
ATOM      1  C   UNL     1     -21.399  41.862  90.078  1.00  0.00     0.000 C 
ENDROOT
BRANCH   1   2
ATOM      2  C   UNL     1     -20.245  41.121  89.375  1.00  0.00     0.000 C 
BRANCH   2   3
ATOM      3  C   UNL     1     -20.665  40.225  88.186  1.00  0.00     0.000 C 
BRANCH   3   4
ATOM      4  C   UNL     1     -20.903  40.990  86.869  1.00  0.00     0.000 C 
BRANCH   4   5
ATOM      5  C   UNL     1     -19.809  42.004  86.488  1.00  0.00     0.000 C 
BRANCH   5   6
ATOM      6  C   UNL     1     -20.321  43.345  85.924  1.00  0.00     0.000 C 
BRANCH   6   7
ATOM      7  C   UNL     1     -19.346  44.525  86.068  1.00  0.00     0.000 C 
BRANCH   7   8
ATOM      8  C   UNL     1     -18.254  44.533  84.984  1.00  0.00     0.000 C 
BRANCH   8   9
ATOM      9  C   UNL     1     -17.553  45.896  84.852  1.00  0.00     0.000 C 
BRANCH   9  10
ATOM     10  C   UNL     1     -18.408  47.018  84.233  1.00  0.00     0.006 C 
BRANCH  10  11
ATOM     11  C   UNL     1     -19.196  46.587  82.985  1.00  0.00     0.053 C 
BRANCH  11  12
ATOM     12  C   UNL     1     -20.680  46.621  83.200  1.00  0.00     0.041 C 
ATOM     13  O   UNL     1     -21.464  46.322  82.260  1.00  0.00    -0.550 OA
ATOM     14  O   UNL     1     -21.198  47.021  84.429  1.00  0.00    -0.550 OA
ENDBRANCH  11  12
ENDBRANCH  10  11
ENDBRANCH   9  10
ENDBRANCH   8   9
ENDBRANCH   7   8
ENDBRANCH   6   7
ENDBRANCH   5   6
ENDBRANCH   4   5
ENDBRANCH   3   4
ENDBRANCH   2   3
ENDBRANCH   1   2
BRANCH   1  15
ATOM     15  C   UNL     1     -21.776  43.240  89.495  1.00  0.00     0.000 C 
BRANCH  15  16
ATOM     16  C   UNL     1     -23.248  43.369  89.049  1.00  0.00     0.000 C 
BRANCH  16  17
ATOM     17  C   UNL     1     -23.397  44.096  87.701  1.00  0.00     0.000 C 
BRANCH  17  18
ATOM     18  C   UNL     1     -22.804  45.514  87.736  1.00  0.00    -0.000 C 
BRANCH  18  19
ATOM     19  C   UNL     1     -23.860  46.590  87.432  1.00  0.00    -0.000 C 
BRANCH  19  20
ATOM     20  C   UNL     1     -25.222  45.955  87.119  1.00  0.00    -0.000 C 
BRANCH  20  21
ATOM     21  C   UNL     1     -26.296  46.452  88.096  1.00  0.00    -0.000 C 
BRANCH  21  22
ATOM     22  C   UNL     1     -25.774  46.616  89.535  1.00  0.00    -0.000 C 
BRANCH  22  23
ATOM     23  C   UNL     1     -26.655  45.926  90.598  1.00  0.00    -0.000 C 
BRANCH  23  24
ATOM     24  C   UNL     1     -26.450  44.401  90.620  1.00  0.00    -0.000 C 
BRANCH  24  25
ATOM     25  C   UNL     1     -27.755  43.628  90.878  1.00  0.00    -0.003 C 
ATOM     26  C   UNL     1     -28.085  42.637  89.762  1.00  0.00     0.004 C 
ENDBRANCH  24  25
ENDBRANCH  23  24
ENDBRANCH  22  23
ENDBRANCH  21  22
ENDBRANCH  20  21
ENDBRANCH  19  20
ENDBRANCH  18  19
ENDBRANCH  17  18
ENDBRANCH  16  17
ENDBRANCH  15  16
ENDBRANCH   1  15
TORSDOF 22
ENDMDL
MODEL 8
REMARK VINA RESULT:    -5.516      5.008      8.323
REMARK INTER + INTRA:         -14.666
REMARK INTER:                 -12.167
REMARK INTRA:                  -2.500
REMARK UNBOUND:                -2.055
REMARK SMILES CCCCCCCCCCCCCCCCCCCCCCCC(=O)[O-]
REMARK SMILES IDX 13 1 14 2 15 3 16 4 17 5 18 6 19 7 20 8 21 9 22 10 23 11
REMARK SMILES IDX 24 12 25 13 26 14 12 15 11 16 10 17 9 18 8 19 7 20 6 21 5 22
REMARK SMILES IDX 4 23 3 24 2 25 1 26
REMARK H PARENT
REMARK Flexibility Score: inf
ROOT
ATOM      1  C   UNL     1     -19.923  44.385  86.217  1.00  0.00     0.000 C 
ENDROOT
BRANCH   1   2
ATOM      2  C   UNL     1     -20.623  45.059  85.021  1.00  0.00     0.000 C 
BRANCH   2   3
ATOM      3  C   UNL     1     -21.811  45.980  85.385  1.00  0.00     0.000 C 
BRANCH   3   4
ATOM      4  C   UNL     1     -21.646  46.726  86.724  1.00  0.00     0.000 C 
BRANCH   4   5
ATOM      5  C   UNL     1     -22.765  46.490  87.754  1.00  0.00     0.000 C 
BRANCH   5   6
ATOM      6  C   UNL     1     -23.925  45.595  87.273  1.00  0.00     0.000 C 
BRANCH   6   7
ATOM      7  C   UNL     1     -25.212  46.347  86.894  1.00  0.00     0.000 C 
BRANCH   7   8
ATOM      8  C   UNL     1     -26.239  46.388  88.039  1.00  0.00     0.000 C 
BRANCH   8   9
ATOM      9  C   UNL     1     -25.943  45.358  89.143  1.00  0.00     0.000 C 
BRANCH   9  10
ATOM     10  C   UNL     1     -27.031  45.225  90.226  1.00  0.00     0.006 C 
BRANCH  10  11
ATOM     11  C   UNL     1     -27.014  43.879  90.969  1.00  0.00     0.053 C 
BRANCH  11  12
ATOM     12  C   UNL     1     -28.164  42.996  90.588  1.00  0.00     0.041 C 
ATOM     13  O   UNL     1     -28.955  42.567  91.472  1.00  0.00    -0.550 OA
ATOM     14  O   UNL     1     -28.343  42.614  89.261  1.00  0.00    -0.550 OA
ENDBRANCH  11  12
ENDBRANCH  10  11
ENDBRANCH   9  10
ENDBRANCH   8   9
ENDBRANCH   7   8
ENDBRANCH   6   7
ENDBRANCH   5   6
ENDBRANCH   4   5
ENDBRANCH   3   4
ENDBRANCH   2   3
ENDBRANCH   1   2
BRANCH   1  15
ATOM     15  C   UNL     1     -19.726  42.858  86.116  1.00  0.00     0.000 C 
BRANCH  15  16
ATOM     16  C   UNL     1     -20.766  42.022  86.890  1.00  0.00     0.000 C 
BRANCH  16  17
ATOM     17  C   UNL     1     -21.608  42.873  87.857  1.00  0.00     0.000 C 
BRANCH  17  18
ATOM     18  C   UNL     1     -21.597  42.309  89.288  1.00  0.00    -0.000 C 
BRANCH  18  19
ATOM     19  C   UNL     1     -20.366  41.425  89.551  1.00  0.00    -0.000 C 
BRANCH  19  20
ATOM     20  C   UNL     1     -20.268  41.039  91.033  1.00  0.00    -0.000 C 
BRANCH  20  21
ATOM     21  C   UNL     1     -18.859  40.539  91.378  1.00  0.00    -0.000 C 
BRANCH  21  22
ATOM     22  C   UNL     1     -18.153  39.856  90.191  1.00  0.00    -0.000 C 
BRANCH  22  23
ATOM     23  C   UNL     1     -18.183  38.315  90.253  1.00  0.00    -0.000 C 
BRANCH  23  24
ATOM     24  C   UNL     1     -19.486  37.736  89.671  1.00  0.00    -0.000 C 
BRANCH  24  25
ATOM     25  C   UNL     1     -19.583  37.905  88.146  1.00  0.00    -0.003 C 
ATOM     26  C   UNL     1     -20.961  38.383  87.690  1.00  0.00     0.004 C 
ENDBRANCH  24  25
ENDBRANCH  23  24
ENDBRANCH  22  23
ENDBRANCH  21  22
ENDBRANCH  20  21
ENDBRANCH  19  20
ENDBRANCH  18  19
ENDBRANCH  17  18
ENDBRANCH  16  17
ENDBRANCH  15  16
ENDBRANCH   1  15
TORSDOF 22
ENDMDL
MODEL 9
REMARK VINA RESULT:    -5.439      5.054      8.191
REMARK INTER + INTRA:         -14.489
REMARK INTER:                 -11.826
REMARK INTRA:                  -2.663
REMARK UNBOUND:                -2.055
REMARK SMILES CCCCCCCCCCCCCCCCCCCCCCCC(=O)[O-]
REMARK SMILES IDX 13 1 14 2 15 3 16 4 17 5 18 6 19 7 20 8 21 9 22 10 23 11
REMARK SMILES IDX 24 12 25 13 26 14 12 15 11 16 10 17 9 18 8 19 7 20 6 21 5 22
REMARK SMILES IDX 4 23 3 24 2 25 1 26
REMARK H PARENT
REMARK Flexibility Score: inf
ROOT
ATOM      1  C   UNL     1     -18.441  45.323  83.938  1.00  0.00     0.000 C 
ENDROOT
BRANCH   1   2
ATOM      2  C   UNL     1     -19.177  46.666  83.761  1.00  0.00     0.000 C 
BRANCH   2   3
ATOM      3  C   UNL     1     -20.161  47.032  84.896  1.00  0.00     0.000 C 
BRANCH   3   4
ATOM      4  C   UNL     1     -21.597  46.514  84.681  1.00  0.00     0.000 C 
BRANCH   4   5
ATOM      5  C   UNL     1     -22.506  46.552  85.923  1.00  0.00     0.000 C 
BRANCH   5   6
ATOM      6  C   UNL     1     -21.774  46.469  87.278  1.00  0.00     0.000 C 
BRANCH   6   7
ATOM      7  C   UNL     1     -22.465  45.596  88.338  1.00  0.00     0.000 C 
BRANCH   7   8
ATOM      8  C   UNL     1     -23.653  44.798  87.772  1.00  0.00     0.000 C 
BRANCH   8   9
ATOM      9  C   UNL     1     -23.955  43.523  88.579  1.00  0.00     0.000 C 
BRANCH   9  10
ATOM     10  C   UNL     1     -24.776  43.739  89.865  1.00  0.00     0.006 C 
BRANCH  10  11
ATOM     11  C   UNL     1     -26.192  44.285  89.619  1.00  0.00     0.053 C 
BRANCH  11  12
ATOM     12  C   UNL     1     -27.259  43.394  90.179  1.00  0.00     0.041 C 
ATOM     13  O   UNL     1     -27.709  43.595  91.340  1.00  0.00    -0.550 OA
ATOM     14  O   UNL     1     -27.730  42.316  89.436  1.00  0.00    -0.550 OA
ENDBRANCH  11  12
ENDBRANCH  10  11
ENDBRANCH   9  10
ENDBRANCH   8   9
ENDBRANCH   7   8
ENDBRANCH   6   7
ENDBRANCH   5   6
ENDBRANCH   4   5
ENDBRANCH   3   4
ENDBRANCH   2   3
ENDBRANCH   1   2
BRANCH   1  15
ATOM     15  C   UNL     1     -18.359  44.780  85.379  1.00  0.00     0.000 C 
BRANCH  15  16
ATOM     16  C   UNL     1     -18.945  43.365  85.567  1.00  0.00     0.000 C 
BRANCH  16  17
ATOM     17  C   UNL     1     -20.384  43.388  86.113  1.00  0.00     0.000 C 
BRANCH  17  18
ATOM     18  C   UNL     1     -20.546  42.509  87.364  1.00  0.00    -0.000 C 
BRANCH  18  19
ATOM     19  C   UNL     1     -21.326  41.217  87.065  1.00  0.00    -0.000 C 
BRANCH  19  20
ATOM     20  C   UNL     1     -21.149  40.190  88.191  1.00  0.00    -0.000 C 
BRANCH  20  21
ATOM     21  C   UNL     1     -21.004  38.771  87.623  1.00  0.00    -0.000 C 
BRANCH  21  22
ATOM     22  C   UNL     1     -19.769  38.028  88.164  1.00  0.00    -0.000 C 
BRANCH  22  23
ATOM     23  C   UNL     1     -19.690  37.992  89.704  1.00  0.00    -0.000 C 
BRANCH  23  24
ATOM     24  C   UNL     1     -18.241  38.097  90.214  1.00  0.00    -0.000 C 
BRANCH  24  25
ATOM     25  C   UNL     1     -17.712  39.542  90.209  1.00  0.00    -0.003 C 
ATOM     26  C   UNL     1     -18.676  40.527  90.870  1.00  0.00     0.004 C 
ENDBRANCH  24  25
ENDBRANCH  23  24
ENDBRANCH  22  23
ENDBRANCH  21  22
ENDBRANCH  20  21
ENDBRANCH  19  20
ENDBRANCH  18  19
ENDBRANCH  17  18
ENDBRANCH  16  17
ENDBRANCH  15  16
ENDBRANCH   1  15
TORSDOF 22
ENDMDL
