MODEL 1
REMARK VINA RESULT:    -3.980      0.000      0.000
REMARK INTER + INTRA:          -5.113
REMARK INTER:                  -4.911
REMARK INTRA:                  -0.202
REMARK UNBOUND:                -0.202
REMARK SMILES CCCCC=CC(C)=O
REMARK SMILES IDX 4 1 3 2 2 3 1 4 5 5 6 6 7 7 9 8 8 9
REMARK H PARENT
REMARK Flexibility Score: inf
ROOT
ATOM      1  C   UNL     1      -0.704   0.340  29.199  1.00  0.00     0.027 C 
ENDROOT
BRANCH   1   2
ATOM      2  C   UNL     1      -1.143   0.789  27.801  1.00  0.00     0.004 C 
BRANCH   2   3
ATOM      3  C   UNL     1      -1.178  -0.395  26.828  1.00  0.00    -0.003 C 
ATOM      4  C   UNL     1      -2.291  -0.232  25.798  1.00  0.00     0.004 C 
ENDBRANCH   2   3
ENDBRANCH   1   2
BRANCH   1   5
ATOM      5  C   UNL     1      -1.790   0.569  30.210  1.00  0.00    -0.023 C 
ATOM      6  C   UNL     1      -2.968  -0.060  30.122  1.00  0.00     0.042 C 
BRANCH   6   7
ATOM      7  C   UNL     1      -4.070   0.142  31.086  1.00  0.00     0.152 C 
ATOM      8  O   UNL     1      -4.048   1.164  31.821  1.00  0.00    -0.295 OA
ATOM      9  C   UNL     1      -5.210  -0.822  31.219  1.00  0.00     0.093 C 
ENDBRANCH   6   7
ENDBRANCH   1   5
TORSDOF 4
ENDMDL
MODEL 2
REMARK VINA RESULT:    -3.731     17.149     18.068
REMARK INTER + INTRA:          -4.806
REMARK INTER:                  -4.638
REMARK INTRA:                  -0.167
REMARK UNBOUND:                -0.202
REMARK SMILES CCCCC=CC(C)=O
REMARK SMILES IDX 4 1 3 2 2 3 1 4 5 5 6 6 7 7 9 8 8 9
REMARK H PARENT
REMARK Flexibility Score: inf
ROOT
ATOM      1  C   UNL     1     -12.205  11.952  18.086  1.00  0.00     0.027 C 
ENDROOT
BRANCH   1   2
ATOM      2  C   UNL     1     -10.811  11.413  18.422  1.00  0.00     0.004 C 
BRANCH   2   3
ATOM      3  C   UNL     1      -9.752  12.516  18.309  1.00  0.00    -0.003 C 
ATOM      4  C   UNL     1      -8.762  12.453  19.467  1.00  0.00     0.004 C 
ENDBRANCH   2   3
ENDBRANCH   1   2
BRANCH   1   5
ATOM      5  C   UNL     1     -13.239  11.414  19.033  1.00  0.00    -0.023 C 
ATOM      6  C   UNL     1     -13.335  11.864  20.290  1.00  0.00     0.042 C 
BRANCH   6   7
ATOM      7  C   UNL     1     -14.327  11.357  21.260  1.00  0.00     0.152 C 
ATOM      8  O   UNL     1     -14.808  10.206  21.085  1.00  0.00    -0.295 OA
ATOM      9  C   UNL     1     -14.780  12.160  22.442  1.00  0.00     0.093 C 
ENDBRANCH   6   7
ENDBRANCH   1   5
TORSDOF 4
ENDMDL
MODEL 3
REMARK VINA RESULT:    -3.622      1.456      2.414
REMARK INTER + INTRA:          -4.670
REMARK INTER:                  -4.396
REMARK INTRA:                  -0.274
REMARK UNBOUND:                -0.202
REMARK SMILES CCCCC=CC(C)=O
REMARK SMILES IDX 4 1 3 2 2 3 1 4 5 5 6 6 7 7 9 8 8 9
REMARK H PARENT
REMARK Flexibility Score: inf
ROOT
ATOM      1  C   UNL     1      -2.862  -0.374  27.325  1.00  0.00     0.027 C 
ENDROOT
BRANCH   1   2
ATOM      2  C   UNL     1      -1.365  -0.043  27.355  1.00  0.00     0.004 C 
BRANCH   2   3
ATOM      3  C   UNL     1      -1.106   1.265  28.113  1.00  0.00    -0.003 C 
ATOM      4  C   UNL     1      -0.102   1.060  29.242  1.00  0.00     0.004 C 
ENDBRANCH   2   3
ENDBRANCH   1   2
BRANCH   1   5
ATOM      5  C   UNL     1      -3.553   0.121  28.563  1.00  0.00    -0.023 C 
ATOM      6  C   UNL     1      -3.987  -0.725  29.504  1.00  0.00     0.042 C 
BRANCH   6   7
ATOM      7  C   UNL     1      -4.683  -0.286  30.732  1.00  0.00     0.152 C 
ATOM      8  O   UNL     1      -5.481  -1.085  31.291  1.00  0.00    -0.295 OA
ATOM      9  C   UNL     1      -4.475   1.071  31.333  1.00  0.00     0.093 C 
ENDBRANCH   6   7
ENDBRANCH   1   5
TORSDOF 4
ENDMDL
MODEL 4
REMARK VINA RESULT:    -3.619     13.784     15.157
REMARK INTER + INTRA:          -4.668
REMARK INTER:                  -4.534
REMARK INTRA:                  -0.134
REMARK UNBOUND:                -0.202
REMARK SMILES CCCCC=CC(C)=O
REMARK SMILES IDX 4 1 3 2 2 3 1 4 5 5 6 6 7 7 9 8 8 9
REMARK H PARENT
REMARK Flexibility Score: inf
ROOT
ATOM      1  C   UNL     1     -10.774  10.809  31.491  1.00  0.00     0.027 C 
ENDROOT
BRANCH   1   2
ATOM      2  C   UNL     1     -11.101   9.554  32.308  1.00  0.00     0.004 C 
BRANCH   2   3
ATOM      3  C   UNL     1     -10.610   9.695  33.754  1.00  0.00    -0.003 C 
ATOM      4  C   UNL     1      -9.343   8.880  33.990  1.00  0.00     0.004 C 
ENDBRANCH   2   3
ENDBRANCH   1   2
BRANCH   1   5
ATOM      5  C   UNL     1     -11.991  11.670  31.308  1.00  0.00    -0.023 C 
ATOM      6  C   UNL     1     -13.078  11.214  30.673  1.00  0.00     0.042 C 
BRANCH   6   7
ATOM      7  C   UNL     1     -14.293  12.028  30.458  1.00  0.00     0.152 C 
ATOM      8  O   UNL     1     -14.493  13.023  31.204  1.00  0.00    -0.295 OA
ATOM      9  C   UNL     1     -15.293  11.712  29.387  1.00  0.00     0.093 C 
ENDBRANCH   6   7
ENDBRANCH   1   5
TORSDOF 4
ENDMDL
MODEL 5
REMARK VINA RESULT:    -3.614     10.333     12.233
REMARK INTER + INTRA:          -4.661
REMARK INTER:                  -4.546
REMARK INTRA:                  -0.115
REMARK UNBOUND:                -0.202
REMARK SMILES CCCCC=CC(C)=O
REMARK SMILES IDX 4 1 3 2 2 3 1 4 5 5 6 6 7 7 9 8 8 9
REMARK H PARENT
REMARK Flexibility Score: inf
ROOT
ATOM      1  C   UNL     1     -14.238   1.502  28.231  1.00  0.00     0.027 C 
ENDROOT
BRANCH   1   2
ATOM      2  C   UNL     1     -15.014   2.823  28.278  1.00  0.00     0.004 C 
BRANCH   2   3
ATOM      3  C   UNL     1     -16.523   2.579  28.167  1.00  0.00    -0.003 C 
ATOM      4  C   UNL     1     -17.183   3.603  27.249  1.00  0.00     0.004 C 
ENDBRANCH   2   3
ENDBRANCH   1   2
BRANCH   1   5
ATOM      5  C   UNL     1     -14.174   0.861  29.587  1.00  0.00    -0.023 C 
ATOM      6  C   UNL     1     -13.030   0.808  30.280  1.00  0.00     0.042 C 
BRANCH   6   7
ATOM      7  C   UNL     1     -12.916   0.177  31.611  1.00  0.00     0.152 C 
ATOM      8  O   UNL     1     -13.736  -0.728  31.922  1.00  0.00    -0.295 OA
ATOM      9  C   UNL     1     -11.864   0.573  32.602  1.00  0.00     0.093 C 
ENDBRANCH   6   7
ENDBRANCH   1   5
TORSDOF 4
ENDMDL
MODEL 6
REMARK VINA RESULT:    -3.601     10.644     12.029
REMARK INTER + INTRA:          -4.645
REMARK INTER:                  -4.404
REMARK INTRA:                  -0.241
REMARK UNBOUND:                -0.202
REMARK SMILES CCCCC=CC(C)=O
REMARK SMILES IDX 4 1 3 2 2 3 1 4 5 5 6 6 7 7 9 8 8 9
REMARK H PARENT
REMARK Flexibility Score: inf
ROOT
ATOM      1  C   UNL     1     -12.389   0.352  32.734  1.00  0.00     0.027 C 
ENDROOT
BRANCH   1   2
ATOM      2  C   UNL     1     -12.879   1.726  33.204  1.00  0.00     0.004 C 
BRANCH   2   3
ATOM      3  C   UNL     1     -13.469   1.646  34.617  1.00  0.00    -0.003 C 
ATOM      4  C   UNL     1     -14.985   1.483  34.574  1.00  0.00     0.004 C 
ENDBRANCH   2   3
ENDBRANCH   1   2
BRANCH   1   5
ATOM      5  C   UNL     1     -12.819   0.074  31.322  1.00  0.00    -0.023 C 
ATOM      6  C   UNL     1     -13.348   1.034  30.554  1.00  0.00     0.042 C 
BRANCH   6   7
ATOM      7  C   UNL     1     -13.797   0.805  29.165  1.00  0.00     0.152 C 
ATOM      8  O   UNL     1     -14.912   1.270  28.807  1.00  0.00    -0.295 OA
ATOM      9  C   UNL     1     -12.977   0.042  28.169  1.00  0.00     0.093 C 
ENDBRANCH   6   7
ENDBRANCH   1   5
TORSDOF 4
ENDMDL
MODEL 7
REMARK VINA RESULT:    -3.596     10.643     11.611
REMARK INTER + INTRA:          -4.639
REMARK INTER:                  -4.383
REMARK INTRA:                  -0.256
REMARK UNBOUND:                -0.202
REMARK SMILES CCCCC=CC(C)=O
REMARK SMILES IDX 4 1 3 2 2 3 1 4 5 5 6 6 7 7 9 8 8 9
REMARK H PARENT
REMARK Flexibility Score: inf
ROOT
ATOM      1  C   UNL     1     -12.609  -0.051  31.175  1.00  0.00     0.027 C 
ENDROOT
BRANCH   1   2
ATOM      2  C   UNL     1     -12.736   0.878  29.962  1.00  0.00     0.004 C 
BRANCH   2   3
ATOM      3  C   UNL     1     -13.995   0.553  29.149  1.00  0.00    -0.003 C 
ATOM      4  C   UNL     1     -14.690   1.824  28.674  1.00  0.00     0.004 C 
ENDBRANCH   2   3
ENDBRANCH   1   2
BRANCH   1   5
ATOM      5  C   UNL     1     -13.365   0.490  32.355  1.00  0.00    -0.023 C 
ATOM      6  C   UNL     1     -13.361   1.796  32.647  1.00  0.00     0.042 C 
BRANCH   6   7
ATOM      7  C   UNL     1     -14.079   2.371  33.803  1.00  0.00     0.152 C 
ATOM      8  O   UNL     1     -14.655   3.483  33.663  1.00  0.00    -0.295 OA
ATOM      9  C   UNL     1     -14.147   1.681  35.132  1.00  0.00     0.093 C 
ENDBRANCH   6   7
ENDBRANCH   1   5
TORSDOF 4
ENDMDL
MODEL 8
REMARK VINA RESULT:    -3.581     14.925     16.488
REMARK INTER + INTRA:          -4.620
REMARK INTER:                  -4.404
REMARK INTRA:                  -0.216
REMARK UNBOUND:                -0.202
REMARK SMILES CCCCC=CC(C)=O
REMARK SMILES IDX 4 1 3 2 2 3 1 4 5 5 6 6 7 7 9 8 8 9
REMARK H PARENT
REMARK Flexibility Score: inf
ROOT
ATOM      1  C   UNL     1     -15.306  12.005  30.238  1.00  0.00     0.027 C 
ENDROOT
BRANCH   1   2
ATOM      2  C   UNL     1     -15.543  10.534  29.878  1.00  0.00     0.004 C 
BRANCH   2   3
ATOM      3  C   UNL     1     -16.239   9.792  31.026  1.00  0.00    -0.003 C 
ATOM      4  C   UNL     1     -17.510  10.514  31.460  1.00  0.00     0.004 C 
ENDBRANCH   2   3
ENDBRANCH   1   2
BRANCH   1   5
ATOM      5  C   UNL     1     -13.934  12.210  30.814  1.00  0.00    -0.023 C 
ATOM      6  C   UNL     1     -12.871  11.557  30.330  1.00  0.00     0.042 C 
BRANCH   6   7
ATOM      7  C   UNL     1     -11.505  11.716  30.872  1.00  0.00     0.152 C 
ATOM      8  O   UNL     1     -11.266  11.300  32.037  1.00  0.00    -0.295 OA
ATOM      9  C   UNL     1     -10.398  12.352  30.087  1.00  0.00     0.093 C 
ENDBRANCH   6   7
ENDBRANCH   1   5
TORSDOF 4
ENDMDL
MODEL 9
REMARK VINA RESULT:    -3.579      2.050      5.210
REMARK INTER + INTRA:          -4.618
REMARK INTER:                  -4.475
REMARK INTRA:                  -0.143
REMARK UNBOUND:                -0.202
REMARK SMILES CCCCC=CC(C)=O
REMARK SMILES IDX 4 1 3 2 2 3 1 4 5 5 6 6 7 7 9 8 8 9
REMARK H PARENT
REMARK Flexibility Score: inf
ROOT
ATOM      1  C   UNL     1      -5.107  -0.766  30.173  1.00  0.00     0.027 C 
ENDROOT
BRANCH   1   2
ATOM      2  C   UNL     1      -5.149  -0.698  31.703  1.00  0.00     0.004 C 
BRANCH   2   3
ATOM      3  C   UNL     1      -4.876   0.727  32.199  1.00  0.00    -0.003 C 
ATOM      4  C   UNL     1      -6.068   1.281  32.972  1.00  0.00     0.004 C 
ENDBRANCH   2   3
ENDBRANCH   1   2
BRANCH   1   5
ATOM      5  C   UNL     1      -3.694  -0.710  29.665  1.00  0.00    -0.023 C 
ATOM      6  C   UNL     1      -3.408  -0.222  28.452  1.00  0.00     0.042 C 
BRANCH   6   7
ATOM      7  C   UNL     1      -2.037  -0.158  27.906  1.00  0.00     0.152 C 
ATOM      8  O   UNL     1      -1.089   0.124  28.686  1.00  0.00    -0.295 OA
ATOM      9  C   UNL     1      -1.734  -0.415  26.461  1.00  0.00     0.093 C 
ENDBRANCH   6   7
ENDBRANCH   1   5
TORSDOF 4
ENDMDL
