MODEL 1
REMARK VINA RESULT:    -3.018      0.000      0.000
REMARK INTER + INTRA:          -7.966
REMARK INTER:                  -5.577
REMARK INTRA:                  -2.389
REMARK UNBOUND:                -2.389
REMARK SMILES CCCCCCCCCCCCCCCCO
REMARK SMILES IDX 9 1 8 2 7 3 6 4 5 5 4 6 3 7 2 8 1 9 10 10 11 11 12 12 13 13
REMARK SMILES IDX 14 14 15 15 16 16 17 17
REMARK H PARENT 17 18
REMARK Flexibility Score: inf
ROOT
ATOM      1  C   UNL     1      10.281   2.420  34.131  1.00  0.00     0.000 C 
ENDROOT
BRANCH   1   2
ATOM      2  C   UNL     1       9.204   1.350  33.883  1.00  0.00    -0.000 C 
BRANCH   2   3
ATOM      3  C   UNL     1       9.330   0.695  32.497  1.00  0.00    -0.000 C 
BRANCH   3   4
ATOM      4  C   UNL     1       8.193   1.104  31.544  1.00  0.00    -0.000 C 
BRANCH   4   5
ATOM      5  C   UNL     1       8.716   1.631  30.198  1.00  0.00    -0.000 C 
BRANCH   5   6
ATOM      6  C   UNL     1      10.252   1.621  30.112  1.00  0.00    -0.000 C 
BRANCH   6   7
ATOM      7  C   UNL     1      10.841   3.010  29.807  1.00  0.00    -0.000 C 
BRANCH   7   8
ATOM      8  C   UNL     1      12.142   3.337  30.563  1.00  0.00    -0.003 C 
ATOM      9  C   UNL     1      12.693   2.147  31.347  1.00  0.00     0.004 C 
ENDBRANCH   7   8
ENDBRANCH   6   7
ENDBRANCH   5   6
ENDBRANCH   4   5
ENDBRANCH   3   4
ENDBRANCH   2   3
ENDBRANCH   1   2
BRANCH   1  10
ATOM     10  C   UNL     1       9.694   3.838  34.239  1.00  0.00     0.000 C 
BRANCH  10  11
ATOM     11  C   UNL     1       9.771   4.613  32.911  1.00  0.00     0.000 C 
BRANCH  11  12
ATOM     12  C   UNL     1       8.396   4.772  32.242  1.00  0.00     0.000 C 
BRANCH  12  13
ATOM     13  C   UNL     1       8.351   5.954  31.256  1.00  0.00     0.000 C 
BRANCH  13  14
ATOM     14  C   UNL     1       9.643   6.785  31.273  1.00  0.00     0.002 C 
BRANCH  14  15
ATOM     15  C   UNL     1       9.484   8.115  32.027  1.00  0.00     0.028 C 
BRANCH  15  16
ATOM     16  C   UNL     1      10.434   8.202  33.224  1.00  0.00     0.156 C 
BRANCH  16  17
ATOM     17  O   UNL     1       9.702   8.254  34.417  1.00  0.00    -0.396 OA
ATOM     18  H   UNL     1      10.340   8.548  35.118  1.00  0.00     0.210 HD
ENDBRANCH  16  17
ENDBRANCH  15  16
ENDBRANCH  14  15
ENDBRANCH  13  14
ENDBRANCH  12  13
ENDBRANCH  11  12
ENDBRANCH  10  11
ENDBRANCH   1  10
TORSDOF 15
ENDMDL
MODEL 2
REMARK VINA RESULT:    -3.016      2.822      5.691
REMARK INTER + INTRA:          -7.962
REMARK INTER:                  -5.582
REMARK INTRA:                  -2.380
REMARK UNBOUND:                -2.389
REMARK SMILES CCCCCCCCCCCCCCCCO
REMARK SMILES IDX 9 1 8 2 7 3 6 4 5 5 4 6 3 7 2 8 1 9 10 10 11 11 12 12 13 13
REMARK SMILES IDX 14 14 15 15 16 16 17 17
REMARK H PARENT 17 18
REMARK Flexibility Score: inf
ROOT
ATOM      1  C   UNL     1       8.516   6.425  30.133  1.00  0.00     0.000 C 
ENDROOT
BRANCH   1   2
ATOM      2  C   UNL     1       9.026   7.833  30.489  1.00  0.00    -0.000 C 
BRANCH   2   3
ATOM      3  C   UNL     1      10.387   7.804  31.205  1.00  0.00    -0.000 C 
BRANCH   3   4
ATOM      4  C   UNL     1      10.339   8.467  32.593  1.00  0.00    -0.000 C 
BRANCH   4   5
ATOM      5  C   UNL     1      10.923   7.569  33.694  1.00  0.00    -0.000 C 
BRANCH   5   6
ATOM      6  C   UNL     1      11.862   6.484  33.140  1.00  0.00    -0.000 C 
BRANCH   6   7
ATOM      7  C   UNL     1      12.083   5.324  34.128  1.00  0.00    -0.000 C 
BRANCH   7   8
ATOM      8  C   UNL     1      10.915   4.327  34.221  1.00  0.00    -0.003 C 
ATOM      9  C   UNL     1      10.119   4.456  35.518  1.00  0.00     0.004 C 
ENDBRANCH   7   8
ENDBRANCH   6   7
ENDBRANCH   5   6
ENDBRANCH   4   5
ENDBRANCH   3   4
ENDBRANCH   2   3
ENDBRANCH   1   2
BRANCH   1  10
ATOM     10  C   UNL     1       8.615   5.444  31.314  1.00  0.00     0.000 C 
BRANCH  10  11
ATOM     11  C   UNL     1       9.177   4.072  30.899  1.00  0.00     0.000 C 
BRANCH  11  12
ATOM     12  C   UNL     1      10.364   4.189  29.931  1.00  0.00     0.000 C 
BRANCH  12  13
ATOM     13  C   UNL     1      11.704   3.815  30.589  1.00  0.00     0.000 C 
BRANCH  13  14
ATOM     14  C   UNL     1      12.865   4.700  30.109  1.00  0.00     0.002 C 
BRANCH  14  15
ATOM     15  C   UNL     1      12.442   5.693  29.014  1.00  0.00     0.028 C 
BRANCH  15  16
ATOM     16  C   UNL     1      13.586   5.979  28.038  1.00  0.00     0.156 C 
BRANCH  16  17
ATOM     17  O   UNL     1      13.266   7.077  27.230  1.00  0.00    -0.396 OA
ATOM     18  H   UNL     1      12.891   6.700  26.392  1.00  0.00     0.210 HD
ENDBRANCH  16  17
ENDBRANCH  15  16
ENDBRANCH  14  15
ENDBRANCH  13  14
ENDBRANCH  12  13
ENDBRANCH  11  12
ENDBRANCH  10  11
ENDBRANCH   1  10
TORSDOF 15
ENDMDL
MODEL 3
REMARK VINA RESULT:    -3.005     10.929     13.095
REMARK INTER + INTRA:          -7.942
REMARK INTER:                  -5.563
REMARK INTRA:                  -2.378
REMARK UNBOUND:                -2.389
REMARK SMILES CCCCCCCCCCCCCCCCO
REMARK SMILES IDX 9 1 8 2 7 3 6 4 5 5 4 6 3 7 2 8 1 9 10 10 11 11 12 12 13 13
REMARK SMILES IDX 14 14 15 15 16 16 17 17
REMARK H PARENT 17 18
REMARK Flexibility Score: inf
ROOT
ATOM      1  C   UNL     1      20.866   7.638  39.759  1.00  0.00     0.000 C 
ENDROOT
BRANCH   1   2
ATOM      2  C   UNL     1      21.749   8.880  39.544  1.00  0.00    -0.000 C 
BRANCH   2   3
ATOM      3  C   UNL     1      22.954   8.597  38.631  1.00  0.00    -0.000 C 
BRANCH   3   4
ATOM      4  C   UNL     1      22.869   9.349  37.290  1.00  0.00    -0.000 C 
BRANCH   4   5
ATOM      5  C   UNL     1      21.528  10.076  37.109  1.00  0.00    -0.000 C 
BRANCH   5   6
ATOM      6  C   UNL     1      20.681   9.487  35.967  1.00  0.00    -0.000 C 
BRANCH   6   7
ATOM      7  C   UNL     1      21.192   8.114  35.493  1.00  0.00    -0.000 C 
BRANCH   7   8
ATOM      8  C   UNL     1      20.409   6.910  36.046  1.00  0.00    -0.003 C 
ATOM      9  C   UNL     1      18.920   7.198  36.230  1.00  0.00     0.004 C 
ENDBRANCH   7   8
ENDBRANCH   6   7
ENDBRANCH   5   6
ENDBRANCH   4   5
ENDBRANCH   3   4
ENDBRANCH   2   3
ENDBRANCH   1   2
BRANCH   1  10
ATOM     10  C   UNL     1      19.365   7.975  39.775  1.00  0.00     0.000 C 
BRANCH  10  11
ATOM     11  C   UNL     1      19.098   9.484  39.928  1.00  0.00     0.000 C 
BRANCH  11  12
ATOM     12  C   UNL     1      18.264  10.055  38.770  1.00  0.00     0.000 C 
BRANCH  12  13
ATOM     13  C   UNL     1      16.954   9.280  38.544  1.00  0.00     0.000 C 
BRANCH  13  14
ATOM     14  C   UNL     1      15.777   9.867  39.340  1.00  0.00     0.002 C 
BRANCH  14  15
ATOM     15  C   UNL     1      15.316   8.949  40.483  1.00  0.00     0.028 C 
BRANCH  15  16
ATOM     16  C   UNL     1      15.977   9.326  41.811  1.00  0.00     0.156 C 
BRANCH  16  17
ATOM     17  O   UNL     1      16.764   8.265  42.276  1.00  0.00    -0.396 OA
ATOM     18  H   UNL     1      17.563   8.680  42.695  1.00  0.00     0.210 HD
ENDBRANCH  16  17
ENDBRANCH  15  16
ENDBRANCH  14  15
ENDBRANCH  13  14
ENDBRANCH  12  13
ENDBRANCH  11  12
ENDBRANCH  10  11
ENDBRANCH   1  10
TORSDOF 15
ENDMDL
MODEL 4
REMARK VINA RESULT:    -2.972      2.638      5.230
REMARK INTER + INTRA:          -7.880
REMARK INTER:                  -5.625
REMARK INTRA:                  -2.255
REMARK UNBOUND:                -2.389
REMARK SMILES CCCCCCCCCCCCCCCCO
REMARK SMILES IDX 9 1 8 2 7 3 6 4 5 5 4 6 3 7 2 8 1 9 10 10 11 11 12 12 13 13
REMARK SMILES IDX 14 14 15 15 16 16 17 17
REMARK H PARENT 17 18
REMARK Flexibility Score: inf
ROOT
ATOM      1  C   UNL     1      11.583   7.585  33.408  1.00  0.00     0.000 C 
ENDROOT
BRANCH   1   2
ATOM      2  C   UNL     1      10.401   8.274  32.703  1.00  0.00    -0.000 C 
BRANCH   2   3
ATOM      3  C   UNL     1      10.207   7.781  31.259  1.00  0.00    -0.000 C 
BRANCH   3   4
ATOM      4  C   UNL     1       8.758   7.947  30.767  1.00  0.00    -0.000 C 
BRANCH   4   5
ATOM      5  C   UNL     1       7.876   6.739  31.118  1.00  0.00    -0.000 C 
BRANCH   5   6
ATOM      6  C   UNL     1       8.654   5.411  31.102  1.00  0.00    -0.000 C 
BRANCH   6   7
ATOM      7  C   UNL     1       8.346   4.525  32.323  1.00  0.00    -0.000 C 
BRANCH   7   8
ATOM      8  C   UNL     1       9.269   3.304  32.480  1.00  0.00    -0.003 C 
ATOM      9  C   UNL     1       8.903   2.153  31.545  1.00  0.00     0.004 C 
ENDBRANCH   7   8
ENDBRANCH   6   7
ENDBRANCH   5   6
ENDBRANCH   4   5
ENDBRANCH   3   4
ENDBRANCH   2   3
ENDBRANCH   1   2
BRANCH   1  10
ATOM     10  C   UNL     1      11.340   6.084  33.640  1.00  0.00     0.000 C 
BRANCH  10  11
ATOM     11  C   UNL     1      12.595   5.233  33.375  1.00  0.00     0.000 C 
BRANCH  11  12
ATOM     12  C   UNL     1      13.010   5.240  31.895  1.00  0.00     0.000 C 
BRANCH  12  13
ATOM     13  C   UNL     1      12.464   4.026  31.122  1.00  0.00     0.000 C 
BRANCH  13  14
ATOM     14  C   UNL     1      11.868   4.413  29.760  1.00  0.00     0.002 C 
BRANCH  14  15
ATOM     15  C   UNL     1      12.340   5.794  29.276  1.00  0.00     0.028 C 
BRANCH  15  16
ATOM     16  C   UNL     1      13.261   5.681  28.059  1.00  0.00     0.156 C 
BRANCH  16  17
ATOM     17  O   UNL     1      13.309   6.903  27.376  1.00  0.00    -0.396 OA
ATOM     18  H   UNL     1      13.678   6.700  26.477  1.00  0.00     0.210 HD
ENDBRANCH  16  17
ENDBRANCH  15  16
ENDBRANCH  14  15
ENDBRANCH  13  14
ENDBRANCH  12  13
ENDBRANCH  11  12
ENDBRANCH  10  11
ENDBRANCH   1  10
TORSDOF 15
ENDMDL
MODEL 5
REMARK VINA RESULT:    -2.963      2.274      4.392
REMARK INTER + INTRA:          -7.864
REMARK INTER:                  -5.596
REMARK INTRA:                  -2.268
REMARK UNBOUND:                -2.389
REMARK SMILES CCCCCCCCCCCCCCCCO
REMARK SMILES IDX 9 1 8 2 7 3 6 4 5 5 4 6 3 7 2 8 1 9 10 10 11 11 12 12 13 13
REMARK SMILES IDX 14 14 15 15 16 16 17 17
REMARK H PARENT 17 18
REMARK Flexibility Score: inf
ROOT
ATOM      1  C   UNL     1      10.448   8.046  31.218  1.00  0.00     0.000 C 
ENDROOT
BRANCH   1   2
ATOM      2  C   UNL     1       9.315   7.728  30.226  1.00  0.00    -0.000 C 
BRANCH   2   3
ATOM      3  C   UNL     1       8.101   7.073  30.907  1.00  0.00    -0.000 C 
BRANCH   3   4
ATOM      4  C   UNL     1       8.294   5.562  31.132  1.00  0.00    -0.000 C 
BRANCH   4   5
ATOM      5  C   UNL     1       8.983   4.875  29.944  1.00  0.00    -0.000 C 
BRANCH   5   6
ATOM      6  C   UNL     1      10.189   4.019  30.370  1.00  0.00    -0.000 C 
BRANCH   6   7
ATOM      7  C   UNL     1      11.538   4.660  29.997  1.00  0.00    -0.000 C 
BRANCH   7   8
ATOM      8  C   UNL     1      12.766   3.768  30.249  1.00  0.00    -0.003 C 
ATOM      9  C   UNL     1      14.071   4.556  30.335  1.00  0.00     0.004 C 
ENDBRANCH   7   8
ENDBRANCH   6   7
ENDBRANCH   5   6
ENDBRANCH   4   5
ENDBRANCH   3   4
ENDBRANCH   2   3
ENDBRANCH   1   2
BRANCH   1  10
ATOM     10  C   UNL     1       9.927   8.369  32.628  1.00  0.00     0.000 C 
BRANCH  10  11
ATOM     11  C   UNL     1      10.763   7.704  33.736  1.00  0.00     0.000 C 
BRANCH  11  12
ATOM     12  C   UNL     1      11.740   6.653  33.186  1.00  0.00     0.000 C 
BRANCH  12  13
ATOM     13  C   UNL     1      11.453   5.239  33.723  1.00  0.00     0.000 C 
BRANCH  13  14
ATOM     14  C   UNL     1      10.081   5.135  34.407  1.00  0.00     0.002 C 
BRANCH  14  15
ATOM     15  C   UNL     1      10.128   4.328  35.715  1.00  0.00     0.028 C 
BRANCH  15  16
ATOM     16  C   UNL     1       9.515   5.106  36.881  1.00  0.00     0.156 C 
BRANCH  16  17
ATOM     17  O   UNL     1       8.873   6.257  36.408  1.00  0.00    -0.396 OA
ATOM     18  H   UNL     1       9.334   6.501  35.564  1.00  0.00     0.210 HD
ENDBRANCH  16  17
ENDBRANCH  15  16
ENDBRANCH  14  15
ENDBRANCH  13  14
ENDBRANCH  12  13
ENDBRANCH  11  12
ENDBRANCH  10  11
ENDBRANCH   1  10
TORSDOF 15
ENDMDL
MODEL 6
REMARK VINA RESULT:    -2.930      1.918      4.882
REMARK INTER + INTRA:          -7.803
REMARK INTER:                  -5.627
REMARK INTRA:                  -2.176
REMARK UNBOUND:                -2.389
REMARK SMILES CCCCCCCCCCCCCCCCO
REMARK SMILES IDX 9 1 8 2 7 3 6 4 5 5 4 6 3 7 2 8 1 9 10 10 11 11 12 12 13 13
REMARK SMILES IDX 14 14 15 15 16 16 17 17
REMARK H PARENT 17 18
REMARK Flexibility Score: inf
ROOT
ATOM      1  C   UNL     1      11.056   7.018  33.689  1.00  0.00     0.000 C 
ENDROOT
BRANCH   1   2
ATOM      2  C   UNL     1      10.809   8.287  32.854  1.00  0.00    -0.000 C 
BRANCH   2   3
ATOM      3  C   UNL     1       9.374   8.363  32.307  1.00  0.00    -0.000 C 
BRANCH   3   4
ATOM      4  C   UNL     1       9.277   7.913  30.838  1.00  0.00    -0.000 C 
BRANCH   4   5
ATOM      5  C   UNL     1       8.192   6.847  30.619  1.00  0.00    -0.000 C 
BRANCH   5   6
ATOM      6  C   UNL     1       8.366   5.625  31.538  1.00  0.00    -0.000 C 
BRANCH   6   7
ATOM      7  C   UNL     1       9.327   4.573  30.956  1.00  0.00    -0.000 C 
BRANCH   7   8
ATOM      8  C   UNL     1       9.193   3.169  31.573  1.00  0.00    -0.003 C 
ATOM      9  C   UNL     1      10.433   2.302  31.363  1.00  0.00     0.004 C 
ENDBRANCH   7   8
ENDBRANCH   6   7
ENDBRANCH   5   6
ENDBRANCH   4   5
ENDBRANCH   3   4
ENDBRANCH   2   3
ENDBRANCH   1   2
BRANCH   1  10
ATOM     10  C   UNL     1      12.088   6.077  33.044  1.00  0.00     0.000 C 
BRANCH  10  11
ATOM     11  C   UNL     1      12.105   4.681  33.694  1.00  0.00     0.000 C 
BRANCH  11  12
ATOM     12  C   UNL     1      11.438   4.667  35.078  1.00  0.00     0.000 C 
BRANCH  12  13
ATOM     13  C   UNL     1      10.310   3.624  35.182  1.00  0.00     0.000 C 
BRANCH  13  14
ATOM     14  C   UNL     1       8.918   4.237  34.966  1.00  0.00     0.002 C 
BRANCH  14  15
ATOM     15  C   UNL     1       8.033   4.159  36.221  1.00  0.00     0.028 C 
BRANCH  15  16
ATOM     16  C   UNL     1       8.417   5.225  37.249  1.00  0.00     0.156 C 
BRANCH  16  17
ATOM     17  O   UNL     1       8.686   6.440  36.606  1.00  0.00    -0.396 OA
ATOM     18  H   UNL     1       9.286   6.221  35.847  1.00  0.00     0.210 HD
ENDBRANCH  16  17
ENDBRANCH  15  16
ENDBRANCH  14  15
ENDBRANCH  13  14
ENDBRANCH  12  13
ENDBRANCH  11  12
ENDBRANCH  10  11
ENDBRANCH   1  10
TORSDOF 15
ENDMDL
MODEL 7
REMARK VINA RESULT:    -2.929      2.093      5.240
REMARK INTER + INTRA:          -7.801
REMARK INTER:                  -5.533
REMARK INTRA:                  -2.269
REMARK UNBOUND:                -2.389
REMARK SMILES CCCCCCCCCCCCCCCCO
REMARK SMILES IDX 9 1 8 2 7 3 6 4 5 5 4 6 3 7 2 8 1 9 10 10 11 11 12 12 13 13
REMARK SMILES IDX 14 14 15 15 16 16 17 17
REMARK H PARENT 17 18
REMARK Flexibility Score: inf
ROOT
ATOM      1  C   UNL     1       9.044   4.996  30.943  1.00  0.00     0.000 C 
ENDROOT
BRANCH   1   2
ATOM      2  C   UNL     1       8.197   6.281  30.925  1.00  0.00    -0.000 C 
BRANCH   2   3
ATOM      3  C   UNL     1       8.897   7.440  30.196  1.00  0.00    -0.000 C 
BRANCH   3   4
ATOM      4  C   UNL     1      10.215   7.855  30.876  1.00  0.00    -0.000 C 
BRANCH   4   5
ATOM      5  C   UNL     1      10.004   8.344  32.317  1.00  0.00    -0.000 C 
BRANCH   5   6
ATOM      6  C   UNL     1      11.177   7.981  33.245  1.00  0.00    -0.000 C 
BRANCH   6   7
ATOM      7  C   UNL     1      11.061   6.561  33.827  1.00  0.00    -0.000 C 
BRANCH   7   8
ATOM      8  C   UNL     1      12.326   5.699  33.678  1.00  0.00    -0.003 C 
ATOM      9  C   UNL     1      12.595   5.276  32.235  1.00  0.00     0.004 C 
ENDBRANCH   7   8
ENDBRANCH   6   7
ENDBRANCH   5   6
ENDBRANCH   4   5
ENDBRANCH   3   4
ENDBRANCH   2   3
ENDBRANCH   1   2
BRANCH   1  10
ATOM     10  C   UNL     1       8.797   4.142  32.198  1.00  0.00     0.000 C 
BRANCH  10  11
ATOM     11  C   UNL     1       9.640   2.854  32.213  1.00  0.00     0.000 C 
BRANCH  11  12
ATOM     12  C   UNL     1      10.195   2.529  33.609  1.00  0.00     0.000 C 
BRANCH  12  13
ATOM     13  C   UNL     1       9.473   3.300  34.728  1.00  0.00     0.000 C 
BRANCH  13  14
ATOM     14  C   UNL     1      10.229   3.247  36.064  1.00  0.00     0.002 C 
BRANCH  14  15
ATOM     15  C   UNL     1      10.271   4.607  36.779  1.00  0.00     0.028 C 
BRANCH  15  16
ATOM     16  C   UNL     1       8.868   5.096  37.146  1.00  0.00     0.156 C 
BRANCH  16  17
ATOM     17  O   UNL     1       8.950   6.151  38.063  1.00  0.00    -0.396 OA
ATOM     18  H   UNL     1       8.675   5.775  38.939  1.00  0.00     0.210 HD
ENDBRANCH  16  17
ENDBRANCH  15  16
ENDBRANCH  14  15
ENDBRANCH  13  14
ENDBRANCH  12  13
ENDBRANCH  11  12
ENDBRANCH  10  11
ENDBRANCH   1  10
TORSDOF 15
ENDMDL
MODEL 8
REMARK VINA RESULT:    -2.926      2.765      5.939
REMARK INTER + INTRA:          -7.795
REMARK INTER:                  -5.383
REMARK INTRA:                  -2.412
REMARK UNBOUND:                -2.389
REMARK SMILES CCCCCCCCCCCCCCCCO
REMARK SMILES IDX 9 1 8 2 7 3 6 4 5 5 4 6 3 7 2 8 1 9 10 10 11 11 12 12 13 13
REMARK SMILES IDX 14 14 15 15 16 16 17 17
REMARK H PARENT 17 18
REMARK Flexibility Score: inf
ROOT
ATOM      1  C   UNL     1       9.238   7.963  30.361  1.00  0.00     0.000 C 
ENDROOT
BRANCH   1   2
ATOM      2  C   UNL     1      10.501   8.023  31.238  1.00  0.00    -0.000 C 
BRANCH   2   3
ATOM      3  C   UNL     1      10.177   8.250  32.724  1.00  0.00    -0.000 C 
BRANCH   3   4
ATOM      4  C   UNL     1      10.964   7.306  33.652  1.00  0.00    -0.000 C 
BRANCH   4   5
ATOM      5  C   UNL     1      11.688   6.193  32.880  1.00  0.00    -0.000 C 
BRANCH   5   6
ATOM      6  C   UNL     1      11.277   4.784  33.342  1.00  0.00    -0.000 C 
BRANCH   6   7
ATOM      7  C   UNL     1       9.855   4.741  33.931  1.00  0.00    -0.000 C 
BRANCH   7   8
ATOM      8  C   UNL     1       9.310   3.326  34.192  1.00  0.00    -0.003 C 
ATOM      9  C   UNL     1       7.875   3.137  33.702  1.00  0.00     0.004 C 
ENDBRANCH   7   8
ENDBRANCH   6   7
ENDBRANCH   5   6
ENDBRANCH   4   5
ENDBRANCH   3   4
ENDBRANCH   2   3
ENDBRANCH   1   2
BRANCH   1  10
ATOM     10  C   UNL     1       8.023   7.391  31.110  1.00  0.00     0.000 C 
BRANCH  10  11
ATOM     11  C   UNL     1       7.916   5.860  30.984  1.00  0.00     0.000 C 
BRANCH  11  12
ATOM     12  C   UNL     1       8.624   5.321  29.730  1.00  0.00     0.000 C 
BRANCH  12  13
ATOM     13  C   UNL     1       9.721   4.296  30.065  1.00  0.00     0.000 C 
BRANCH  13  14
ATOM     14  C   UNL     1       9.156   2.892  30.331  1.00  0.00     0.002 C 
BRANCH  14  15
ATOM     15  C   UNL     1      10.245   1.872  30.700  1.00  0.00     0.028 C 
BRANCH  15  16
ATOM     16  C   UNL     1       9.973   0.503  30.071  1.00  0.00     0.156 C 
BRANCH  16  17
ATOM     17  O   UNL     1       9.125   0.641  28.965  1.00  0.00    -0.396 OA
ATOM     18  H   UNL     1       9.577   0.176  28.214  1.00  0.00     0.210 HD
ENDBRANCH  16  17
ENDBRANCH  15  16
ENDBRANCH  14  15
ENDBRANCH  13  14
ENDBRANCH  12  13
ENDBRANCH  11  12
ENDBRANCH  10  11
ENDBRANCH   1  10
TORSDOF 15
ENDMDL
MODEL 9
REMARK VINA RESULT:    -2.910      2.186      4.351
REMARK INTER + INTRA:          -7.766
REMARK INTER:                  -5.324
REMARK INTRA:                  -2.442
REMARK UNBOUND:                -2.389
REMARK SMILES CCCCCCCCCCCCCCCCO
REMARK SMILES IDX 9 1 8 2 7 3 6 4 5 5 4 6 3 7 2 8 1 9 10 10 11 11 12 12 13 13
REMARK SMILES IDX 14 14 15 15 16 16 17 17
REMARK H PARENT 17 18
REMARK Flexibility Score: inf
ROOT
ATOM      1  C   UNL     1      10.868   8.157  32.380  1.00  0.00     0.000 C 
ENDROOT
BRANCH   1   2
ATOM      2  C   UNL     1      11.338   6.738  32.747  1.00  0.00    -0.000 C 
BRANCH   2   3
ATOM      3  C   UNL     1      10.492   6.107  33.865  1.00  0.00    -0.000 C 
BRANCH   3   4
ATOM      4  C   UNL     1       9.829   4.787  33.432  1.00  0.00    -0.000 C 
BRANCH   4   5
ATOM      5  C   UNL     1      10.844   3.770  32.888  1.00  0.00    -0.000 C 
BRANCH   5   6
ATOM      6  C   UNL     1      10.233   2.373  32.681  1.00  0.00    -0.000 C 
BRANCH   6   7
ATOM      7  C   UNL     1       8.880   2.415  31.949  1.00  0.00    -0.000 C 
BRANCH   7   8
ATOM      8  C   UNL     1       8.917   1.903  30.499  1.00  0.00    -0.003 C 
ATOM      9  C   UNL     1      10.231   1.211  30.142  1.00  0.00     0.004 C 
ENDBRANCH   7   8
ENDBRANCH   6   7
ENDBRANCH   5   6
ENDBRANCH   4   5
ENDBRANCH   3   4
ENDBRANCH   2   3
ENDBRANCH   1   2
BRANCH   1  10
ATOM     10  C   UNL     1       9.337   8.262  32.268  1.00  0.00     0.000 C 
BRANCH  10  11
ATOM     11  C   UNL     1       8.831   8.039  30.831  1.00  0.00     0.000 C 
BRANCH  11  12
ATOM     12  C   UNL     1       7.875   6.841  30.722  1.00  0.00     0.000 C 
BRANCH  12  13
ATOM     13  C   UNL     1       8.552   5.595  30.123  1.00  0.00     0.000 C 
BRANCH  13  14
ATOM     14  C   UNL     1       9.810   5.941  29.311  1.00  0.00     0.002 C 
BRANCH  14  15
ATOM     15  C   UNL     1      10.939   4.914  29.497  1.00  0.00     0.028 C 
BRANCH  15  16
ATOM     16  C   UNL     1      12.245   5.388  28.857  1.00  0.00     0.156 C 
BRANCH  16  17
ATOM     17  O   UNL     1      12.164   6.752  28.549  1.00  0.00    -0.396 OA
ATOM     18  H   UNL     1      12.936   6.946  27.957  1.00  0.00     0.210 HD
ENDBRANCH  16  17
ENDBRANCH  15  16
ENDBRANCH  14  15
ENDBRANCH  13  14
ENDBRANCH  12  13
ENDBRANCH  11  12
ENDBRANCH  10  11
ENDBRANCH   1  10
TORSDOF 15
ENDMDL
