MODEL 1
REMARK VINA RESULT:    -4.907      0.000      0.000
REMARK INTER + INTRA:          -6.555
REMARK INTER:                  -6.342
REMARK INTRA:                  -0.213
REMARK UNBOUND:                -0.213
REMARK SMILES C=CC(=O)CCCCC
REMARK SMILES IDX 6 1 7 2 8 3 9 4 5 5 3 6 4 7 2 8 1 9
REMARK H PARENT
REMARK Flexibility Score: inf
ROOT
ATOM      1  C   UNL     1      -5.097 -13.843  29.941  1.00  0.00     0.008 C 
ENDROOT
BRANCH   1   2
ATOM      2  C   UNL     1      -6.319 -14.772  29.907  1.00  0.00     0.000 C 
BRANCH   2   3
ATOM      3  C   UNL     1      -7.090 -14.686  28.582  1.00  0.00    -0.003 C 
ATOM      4  C   UNL     1      -8.460 -15.348  28.699  1.00  0.00     0.004 C 
ENDBRANCH   2   3
ENDBRANCH   1   2
BRANCH   1   5
ATOM      5  C   UNL     1      -5.031 -12.908  28.726  1.00  0.00     0.080 C 
BRANCH   5   6
ATOM      6  C   UNL     1      -3.726 -13.074  28.006  1.00  0.00     0.155 C 
ATOM      7  O   UNL     1      -3.203 -14.218  27.932  1.00  0.00    -0.295 OA
BRANCH   6   8
ATOM      8  C   UNL     1      -3.087 -11.913  27.355  1.00  0.00     0.039 C 
ATOM      9  C   UNL     1      -3.247 -11.640  26.062  1.00  0.00     0.012 C 
ENDBRANCH   6   8
ENDBRANCH   5   6
ENDBRANCH   1   5
TORSDOF 5
ENDMDL
MODEL 2
REMARK VINA RESULT:    -4.799      1.506      4.642
REMARK INTER + INTRA:          -6.415
REMARK INTER:                  -6.217
REMARK INTRA:                  -0.198
REMARK UNBOUND:                -0.213
REMARK SMILES C=CC(=O)CCCCC
REMARK SMILES IDX 6 1 7 2 8 3 9 4 5 5 3 6 4 7 2 8 1 9
REMARK H PARENT
REMARK Flexibility Score: inf
ROOT
ATOM      1  C   UNL     1      -5.095 -12.167  29.097  1.00  0.00     0.008 C 
ENDROOT
BRANCH   1   2
ATOM      2  C   UNL     1      -4.104 -11.310  28.294  1.00  0.00     0.000 C 
BRANCH   2   3
ATOM      3  C   UNL     1      -3.281 -12.138  27.297  1.00  0.00    -0.003 C 
ATOM      4  C   UNL     1      -3.238 -11.464  25.928  1.00  0.00     0.004 C 
ENDBRANCH   2   3
ENDBRANCH   1   2
BRANCH   1   5
ATOM      5  C   UNL     1      -4.865 -13.672  28.904  1.00  0.00     0.080 C 
BRANCH   5   6
ATOM      6  C   UNL     1      -6.064 -14.448  29.364  1.00  0.00     0.155 C 
ATOM      7  O   UNL     1      -6.167 -14.762  30.581  1.00  0.00    -0.295 OA
BRANCH   6   8
ATOM      8  C   UNL     1      -7.130 -14.799  28.405  1.00  0.00     0.039 C 
ATOM      9  C   UNL     1      -8.289 -15.331  28.787  1.00  0.00     0.012 C 
ENDBRANCH   6   8
ENDBRANCH   5   6
ENDBRANCH   1   5
TORSDOF 5
ENDMDL
MODEL 3
REMARK VINA RESULT:    -4.556      2.154      3.839
REMARK INTER + INTRA:          -6.101
REMARK INTER:                  -5.726
REMARK INTRA:                  -0.375
REMARK UNBOUND:                -0.213
REMARK SMILES C=CC(=O)CCCCC
REMARK SMILES IDX 6 1 7 2 8 3 9 4 5 5 3 6 4 7 2 8 1 9
REMARK H PARENT
REMARK Flexibility Score: inf
ROOT
ATOM      1  C   UNL     1      -4.588 -13.512  29.115  1.00  0.00     0.008 C 
ENDROOT
BRANCH   1   2
ATOM      2  C   UNL     1      -5.858 -14.026  28.421  1.00  0.00     0.000 C 
BRANCH   2   3
ATOM      3  C   UNL     1      -6.741 -14.868  29.354  1.00  0.00    -0.003 C 
ATOM      4  C   UNL     1      -8.085 -15.183  28.701  1.00  0.00     0.004 C 
ENDBRANCH   2   3
ENDBRANCH   1   2
BRANCH   1   5
ATOM      5  C   UNL     1      -4.852 -13.026  30.547  1.00  0.00     0.080 C 
BRANCH   5   6
ATOM      6  C   UNL     1      -3.947 -13.728  31.515  1.00  0.00     0.155 C 
ATOM      7  O   UNL     1      -2.721 -13.432  31.540  1.00  0.00    -0.295 OA
BRANCH   6   8
ATOM      8  C   UNL     1      -4.499 -14.723  32.455  1.00  0.00     0.039 C 
ATOM      9  C   UNL     1      -5.774 -14.715  32.838  1.00  0.00     0.012 C 
ENDBRANCH   6   8
ENDBRANCH   5   6
ENDBRANCH   1   5
TORSDOF 5
ENDMDL
MODEL 4
REMARK VINA RESULT:    -4.424      2.359      2.961
REMARK INTER + INTRA:          -5.931
REMARK INTER:                  -5.765
REMARK INTRA:                  -0.166
REMARK UNBOUND:                -0.213
REMARK SMILES C=CC(=O)CCCCC
REMARK SMILES IDX 6 1 7 2 8 3 9 4 5 5 3 6 4 7 2 8 1 9
REMARK H PARENT
REMARK Flexibility Score: inf
ROOT
ATOM      1  C   UNL     1      -4.826 -12.699  29.534  1.00  0.00     0.008 C 
ENDROOT
BRANCH   1   2
ATOM      2  C   UNL     1      -5.717 -13.571  28.637  1.00  0.00     0.000 C 
BRANCH   2   3
ATOM      3  C   UNL     1      -6.420 -14.693  29.414  1.00  0.00    -0.003 C 
ATOM      4  C   UNL     1      -7.734 -15.086  28.744  1.00  0.00     0.004 C 
ENDBRANCH   2   3
ENDBRANCH   1   2
BRANCH   1   5
ATOM      5  C   UNL     1      -4.050 -13.521  30.572  1.00  0.00     0.080 C 
BRANCH   5   6
ATOM      6  C   UNL     1      -2.576 -13.460  30.294  1.00  0.00     0.155 C 
ATOM      7  O   UNL     1      -2.175 -13.428  29.099  1.00  0.00    -0.295 OA
BRANCH   6   8
ATOM      8  C   UNL     1      -1.615 -13.395  31.412  1.00  0.00     0.039 C 
ATOM      9  C   UNL     1      -0.390 -12.893  31.273  1.00  0.00     0.012 C 
ENDBRANCH   6   8
ENDBRANCH   5   6
ENDBRANCH   1   5
TORSDOF 5
ENDMDL
MODEL 5
REMARK VINA RESULT:    -4.415      1.801      2.497
REMARK INTER + INTRA:          -5.919
REMARK INTER:                  -5.691
REMARK INTRA:                  -0.228
REMARK UNBOUND:                -0.213
REMARK SMILES C=CC(=O)CCCCC
REMARK SMILES IDX 6 1 7 2 8 3 9 4 5 5 3 6 4 7 2 8 1 9
REMARK H PARENT
REMARK Flexibility Score: inf
ROOT
ATOM      1  C   UNL     1      -5.222 -12.805  29.072  1.00  0.00     0.008 C 
ENDROOT
BRANCH   1   2
ATOM      2  C   UNL     1      -5.860 -14.053  28.443  1.00  0.00     0.000 C 
BRANCH   2   3
ATOM      3  C   UNL     1      -6.788 -14.796  29.414  1.00  0.00    -0.003 C 
ATOM      4  C   UNL     1      -8.068 -15.247  28.715  1.00  0.00     0.004 C 
ENDBRANCH   2   3
ENDBRANCH   1   2
BRANCH   1   5
ATOM      5  C   UNL     1      -3.836 -12.494  28.493  1.00  0.00     0.080 C 
BRANCH   5   6
ATOM      6  C   UNL     1      -2.796 -13.377  29.117  1.00  0.00     0.155 C 
ATOM      7  O   UNL     1      -2.069 -14.094  28.377  1.00  0.00    -0.295 OA
BRANCH   6   8
ATOM      8  C   UNL     1      -2.601 -13.369  30.580  1.00  0.00     0.039 C 
ATOM      9  C   UNL     1      -1.395 -13.402  31.142  1.00  0.00     0.012 C 
ENDBRANCH   6   8
ENDBRANCH   5   6
ENDBRANCH   1   5
TORSDOF 5
ENDMDL
MODEL 6
REMARK VINA RESULT:    -4.414      2.113      3.953
REMARK INTER + INTRA:          -5.917
REMARK INTER:                  -5.483
REMARK INTRA:                  -0.434
REMARK UNBOUND:                -0.213
REMARK SMILES C=CC(=O)CCCCC
REMARK SMILES IDX 6 1 7 2 8 3 9 4 5 5 3 6 4 7 2 8 1 9
REMARK H PARENT
REMARK Flexibility Score: inf
ROOT
ATOM      1  C   UNL     1      -4.266 -13.671  29.929  1.00  0.00     0.008 C 
ENDROOT
BRANCH   1   2
ATOM      2  C   UNL     1      -4.371 -13.141  31.367  1.00  0.00     0.000 C 
BRANCH   2   3
ATOM      3  C   UNL     1      -4.451 -14.269  32.407  1.00  0.00    -0.003 C 
ATOM      4  C   UNL     1      -5.772 -15.026  32.295  1.00  0.00     0.004 C 
ENDBRANCH   2   3
ENDBRANCH   1   2
BRANCH   1   5
ATOM      5  C   UNL     1      -5.401 -13.163  29.029  1.00  0.00     0.080 C 
BRANCH   5   6
ATOM      6  C   UNL     1      -6.045 -14.307  28.302  1.00  0.00     0.155 C 
ATOM      7  O   UNL     1      -5.488 -14.777  27.273  1.00  0.00    -0.295 OA
BRANCH   6   8
ATOM      8  C   UNL     1      -7.294 -14.901  28.818  1.00  0.00     0.039 C 
ATOM      9  C   UNL     1      -7.406 -16.196  29.103  1.00  0.00     0.012 C 
ENDBRANCH   6   8
ENDBRANCH   5   6
ENDBRANCH   1   5
TORSDOF 5
ENDMDL
MODEL 7
REMARK VINA RESULT:    -4.377      2.695      5.011
REMARK INTER + INTRA:          -5.870
REMARK INTER:                  -5.738
REMARK INTRA:                  -0.132
REMARK UNBOUND:                -0.213
REMARK SMILES C=CC(=O)CCCCC
REMARK SMILES IDX 6 1 7 2 8 3 9 4 5 5 3 6 4 7 2 8 1 9
REMARK H PARENT
REMARK Flexibility Score: inf
ROOT
ATOM      1  C   UNL     1      -4.014 -12.951  30.864  1.00  0.00     0.008 C 
ENDROOT
BRANCH   1   2
ATOM      2  C   UNL     1      -2.754 -13.590  31.467  1.00  0.00     0.000 C 
BRANCH   2   3
ATOM      3  C   UNL     1      -1.495 -13.314  30.633  1.00  0.00    -0.003 C 
ATOM      4  C   UNL     1      -0.366 -12.769  31.505  1.00  0.00     0.004 C 
ENDBRANCH   2   3
ENDBRANCH   1   2
BRANCH   1   5
ATOM      5  C   UNL     1      -4.451 -13.627  29.558  1.00  0.00     0.080 C 
BRANCH   5   6
ATOM      6  C   UNL     1      -5.760 -14.336  29.747  1.00  0.00     0.155 C 
ATOM      7  O   UNL     1      -6.079 -14.747  30.895  1.00  0.00    -0.295 OA
BRANCH   6   8
ATOM      8  C   UNL     1      -6.680 -14.507  28.605  1.00  0.00     0.039 C 
ATOM      9  C   UNL     1      -7.879 -15.072  28.731  1.00  0.00     0.012 C 
ENDBRANCH   6   8
ENDBRANCH   5   6
ENDBRANCH   1   5
TORSDOF 5
ENDMDL
MODEL 8
REMARK VINA RESULT:    -4.374      2.546      3.458
REMARK INTER + INTRA:          -5.866
REMARK INTER:                  -5.685
REMARK INTRA:                  -0.181
REMARK UNBOUND:                -0.213
REMARK SMILES C=CC(=O)CCCCC
REMARK SMILES IDX 6 1 7 2 8 3 9 4 5 5 3 6 4 7 2 8 1 9
REMARK H PARENT
REMARK Flexibility Score: inf
ROOT
ATOM      1  C   UNL     1      -3.070 -14.108  27.975  1.00  0.00     0.008 C 
ENDROOT
BRANCH   1   2
ATOM      2  C   UNL     1      -4.475 -13.575  27.658  1.00  0.00     0.000 C 
BRANCH   2   3
ATOM      3  C   UNL     1      -5.389 -13.549  28.892  1.00  0.00    -0.003 C 
ATOM      4  C   UNL     1      -6.621 -14.426  28.683  1.00  0.00     0.004 C 
ENDBRANCH   2   3
ENDBRANCH   1   2
BRANCH   1   5
ATOM      5  C   UNL     1      -2.099 -12.998  28.401  1.00  0.00     0.080 C 
BRANCH   5   6
ATOM      6  C   UNL     1      -0.867 -13.588  29.021  1.00  0.00     0.155 C 
ATOM      7  O   UNL     1      -0.151 -14.374  28.343  1.00  0.00    -0.295 OA
BRANCH   6   8
ATOM      8  C   UNL     1      -0.478 -13.213  30.394  1.00  0.00     0.039 C 
ATOM      9  C   UNL     1      -1.287 -13.380  31.438  1.00  0.00     0.012 C 
ENDBRANCH   6   8
ENDBRANCH   5   6
ENDBRANCH   1   5
TORSDOF 5
ENDMDL
MODEL 9
REMARK VINA RESULT:    -4.355      2.150      4.455
REMARK INTER + INTRA:          -5.841
REMARK INTER:                  -5.483
REMARK INTRA:                  -0.358
REMARK UNBOUND:                -0.213
REMARK SMILES C=CC(=O)CCCCC
REMARK SMILES IDX 6 1 7 2 8 3 9 4 5 5 3 6 4 7 2 8 1 9
REMARK H PARENT
REMARK Flexibility Score: inf
ROOT
ATOM      1  C   UNL     1      -4.729 -12.341  28.776  1.00  0.00     0.008 C 
ENDROOT
BRANCH   1   2
ATOM      2  C   UNL     1      -4.944 -11.333  29.915  1.00  0.00     0.000 C 
BRANCH   2   3
ATOM      3  C   UNL     1      -3.875 -11.446  31.013  1.00  0.00    -0.003 C 
ATOM      4  C   UNL     1      -4.511 -11.721  32.373  1.00  0.00     0.004 C 
ENDBRANCH   2   3
ENDBRANCH   1   2
BRANCH   1   5
ATOM      5  C   UNL     1      -4.525 -13.774  29.285  1.00  0.00     0.080 C 
BRANCH   5   6
ATOM      6  C   UNL     1      -5.846 -14.408  29.610  1.00  0.00     0.155 C 
ATOM      7  O   UNL     1      -6.060 -14.822  30.781  1.00  0.00    -0.295 OA
BRANCH   6   8
ATOM      8  C   UNL     1      -6.895 -14.501  28.576  1.00  0.00     0.039 C 
ATOM      9  C   UNL     1      -8.016 -15.197  28.755  1.00  0.00     0.012 C 
ENDBRANCH   6   8
ENDBRANCH   5   6
ENDBRANCH   1   5
TORSDOF 5
ENDMDL
