MODEL 1
REMARK VINA RESULT:    10.955      0.000      0.000
REMARK INTER + INTRA:          21.288
REMARK INTER:                  19.922
REMARK INTRA:                   1.366
REMARK UNBOUND:                 1.366
REMARK SMILES CCCCCCCCCCCCCCCC(=O)[O-]
REMARK SMILES IDX 9 1 10 2 11 3 12 4 13 5 14 6 15 7 16 8 17 9 18 10 8 11 7 12
REMARK SMILES IDX 6 13 5 14 4 15 3 16 2 17 1 18
REMARK H PARENT
REMARK Flexibility Score: inf
ROOT
ATOM      1  C   UNL     1       8.352  48.176  11.696  1.00  0.00     0.000 C 
ENDROOT
BRANCH   1   2
ATOM      2  C   UNL     1       7.997  47.186  10.577  1.00  0.00     0.000 C 
BRANCH   2   3
ATOM      3  C   UNL     1       8.567  47.607   9.213  1.00  0.00     0.000 C 
BRANCH   3   4
ATOM      4  C   UNL     1       9.898  46.908   8.886  1.00  0.00     0.000 C 
BRANCH   4   5
ATOM      5  C   UNL     1      11.108  47.844   9.029  1.00  0.00     0.000 C 
BRANCH   5   6
ATOM      6  C   UNL     1      12.447  47.107   8.876  1.00  0.00     0.006 C 
BRANCH   6   7
ATOM      7  C   UNL     1      13.208  47.071  10.204  1.00  0.00     0.053 C 
BRANCH   7   8
ATOM      8  C   UNL     1      14.663  47.336   9.983  1.00  0.00     0.041 C 
ATOM      9  O   UNL     1      15.032  48.123   9.071  1.00  0.00    -0.550 OA
ATOM     10  O   UNL     1      15.610  46.754  10.816  1.00  0.00    -0.550 OA
ENDBRANCH   7   8
ENDBRANCH   6   7
ENDBRANCH   5   6
ENDBRANCH   4   5
ENDBRANCH   3   4
ENDBRANCH   2   3
ENDBRANCH   1   2
BRANCH   1  11
ATOM     11  C   UNL     1       8.919  49.481  11.114  1.00  0.00     0.000 C 
BRANCH  11  12
ATOM     12  C   UNL     1       7.861  50.308  10.366  1.00  0.00    -0.000 C 
BRANCH  12  13
ATOM     13  C   UNL     1       6.873  49.431   9.579  1.00  0.00    -0.000 C 
BRANCH  13  14
ATOM     14  C   UNL     1       5.730  50.246   8.953  1.00  0.00    -0.000 C 
BRANCH  14  15
ATOM     15  C   UNL     1       4.376  49.521   9.022  1.00  0.00    -0.000 C 
BRANCH  15  16
ATOM     16  C   UNL     1       4.529  48.138   9.675  1.00  0.00    -0.000 C 
BRANCH  16  17
ATOM     17  C   UNL     1       3.850  48.057  11.051  1.00  0.00    -0.003 C 
ATOM     18  C   UNL     1       4.849  48.100  12.207  1.00  0.00     0.004 C 
ENDBRANCH  16  17
ENDBRANCH  15  16
ENDBRANCH  14  15
ENDBRANCH  13  14
ENDBRANCH  12  13
ENDBRANCH  11  12
ENDBRANCH   1  11
TORSDOF 14
ENDMDL
MODEL 2
REMARK VINA RESULT:    11.378      1.998      2.772
REMARK INTER + INTRA:          22.057
REMARK INTER:                  21.329
REMARK INTRA:                   0.728
REMARK UNBOUND:                 1.366
REMARK SMILES CCCCCCCCCCCCCCCC(=O)[O-]
REMARK SMILES IDX 9 1 10 2 11 3 12 4 13 5 14 6 15 7 16 8 17 9 18 10 8 11 7 12
REMARK SMILES IDX 6 13 5 14 4 15 3 16 2 17 1 18
REMARK H PARENT
REMARK Flexibility Score: inf
ROOT
ATOM      1  C   UNL     1       8.568  48.258  10.827  1.00  0.00     0.000 C 
ENDROOT
BRANCH   1   2
ATOM      2  C   UNL     1       8.840  48.252   9.315  1.00  0.00     0.000 C 
BRANCH   2   3
ATOM      3  C   UNL     1       9.715  47.067   8.878  1.00  0.00     0.000 C 
BRANCH   3   4
ATOM      4  C   UNL     1      11.219  47.385   8.944  1.00  0.00     0.000 C 
BRANCH   4   5
ATOM      5  C   UNL     1      12.094  46.123   8.876  1.00  0.00     0.000 C 
BRANCH   5   6
ATOM      6  C   UNL     1      13.551  46.392   9.279  1.00  0.00     0.006 C 
BRANCH   6   7
ATOM      7  C   UNL     1      14.063  45.310  10.235  1.00  0.00     0.053 C 
BRANCH   7   8
ATOM      8  C   UNL     1      14.497  44.100   9.472  1.00  0.00     0.041 C 
ATOM      9  O   UNL     1      15.669  44.024   9.017  1.00  0.00    -0.550 OA
ATOM     10  O   UNL     1      13.624  43.031   9.308  1.00  0.00    -0.550 OA
ENDBRANCH   7   8
ENDBRANCH   6   7
ENDBRANCH   5   6
ENDBRANCH   4   5
ENDBRANCH   3   4
ENDBRANCH   2   3
ENDBRANCH   1   2
BRANCH   1  11
ATOM     11  C   UNL     1       7.119  48.679  11.122  1.00  0.00     0.000 C 
BRANCH  11  12
ATOM     12  C   UNL     1       6.243  48.720   9.860  1.00  0.00    -0.000 C 
BRANCH  12  13
ATOM     13  C   UNL     1       4.822  49.235  10.144  1.00  0.00    -0.000 C 
BRANCH  13  14
ATOM     14  C   UNL     1       4.075  48.372  11.173  1.00  0.00    -0.000 C 
BRANCH  14  15
ATOM     15  C   UNL     1       5.004  47.405  11.923  1.00  0.00    -0.000 C 
BRANCH  15  16
ATOM     16  C   UNL     1       5.179  47.839  13.387  1.00  0.00    -0.000 C 
BRANCH  16  17
ATOM     17  C   UNL     1       3.852  48.251  14.044  1.00  0.00    -0.003 C 
ATOM     18  C   UNL     1       3.324  47.199  15.020  1.00  0.00     0.004 C 
ENDBRANCH  16  17
ENDBRANCH  15  16
ENDBRANCH  14  15
ENDBRANCH  13  14
ENDBRANCH  12  13
ENDBRANCH  11  12
ENDBRANCH   1  11
TORSDOF 14
ENDMDL
MODEL 3
REMARK VINA RESULT:    11.432      4.622      6.756
REMARK INTER + INTRA:          22.155
REMARK INTER:                  22.487
REMARK INTRA:                  -0.331
REMARK UNBOUND:                 1.366
REMARK SMILES CCCCCCCCCCCCCCCC(=O)[O-]
REMARK SMILES IDX 9 1 10 2 11 3 12 4 13 5 14 6 15 7 16 8 17 9 18 10 8 11 7 12
REMARK SMILES IDX 6 13 5 14 4 15 3 16 2 17 1 18
REMARK H PARENT
REMARK Flexibility Score: inf
ROOT
ATOM      1  C   UNL     1       4.848  48.564  12.281  1.00  0.00     0.000 C 
ENDROOT
BRANCH   1   2
ATOM      2  C   UNL     1       4.239  48.263  10.903  1.00  0.00     0.000 C 
BRANCH   2   3
ATOM      3  C   UNL     1       4.695  49.260   9.825  1.00  0.00     0.000 C 
BRANCH   3   4
ATOM      4  C   UNL     1       5.748  48.665   8.875  1.00  0.00     0.000 C 
BRANCH   4   5
ATOM      5  C   UNL     1       6.017  47.177   9.148  1.00  0.00     0.000 C 
BRANCH   5   6
ATOM      6  C   UNL     1       7.480  46.784   8.894  1.00  0.00     0.006 C 
BRANCH   6   7
ATOM      7  C   UNL     1       8.416  47.972   9.137  1.00  0.00     0.053 C 
BRANCH   7   8
ATOM      8  C   UNL     1       8.269  48.478  10.536  1.00  0.00     0.041 C 
ATOM      9  O   UNL     1       8.372  47.687  11.510  1.00  0.00    -0.550 OA
ATOM     10  O   UNL     1       8.070  49.834  10.768  1.00  0.00    -0.550 OA
ENDBRANCH   7   8
ENDBRANCH   6   7
ENDBRANCH   5   6
ENDBRANCH   4   5
ENDBRANCH   3   4
ENDBRANCH   2   3
ENDBRANCH   1   2
BRANCH   1  11
ATOM     11  C   UNL     1       4.454  47.485  13.302  1.00  0.00     0.000 C 
BRANCH  11  12
ATOM     12  C   UNL     1       3.550  48.026  14.421  1.00  0.00    -0.000 C 
BRANCH  12  13
ATOM     13  C   UNL     1       2.703  46.925  15.082  1.00  0.00    -0.000 C 
BRANCH  13  14
ATOM     14  C   UNL     1       3.024  46.749  16.575  1.00  0.00    -0.000 C 
BRANCH  14  15
ATOM     15  C   UNL     1       3.421  45.308  16.931  1.00  0.00    -0.000 C 
BRANCH  15  16
ATOM     16  C   UNL     1       2.371  44.662  17.849  1.00  0.00    -0.000 C 
BRANCH  16  17
ATOM     17  C   UNL     1       2.503  45.118  19.310  1.00  0.00    -0.003 C 
ATOM     18  C   UNL     1       1.267  45.866  19.811  1.00  0.00     0.004 C 
ENDBRANCH  16  17
ENDBRANCH  15  16
ENDBRANCH  14  15
ENDBRANCH  13  14
ENDBRANCH  12  13
ENDBRANCH  11  12
ENDBRANCH   1  11
TORSDOF 14
ENDMDL
MODEL 4
REMARK VINA RESULT:    11.455      4.582      6.838
REMARK INTER + INTRA:          22.197
REMARK INTER:                  22.685
REMARK INTRA:                  -0.489
REMARK UNBOUND:                 1.366
REMARK SMILES CCCCCCCCCCCCCCCC(=O)[O-]
REMARK SMILES IDX 9 1 10 2 11 3 12 4 13 5 14 6 15 7 16 8 17 9 18 10 8 11 7 12
REMARK SMILES IDX 6 13 5 14 4 15 3 16 2 17 1 18
REMARK H PARENT
REMARK Flexibility Score: inf
ROOT
ATOM      1  C   UNL     1       4.753  48.222  12.507  1.00  0.00     0.000 C 
ENDROOT
BRANCH   1   2
ATOM      2  C   UNL     1       4.347  47.976  11.046  1.00  0.00     0.000 C 
BRANCH   2   3
ATOM      3  C   UNL     1       4.021  49.277  10.296  1.00  0.00     0.000 C 
BRANCH   3   4
ATOM      4  C   UNL     1       4.714  49.360   8.925  1.00  0.00     0.000 C 
BRANCH   4   5
ATOM      5  C   UNL     1       6.024  48.558   8.876  1.00  0.00     0.000 C 
BRANCH   5   6
ATOM      6  C   UNL     1       7.263  49.435   9.109  1.00  0.00     0.006 C 
BRANCH   6   7
ATOM      7  C   UNL     1       8.436  48.600   9.630  1.00  0.00     0.053 C 
BRANCH   7   8
ATOM      8  C   UNL     1       7.966  47.615  10.653  1.00  0.00     0.041 C 
ATOM      9  O   UNL     1       7.339  46.583  10.297  1.00  0.00    -0.550 OA
ATOM     10  O   UNL     1       8.265  47.811  11.996  1.00  0.00    -0.550 OA
ENDBRANCH   7   8
ENDBRANCH   6   7
ENDBRANCH   5   6
ENDBRANCH   4   5
ENDBRANCH   3   4
ENDBRANCH   2   3
ENDBRANCH   1   2
BRANCH   1  11
ATOM     11  C   UNL     1       3.871  47.406  13.466  1.00  0.00     0.000 C 
BRANCH  11  12
ATOM     12  C   UNL     1       3.742  48.055  14.854  1.00  0.00    -0.000 C 
BRANCH  12  13
ATOM     13  C   UNL     1       2.677  47.372  15.728  1.00  0.00    -0.000 C 
BRANCH  13  14
ATOM     14  C   UNL     1       2.636  45.848  15.529  1.00  0.00    -0.000 C 
BRANCH  14  15
ATOM     15  C   UNL     1       3.503  45.093  16.548  1.00  0.00    -0.000 C 
BRANCH  15  16
ATOM     16  C   UNL     1       3.280  45.640  17.967  1.00  0.00    -0.000 C 
BRANCH  16  17
ATOM     17  C   UNL     1       2.068  45.001  18.663  1.00  0.00    -0.003 C 
ATOM     18  C   UNL     1       1.534  45.849  19.818  1.00  0.00     0.004 C 
ENDBRANCH  16  17
ENDBRANCH  15  16
ENDBRANCH  14  15
ENDBRANCH  13  14
ENDBRANCH  12  13
ENDBRANCH  11  12
ENDBRANCH   1  11
TORSDOF 14
ENDMDL
MODEL 5
REMARK VINA RESULT:    13.428      6.513      9.316
REMARK INTER + INTRA:          25.785
REMARK INTER:                  26.517
REMARK INTRA:                  -0.732
REMARK UNBOUND:                 1.366
REMARK SMILES CCCCCCCCCCCCCCCC(=O)[O-]
REMARK SMILES IDX 9 1 10 2 11 3 12 4 13 5 14 6 15 7 16 8 17 9 18 10 8 11 7 12
REMARK SMILES IDX 6 13 5 14 4 15 3 16 2 17 1 18
REMARK H PARENT
REMARK Flexibility Score: inf
ROOT
ATOM      1  C   UNL     1       4.677  47.927  12.799  1.00  0.00     0.000 C 
ENDROOT
BRANCH   1   2
ATOM      2  C   UNL     1       3.659  47.158  13.655  1.00  0.00     0.000 C 
BRANCH   2   3
ATOM      3  C   UNL     1       3.159  47.976  14.856  1.00  0.00     0.000 C 
BRANCH   3   4
ATOM      4  C   UNL     1       2.881  47.104  16.093  1.00  0.00     0.000 C 
BRANCH   4   5
ATOM      5  C   UNL     1       3.177  45.616  15.845  1.00  0.00     0.000 C 
BRANCH   5   6
ATOM      6  C   UNL     1       3.365  44.827  17.148  1.00  0.00     0.006 C 
BRANCH   6   7
ATOM      7  C   UNL     1       3.267  45.750  18.367  1.00  0.00     0.053 C 
BRANCH   7   8
ATOM      8  C   UNL     1       2.100  45.369  19.221  1.00  0.00     0.041 C 
ATOM      9  O   UNL     1       1.346  46.259  19.697  1.00  0.00    -0.550 OA
ATOM     10  O   UNL     1       1.813  44.029  19.448  1.00  0.00    -0.550 OA
ENDBRANCH   7   8
ENDBRANCH   6   7
ENDBRANCH   5   6
ENDBRANCH   4   5
ENDBRANCH   3   4
ENDBRANCH   2   3
ENDBRANCH   1   2
BRANCH   1  11
ATOM     11  C   UNL     1       4.052  48.360  11.463  1.00  0.00     0.000 C 
BRANCH  11  12
ATOM     12  C   UNL     1       4.774  47.759  10.246  1.00  0.00    -0.000 C 
BRANCH  12  13
ATOM     13  C   UNL     1       4.662  48.646   8.995  1.00  0.00    -0.000 C 
BRANCH  13  14
ATOM     14  C   UNL     1       5.409  49.981   9.148  1.00  0.00    -0.000 C 
BRANCH  14  15
ATOM     15  C   UNL     1       6.830  49.805   9.706  1.00  0.00    -0.000 C 
BRANCH  15  16
ATOM     16  C   UNL     1       7.621  48.782   8.876  1.00  0.00    -0.000 C 
BRANCH  16  17
ATOM     17  C   UNL     1       8.111  47.593   9.716  1.00  0.00    -0.003 C 
ATOM     18  C   UNL     1       8.098  47.884  11.217  1.00  0.00     0.004 C 
ENDBRANCH  16  17
ENDBRANCH  15  16
ENDBRANCH  14  15
ENDBRANCH  13  14
ENDBRANCH  12  13
ENDBRANCH  11  12
ENDBRANCH   1  11
TORSDOF 14
ENDMDL
MODEL 6
REMARK VINA RESULT:    13.634      4.875      6.919
REMARK INTER + INTRA:          26.158
REMARK INTER:                  26.491
REMARK INTRA:                  -0.333
REMARK UNBOUND:                 1.366
REMARK SMILES CCCCCCCCCCCCCCCC(=O)[O-]
REMARK SMILES IDX 9 1 10 2 11 3 12 4 13 5 14 6 15 7 16 8 17 9 18 10 8 11 7 12
REMARK SMILES IDX 6 13 5 14 4 15 3 16 2 17 1 18
REMARK H PARENT
REMARK Flexibility Score: inf
ROOT
ATOM      1  C   UNL     1       6.462  48.003  12.687  1.00  0.00     0.000 C 
ENDROOT
BRANCH   1   2
ATOM      2  C   UNL     1       7.652  47.617  11.794  1.00  0.00     0.000 C 
BRANCH   2   3
ATOM      3  C   UNL     1       7.223  46.828  10.547  1.00  0.00     0.000 C 
BRANCH   3   4
ATOM      4  C   UNL     1       7.975  47.270   9.279  1.00  0.00     0.000 C 
BRANCH   4   5
ATOM      5  C   UNL     1       8.354  48.760   9.306  1.00  0.00     0.000 C 
BRANCH   5   6
ATOM      6  C   UNL     1       7.170  49.676   8.963  1.00  0.00     0.006 C 
BRANCH   6   7
ATOM      7  C   UNL     1       5.866  48.877   8.877  1.00  0.00     0.053 C 
BRANCH   7   8
ATOM      8  C   UNL     1       4.696  49.744   9.213  1.00  0.00     0.041 C 
ATOM      9  O   UNL     1       3.714  49.269   9.843  1.00  0.00    -0.550 OA
ATOM     10  O   UNL     1       4.710  51.092   8.875  1.00  0.00    -0.550 OA
ENDBRANCH   7   8
ENDBRANCH   6   7
ENDBRANCH   5   6
ENDBRANCH   4   5
ENDBRANCH   3   4
ENDBRANCH   2   3
ENDBRANCH   1   2
BRANCH   1  11
ATOM     11  C   UNL     1       5.135  47.551  12.056  1.00  0.00     0.000 C 
BRANCH  11  12
ATOM     12  C   UNL     1       3.914  47.906  12.920  1.00  0.00    -0.000 C 
BRANCH  12  13
ATOM     13  C   UNL     1       4.191  47.757  14.425  1.00  0.00    -0.000 C 
BRANCH  13  14
ATOM     14  C   UNL     1       2.988  47.186  15.193  1.00  0.00    -0.000 C 
BRANCH  14  15
ATOM     15  C   UNL     1       3.130  45.685  15.489  1.00  0.00    -0.000 C 
BRANCH  15  16
ATOM     16  C   UNL     1       3.636  45.455  16.921  1.00  0.00    -0.000 C 
BRANCH  16  17
ATOM     17  C   UNL     1       2.495  45.388  17.948  1.00  0.00    -0.003 C 
ATOM     18  C   UNL     1       2.786  46.201  19.210  1.00  0.00     0.004 C 
ENDBRANCH  16  17
ENDBRANCH  15  16
ENDBRANCH  14  15
ENDBRANCH  13  14
ENDBRANCH  12  13
ENDBRANCH  11  12
ENDBRANCH   1  11
TORSDOF 14
ENDMDL
MODEL 7
REMARK VINA RESULT:    13.665      1.312      2.342
REMARK INTER + INTRA:          26.216
REMARK INTER:                  25.159
REMARK INTRA:                   1.057
REMARK UNBOUND:                 1.366
REMARK SMILES CCCCCCCCCCCCCCCC(=O)[O-]
REMARK SMILES IDX 9 1 10 2 11 3 12 4 13 5 14 6 15 7 16 8 17 9 18 10 8 11 7 12
REMARK SMILES IDX 6 13 5 14 4 15 3 16 2 17 1 18
REMARK H PARENT
REMARK Flexibility Score: inf
ROOT
ATOM      1  C   UNL     1       6.885  48.132   9.201  1.00  0.00     0.000 C 
ENDROOT
BRANCH   1   2
ATOM      2  C   UNL     1       7.977  47.687  10.186  1.00  0.00     0.000 C 
BRANCH   2   3
ATOM      3  C   UNL     1       8.764  46.467   9.681  1.00  0.00     0.000 C 
BRANCH   3   4
ATOM      4  C   UNL     1      10.014  46.860   8.875  1.00  0.00     0.000 C 
BRANCH   4   5
ATOM      5  C   UNL     1      11.290  46.176   9.392  1.00  0.00     0.000 C 
BRANCH   5   6
ATOM      6  C   UNL     1      12.570  46.881   8.923  1.00  0.00     0.006 C 
BRANCH   6   7
ATOM      7  C   UNL     1      13.744  46.562   9.853  1.00  0.00     0.053 C 
BRANCH   7   8
ATOM      8  C   UNL     1      14.914  47.440   9.543  1.00  0.00     0.041 C 
ATOM      9  O   UNL     1      14.742  48.665   9.306  1.00  0.00    -0.550 OA
ATOM     10  O   UNL     1      16.201  46.917   9.565  1.00  0.00    -0.550 OA
ENDBRANCH   7   8
ENDBRANCH   6   7
ENDBRANCH   5   6
ENDBRANCH   4   5
ENDBRANCH   3   4
ENDBRANCH   2   3
ENDBRANCH   1   2
BRANCH   1  11
ATOM     11  C   UNL     1       6.521  49.610   9.419  1.00  0.00     0.000 C 
BRANCH  11  12
ATOM     12  C   UNL     1       5.028  49.895   9.192  1.00  0.00    -0.000 C 
BRANCH  12  13
ATOM     13  C   UNL     1       4.121  49.069  10.118  1.00  0.00    -0.000 C 
BRANCH  13  14
ATOM     14  C   UNL     1       4.704  47.682  10.433  1.00  0.00    -0.000 C 
BRANCH  14  15
ATOM     15  C   UNL     1       5.067  47.513  11.917  1.00  0.00    -0.000 C 
BRANCH  15  16
ATOM     16  C   UNL     1       3.946  48.054  12.819  1.00  0.00    -0.000 C 
BRANCH  16  17
ATOM     17  C   UNL     1       4.275  47.919  14.314  1.00  0.00    -0.003 C 
ATOM     18  C   UNL     1       3.141  47.276  15.113  1.00  0.00     0.004 C 
ENDBRANCH  16  17
ENDBRANCH  15  16
ENDBRANCH  14  15
ENDBRANCH  13  14
ENDBRANCH  12  13
ENDBRANCH  11  12
ENDBRANCH   1  11
TORSDOF 14
ENDMDL
