MODEL 1
REMARK VINA RESULT:    -2.577      0.000      0.000
REMARK INTER + INTRA:          -2.577
REMARK INTER:                  -2.577
REMARK INTRA:                   0.000
REMARK UNBOUND:                 0.000
REMARK SMILES CC(=O)[O-]
REMARK SMILES IDX 1 1 2 2 3 3 4 4
REMARK H PARENT
REMARK Flexibility Score: inf
ROOT
ATOM      1  C   UNL     1     -11.120   2.446  -6.608  1.00  0.00     0.063 C 
ATOM      2  C   UNL     1     -10.667   3.767  -7.133  1.00  0.00     0.038 C 
ATOM      3  O   UNL     1     -11.478   4.522  -7.730  1.00  0.00    -0.550 OA
ATOM      4  O   UNL     1      -9.335   4.144  -7.011  1.00  0.00    -0.550 OA
ENDROOT
TORSDOF 0
ENDMDL
MODEL 2
REMARK VINA RESULT:    -2.459      5.658      6.102
REMARK INTER + INTRA:          -2.459
REMARK INTER:                  -2.459
REMARK INTRA:                   0.000
REMARK UNBOUND:                 0.000
REMARK SMILES CC(=O)[O-]
REMARK SMILES IDX 1 1 2 2 3 3 4 4
REMARK H PARENT
REMARK Flexibility Score: inf
ROOT
ATOM      1  C   UNL     1      -4.676   2.338 -10.895  1.00  0.00     0.063 C 
ATOM      2  C   UNL     1      -5.646   2.257  -9.764  1.00  0.00     0.038 C 
ATOM      3  O   UNL     1      -6.831   1.887  -9.972  1.00  0.00    -0.550 OA
ATOM      4  O   UNL     1      -5.259   2.643  -8.487  1.00  0.00    -0.550 OA
ENDROOT
TORSDOF 0
ENDMDL
MODEL 3
REMARK VINA RESULT:    -2.424      5.729      6.350
REMARK INTER + INTRA:          -2.424
REMARK INTER:                  -2.424
REMARK INTRA:                   0.000
REMARK UNBOUND:                 0.000
REMARK SMILES CC(=O)[O-]
REMARK SMILES IDX 1 1 2 2 3 3 4 4
REMARK H PARENT
REMARK Flexibility Score: inf
ROOT
ATOM      1  C   UNL     1      -4.421   2.339 -10.687  1.00  0.00     0.063 C 
ATOM      2  C   UNL     1      -5.468   2.289  -9.625  1.00  0.00     0.038 C 
ATOM      3  O   UNL     1      -5.176   2.577  -8.436  1.00  0.00    -0.550 OA
ATOM      4  O   UNL     1      -6.756   1.871  -9.938  1.00  0.00    -0.550 OA
ENDROOT
TORSDOF 0
ENDMDL
MODEL 4
REMARK VINA RESULT:    -2.382     11.408     11.901
REMARK INTER + INTRA:          -2.382
REMARK INTER:                  -2.382
REMARK INTRA:                   0.000
REMARK UNBOUND:                 0.000
REMARK SMILES CC(=O)[O-]
REMARK SMILES IDX 1 1 2 2 3 3 4 4
REMARK H PARENT
REMARK Flexibility Score: inf
ROOT
ATOM      1  C   UNL     1      -8.903  -7.824  -9.147  1.00  0.00     0.063 C 
ATOM      2  C   UNL     1      -7.780  -7.696  -8.173  1.00  0.00     0.038 C 
ATOM      3  O   UNL     1      -7.557  -8.614  -7.341  1.00  0.00    -0.550 OA
ATOM      4  O   UNL     1      -7.012  -6.539  -8.146  1.00  0.00    -0.550 OA
ENDROOT
TORSDOF 0
ENDMDL
MODEL 5
REMARK VINA RESULT:    -2.369     11.396     11.886
REMARK INTER + INTRA:          -2.369
REMARK INTER:                  -2.369
REMARK INTRA:                   0.000
REMARK UNBOUND:                 0.000
REMARK SMILES CC(=O)[O-]
REMARK SMILES IDX 1 1 2 2 3 3 4 4
REMARK H PARENT
REMARK Flexibility Score: inf
ROOT
ATOM      1  C   UNL     1      -8.847  -7.765  -9.127  1.00  0.00     0.063 C 
ATOM      2  C   UNL     1      -7.717  -7.608  -8.166  1.00  0.00     0.038 C 
ATOM      3  O   UNL     1      -7.034  -6.551  -8.161  1.00  0.00    -0.550 OA
ATOM      4  O   UNL     1      -7.380  -8.651  -7.312  1.00  0.00    -0.550 OA
ENDROOT
TORSDOF 0
ENDMDL
MODEL 6
REMARK VINA RESULT:    -2.347      1.474      2.002
REMARK INTER + INTRA:          -2.347
REMARK INTER:                  -2.347
REMARK INTRA:                   0.000
REMARK UNBOUND:                 0.000
REMARK SMILES CC(=O)[O-]
REMARK SMILES IDX 1 1 2 2 3 3 4 4
REMARK H PARENT
REMARK Flexibility Score: inf
ROOT
ATOM      1  C   UNL     1     -11.492   4.661  -7.747  1.00  0.00     0.063 C 
ATOM      2  C   UNL     1     -10.374   3.909  -7.107  1.00  0.00     0.038 C 
ATOM      3  O   UNL     1      -9.215   4.398  -7.085  1.00  0.00    -0.550 OA
ATOM      4  O   UNL     1     -10.598   2.642  -6.582  1.00  0.00    -0.550 OA
ENDROOT
TORSDOF 0
ENDMDL
MODEL 7
REMARK VINA RESULT:    -2.299     13.349     13.932
REMARK INTER + INTRA:          -2.299
REMARK INTER:                  -2.299
REMARK INTRA:                   0.000
REMARK UNBOUND:                 0.000
REMARK SMILES CC(=O)[O-]
REMARK SMILES IDX 1 1 2 2 3 3 4 4
REMARK H PARENT
REMARK Flexibility Score: inf
ROOT
ATOM      1  C   UNL     1      -6.025  -7.996  -7.759  1.00  0.00     0.063 C 
ATOM      2  C   UNL     1      -5.212  -8.958  -6.959  1.00  0.00     0.038 C 
ATOM      3  O   UNL     1      -4.499  -8.544  -6.008  1.00  0.00    -0.550 OA
ATOM      4  O   UNL     1      -5.196 -10.305  -7.297  1.00  0.00    -0.550 OA
ENDROOT
TORSDOF 0
ENDMDL
MODEL 8
REMARK VINA RESULT:    -2.264      9.704      9.824
REMARK INTER + INTRA:          -2.264
REMARK INTER:                  -2.264
REMARK INTRA:                   0.000
REMARK UNBOUND:                 0.000
REMARK SMILES CC(=O)[O-]
REMARK SMILES IDX 1 1 2 2 3 3 4 4
REMARK H PARENT
REMARK Flexibility Score: inf
ROOT
ATOM      1  C   UNL     1     -12.272   5.148   1.821  1.00  0.00     0.063 C 
ATOM      2  C   UNL     1     -12.895   3.862   2.251  1.00  0.00     0.038 C 
ATOM      3  O   UNL     1     -13.791   3.328   1.547  1.00  0.00    -0.550 OA
ATOM      4  O   UNL     1     -12.526   3.279   3.456  1.00  0.00    -0.550 OA
ENDROOT
TORSDOF 0
ENDMDL
MODEL 9
REMARK VINA RESULT:    -2.257      3.282      3.526
REMARK INTER + INTRA:          -2.257
REMARK INTER:                  -2.257
REMARK INTRA:                   0.000
REMARK UNBOUND:                 0.000
REMARK SMILES CC(=O)[O-]
REMARK SMILES IDX 1 1 2 2 3 3 4 4
REMARK H PARENT
REMARK Flexibility Score: inf
ROOT
ATOM      1  C   UNL     1      -8.276   3.323 -10.400  1.00  0.00     0.063 C 
ATOM      2  C   UNL     1      -9.705   3.146 -10.008  1.00  0.00     0.038 C 
ATOM      3  O   UNL     1     -10.624   3.519 -10.783  1.00  0.00    -0.550 OA
ATOM      4  O   UNL     1     -10.024   2.620  -8.763  1.00  0.00    -0.550 OA
ENDROOT
TORSDOF 0
ENDMDL
