MODEL 1
REMARK VINA RESULT:    -3.954      0.000      0.000
REMARK INTER + INTRA:          -8.298
REMARK INTER:                  -6.034
REMARK INTRA:                  -2.264
REMARK UNBOUND:                -2.264
REMARK SMILES CC(=O)CCC=C(C)CCC=C(C)CCC=C(C)C
REMARK SMILES IDX 10 1 11 2 12 3 13 4 14 5 15 6 16 7 18 8 17 9 19 10 9 11 7 12
REMARK SMILES IDX 6 13 8 14 5 15 4 16 2 17 3 18 1 19
REMARK H PARENT
REMARK Flexibility Score: inf
ROOT
ATOM      1  C   UNL     1      84.857  -5.736  28.805  1.00  0.00     0.032 C 
ENDROOT
BRANCH   1   2
ATOM      2  C   UNL     1      84.469  -7.118  28.339  1.00  0.00    -0.028 C 
ATOM      3  C   UNL     1      84.786  -8.261  28.990  1.00  0.00    -0.077 C 
ATOM      4  C   UNL     1      85.532  -8.251  30.304  1.00  0.00     0.039 C 
BRANCH   3   5
ATOM      5  C   UNL     1      84.363  -9.589  28.394  1.00  0.00     0.034 C 
BRANCH   5   6
ATOM      6  C   UNL     1      83.964  -9.454  26.918  1.00  0.00     0.032 C 
BRANCH   6   7
ATOM      7  C   UNL     1      82.471  -9.294  26.753  1.00  0.00    -0.028 C 
ATOM      8  C   UNL     1      80.376  -8.410  25.825  1.00  0.00     0.039 C 
ATOM      9  C   UNL     1      81.881  -8.415  25.915  1.00  0.00    -0.080 C 
ATOM     10  C   UNL     1      82.680  -7.436  25.088  1.00  0.00     0.039 C 
ENDBRANCH   6   7
ENDBRANCH   5   6
ENDBRANCH   3   5
ENDBRANCH   1   2
BRANCH   1  11
ATOM     11  C   UNL     1      83.613  -4.912  29.150  1.00  0.00     0.034 C 
BRANCH  11  12
ATOM     12  C   UNL     1      82.767  -4.678  27.914  1.00  0.00    -0.077 C 
ATOM     13  C   UNL     1      81.531  -5.203  27.763  1.00  0.00    -0.028 C 
ATOM     14  C   UNL     1      83.300  -3.772  26.834  1.00  0.00     0.039 C 
BRANCH  13  15
ATOM     15  C   UNL     1      80.876  -6.114  28.776  1.00  0.00     0.035 C 
BRANCH  15  16
ATOM     16  C   UNL     1      79.927  -5.350  29.710  1.00  0.00     0.079 C 
BRANCH  16  17
ATOM     17  C   UNL     1      80.439  -5.324  31.128  1.00  0.00     0.130 C 
ATOM     18  O   UNL     1      80.097  -4.421  31.876  1.00  0.00    -0.300 OA
ATOM     19  C   UNL     1      81.354  -6.394  31.648  1.00  0.00     0.087 C 
ENDBRANCH  16  17
ENDBRANCH  15  16
ENDBRANCH  13  15
ENDBRANCH  11  12
ENDBRANCH   1  11
TORSDOF 9
ENDMDL
MODEL 2
REMARK VINA RESULT:    -3.840      1.575      3.966
REMARK INTER + INTRA:          -8.125
REMARK INTER:                  -6.240
REMARK INTRA:                  -1.885
REMARK UNBOUND:                -2.264
REMARK SMILES CC(=O)CCC=C(C)CCC=C(C)CCC=C(C)C
REMARK SMILES IDX 10 1 11 2 12 3 13 4 14 5 15 6 16 7 18 8 17 9 19 10 9 11 7 12
REMARK SMILES IDX 6 13 8 14 5 15 4 16 2 17 3 18 1 19
REMARK H PARENT
REMARK Flexibility Score: inf
ROOT
ATOM      1  C   UNL     1      83.156  -7.144  26.367  1.00  0.00     0.032 C 
ENDROOT
BRANCH   1   2
ATOM      2  C   UNL     1      83.887  -7.819  27.501  1.00  0.00    -0.028 C 
ATOM      3  C   UNL     1      84.097  -9.152  27.590  1.00  0.00    -0.077 C 
ATOM      4  C   UNL     1      83.651 -10.105  26.505  1.00  0.00     0.039 C 
BRANCH   3   5
ATOM      5  C   UNL     1      84.817  -9.706  28.804  1.00  0.00     0.034 C 
BRANCH   5   6
ATOM      6  C   UNL     1      84.703  -8.769  30.015  1.00  0.00     0.032 C 
BRANCH   6   7
ATOM      7  C   UNL     1      86.059  -8.393  30.563  1.00  0.00    -0.028 C 
ATOM      8  C   UNL     1      87.935  -6.922  31.155  1.00  0.00     0.039 C 
ATOM      9  C   UNL     1      86.588  -7.151  30.518  1.00  0.00    -0.080 C 
ATOM     10  C   UNL     1      85.881  -6.003  29.837  1.00  0.00     0.039 C 
ENDBRANCH   6   7
ENDBRANCH   5   6
ENDBRANCH   3   5
ENDBRANCH   1   2
BRANCH   1  11
ATOM     11  C   UNL     1      82.014  -6.274  26.900  1.00  0.00     0.034 C 
BRANCH  11  12
ATOM     12  C   UNL     1      82.561  -5.078  27.654  1.00  0.00    -0.077 C 
ATOM     13  C   UNL     1      82.431  -4.933  28.991  1.00  0.00    -0.028 C 
ATOM     14  C   UNL     1      83.335  -4.034  26.890  1.00  0.00     0.039 C 
BRANCH  13  15
ATOM     15  C   UNL     1      81.691  -5.913  29.873  1.00  0.00     0.035 C 
BRANCH  15  16
ATOM     16  C   UNL     1      80.327  -5.371  30.320  1.00  0.00     0.079 C 
BRANCH  16  17
ATOM     17  C   UNL     1      79.231  -5.754  29.359  1.00  0.00     0.130 C 
ATOM     18  O   UNL     1      79.116  -6.919  29.010  1.00  0.00    -0.300 OA
ATOM     19  C   UNL     1      78.264  -4.736  28.830  1.00  0.00     0.087 C 
ENDBRANCH  16  17
ENDBRANCH  15  16
ENDBRANCH  13  15
ENDBRANCH  11  12
ENDBRANCH   1  11
TORSDOF 9
ENDMDL
MODEL 3
REMARK VINA RESULT:    -3.806      1.793      4.811
REMARK INTER + INTRA:          -8.072
REMARK INTER:                  -5.648
REMARK INTRA:                  -2.424
REMARK UNBOUND:                -2.264
REMARK SMILES CC(=O)CCC=C(C)CCC=C(C)CCC=C(C)C
REMARK SMILES IDX 10 1 11 2 12 3 13 4 14 5 15 6 16 7 18 8 17 9 19 10 9 11 7 12
REMARK SMILES IDX 6 13 8 14 5 15 4 16 2 17 3 18 1 19
REMARK H PARENT
REMARK Flexibility Score: inf
ROOT
ATOM      1  C   UNL     1      84.203  -7.367  27.606  1.00  0.00     0.032 C 
ENDROOT
BRANCH   1   2
ATOM      2  C   UNL     1      84.465  -6.539  28.840  1.00  0.00    -0.028 C 
ATOM      3  C   UNL     1      84.126  -5.236  28.973  1.00  0.00    -0.077 C 
ATOM      4  C   UNL     1      83.388  -4.489  27.886  1.00  0.00     0.039 C 
BRANCH   3   5
ATOM      5  C   UNL     1      84.479  -4.510  30.255  1.00  0.00     0.034 C 
BRANCH   5   6
ATOM      6  C   UNL     1      84.960  -5.476  31.347  1.00  0.00     0.032 C 
BRANCH   6   7
ATOM      7  C   UNL     1      86.455  -5.398  31.546  1.00  0.00    -0.028 C 
ATOM      8  C   UNL     1      88.780  -6.188  31.583  1.00  0.00     0.039 C 
ATOM      9  C   UNL     1      87.305  -6.437  31.400  1.00  0.00    -0.080 C 
ATOM     10  C   UNL     1      86.819  -7.830  31.078  1.00  0.00     0.039 C 
ENDBRANCH   6   7
ENDBRANCH   5   6
ENDBRANCH   3   5
ENDBRANCH   1   2
BRANCH   1  11
ATOM     11  C   UNL     1      82.905  -8.166  27.755  1.00  0.00     0.034 C 
BRANCH  11  12
ATOM     12  C   UNL     1      81.877  -7.709  26.739  1.00  0.00    -0.077 C 
ATOM     13  C   UNL     1      80.631  -7.314  27.085  1.00  0.00    -0.028 C 
ATOM     14  C   UNL     1      82.278  -7.635  25.288  1.00  0.00     0.039 C 
BRANCH  13  15
ATOM     15  C   UNL     1      80.110  -7.328  28.504  1.00  0.00     0.035 C 
BRANCH  15  16
ATOM     16  C   UNL     1      80.187  -5.942  29.159  1.00  0.00     0.079 C 
BRANCH  16  17
ATOM     17  C   UNL     1      80.926  -5.985  30.473  1.00  0.00     0.130 C 
ATOM     18  O   UNL     1      81.075  -4.956  31.114  1.00  0.00    -0.300 OA
ATOM     19  C   UNL     1      81.474  -7.270  31.019  1.00  0.00     0.087 C 
ENDBRANCH  16  17
ENDBRANCH  15  16
ENDBRANCH  13  15
ENDBRANCH  11  12
ENDBRANCH   1  11
TORSDOF 9
ENDMDL
MODEL 4
REMARK VINA RESULT:    -3.778      2.562      4.960
REMARK INTER + INTRA:          -8.029
REMARK INTER:                  -5.161
REMARK INTRA:                  -2.868
REMARK UNBOUND:                -2.264
REMARK SMILES CC(=O)CCC=C(C)CCC=C(C)CCC=C(C)C
REMARK SMILES IDX 10 1 11 2 12 3 13 4 14 5 15 6 16 7 18 8 17 9 19 10 9 11 7 12
REMARK SMILES IDX 6 13 8 14 5 15 4 16 2 17 3 18 1 19
REMARK H PARENT
REMARK Flexibility Score: inf
ROOT
ATOM      1  C   UNL     1      83.254  -5.514  30.595  1.00  0.00     0.032 C 
ENDROOT
BRANCH   1   2
ATOM      2  C   UNL     1      82.071  -5.443  29.661  1.00  0.00    -0.028 C 
ATOM      3  C   UNL     1      82.099  -4.875  28.434  1.00  0.00    -0.077 C 
ATOM      4  C   UNL     1      83.366  -4.291  27.853  1.00  0.00     0.039 C 
BRANCH   3   5
ATOM      5  C   UNL     1      80.828  -4.840  27.609  1.00  0.00     0.034 C 
BRANCH   5   6
ATOM      6  C   UNL     1      79.768  -5.811  28.147  1.00  0.00     0.032 C 
BRANCH   6   7
ATOM      7  C   UNL     1      79.675  -7.062  27.306  1.00  0.00    -0.028 C 
ATOM      8  C   UNL     1      79.691  -9.469  26.814  1.00  0.00     0.039 C 
ATOM      9  C   UNL     1      79.869  -8.316  27.769  1.00  0.00    -0.080 C 
ATOM     10  C   UNL     1      80.275  -8.588  29.198  1.00  0.00     0.039 C 
ENDBRANCH   6   7
ENDBRANCH   5   6
ENDBRANCH   3   5
ENDBRANCH   1   2
BRANCH   1  11
ATOM     11  C   UNL     1      83.842  -6.928  30.618  1.00  0.00     0.034 C 
BRANCH  11  12
ATOM     12  C   UNL     1      85.017  -7.034  29.667  1.00  0.00    -0.077 C 
ATOM     13  C   UNL     1      84.929  -7.634  28.459  1.00  0.00    -0.028 C 
ATOM     14  C   UNL     1      86.323  -6.391  30.056  1.00  0.00     0.039 C 
BRANCH  13  15
ATOM     15  C   UNL     1      83.675  -8.304  27.944  1.00  0.00     0.035 C 
BRANCH  15  16
ATOM     16  C   UNL     1      83.930  -9.087  26.649  1.00  0.00     0.079 C 
BRANCH  16  17
ATOM     17  C   UNL     1      83.096  -8.566  25.507  1.00  0.00     0.130 C 
ATOM     18  O   UNL     1      82.641  -9.349  24.686  1.00  0.00    -0.300 OA
ATOM     19  C   UNL     1      82.798  -7.103  25.360  1.00  0.00     0.087 C 
ENDBRANCH  16  17
ENDBRANCH  15  16
ENDBRANCH  13  15
ENDBRANCH  11  12
ENDBRANCH   1  11
TORSDOF 9
ENDMDL
MODEL 5
REMARK VINA RESULT:    -3.762      2.377      5.180
REMARK INTER + INTRA:          -8.006
REMARK INTER:                  -6.219
REMARK INTRA:                  -1.787
REMARK UNBOUND:                -2.264
REMARK SMILES CC(=O)CCC=C(C)CCC=C(C)CCC=C(C)C
REMARK SMILES IDX 10 1 11 2 12 3 13 4 14 5 15 6 16 7 18 8 17 9 19 10 9 11 7 12
REMARK SMILES IDX 6 13 8 14 5 15 4 16 2 17 3 18 1 19
REMARK H PARENT
REMARK Flexibility Score: inf
ROOT
ATOM      1  C   UNL     1      82.261  -4.877  27.440  1.00  0.00     0.032 C 
ENDROOT
BRANCH   1   2
ATOM      2  C   UNL     1      83.379  -4.479  28.371  1.00  0.00    -0.028 C 
ATOM      3  C   UNL     1      83.355  -4.654  29.712  1.00  0.00    -0.077 C 
ATOM      4  C   UNL     1      82.196  -5.329  30.409  1.00  0.00     0.039 C 
BRANCH   3   5
ATOM      5  C   UNL     1      84.532  -4.176  30.539  1.00  0.00     0.034 C 
BRANCH   5   6
ATOM      6  C   UNL     1      84.911  -5.184  31.633  1.00  0.00     0.032 C 
BRANCH   6   7
ATOM      7  C   UNL     1      86.408  -5.343  31.755  1.00  0.00    -0.028 C 
ATOM      8  C   UNL     1      88.619  -6.341  31.372  1.00  0.00     0.039 C 
ATOM      9  C   UNL     1      87.122  -6.348  31.203  1.00  0.00    -0.080 C 
ATOM     10  C   UNL     1      86.462  -7.476  30.445  1.00  0.00     0.039 C 
ENDBRANCH   6   7
ENDBRANCH   5   6
ENDBRANCH   3   5
ENDBRANCH   1   2
BRANCH   1  11
ATOM     11  C   UNL     1      82.699  -6.026  26.527  1.00  0.00     0.034 C 
BRANCH  11  12
ATOM     12  C   UNL     1      82.604  -7.353  27.254  1.00  0.00    -0.077 C 
ATOM     13  C   UNL     1      81.440  -8.026  27.398  1.00  0.00    -0.028 C 
ATOM     14  C   UNL     1      83.867  -7.978  27.786  1.00  0.00     0.039 C 
BRANCH  13  15
ATOM     15  C   UNL     1      80.108  -7.516  26.899  1.00  0.00     0.035 C 
BRANCH  15  16
ATOM     16  C   UNL     1      79.174  -7.119  28.050  1.00  0.00     0.079 C 
BRANCH  16  17
ATOM     17  C   UNL     1      78.563  -5.758  27.831  1.00  0.00     0.130 C 
ATOM     18  O   UNL     1      77.836  -5.572  26.868  1.00  0.00    -0.300 OA
ATOM     19  C   UNL     1      78.820  -4.624  28.780  1.00  0.00     0.087 C 
ENDBRANCH  16  17
ENDBRANCH  15  16
ENDBRANCH  13  15
ENDBRANCH  11  12
ENDBRANCH   1  11
TORSDOF 9
ENDMDL
MODEL 6
REMARK VINA RESULT:    -3.761      1.657      4.253
REMARK INTER + INTRA:          -8.004
REMARK INTER:                  -6.489
REMARK INTRA:                  -1.515
REMARK UNBOUND:                -2.264
REMARK SMILES CC(=O)CCC=C(C)CCC=C(C)CCC=C(C)C
REMARK SMILES IDX 10 1 11 2 12 3 13 4 14 5 15 6 16 7 18 8 17 9 19 10 9 11 7 12
REMARK SMILES IDX 6 13 8 14 5 15 4 16 2 17 3 18 1 19
REMARK H PARENT
REMARK Flexibility Score: inf
ROOT
ATOM      1  C   UNL     1      84.328  -6.559  27.942  1.00  0.00     0.032 C 
ENDROOT
BRANCH   1   2
ATOM      2  C   UNL     1      85.098  -7.339  28.980  1.00  0.00    -0.028 C 
ATOM      3  C   UNL     1      85.021  -8.679  29.141  1.00  0.00    -0.077 C 
ATOM      4  C   UNL     1      84.174  -9.545  28.238  1.00  0.00     0.039 C 
BRANCH   3   5
ATOM      5  C   UNL     1      85.822  -9.335  30.248  1.00  0.00     0.034 C 
BRANCH   5   6
ATOM      6  C   UNL     1      86.003  -8.403  31.454  1.00  0.00     0.032 C 
BRANCH   6   7
ATOM      7  C   UNL     1      87.388  -7.801  31.494  1.00  0.00    -0.028 C 
ATOM      8  C   UNL     1      89.089  -6.045  31.736  1.00  0.00     0.039 C 
ATOM      9  C   UNL     1      87.650  -6.486  31.667  1.00  0.00    -0.080 C 
ATOM     10  C   UNL     1      86.549  -5.458  31.774  1.00  0.00     0.039 C 
ENDBRANCH   6   7
ENDBRANCH   5   6
ENDBRANCH   3   5
ENDBRANCH   1   2
BRANCH   1  11
ATOM     11  C   UNL     1      83.934  -5.181  28.481  1.00  0.00     0.034 C 
BRANCH  11  12
ATOM     12  C   UNL     1      82.879  -4.543  27.599  1.00  0.00    -0.077 C 
ATOM     13  C   UNL     1      81.570  -4.870  27.671  1.00  0.00    -0.028 C 
ATOM     14  C   UNL     1      83.297  -3.456  26.643  1.00  0.00     0.039 C 
BRANCH  13  15
ATOM     15  C   UNL     1      81.020  -5.932  28.596  1.00  0.00     0.035 C 
BRANCH  15  16
ATOM     16  C   UNL     1      80.195  -5.328  29.740  1.00  0.00     0.079 C 
BRANCH  16  17
ATOM     17  C   UNL     1      80.806  -5.625  31.087  1.00  0.00     0.130 C 
ATOM     18  O   UNL     1      80.332  -5.112  32.089  1.00  0.00    -0.300 OA
ATOM     19  C   UNL     1      81.979  -6.550  31.226  1.00  0.00     0.087 C 
ENDBRANCH  16  17
ENDBRANCH  15  16
ENDBRANCH  13  15
ENDBRANCH  11  12
ENDBRANCH   1  11
TORSDOF 9
ENDMDL
MODEL 7
REMARK VINA RESULT:    -3.756      1.385      2.108
REMARK INTER + INTRA:          -7.996
REMARK INTER:                  -5.500
REMARK INTRA:                  -2.496
REMARK UNBOUND:                -2.264
REMARK SMILES CC(=O)CCC=C(C)CCC=C(C)CCC=C(C)C
REMARK SMILES IDX 10 1 11 2 12 3 13 4 14 5 15 6 16 7 18 8 17 9 19 10 9 11 7 12
REMARK SMILES IDX 6 13 8 14 5 15 4 16 2 17 3 18 1 19
REMARK H PARENT
REMARK Flexibility Score: inf
ROOT
ATOM      1  C   UNL     1      85.225  -5.995  29.046  1.00  0.00     0.032 C 
ENDROOT
BRANCH   1   2
ATOM      2  C   UNL     1      84.878  -7.315  28.403  1.00  0.00    -0.028 C 
ATOM      3  C   UNL     1      84.540  -8.432  29.087  1.00  0.00    -0.077 C 
ATOM      4  C   UNL     1      84.427  -8.443  30.594  1.00  0.00     0.039 C 
BRANCH   3   5
ATOM      5  C   UNL     1      84.248  -9.706  28.319  1.00  0.00     0.034 C 
BRANCH   5   6
ATOM      6  C   UNL     1      84.063  -9.441  26.818  1.00  0.00     0.032 C 
BRANCH   6   7
ATOM      7  C   UNL     1      82.603  -9.406  26.431  1.00  0.00    -0.028 C 
ATOM      8  C   UNL     1      80.547  -8.513  25.428  1.00  0.00     0.039 C 
ATOM      9  C   UNL     1      82.002  -8.378  25.792  1.00  0.00    -0.080 C 
ATOM     10  C   UNL     1      82.739  -7.103  25.455  1.00  0.00     0.039 C 
ENDBRANCH   6   7
ENDBRANCH   5   6
ENDBRANCH   3   5
ENDBRANCH   1   2
BRANCH   1  11
ATOM     11  C   UNL     1      84.112  -4.969  28.810  1.00  0.00     0.034 C 
BRANCH  11  12
ATOM     12  C   UNL     1      83.185  -4.902  30.008  1.00  0.00    -0.077 C 
ATOM     13  C   UNL     1      81.957  -5.466  30.015  1.00  0.00    -0.028 C 
ATOM     14  C   UNL     1      83.675  -4.230  31.264  1.00  0.00     0.039 C 
BRANCH  13  15
ATOM     15  C   UNL     1      81.354  -6.180  28.826  1.00  0.00     0.035 C 
BRANCH  15  16
ATOM     16  C   UNL     1      80.553  -5.228  27.928  1.00  0.00     0.079 C 
BRANCH  16  17
ATOM     17  C   UNL     1      79.070  -5.335  28.181  1.00  0.00     0.130 C 
ATOM     18  O   UNL     1      78.495  -4.439  28.779  1.00  0.00    -0.300 OA
ATOM     19  C   UNL     1      78.279  -6.516  27.701  1.00  0.00     0.087 C 
ENDBRANCH  16  17
ENDBRANCH  15  16
ENDBRANCH  13  15
ENDBRANCH  11  12
ENDBRANCH   1  11
TORSDOF 9
ENDMDL
MODEL 8
REMARK VINA RESULT:    -3.727      1.635      2.344
REMARK INTER + INTRA:          -7.952
REMARK INTER:                  -5.430
REMARK INTRA:                  -2.522
REMARK UNBOUND:                -2.264
REMARK SMILES CC(=O)CCC=C(C)CCC=C(C)CCC=C(C)C
REMARK SMILES IDX 10 1 11 2 12 3 13 4 14 5 15 6 16 7 18 8 17 9 19 10 9 11 7 12
REMARK SMILES IDX 6 13 8 14 5 15 4 16 2 17 3 18 1 19
REMARK H PARENT
REMARK Flexibility Score: inf
ROOT
ATOM      1  C   UNL     1      83.061  -5.798  30.428  1.00  0.00     0.032 C 
ENDROOT
BRANCH   1   2
ATOM      2  C   UNL     1      83.502  -7.187  30.036  1.00  0.00    -0.028 C 
ATOM      3  C   UNL     1      84.649  -7.467  29.377  1.00  0.00    -0.077 C 
ATOM      4  C   UNL     1      85.643  -6.389  29.010  1.00  0.00     0.039 C 
BRANCH   3   5
ATOM      5  C   UNL     1      84.957  -8.906  29.012  1.00  0.00     0.034 C 
BRANCH   5   6
ATOM      6  C   UNL     1      83.915  -9.487  28.046  1.00  0.00     0.032 C 
BRANCH   6   7
ATOM      7  C   UNL     1      83.798  -8.662  26.786  1.00  0.00    -0.028 C 
ATOM      8  C   UNL     1      82.826  -7.889  24.667  1.00  0.00     0.039 C 
ATOM      9  C   UNL     1      82.840  -8.826  25.847  1.00  0.00    -0.080 C 
ATOM     10  C   UNL     1      81.806  -9.923  25.940  1.00  0.00     0.039 C 
ENDBRANCH   6   7
ENDBRANCH   5   6
ENDBRANCH   3   5
ENDBRANCH   1   2
BRANCH   1  11
ATOM     11  C   UNL     1      81.705  -5.463  29.800  1.00  0.00     0.034 C 
BRANCH  11  12
ATOM     12  C   UNL     1      81.813  -5.419  28.288  1.00  0.00    -0.077 C 
ATOM     13  C   UNL     1      81.068  -6.205  27.478  1.00  0.00    -0.028 C 
ATOM     14  C   UNL     1      82.745  -4.417  27.659  1.00  0.00     0.039 C 
BRANCH  13  15
ATOM     15  C   UNL     1      80.088  -7.239  27.982  1.00  0.00     0.035 C 
BRANCH  15  16
ATOM     16  C   UNL     1      78.632  -6.832  27.714  1.00  0.00     0.079 C 
BRANCH  16  17
ATOM     17  C   UNL     1      78.066  -6.007  28.843  1.00  0.00     0.130 C 
ATOM     18  O   UNL     1      77.565  -6.567  29.806  1.00  0.00    -0.300 OA
ATOM     19  C   UNL     1      78.114  -4.508  28.815  1.00  0.00     0.087 C 
ENDBRANCH  16  17
ENDBRANCH  15  16
ENDBRANCH  13  15
ENDBRANCH  11  12
ENDBRANCH   1  11
TORSDOF 9
ENDMDL
MODEL 9
REMARK VINA RESULT:    -3.692      1.879      4.055
REMARK INTER + INTRA:          -7.899
REMARK INTER:                  -5.452
REMARK INTRA:                  -2.446
REMARK UNBOUND:                -2.264
REMARK SMILES CC(=O)CCC=C(C)CCC=C(C)CCC=C(C)C
REMARK SMILES IDX 10 1 11 2 12 3 13 4 14 5 15 6 16 7 18 8 17 9 19 10 9 11 7 12
REMARK SMILES IDX 6 13 8 14 5 15 4 16 2 17 3 18 1 19
REMARK H PARENT
REMARK Flexibility Score: inf
ROOT
ATOM      1  C   UNL     1      83.886  -7.508  26.865  1.00  0.00     0.032 C 
ENDROOT
BRANCH   1   2
ATOM      2  C   UNL     1      83.824  -7.942  28.309  1.00  0.00    -0.028 C 
ATOM      3  C   UNL     1      84.639  -7.478  29.283  1.00  0.00    -0.077 C 
ATOM      4  C   UNL     1      85.679  -6.415  29.014  1.00  0.00     0.039 C 
BRANCH   3   5
ATOM      5  C   UNL     1      84.493  -8.025  30.689  1.00  0.00     0.034 C 
BRANCH   5   6
ATOM      6  C   UNL     1      84.413  -6.903  31.734  1.00  0.00     0.032 C 
BRANCH   6   7
ATOM      7  C   UNL     1      83.004  -6.381  31.889  1.00  0.00    -0.028 C 
ATOM      8  C   UNL     1      81.149  -4.781  31.712  1.00  0.00     0.039 C 
ATOM      9  C   UNL     1      82.604  -5.138  31.543  1.00  0.00    -0.080 C 
ATOM     10  C   UNL     1      83.569  -4.103  31.016  1.00  0.00     0.039 C 
ENDBRANCH   6   7
ENDBRANCH   5   6
ENDBRANCH   3   5
ENDBRANCH   1   2
BRANCH   1  11
ATOM     11  C   UNL     1      82.557  -6.885  26.429  1.00  0.00     0.034 C 
BRANCH  11  12
ATOM     12  C   UNL     1      82.258  -5.640  27.241  1.00  0.00    -0.077 C 
ATOM     13  C   UNL     1      81.204  -5.551  28.082  1.00  0.00    -0.028 C 
ATOM     14  C   UNL     1      83.209  -4.474  27.154  1.00  0.00     0.039 C 
BRANCH  13  15
ATOM     15  C   UNL     1      80.186  -6.652  28.272  1.00  0.00     0.035 C 
BRANCH  15  16
ATOM     16  C   UNL     1      78.978  -6.185  29.096  1.00  0.00     0.079 C 
BRANCH  16  17
ATOM     17  C   UNL     1      77.976  -5.443  28.248  1.00  0.00     0.130 C 
ATOM     18  O   UNL     1      77.364  -4.499  28.725  1.00  0.00    -0.300 OA
ATOM     19  C   UNL     1      77.722  -5.830  26.820  1.00  0.00     0.087 C 
ENDBRANCH  16  17
ENDBRANCH  15  16
ENDBRANCH  13  15
ENDBRANCH  11  12
ENDBRANCH   1  11
TORSDOF 9
ENDMDL
