MODEL 1
REMARK VINA RESULT:    -5.548      0.000      0.000
REMARK INTER + INTRA:          -5.548
REMARK INTER:                  -5.548
REMARK INTRA:                   0.000
REMARK UNBOUND:                 0.000
REMARK SMILES CC1=CC(=O)[C@H]2C[C@@H]1C2(C)C
REMARK SMILES IDX 1 1 2 2 3 3 4 4 5 5 6 6 7 7 8 8 9 9 10 10 11 11
REMARK H PARENT
REMARK Flexibility Score: inf
ROOT
ATOM      1  C   UNL     1      -4.875 -15.972  -9.125  1.00  0.00     0.040 C 
ATOM      2  C   UNL     1      -4.198 -15.258  -7.998  1.00  0.00    -0.066 C 
ATOM      3  C   UNL     1      -4.353 -15.664  -6.707  1.00  0.00     0.047 C 
ATOM      4  C   UNL     1      -3.648 -14.848  -5.666  1.00  0.00     0.159 C 
ATOM      5  O   UNL     1      -3.745 -15.098  -4.437  1.00  0.00    -0.295 OA
ATOM      6  C   UNL     1      -2.805 -13.690  -6.202  1.00  0.00     0.067 C 
ATOM      7  C   UNL     1      -2.023 -14.307  -7.383  1.00  0.00     0.021 C 
ATOM      8  C   UNL     1      -3.279 -14.041  -8.241  1.00  0.00     0.022 C 
ATOM      9  C   UNL     1      -3.650 -12.905  -7.245  1.00  0.00    -0.019 C 
ATOM     10  C   UNL     1      -5.155 -12.656  -6.941  1.00  0.00     0.012 C 
ATOM     11  C   UNL     1      -3.003 -11.550  -7.629  1.00  0.00     0.012 C 
ENDROOT
TORSDOF 0
ENDMDL
MODEL 2
REMARK VINA RESULT:    -5.207      1.937      3.021
REMARK INTER + INTRA:          -5.207
REMARK INTER:                  -5.207
REMARK INTRA:                   0.000
REMARK UNBOUND:                 0.000
REMARK SMILES CC1=CC(=O)[C@H]2C[C@@H]1C2(C)C
REMARK SMILES IDX 1 1 2 2 3 3 4 4 5 5 6 6 7 7 8 8 9 9 10 10 11 11
REMARK H PARENT
REMARK Flexibility Score: inf
ROOT
ATOM      1  C   UNL     1      -2.613 -15.659  -5.833  1.00  0.00     0.040 C 
ATOM      2  C   UNL     1      -3.000 -14.534  -6.741  1.00  0.00    -0.066 C 
ATOM      3  C   UNL     1      -2.577 -13.260  -6.510  1.00  0.00     0.047 C 
ATOM      4  C   UNL     1      -3.058 -12.218  -7.473  1.00  0.00     0.159 C 
ATOM      5  O   UNL     1      -2.769 -10.999  -7.344  1.00  0.00    -0.295 OA
ATOM      6  C   UNL     1      -3.925 -12.736  -8.621  1.00  0.00     0.067 C 
ATOM      7  C   UNL     1      -3.174 -13.988  -9.125  1.00  0.00     0.021 C 
ATOM      8  C   UNL     1      -3.879 -14.762  -7.989  1.00  0.00     0.022 C 
ATOM      9  C   UNL     1      -5.004 -13.689  -8.033  1.00  0.00    -0.019 C 
ATOM     10  C   UNL     1      -5.694 -13.291  -6.697  1.00  0.00     0.012 C 
ATOM     11  C   UNL     1      -6.109 -14.035  -9.063  1.00  0.00     0.012 C 
ENDROOT
TORSDOF 0
ENDMDL
MODEL 3
REMARK VINA RESULT:    -4.886      1.251      3.256
REMARK INTER + INTRA:          -4.886
REMARK INTER:                  -4.886
REMARK INTRA:                   0.000
REMARK UNBOUND:                 0.000
REMARK SMILES CC1=CC(=O)[C@H]2C[C@@H]1C2(C)C
REMARK SMILES IDX 1 1 2 2 3 3 4 4 5 5 6 6 7 7 8 8 9 9 10 10 11 11
REMARK H PARENT
REMARK Flexibility Score: inf
ROOT
ATOM      1  C   UNL     1      -2.693 -10.996  -8.421  1.00  0.00     0.040 C 
ATOM      2  C   UNL     1      -3.445 -12.121  -7.784  1.00  0.00    -0.066 C 
ATOM      3  C   UNL     1      -2.885 -12.883  -6.803  1.00  0.00     0.047 C 
ATOM      4  C   UNL     1      -3.729 -13.999  -6.268  1.00  0.00     0.159 C 
ATOM      5  O   UNL     1      -3.309 -14.796  -5.389  1.00  0.00    -0.295 OA
ATOM      6  C   UNL     1      -5.133 -14.103  -6.864  1.00  0.00     0.067 C 
ATOM      7  C   UNL     1      -5.654 -12.649  -6.859  1.00  0.00     0.021 C 
ATOM      8  C   UNL     1      -4.895 -12.464  -8.191  1.00  0.00     0.022 C 
ATOM      9  C   UNL     1      -5.022 -13.999  -8.412  1.00  0.00    -0.019 C 
ATOM     10  C   UNL     1      -3.851 -14.739  -9.120  1.00  0.00     0.012 C 
ATOM     11  C   UNL     1      -6.342 -14.385  -9.125  1.00  0.00     0.012 C 
ENDROOT
TORSDOF 0
ENDMDL
MODEL 4
REMARK VINA RESULT:    -4.858      1.697      3.321
REMARK INTER + INTRA:          -4.858
REMARK INTER:                  -4.858
REMARK INTRA:                   0.000
REMARK UNBOUND:                 0.000
REMARK SMILES CC1=CC(=O)[C@H]2C[C@@H]1C2(C)C
REMARK SMILES IDX 1 1 2 2 3 3 4 4 5 5 6 6 7 7 8 8 9 9 10 10 11 11
REMARK H PARENT
REMARK Flexibility Score: inf
ROOT
ATOM      1  C   UNL     1      -3.150 -11.389  -9.124  1.00  0.00     0.040 C 
ATOM      2  C   UNL     1      -3.977 -12.315  -8.288  1.00  0.00    -0.066 C 
ATOM      3  C   UNL     1      -4.919 -11.840  -7.426  1.00  0.00     0.047 C 
ATOM      4  C   UNL     1      -5.658 -12.867  -6.623  1.00  0.00     0.159 C 
ATOM      5  O   UNL     1      -6.524 -12.552  -5.765  1.00  0.00    -0.295 OA
ATOM      6  C   UNL     1      -5.287 -14.321  -6.917  1.00  0.00     0.067 C 
ATOM      7  C   UNL     1      -5.258 -14.399  -8.459  1.00  0.00     0.021 C 
ATOM      8  C   UNL     1      -3.818 -13.848  -8.374  1.00  0.00     0.022 C 
ATOM      9  C   UNL     1      -3.737 -14.441  -6.937  1.00  0.00    -0.019 C 
ATOM     10  C   UNL     1      -2.921 -13.663  -5.865  1.00  0.00     0.012 C 
ATOM     11  C   UNL     1      -3.260 -15.915  -6.933  1.00  0.00     0.012 C 
ENDROOT
TORSDOF 0
ENDMDL
MODEL 5
REMARK VINA RESULT:    -4.830      1.491      2.358
REMARK INTER + INTRA:          -4.830
REMARK INTER:                  -4.830
REMARK INTRA:                   0.000
REMARK UNBOUND:                 0.000
REMARK SMILES CC1=CC(=O)[C@H]2C[C@@H]1C2(C)C
REMARK SMILES IDX 1 1 2 2 3 3 4 4 5 5 6 6 7 7 8 8 9 9 10 10 11 11
REMARK H PARENT
REMARK Flexibility Score: inf
ROOT
ATOM      1  C   UNL     1      -3.743 -17.252  -6.000  1.00  0.00     0.040 C 
ATOM      2  C   UNL     1      -3.870 -15.801  -6.341  1.00  0.00    -0.066 C 
ATOM      3  C   UNL     1      -5.003 -15.101  -6.053  1.00  0.00     0.047 C 
ATOM      4  C   UNL     1      -5.019 -13.663  -6.473  1.00  0.00     0.159 C 
ATOM      5  O   UNL     1      -6.022 -12.923  -6.299  1.00  0.00    -0.295 OA
ATOM      6  C   UNL     1      -3.733 -13.158  -7.129  1.00  0.00     0.067 C 
ATOM      7  C   UNL     1      -2.608 -13.702  -6.222  1.00  0.00     0.021 C 
ATOM      8  C   UNL     1      -2.722 -15.021  -7.017  1.00  0.00     0.022 C 
ATOM      9  C   UNL     1      -3.289 -14.190  -8.204  1.00  0.00    -0.019 C 
ATOM     10  C   UNL     1      -4.381 -14.840  -9.101  1.00  0.00     0.012 C 
ATOM     11  C   UNL     1      -2.171 -13.638  -9.125  1.00  0.00     0.012 C 
ENDROOT
TORSDOF 0
ENDMDL
MODEL 6
REMARK VINA RESULT:    -4.750      1.900      2.923
REMARK INTER + INTRA:          -4.750
REMARK INTER:                  -4.750
REMARK INTRA:                   0.000
REMARK UNBOUND:                 0.000
REMARK SMILES CC1=CC(=O)[C@H]2C[C@@H]1C2(C)C
REMARK SMILES IDX 1 1 2 2 3 3 4 4 5 5 6 6 7 7 8 8 9 9 10 10 11 11
REMARK H PARENT
REMARK Flexibility Score: inf
ROOT
ATOM      1  C   UNL     1      -2.667 -15.745  -5.772  1.00  0.00     0.040 C 
ATOM      2  C   UNL     1      -3.611 -14.966  -6.633  1.00  0.00    -0.066 C 
ATOM      3  C   UNL     1      -4.495 -15.589  -7.461  1.00  0.00     0.047 C 
ATOM      4  C   UNL     1      -5.365 -14.697  -8.294  1.00  0.00     0.159 C 
ATOM      5  O   UNL     1      -6.193 -15.153  -9.125  1.00  0.00    -0.295 OA
ATOM      6  C   UNL     1      -5.174 -13.198  -8.065  1.00  0.00     0.067 C 
ATOM      7  C   UNL     1      -5.140 -13.051  -6.528  1.00  0.00     0.021 C 
ATOM      8  C   UNL     1      -3.643 -13.422  -6.613  1.00  0.00     0.022 C 
ATOM      9  C   UNL     1      -3.651 -12.886  -8.074  1.00  0.00    -0.019 C 
ATOM     10  C   UNL     1      -2.756 -13.602  -9.125  1.00  0.00     0.012 C 
ATOM     11  C   UNL     1      -3.360 -11.366  -8.145  1.00  0.00     0.012 C 
ENDROOT
TORSDOF 0
ENDMDL
MODEL 7
REMARK VINA RESULT:    -4.386      1.273      2.749
REMARK INTER + INTRA:          -4.386
REMARK INTER:                  -4.386
REMARK INTRA:                   0.000
REMARK UNBOUND:                 0.000
REMARK SMILES CC1=CC(=O)[C@H]2C[C@@H]1C2(C)C
REMARK SMILES IDX 1 1 2 2 3 3 4 4 5 5 6 6 7 7 8 8 9 9 10 10 11 11
REMARK H PARENT
REMARK Flexibility Score: inf
ROOT
ATOM      1  C   UNL     1      -1.180 -14.363  -7.062  1.00  0.00     0.040 C 
ATOM      2  C   UNL     1      -2.643 -14.510  -6.784  1.00  0.00    -0.066 C 
ATOM      3  C   UNL     1      -3.105 -15.415  -5.877  1.00  0.00     0.047 C 
ATOM      4  C   UNL     1      -4.592 -15.488  -5.711  1.00  0.00     0.159 C 
ATOM      5  O   UNL     1      -5.142 -16.310  -4.933  1.00  0.00    -0.295 OA
ATOM      6  C   UNL     1      -5.394 -14.496  -6.554  1.00  0.00     0.067 C 
ATOM      7  C   UNL     1      -4.647 -13.156  -6.375  1.00  0.00     0.021 C 
ATOM      8  C   UNL     1      -3.698 -13.635  -7.496  1.00  0.00     0.022 C 
ATOM      9  C   UNL     1      -4.855 -14.537  -8.012  1.00  0.00    -0.019 C 
ATOM     10  C   UNL     1      -4.493 -15.919  -8.627  1.00  0.00     0.012 C 
ATOM     11  C   UNL     1      -5.784 -13.794  -9.005  1.00  0.00     0.012 C 
ENDROOT
TORSDOF 0
ENDMDL
MODEL 8
REMARK VINA RESULT:    -4.381      1.780      3.086
REMARK INTER + INTRA:          -4.381
REMARK INTER:                  -4.381
REMARK INTRA:                   0.000
REMARK UNBOUND:                 0.000
REMARK SMILES CC1=CC(=O)[C@H]2C[C@@H]1C2(C)C
REMARK SMILES IDX 1 1 2 2 3 3 4 4 5 5 6 6 7 7 8 8 9 9 10 10 11 11
REMARK H PARENT
REMARK Flexibility Score: inf
ROOT
ATOM      1  C   UNL     1      -6.002 -12.478  -6.123  1.00  0.00     0.040 C 
ATOM      2  C   UNL     1      -5.093 -13.354  -6.927  1.00  0.00    -0.066 C 
ATOM      3  C   UNL     1      -5.582 -14.373  -7.688  1.00  0.00     0.047 C 
ATOM      4  C   UNL     1      -4.568 -15.197  -8.422  1.00  0.00     0.159 C 
ATOM      5  O   UNL     1      -4.890 -16.189  -9.125  1.00  0.00    -0.295 OA
ATOM      6  C   UNL     1      -3.115 -14.749  -8.255  1.00  0.00     0.067 C 
ATOM      7  C   UNL     1      -3.168 -13.217  -8.440  1.00  0.00     0.021 C 
ATOM      8  C   UNL     1      -3.565 -13.136  -6.949  1.00  0.00     0.022 C 
ATOM      9  C   UNL     1      -2.845 -14.500  -6.743  1.00  0.00    -0.019 C 
ATOM     10  C   UNL     1      -3.443 -15.499  -5.712  1.00  0.00     0.012 C 
ATOM     11  C   UNL     1      -1.337 -14.330  -6.434  1.00  0.00     0.012 C 
ENDROOT
TORSDOF 0
ENDMDL
MODEL 9
REMARK VINA RESULT:    -3.971      1.641      2.484
REMARK INTER + INTRA:          -3.971
REMARK INTER:                  -3.971
REMARK INTRA:                   0.000
REMARK UNBOUND:                 0.000
REMARK SMILES CC1=CC(=O)[C@H]2C[C@@H]1C2(C)C
REMARK SMILES IDX 1 1 2 2 3 3 4 4 5 5 6 6 7 7 8 8 9 9 10 10 11 11
REMARK H PARENT
REMARK Flexibility Score: inf
ROOT
ATOM      1  C   UNL     1      -5.169 -16.410  -9.125  1.00  0.00     0.040 C 
ATOM      2  C   UNL     1      -4.790 -15.345  -8.145  1.00  0.00    -0.066 C 
ATOM      3  C   UNL     1      -5.501 -14.187  -8.045  1.00  0.00     0.047 C 
ATOM      4  C   UNL     1      -5.001 -13.187  -7.047  1.00  0.00     0.159 C 
ATOM      5  O   UNL     1      -5.548 -12.064  -6.891  1.00  0.00    -0.295 OA
ATOM      6  C   UNL     1      -3.782 -13.624  -6.235  1.00  0.00     0.067 C 
ATOM      7  C   UNL     1      -4.114 -15.069  -5.803  1.00  0.00     0.021 C 
ATOM      8  C   UNL     1      -3.590 -15.512  -7.188  1.00  0.00     0.022 C 
ATOM      9  C   UNL     1      -2.726 -14.218  -7.211  1.00  0.00    -0.019 C 
ATOM     10  C   UNL     1      -2.500 -13.509  -8.576  1.00  0.00     0.012 C 
ATOM     11  C   UNL     1      -1.346 -14.418  -6.535  1.00  0.00     0.012 C 
ENDROOT
TORSDOF 0
ENDMDL
