MODEL 1
REMARK VINA RESULT:    -0.214      0.000      0.000
REMARK INTER + INTRA:          -0.272
REMARK INTER:                  -0.240
REMARK INTRA:                  -0.032
REMARK UNBOUND:                -0.032
REMARK SMILES CCCC(=O)[O-]
REMARK SMILES IDX 3 1 4 2 5 3 6 4 2 5 1 6
REMARK H PARENT
REMARK Flexibility Score: inf
ROOT
ATOM      1  C   UNL     1     158.079 182.242 177.999  1.00  0.00     0.052 C 
ENDROOT
BRANCH   1   2
ATOM      2  C   UNL     1     159.348 182.989 178.271  1.00  0.00     0.041 C 
ATOM      3  O   UNL     1     159.419 183.784 179.245  1.00  0.00    -0.550 OA
ATOM      4  O   UNL     1     160.463 182.783 177.469  1.00  0.00    -0.550 OA
ENDBRANCH   1   2
BRANCH   1   5
ATOM      5  C   UNL     1     158.255 180.731 178.194  1.00  0.00     0.003 C 
ATOM      6  C   UNL     1     157.959 179.942 176.919  1.00  0.00     0.004 C 
ENDBRANCH   1   5
TORSDOF 2
ENDMDL
MODEL 2
REMARK VINA RESULT:    -0.202      2.096      3.276
REMARK INTER + INTRA:          -0.257
REMARK INTER:                  -0.220
REMARK INTRA:                  -0.037
REMARK UNBOUND:                -0.032
REMARK SMILES CCCC(=O)[O-]
REMARK SMILES IDX 3 1 4 2 5 3 6 4 2 5 1 6
REMARK H PARENT
REMARK Flexibility Score: inf
ROOT
ATOM      1  C   UNL     1     159.296 181.817 178.734  1.00  0.00     0.052 C 
ENDROOT
BRANCH   1   2
ATOM      2  C   UNL     1     158.331 181.477 177.642  1.00  0.00     0.041 C 
ATOM      3  O   UNL     1     157.885 182.380 176.885  1.00  0.00    -0.550 OA
ATOM      4  O   UNL     1     157.947 180.158 177.436  1.00  0.00    -0.550 OA
ENDBRANCH   1   2
BRANCH   1   5
ATOM      5  C   UNL     1     159.324 183.323 179.023  1.00  0.00     0.003 C 
ATOM      6  C   UNL     1     160.692 183.944 178.743  1.00  0.00     0.004 C 
ENDBRANCH   1   5
TORSDOF 2
ENDMDL
MODEL 3
REMARK VINA RESULT:    -0.125     24.352     25.285
REMARK INTER + INTRA:          -0.172
REMARK INTER:                  -0.099
REMARK INTRA:                  -0.072
REMARK UNBOUND:                -0.032
REMARK SMILES CCCC(=O)[O-]
REMARK SMILES IDX 3 1 4 2 5 3 6 4 2 5 1 6
REMARK H PARENT
REMARK Flexibility Score: inf
ROOT
ATOM      1  C   UNL     1     177.898 199.219 182.917  1.00  0.00     0.052 C 
ENDROOT
BRANCH   1   2
ATOM      2  C   UNL     1     176.598 199.855 183.301  1.00  0.00     0.041 C 
ATOM      3  O   UNL     1     175.738 200.122 182.420  1.00  0.00    -0.550 OA
ATOM      4  O   UNL     1     176.320 200.124 184.635  1.00  0.00    -0.550 OA
ENDBRANCH   1   2
BRANCH   1   5
ATOM      5  C   UNL     1     177.691 197.835 182.290  1.00  0.00     0.003 C 
ATOM      6  C   UNL     1     177.019 196.855 183.251  1.00  0.00     0.004 C 
ENDBRANCH   1   5
TORSDOF 2
ENDMDL
MODEL 4
REMARK VINA RESULT:    -0.118     25.534     26.241
REMARK INTER + INTRA:          -0.164
REMARK INTER:                  -0.093
REMARK INTRA:                  -0.070
REMARK UNBOUND:                -0.032
REMARK SMILES CCCC(=O)[O-]
REMARK SMILES IDX 3 1 4 2 5 3 6 4 2 5 1 6
REMARK H PARENT
REMARK Flexibility Score: inf
ROOT
ATOM      1  C   UNL     1     177.901 200.125 184.933  1.00  0.00     0.052 C 
ENDROOT
BRANCH   1   2
ATOM      2  C   UNL     1     177.420 198.891 185.630  1.00  0.00     0.041 C 
ATOM      3  O   UNL     1     178.125 197.847 185.633  1.00  0.00    -0.550 OA
ATOM      4  O   UNL     1     176.207 198.901 186.307  1.00  0.00    -0.550 OA
ENDBRANCH   1   2
BRANCH   1   5
ATOM      5  C   UNL     1     178.124 199.883 183.435  1.00  0.00     0.003 C 
ATOM      6  C   UNL     1     176.826 199.550 182.701  1.00  0.00     0.004 C 
ENDBRANCH   1   5
TORSDOF 2
ENDMDL
MODEL 5
REMARK VINA RESULT:    -0.117     24.197     25.184
REMARK INTER + INTRA:          -0.163
REMARK INTER:                  -0.090
REMARK INTRA:                  -0.072
REMARK UNBOUND:                -0.032
REMARK SMILES CCCC(=O)[O-]
REMARK SMILES IDX 3 1 4 2 5 3 6 4 2 5 1 6
REMARK H PARENT
REMARK Flexibility Score: inf
ROOT
ATOM      1  C   UNL     1     176.684 200.064 183.461  1.00  0.00     0.052 C 
ENDROOT
BRANCH   1   2
ATOM      2  C   UNL     1     175.454 199.427 182.894  1.00  0.00     0.041 C 
ATOM      3  O   UNL     1     174.607 200.124 182.274  1.00  0.00    -0.550 OA
ATOM      4  O   UNL     1     175.257 198.058 183.018  1.00  0.00    -0.550 OA
ENDBRANCH   1   2
BRANCH   1   5
ATOM      5  C   UNL     1     177.964 199.437 182.893  1.00  0.00     0.003 C 
ATOM      6  C   UNL     1     178.066 199.597 181.377  1.00  0.00     0.004 C 
ENDBRANCH   1   5
TORSDOF 2
ENDMDL
MODEL 6
REMARK VINA RESULT:    -0.115     25.329     25.820
REMARK INTER + INTRA:          -0.160
REMARK INTER:                  -0.088
REMARK INTRA:                  -0.072
REMARK UNBOUND:                -0.032
REMARK SMILES CCCC(=O)[O-]
REMARK SMILES IDX 3 1 4 2 5 3 6 4 2 5 1 6
REMARK H PARENT
REMARK Flexibility Score: inf
ROOT
ATOM      1  C   UNL     1     176.576 198.399 184.846  1.00  0.00     0.052 C 
ENDROOT
BRANCH   1   2
ATOM      2  C   UNL     1     177.559 199.526 184.895  1.00  0.00     0.041 C 
ATOM      3  O   UNL     1     177.942 199.986 186.004  1.00  0.00    -0.550 OA
ATOM      4  O   UNL     1     178.081 200.048 183.719  1.00  0.00    -0.550 OA
ENDBRANCH   1   2
BRANCH   1   5
ATOM      5  C   UNL     1     175.217 198.801 185.433  1.00  0.00     0.003 C 
ATOM      6  C   UNL     1     174.561 199.940 184.653  1.00  0.00     0.004 C 
ENDBRANCH   1   5
TORSDOF 2
ENDMDL
MODEL 7
REMARK VINA RESULT:    -0.114     24.590     25.255
REMARK INTER + INTRA:          -0.159
REMARK INTER:                  -0.087
REMARK INTRA:                  -0.072
REMARK UNBOUND:                -0.032
REMARK SMILES CCCC(=O)[O-]
REMARK SMILES IDX 3 1 4 2 5 3 6 4 2 5 1 6
REMARK H PARENT
REMARK Flexibility Score: inf
ROOT
ATOM      1  C   UNL     1     176.004 198.858 183.995  1.00  0.00     0.052 C 
ENDROOT
BRANCH   1   2
ATOM      2  C   UNL     1     177.241 199.564 183.533  1.00  0.00     0.041 C 
ATOM      3  O   UNL     1     178.112 199.928 184.366  1.00  0.00    -0.550 OA
ATOM      4  O   UNL     1     177.449 199.791 182.178  1.00  0.00    -0.550 OA
ENDBRANCH   1   2
BRANCH   1   5
ATOM      5  C   UNL     1     176.329 197.511 184.653  1.00  0.00     0.003 C 
ATOM      6  C   UNL     1     177.017 196.544 183.690  1.00  0.00     0.004 C 
ENDBRANCH   1   5
TORSDOF 2
ENDMDL
MODEL 8
REMARK VINA RESULT:    -0.112     25.005     25.632
REMARK INTER + INTRA:          -0.157
REMARK INTER:                  -0.118
REMARK INTRA:                  -0.039
REMARK UNBOUND:                -0.032
REMARK SMILES CCCC(=O)[O-]
REMARK SMILES IDX 3 1 4 2 5 3 6 4 2 5 1 6
REMARK H PARENT
REMARK Flexibility Score: inf
ROOT
ATOM      1  C   UNL     1     177.545 198.114 183.328  1.00  0.00     0.052 C 
ENDROOT
BRANCH   1   2
ATOM      2  C   UNL     1     177.202 198.990 184.492  1.00  0.00     0.041 C 
ATOM      3  O   UNL     1     176.149 199.681 184.478  1.00  0.00    -0.550 OA
ATOM      4  O   UNL     1     178.026 199.018 185.610  1.00  0.00    -0.550 OA
ENDBRANCH   1   2
BRANCH   1   5
ATOM      5  C   UNL     1     176.859 198.585 182.039  1.00  0.00     0.003 C 
ATOM      6  C   UNL     1     177.776 199.449 181.175  1.00  0.00     0.004 C 
ENDBRANCH   1   5
TORSDOF 2
ENDMDL
MODEL 9
REMARK VINA RESULT:    -0.109     24.843     25.775
REMARK INTER + INTRA:          -0.154
REMARK INTER:                  -0.116
REMARK INTRA:                  -0.039
REMARK UNBOUND:                -0.032
REMARK SMILES CCCC(=O)[O-]
REMARK SMILES IDX 3 1 4 2 5 3 6 4 2 5 1 6
REMARK H PARENT
REMARK Flexibility Score: inf
ROOT
ATOM      1  C   UNL     1     177.403 198.393 183.607  1.00  0.00     0.052 C 
ENDROOT
BRANCH   1   2
ATOM      2  C   UNL     1     177.068 198.949 182.258  1.00  0.00     0.041 C 
ATOM      3  O   UNL     1     177.458 200.101 181.932  1.00  0.00    -0.550 OA
ATOM      4  O   UNL     1     176.354 198.183 181.346  1.00  0.00    -0.550 OA
ENDBRANCH   1   2
BRANCH   1   5
ATOM      5  C   UNL     1     178.125 199.423 184.484  1.00  0.00     0.003 C 
ATOM      6  C   UNL     1     177.202 200.042 185.534  1.00  0.00     0.004 C 
ENDBRANCH   1   5
TORSDOF 2
ENDMDL
