MODEL 1
REMARK VINA RESULT:    -7.393      0.000      0.000
REMARK INTER + INTRA:         -11.471
REMARK INTER:                 -10.418
REMARK INTRA:                  -1.053
REMARK UNBOUND:                -1.053
REMARK SMILES C[C@H](CO)CCC(=O)[C@@H](C)[C@@H]1C(=O)C[C@H]2[C@H]3CC=C4C[C@H](O)CC[C@@]4(C)[C@@H]3CC[C@@]21C
REMARK SMILES IDX 6 1 5 2 2 3 1 4 3 5 4 6 7 8 8 9 9 10 10 11 11 12 12 13 30 14
REMARK SMILES IDX 13 15 14 16 15 17 29 18 31 19 16 20 28 21 27 22 17 23 25 24
REMARK SMILES IDX 18 25 19 26 24 27 26 28 20 29 23 30 21 31 22 32
REMARK H PARENT 4 7 22 33
REMARK Flexibility Score: inf
ROOT
ATOM      1  C   UNL     1     118.518 129.762 130.976  1.00  0.00     0.076 C 
ENDROOT
BRANCH   1   2
ATOM      2  C   UNL     1     119.747 130.430 131.614  1.00  0.00     0.013 C 
BRANCH   2   3
ATOM      3  C   UNL     1     120.065 131.816 131.005  1.00  0.00     0.012 C 
ATOM      4  C   UNL     1     118.938 132.296 130.077  1.00  0.00     0.010 C 
BRANCH   3   5
ATOM      5  C   UNL     1     121.395 131.772 130.227  1.00  0.00     0.159 C 
BRANCH   5   6
ATOM      6  O   UNL     1     121.204 131.264 128.934  1.00  0.00    -0.396 OA
ATOM      7  H   UNL     1     121.217 130.274 129.012  1.00  0.00     0.210 HD
ENDBRANCH   5   6
ENDBRANCH   3   5
ENDBRANCH   2   3
ENDBRANCH   1   2
BRANCH   1   8
ATOM      8  C   UNL     1     118.914 128.512 130.232  1.00  0.00     0.136 C 
ATOM      9  O   UNL     1     119.736 128.593 129.329  1.00  0.00    -0.299 OA
BRANCH   8  10
ATOM     10  C   UNL     1     118.334 127.161 130.625  1.00  0.00     0.064 C 
ATOM     11  C   UNL     1     117.529 127.281 131.934  1.00  0.00     0.017 C 
BRANCH  10  12
ATOM     12  C   UNL     1     117.549 126.544 129.418  1.00  0.00     0.072 C 
ATOM     13  C   UNL     1     116.054 126.732 129.542  1.00  0.00     0.137 C 
ATOM     14  C   UNL     1     117.657 124.998 129.134  1.00  0.00    -0.019 C 
ATOM     15  O   UNL     1     115.510 127.825 129.499  1.00  0.00    -0.299 OA
ATOM     16  C   UNL     1     115.284 125.456 129.640  1.00  0.00     0.080 C 
ATOM     17  C   UNL     1     116.406 124.447 129.861  1.00  0.00     0.007 C 
ATOM     18  C   UNL     1     118.935 124.226 129.634  1.00  0.00     0.008 C 
ATOM     19  C   UNL     1     117.545 124.841 127.581  1.00  0.00     0.012 C 
ATOM     20  C   UNL     1     116.131 122.925 129.709  1.00  0.00     0.001 C 
ATOM     21  C   UNL     1     118.639 122.808 130.215  1.00  0.00     0.005 C 
ATOM     22  C   UNL     1     117.445 122.120 129.502  1.00  0.00     0.003 C 
ATOM     23  C   UNL     1     115.127 122.505 128.637  1.00  0.00     0.031 C 
ATOM     24  C   UNL     1     117.211 120.597 129.801  1.00  0.00    -0.008 C 
ATOM     25  C   UNL     1     114.983 120.998 128.612  1.00  0.00    -0.027 C 
ATOM     26  C   UNL     1     115.925 120.133 129.082  1.00  0.00    -0.065 C 
ATOM     27  C   UNL     1     118.416 119.772 129.243  1.00  0.00     0.014 C 
ATOM     28  C   UNL     1     117.077 120.331 131.325  1.00  0.00     0.016 C 
ATOM     29  C   UNL     1     115.674 118.644 128.959  1.00  0.00     0.063 C 
ATOM     30  C   UNL     1     118.156 118.257 129.168  1.00  0.00     0.033 C 
ATOM     31  C   UNL     1     116.893 117.948 128.351  1.00  0.00     0.118 C 
BRANCH  31  32
ATOM     32  O   UNL     1     116.667 116.562 128.330  1.00  0.00    -0.393 OA
ATOM     33  H   UNL     1     117.546 116.132 128.160  1.00  0.00     0.210 HD
ENDBRANCH  31  32
ENDBRANCH  10  12
ENDBRANCH   8  10
ENDBRANCH   1   8
TORSDOF 8
ENDMDL
MODEL 2
REMARK VINA RESULT:    -7.187      1.930      9.335
REMARK INTER + INTRA:         -11.182
REMARK INTER:                 -10.244
REMARK INTRA:                  -0.938
REMARK UNBOUND:                -1.053
REMARK SMILES C[C@H](CO)CCC(=O)[C@@H](C)[C@@H]1C(=O)C[C@H]2[C@H]3CC=C4C[C@H](O)CC[C@@]4(C)[C@@H]3CC[C@@]21C
REMARK SMILES IDX 6 1 5 2 2 3 1 4 3 5 4 6 7 8 8 9 9 10 10 11 11 12 12 13 30 14
REMARK SMILES IDX 13 15 14 16 15 17 29 18 31 19 16 20 28 21 27 22 17 23 25 24
REMARK SMILES IDX 18 25 19 26 24 27 26 28 20 29 23 30 21 31 22 32
REMARK H PARENT 4 7 22 33
REMARK Flexibility Score: inf
ROOT
ATOM      1  C   UNL     1     117.518 118.113 128.572  1.00  0.00     0.076 C 
ENDROOT
BRANCH   1   2
ATOM      2  C   UNL     1     117.774 116.787 127.837  1.00  0.00     0.013 C 
BRANCH   2   3
ATOM      3  C   UNL     1     118.227 116.988 126.371  1.00  0.00     0.012 C 
ATOM      4  C   UNL     1     118.351 118.479 126.018  1.00  0.00     0.010 C 
BRANCH   3   5
ATOM      5  C   UNL     1     117.240 116.306 125.402  1.00  0.00     0.159 C 
BRANCH   5   6
ATOM      6  O   UNL     1     115.913 116.617 125.735  1.00  0.00    -0.396 OA
ATOM      7  H   UNL     1     115.348 116.296 124.984  1.00  0.00     0.210 HD
ENDBRANCH   5   6
ENDBRANCH   3   5
ENDBRANCH   2   3
ENDBRANCH   1   2
BRANCH   1   8
ATOM      8  C   UNL     1     116.048 118.447 128.577  1.00  0.00     0.136 C 
ATOM      9  O   UNL     1     115.232 117.537 128.621  1.00  0.00    -0.299 OA
BRANCH   8  10
ATOM     10  C   UNL     1     115.583 119.896 128.570  1.00  0.00     0.064 C 
ATOM     11  C   UNL     1     114.125 119.990 128.077  1.00  0.00     0.017 C 
BRANCH  10  12
ATOM     12  C   UNL     1     115.853 120.551 129.966  1.00  0.00     0.072 C 
ATOM     13  C   UNL     1     114.578 120.883 130.708  1.00  0.00     0.137 C 
ATOM     14  C   UNL     1     116.635 121.918 130.041  1.00  0.00    -0.019 C 
ATOM     15  O   UNL     1     113.801 120.034 131.118  1.00  0.00    -0.299 OA
ATOM     16  C   UNL     1     114.387 122.341 130.973  1.00  0.00     0.080 C 
ATOM     17  C   UNL     1     115.480 122.949 130.100  1.00  0.00     0.007 C 
ATOM     18  C   UNL     1     117.612 122.295 128.865  1.00  0.00     0.008 C 
ATOM     19  C   UNL     1     117.445 121.873 131.379  1.00  0.00     0.012 C 
ATOM     20  C   UNL     1     115.889 124.436 130.280  1.00  0.00     0.001 C 
ATOM     21  C   UNL     1     117.571 123.800 128.457  1.00  0.00     0.005 C 
ATOM     22  C   UNL     1     117.287 124.728 129.667  1.00  0.00     0.003 C 
ATOM     23  C   UNL     1     115.850 125.001 131.699  1.00  0.00     0.031 C 
ATOM     24  C   UNL     1     117.484 126.270 129.451  1.00  0.00    -0.008 C 
ATOM     25  C   UNL     1     116.285 126.451 131.702  1.00  0.00    -0.027 C 
ATOM     26  C   UNL     1     117.054 127.019 130.733  1.00  0.00    -0.065 C 
ATOM     27  C   UNL     1     118.997 126.565 129.189  1.00  0.00     0.014 C 
ATOM     28  C   UNL     1     116.651 126.786 128.246  1.00  0.00     0.016 C 
ATOM     29  C   UNL     1     117.454 128.473 130.877  1.00  0.00     0.063 C 
ATOM     30  C   UNL     1     119.372 128.053 129.297  1.00  0.00     0.033 C 
ATOM     31  C   UNL     1     118.960 128.635 130.656  1.00  0.00     0.118 C 
BRANCH  31  32
ATOM     32  O   UNL     1     119.286 129.999 130.710  1.00  0.00    -0.393 OA
ATOM     33  H   UNL     1     118.656 130.419 131.353  1.00  0.00     0.210 HD
ENDBRANCH  31  32
ENDBRANCH  10  12
ENDBRANCH   8  10
ENDBRANCH   1   8
TORSDOF 8
ENDMDL
MODEL 3
REMARK VINA RESULT:    -7.011      5.109      7.375
REMARK INTER + INTRA:         -10.934
REMARK INTER:                  -9.662
REMARK INTRA:                  -1.272
REMARK UNBOUND:                -1.053
REMARK SMILES C[C@H](CO)CCC(=O)[C@@H](C)[C@@H]1C(=O)C[C@H]2[C@H]3CC=C4C[C@H](O)CC[C@@]4(C)[C@@H]3CC[C@@]21C
REMARK SMILES IDX 6 1 5 2 2 3 1 4 3 5 4 6 7 8 8 9 9 10 10 11 11 12 12 13 30 14
REMARK SMILES IDX 13 15 14 16 15 17 29 18 31 19 16 20 28 21 27 22 17 23 25 24
REMARK SMILES IDX 18 25 19 26 24 27 26 28 20 29 23 30 21 31 22 32
REMARK H PARENT 4 7 22 33
REMARK Flexibility Score: inf
ROOT
ATOM      1  C   UNL     1     116.077 119.738 134.993  1.00  0.00     0.076 C 
ENDROOT
BRANCH   1   2
ATOM      2  C   UNL     1     117.255 120.667 135.329  1.00  0.00     0.013 C 
BRANCH   2   3
ATOM      3  C   UNL     1     118.609 120.139 134.798  1.00  0.00     0.012 C 
ATOM      4  C   UNL     1     118.586 118.614 134.610  1.00  0.00     0.010 C 
BRANCH   3   5
ATOM      5  C   UNL     1     119.753 120.526 135.756  1.00  0.00     0.159 C 
BRANCH   5   6
ATOM      6  O   UNL     1     119.666 121.877 136.124  1.00  0.00    -0.396 OA
ATOM      7  H   UNL     1     119.148 122.334 135.411  1.00  0.00     0.210 HD
ENDBRANCH   5   6
ENDBRANCH   3   5
ENDBRANCH   2   3
ENDBRANCH   1   2
BRANCH   1   8
ATOM      8  C   UNL     1     115.040 120.463 134.173  1.00  0.00     0.136 C 
ATOM      9  O   UNL     1     114.129 121.045 134.746  1.00  0.00    -0.299 OA
BRANCH   8  10
ATOM     10  C   UNL     1     115.146 120.509 132.655  1.00  0.00     0.064 C 
ATOM     11  C   UNL     1     113.750 120.368 132.015  1.00  0.00     0.017 C 
BRANCH  10  12
ATOM     12  C   UNL     1     115.953 121.775 132.213  1.00  0.00     0.072 C 
ATOM     13  C   UNL     1     115.106 122.765 131.445  1.00  0.00     0.137 C 
ATOM     14  C   UNL     1     117.197 121.607 131.258  1.00  0.00    -0.019 C 
ATOM     15  O   UNL     1     114.175 123.378 131.943  1.00  0.00    -0.299 OA
ATOM     16  C   UNL     1     115.556 122.992 130.039  1.00  0.00     0.080 C 
ATOM     17  C   UNL     1     116.573 121.869 129.865  1.00  0.00     0.007 C 
ATOM     18  C   UNL     1     117.953 120.226 131.241  1.00  0.00     0.008 C 
ATOM     19  C   UNL     1     118.204 122.732 131.668  1.00  0.00     0.012 C 
ATOM     20  C   UNL     1     117.553 121.879 128.660  1.00  0.00     0.001 C 
ATOM     21  C   UNL     1     118.405 119.762 129.822  1.00  0.00     0.005 C 
ATOM     22  C   UNL     1     118.780 120.957 128.906  1.00  0.00     0.003 C 
ATOM     23  C   UNL     1     118.053 123.242 128.183  1.00  0.00     0.031 C 
ATOM     24  C   UNL     1     119.502 120.626 127.553  1.00  0.00    -0.008 C 
ATOM     25  C   UNL     1     119.002 123.075 127.015  1.00  0.00    -0.027 C 
ATOM     26  C   UNL     1     119.693 121.932 126.749  1.00  0.00    -0.065 C 
ATOM     27  C   UNL     1     120.911 120.020 127.856  1.00  0.00     0.014 C 
ATOM     28  C   UNL     1     118.685 119.612 126.707  1.00  0.00     0.016 C 
ATOM     29  C   UNL     1     120.643 121.911 125.570  1.00  0.00     0.063 C 
ATOM     30  C   UNL     1     121.845 119.968 126.633  1.00  0.00     0.033 C 
ATOM     31  C   UNL     1     122.004 121.354 125.993  1.00  0.00     0.118 C 
BRANCH  31  32
ATOM     32  O   UNL     1     122.834 121.265 124.865  1.00  0.00    -0.393 OA
ATOM     33  H   UNL     1     123.129 122.190 124.654  1.00  0.00     0.210 HD
ENDBRANCH  31  32
ENDBRANCH  10  12
ENDBRANCH   8  10
ENDBRANCH   1   8
TORSDOF 8
ENDMDL
MODEL 4
REMARK VINA RESULT:    -6.620      4.199      7.195
REMARK INTER + INTRA:         -10.382
REMARK INTER:                  -9.011
REMARK INTRA:                  -1.371
REMARK UNBOUND:                -1.053
REMARK SMILES C[C@H](CO)CCC(=O)[C@@H](C)[C@@H]1C(=O)C[C@H]2[C@H]3CC=C4C[C@H](O)CC[C@@]4(C)[C@@H]3CC[C@@]21C
REMARK SMILES IDX 6 1 5 2 2 3 1 4 3 5 4 6 7 8 8 9 9 10 10 11 11 12 12 13 30 14
REMARK SMILES IDX 13 15 14 16 15 17 29 18 31 19 16 20 28 21 27 22 17 23 25 24
REMARK SMILES IDX 18 25 19 26 24 27 26 28 20 29 23 30 21 31 22 32
REMARK H PARENT 4 7 22 33
REMARK Flexibility Score: inf
ROOT
ATOM      1  C   UNL     1     113.447 122.869 131.630  1.00  0.00     0.076 C 
ENDROOT
BRANCH   1   2
ATOM      2  C   UNL     1     113.861 121.432 131.986  1.00  0.00     0.013 C 
BRANCH   2   3
ATOM      3  C   UNL     1     114.937 121.371 133.096  1.00  0.00     0.012 C 
ATOM      4  C   UNL     1     116.202 120.642 132.617  1.00  0.00     0.010 C 
BRANCH   3   5
ATOM      5  C   UNL     1     114.379 120.672 134.351  1.00  0.00     0.159 C 
BRANCH   5   6
ATOM      6  O   UNL     1     115.197 119.599 134.735  1.00  0.00    -0.396 OA
ATOM      7  H   UNL     1     115.242 119.615 135.726  1.00  0.00     0.210 HD
ENDBRANCH   5   6
ENDBRANCH   3   5
ENDBRANCH   2   3
ENDBRANCH   1   2
BRANCH   1   8
ATOM      8  C   UNL     1     113.250 123.017 130.143  1.00  0.00     0.136 C 
ATOM      9  O   UNL     1     112.184 123.447 129.725  1.00  0.00    -0.299 OA
BRANCH   8  10
ATOM     10  C   UNL     1     114.373 122.676 129.174  1.00  0.00     0.064 C 
ATOM     11  C   UNL     1     113.948 122.990 127.726  1.00  0.00     0.017 C 
BRANCH  10  12
ATOM     12  C   UNL     1     115.704 123.359 129.637  1.00  0.00     0.072 C 
ATOM     13  C   UNL     1     115.928 124.700 128.974  1.00  0.00     0.137 C 
ATOM     14  C   UNL     1     117.079 122.635 129.372  1.00  0.00    -0.019 C 
ATOM     15  O   UNL     1     115.215 125.672 129.171  1.00  0.00    -0.299 OA
ATOM     16  C   UNL     1     117.151 124.761 128.119  1.00  0.00     0.080 C 
ATOM     17  C   UNL     1     117.539 123.288 128.045  1.00  0.00     0.007 C 
ATOM     18  C   UNL     1     117.088 121.068 129.214  1.00  0.00     0.008 C 
ATOM     19  C   UNL     1     118.006 123.030 130.569  1.00  0.00     0.012 C 
ATOM     20  C   UNL     1     118.940 122.872 127.519  1.00  0.00     0.001 C 
ATOM     21  C   UNL     1     118.049 120.543 128.102  1.00  0.00     0.005 C 
ATOM     22  C   UNL     1     119.315 121.428 127.955  1.00  0.00     0.003 C 
ATOM     23  C   UNL     1     120.108 123.801 127.846  1.00  0.00     0.031 C 
ATOM     24  C   UNL     1     120.482 120.869 127.068  1.00  0.00    -0.008 C 
ATOM     25  C   UNL     1     121.396 123.248 127.273  1.00  0.00    -0.027 C 
ATOM     26  C   UNL     1     121.595 121.936 126.967  1.00  0.00    -0.065 C 
ATOM     27  C   UNL     1     121.079 119.593 127.747  1.00  0.00     0.014 C 
ATOM     28  C   UNL     1     119.987 120.501 125.643  1.00  0.00     0.016 C 
ATOM     29  C   UNL     1     122.948 121.507 126.438  1.00  0.00     0.063 C 
ATOM     30  C   UNL     1     122.432 119.150 127.163  1.00  0.00     0.033 C 
ATOM     31  C   UNL     1     123.460 120.289 127.209  1.00  0.00     0.118 C 
BRANCH  31  32
ATOM     32  O   UNL     1     124.671 119.863 126.642  1.00  0.00    -0.393 OA
ATOM     33  H   UNL     1     125.227 119.510 127.386  1.00  0.00     0.210 HD
ENDBRANCH  31  32
ENDBRANCH  10  12
ENDBRANCH   8  10
ENDBRANCH   1   8
TORSDOF 8
ENDMDL
MODEL 5
REMARK VINA RESULT:    -6.568      3.607      5.757
REMARK INTER + INTRA:         -10.309
REMARK INTER:                 -10.272
REMARK INTRA:                  -0.038
REMARK UNBOUND:                -1.053
REMARK SMILES C[C@H](CO)CCC(=O)[C@@H](C)[C@@H]1C(=O)C[C@H]2[C@H]3CC=C4C[C@H](O)CC[C@@]4(C)[C@@H]3CC[C@@]21C
REMARK SMILES IDX 6 1 5 2 2 3 1 4 3 5 4 6 7 8 8 9 9 10 10 11 11 12 12 13 30 14
REMARK SMILES IDX 13 15 14 16 15 17 29 18 31 19 16 20 28 21 27 22 17 23 25 24
REMARK SMILES IDX 18 25 19 26 24 27 26 28 20 29 23 30 21 31 22 32
REMARK H PARENT 4 7 22 33
REMARK Flexibility Score: inf
ROOT
ATOM      1  C   UNL     1     116.319 123.533 128.159  1.00  0.00     0.076 C 
ENDROOT
BRANCH   1   2
ATOM      2  C   UNL     1     117.109 124.802 127.800  1.00  0.00     0.013 C 
BRANCH   2   3
ATOM      3  C   UNL     1     118.574 124.760 128.294  1.00  0.00     0.012 C 
ATOM      4  C   UNL     1     118.651 124.606 129.821  1.00  0.00     0.010 C 
BRANCH   3   5
ATOM      5  C   UNL     1     119.326 126.035 127.863  1.00  0.00     0.159 C 
BRANCH   5   6
ATOM      6  O   UNL     1     118.430 127.037 127.463  1.00  0.00    -0.396 OA
ATOM      7  H   UNL     1     118.638 127.242 126.514  1.00  0.00     0.210 HD
ENDBRANCH   5   6
ENDBRANCH   3   5
ENDBRANCH   2   3
ENDBRANCH   1   2
BRANCH   1   8
ATOM      8  C   UNL     1     115.088 123.877 128.959  1.00  0.00     0.136 C 
ATOM      9  O   UNL     1     115.143 124.791 129.771  1.00  0.00    -0.299 OA
BRANCH   8  10
ATOM     10  C   UNL     1     113.782 123.129 128.731  1.00  0.00     0.064 C 
ATOM     11  C   UNL     1     113.801 122.418 127.363  1.00  0.00     0.017 C 
BRANCH  10  12
ATOM     12  C   UNL     1     113.476 122.203 129.956  1.00  0.00     0.072 C 
ATOM     13  C   UNL     1     112.953 122.972 131.148  1.00  0.00     0.137 C 
ATOM     14  C   UNL     1     114.642 121.361 130.601  1.00  0.00    -0.019 C 
ATOM     15  O   UNL     1     111.875 123.547 131.155  1.00  0.00    -0.299 OA
ATOM     16  C   UNL     1     113.832 122.900 132.354  1.00  0.00     0.080 C 
ATOM     17  C   UNL     1     115.093 122.274 131.767  1.00  0.00     0.007 C 
ATOM     18  C   UNL     1     115.889 120.995 129.712  1.00  0.00     0.008 C 
ATOM     19  C   UNL     1     113.980 120.040 131.116  1.00  0.00     0.012 C 
ATOM     20  C   UNL     1     116.194 121.706 132.705  1.00  0.00     0.001 C 
ATOM     21  C   UNL     1     117.256 121.091 130.458  1.00  0.00     0.005 C 
ATOM     22  C   UNL     1     117.133 120.717 131.958  1.00  0.00     0.003 C 
ATOM     23  C   UNL     1     115.729 121.052 134.005  1.00  0.00     0.031 C 
ATOM     24  C   UNL     1     118.467 120.512 132.759  1.00  0.00    -0.008 C 
ATOM     25  C   UNL     1     116.918 120.544 134.793  1.00  0.00    -0.027 C 
ATOM     26  C   UNL     1     118.130 120.252 134.244  1.00  0.00    -0.065 C 
ATOM     27  C   UNL     1     119.219 119.264 132.195  1.00  0.00     0.014 C 
ATOM     28  C   UNL     1     119.392 121.754 132.648  1.00  0.00     0.016 C 
ATOM     29  C   UNL     1     119.225 119.711 135.139  1.00  0.00     0.063 C 
ATOM     30  C   UNL     1     120.357 118.758 133.100  1.00  0.00     0.033 C 
ATOM     31  C   UNL     1     119.851 118.460 134.518  1.00  0.00     0.118 C 
BRANCH  31  32
ATOM     32  O   UNL     1     120.918 118.033 135.325  1.00  0.00    -0.393 OA
ATOM     33  H   UNL     1     121.494 117.457 134.756  1.00  0.00     0.210 HD
ENDBRANCH  31  32
ENDBRANCH  10  12
ENDBRANCH   8  10
ENDBRANCH   1   8
TORSDOF 8
ENDMDL
MODEL 6
REMARK VINA RESULT:    -6.547      2.681      8.466
REMARK INTER + INTRA:         -10.280
REMARK INTER:                  -9.546
REMARK INTRA:                  -0.733
REMARK UNBOUND:                -1.053
REMARK SMILES C[C@H](CO)CCC(=O)[C@@H](C)[C@@H]1C(=O)C[C@H]2[C@H]3CC=C4C[C@H](O)CC[C@@]4(C)[C@@H]3CC[C@@]21C
REMARK SMILES IDX 6 1 5 2 2 3 1 4 3 5 4 6 7 8 8 9 9 10 10 11 11 12 12 13 30 14
REMARK SMILES IDX 13 15 14 16 15 17 29 18 31 19 16 20 28 21 27 22 17 23 25 24
REMARK SMILES IDX 18 25 19 26 24 27 26 28 20 29 23 30 21 31 22 32
REMARK H PARENT 4 7 22 33
REMARK Flexibility Score: inf
ROOT
ATOM      1  C   UNL     1     119.755 118.550 126.310  1.00  0.00     0.076 C 
ENDROOT
BRANCH   1   2
ATOM      2  C   UNL     1     119.367 119.743 125.420  1.00  0.00     0.013 C 
BRANCH   2   3
ATOM      3  C   UNL     1     120.592 120.535 124.906  1.00  0.00     0.012 C 
ATOM      4  C   UNL     1     121.140 121.488 125.980  1.00  0.00     0.010 C 
BRANCH   3   5
ATOM      5  C   UNL     1     120.226 121.336 123.641  1.00  0.00     0.159 C 
BRANCH   5   6
ATOM      6  O   UNL     1     119.751 120.488 122.629  1.00  0.00    -0.396 OA
ATOM      7  H   UNL     1     119.000 119.970 123.021  1.00  0.00     0.210 HD
ENDBRANCH   5   6
ENDBRANCH   3   5
ENDBRANCH   2   3
ENDBRANCH   1   2
BRANCH   1   8
ATOM      8  C   UNL     1     118.884 118.495 127.540  1.00  0.00     0.136 C 
ATOM      9  O   UNL     1     119.352 118.051 128.579  1.00  0.00    -0.299 OA
BRANCH   8  10
ATOM     10  C   UNL     1     117.457 119.024 127.504  1.00  0.00     0.064 C 
ATOM     11  C   UNL     1     116.509 117.969 126.898  1.00  0.00     0.017 C 
BRANCH  10  12
ATOM     12  C   UNL     1     117.046 119.550 128.920  1.00  0.00     0.072 C 
ATOM     13  C   UNL     1     115.546 119.577 129.115  1.00  0.00     0.137 C 
ATOM     14  C   UNL     1     117.454 121.010 129.352  1.00  0.00    -0.019 C 
ATOM     15  O   UNL     1     114.857 118.570 129.151  1.00  0.00    -0.299 OA
ATOM     16  C   UNL     1     114.986 120.942 129.344  1.00  0.00     0.080 C 
ATOM     17  C   UNL     1     116.183 121.820 128.996  1.00  0.00     0.007 C 
ATOM     18  C   UNL     1     118.707 121.676 128.671  1.00  0.00     0.008 C 
ATOM     19  C   UNL     1     117.690 120.946 130.898  1.00  0.00     0.012 C 
ATOM     20  C   UNL     1     116.191 123.324 129.383  1.00  0.00     0.001 C 
ATOM     21  C   UNL     1     118.526 123.191 128.341  1.00  0.00     0.005 C 
ATOM     22  C   UNL     1     117.629 123.913 129.381  1.00  0.00     0.003 C 
ATOM     23  C   UNL     1     115.508 123.707 130.695  1.00  0.00     0.031 C 
ATOM     24  C   UNL     1     117.584 125.481 129.323  1.00  0.00    -0.008 C 
ATOM     25  C   UNL     1     115.613 125.199 130.928  1.00  0.00    -0.027 C 
ATOM     26  C   UNL     1     116.563 125.995 130.363  1.00  0.00    -0.065 C 
ATOM     27  C   UNL     1     118.993 126.051 129.688  1.00  0.00     0.014 C 
ATOM     28  C   UNL     1     117.183 125.986 127.911  1.00  0.00     0.016 C 
ATOM     29  C   UNL     1     116.583 127.469 130.713  1.00  0.00     0.063 C 
ATOM     30  C   UNL     1     118.997 127.559 129.996  1.00  0.00     0.033 C 
ATOM     31  C   UNL     1     117.996 127.903 131.107  1.00  0.00     0.118 C 
BRANCH  31  32
ATOM     32  O   UNL     1     118.001 129.288 131.342  1.00  0.00    -0.393 OA
ATOM     33  H   UNL     1     117.051 129.575 131.377  1.00  0.00     0.210 HD
ENDBRANCH  31  32
ENDBRANCH  10  12
ENDBRANCH   8  10
ENDBRANCH   1   8
TORSDOF 8
ENDMDL
MODEL 7
REMARK VINA RESULT:    -6.475      4.760      8.724
REMARK INTER + INTRA:         -10.178
REMARK INTER:                  -9.130
REMARK INTRA:                  -1.048
REMARK UNBOUND:                -1.053
REMARK SMILES C[C@H](CO)CCC(=O)[C@@H](C)[C@@H]1C(=O)C[C@H]2[C@H]3CC=C4C[C@H](O)CC[C@@]4(C)[C@@H]3CC[C@@]21C
REMARK SMILES IDX 6 1 5 2 2 3 1 4 3 5 4 6 7 8 8 9 9 10 10 11 11 12 12 13 30 14
REMARK SMILES IDX 13 15 14 16 15 17 29 18 31 19 16 20 28 21 27 22 17 23 25 24
REMARK SMILES IDX 18 25 19 26 24 27 26 28 20 29 23 30 21 31 22 32
REMARK H PARENT 4 7 22 33
REMARK Flexibility Score: inf
ROOT
ATOM      1  C   UNL     1     121.962 120.144 123.704  1.00  0.00     0.076 C 
ENDROOT
BRANCH   1   2
ATOM      2  C   UNL     1     123.364 119.842 123.149  1.00  0.00     0.013 C 
BRANCH   2   3
ATOM      3  C   UNL     1     124.019 121.067 122.468  1.00  0.00     0.012 C 
ATOM      4  C   UNL     1     124.313 120.798 120.984  1.00  0.00     0.010 C 
BRANCH   3   5
ATOM      5  C   UNL     1     125.324 121.454 123.193  1.00  0.00     0.159 C 
BRANCH   5   6
ATOM      6  O   UNL     1     125.053 122.175 124.365  1.00  0.00    -0.396 OA
ATOM      7  H   UNL     1     124.646 121.535 125.006  1.00  0.00     0.210 HD
ENDBRANCH   5   6
ENDBRANCH   3   5
ENDBRANCH   2   3
ENDBRANCH   1   2
BRANCH   1   8
ATOM      8  C   UNL     1     122.049 120.715 125.096  1.00  0.00     0.136 C 
ATOM      9  O   UNL     1     122.998 120.410 125.805  1.00  0.00    -0.299 OA
BRANCH   8  10
ATOM     10  C   UNL     1     120.996 121.691 125.601  1.00  0.00     0.064 C 
ATOM     11  C   UNL     1     119.770 121.691 124.664  1.00  0.00     0.017 C 
BRANCH  10  12
ATOM     12  C   UNL     1     120.678 121.405 127.107  1.00  0.00     0.072 C 
ATOM     13  C   UNL     1     119.523 120.445 127.284  1.00  0.00     0.137 C 
ATOM     14  C   UNL     1     120.255 122.596 128.049  1.00  0.00    -0.019 C 
ATOM     15  O   UNL     1     119.566 119.274 126.941  1.00  0.00    -0.299 OA
ATOM     16  C   UNL     1     118.346 121.031 127.993  1.00  0.00     0.080 C 
ATOM     17  C   UNL     1     118.710 122.512 128.003  1.00  0.00     0.007 C 
ATOM     18  C   UNL     1     120.712 124.055 127.672  1.00  0.00     0.008 C 
ATOM     19  C   UNL     1     120.817 122.239 129.465  1.00  0.00     0.012 C 
ATOM     20  C   UNL     1     117.936 123.503 128.916  1.00  0.00     0.001 C 
ATOM     21  C   UNL     1     119.626 125.149 127.920  1.00  0.00     0.005 C 
ATOM     22  C   UNL     1     118.731 124.818 129.144  1.00  0.00     0.003 C 
ATOM     23  C   UNL     1     117.465 122.975 130.270  1.00  0.00     0.031 C 
ATOM     24  C   UNL     1     117.782 125.954 129.665  1.00  0.00    -0.008 C 
ATOM     25  C   UNL     1     116.741 124.063 131.036  1.00  0.00    -0.027 C 
ATOM     26  C   UNL     1     116.909 125.396 130.811  1.00  0.00    -0.065 C 
ATOM     27  C   UNL     1     118.645 127.130 130.227  1.00  0.00     0.014 C 
ATOM     28  C   UNL     1     116.866 126.493 128.533  1.00  0.00     0.016 C 
ATOM     29  C   UNL     1     116.154 126.382 131.678  1.00  0.00     0.063 C 
ATOM     30  C   UNL     1     117.849 128.144 131.068  1.00  0.00     0.033 C 
ATOM     31  C   UNL     1     117.104 127.452 132.218  1.00  0.00     0.118 C 
BRANCH  31  32
ATOM     32  O   UNL     1     116.364 128.399 132.945  1.00  0.00    -0.393 OA
ATOM     33  H   UNL     1     116.711 129.293 132.686  1.00  0.00     0.210 HD
ENDBRANCH  31  32
ENDBRANCH  10  12
ENDBRANCH   8  10
ENDBRANCH   1   8
TORSDOF 8
ENDMDL
MODEL 8
REMARK VINA RESULT:    -6.351      4.104      8.047
REMARK INTER + INTRA:         -10.003
REMARK INTER:                  -9.265
REMARK INTRA:                  -0.737
REMARK UNBOUND:                -1.053
REMARK SMILES C[C@H](CO)CCC(=O)[C@@H](C)[C@@H]1C(=O)C[C@H]2[C@H]3CC=C4C[C@H](O)CC[C@@]4(C)[C@@H]3CC[C@@]21C
REMARK SMILES IDX 6 1 5 2 2 3 1 4 3 5 4 6 7 8 8 9 9 10 10 11 11 12 12 13 30 14
REMARK SMILES IDX 13 15 14 16 15 17 29 18 31 19 16 20 28 21 27 22 17 23 25 24
REMARK SMILES IDX 18 25 19 26 24 27 26 28 20 29 23 30 21 31 22 32
REMARK H PARENT 4 7 22 33
REMARK Flexibility Score: inf
ROOT
ATOM      1  C   UNL     1     115.055 119.234 129.392  1.00  0.00     0.076 C 
ENDROOT
BRANCH   1   2
ATOM      2  C   UNL     1     115.898 119.058 128.118  1.00  0.00     0.013 C 
BRANCH   2   3
ATOM      3  C   UNL     1     116.629 117.695 128.062  1.00  0.00     0.012 C 
ATOM      4  C   UNL     1     118.095 117.823 128.504  1.00  0.00     0.010 C 
BRANCH   3   5
ATOM      5  C   UNL     1     116.565 117.106 126.639  1.00  0.00     0.159 C 
BRANCH   5   6
ATOM      6  O   UNL     1     117.096 118.002 125.699  1.00  0.00    -0.396 OA
ATOM      7  H   UNL     1     116.348 118.584 125.405  1.00  0.00     0.210 HD
ENDBRANCH   5   6
ENDBRANCH   3   5
ENDBRANCH   2   3
ENDBRANCH   1   2
BRANCH   1   8
ATOM      8  C   UNL     1     114.069 120.362 129.230  1.00  0.00     0.136 C 
ATOM      9  O   UNL     1     113.556 120.550 128.135  1.00  0.00    -0.299 OA
BRANCH   8  10
ATOM     10  C   UNL     1     113.682 121.230 130.419  1.00  0.00     0.064 C 
ATOM     11  C   UNL     1     113.969 120.490 131.741  1.00  0.00     0.017 C 
BRANCH  10  12
ATOM     12  C   UNL     1     114.349 122.641 130.291  1.00  0.00     0.072 C 
ATOM     13  C   UNL     1     113.998 123.333 128.993  1.00  0.00     0.137 C 
ATOM     14  C   UNL     1     115.921 122.758 130.304  1.00  0.00    -0.019 C 
ATOM     15  O   UNL     1     112.868 123.704 128.716  1.00  0.00    -0.299 OA
ATOM     16  C   UNL     1     115.171 123.600 128.108  1.00  0.00     0.080 C 
ATOM     17  C   UNL     1     116.257 122.777 128.793  1.00  0.00     0.007 C 
ATOM     18  C   UNL     1     116.756 121.626 131.011  1.00  0.00     0.008 C 
ATOM     19  C   UNL     1     116.241 124.127 130.990  1.00  0.00     0.012 C 
ATOM     20  C   UNL     1     117.750 122.985 128.418  1.00  0.00     0.001 C 
ATOM     21  C   UNL     1     118.062 121.227 130.254  1.00  0.00     0.005 C 
ATOM     22  C   UNL     1     118.702 122.432 129.516  1.00  0.00     0.003 C 
ATOM     23  C   UNL     1     118.186 124.405 128.064  1.00  0.00     0.031 C 
ATOM     24  C   UNL     1     120.149 122.235 128.942  1.00  0.00    -0.008 C 
ATOM     25  C   UNL     1     119.664 124.437 127.736  1.00  0.00    -0.027 C 
ATOM     26  C   UNL     1     120.560 123.504 128.161  1.00  0.00    -0.065 C 
ATOM     27  C   UNL     1     121.150 122.037 130.127  1.00  0.00     0.014 C 
ATOM     28  C   UNL     1     120.226 121.001 128.003  1.00  0.00     0.016 C 
ATOM     29  C   UNL     1     122.020 123.675 127.797  1.00  0.00     0.063 C 
ATOM     30  C   UNL     1     122.629 122.171 129.725  1.00  0.00     0.033 C 
ATOM     31  C   UNL     1     122.901 123.517 129.038  1.00  0.00     0.118 C 
BRANCH  31  32
ATOM     32  O   UNL     1     124.249 123.594 128.656  1.00  0.00    -0.393 OA
ATOM     33  H   UNL     1     124.480 122.721 128.244  1.00  0.00     0.210 HD
ENDBRANCH  31  32
ENDBRANCH  10  12
ENDBRANCH   8  10
ENDBRANCH   1   8
TORSDOF 8
ENDMDL
MODEL 9
REMARK VINA RESULT:    -6.294      6.126      8.011
REMARK INTER + INTRA:          -9.924
REMARK INTER:                  -8.764
REMARK INTRA:                  -1.160
REMARK UNBOUND:                -1.053
REMARK SMILES C[C@H](CO)CCC(=O)[C@@H](C)[C@@H]1C(=O)C[C@H]2[C@H]3CC=C4C[C@H](O)CC[C@@]4(C)[C@@H]3CC[C@@]21C
REMARK SMILES IDX 6 1 5 2 2 3 1 4 3 5 4 6 7 8 8 9 9 10 10 11 11 12 12 13 30 14
REMARK SMILES IDX 13 15 14 16 15 17 29 18 31 19 16 20 28 21 27 22 17 23 25 24
REMARK SMILES IDX 18 25 19 26 24 27 26 28 20 29 23 30 21 31 22 32
REMARK H PARENT 4 7 22 33
REMARK Flexibility Score: inf
ROOT
ATOM      1  C   UNL     1     117.448 125.235 127.522  1.00  0.00     0.076 C 
ENDROOT
BRANCH   1   2
ATOM      2  C   UNL     1     116.656 125.609 128.786  1.00  0.00     0.013 C 
BRANCH   2   3
ATOM      3  C   UNL     1     117.494 126.418 129.805  1.00  0.00     0.012 C 
ATOM      4  C   UNL     1     118.617 127.207 129.112  1.00  0.00     0.010 C 
BRANCH   3   5
ATOM      5  C   UNL     1     118.099 125.482 130.870  1.00  0.00     0.159 C 
BRANCH   5   6
ATOM      6  O   UNL     1     117.296 124.347 131.058  1.00  0.00    -0.396 OA
ATOM      7  H   UNL     1     116.642 124.575 131.769  1.00  0.00     0.210 HD
ENDBRANCH   5   6
ENDBRANCH   3   5
ENDBRANCH   2   3
ENDBRANCH   1   2
BRANCH   1   8
ATOM      8  C   UNL     1     118.010 123.840 127.636  1.00  0.00     0.136 C 
ATOM      9  O   UNL     1     117.381 122.996 128.259  1.00  0.00    -0.299 OA
BRANCH   8  10
ATOM     10  C   UNL     1     119.319 123.474 126.951  1.00  0.00     0.064 C 
ATOM     11  C   UNL     1     120.478 124.316 127.522  1.00  0.00     0.017 C 
BRANCH  10  12
ATOM     12  C   UNL     1     119.536 121.925 127.005  1.00  0.00     0.072 C 
ATOM     13  C   UNL     1     120.563 121.519 128.038  1.00  0.00     0.137 C 
ATOM     14  C   UNL     1     120.053 121.170 125.722  1.00  0.00    -0.019 C 
ATOM     15  O   UNL     1     120.399 121.663 129.239  1.00  0.00    -0.299 OA
ATOM     16  C   UNL     1     121.769 120.846 127.467  1.00  0.00     0.080 C 
ATOM     17  C   UNL     1     121.579 121.106 125.977  1.00  0.00     0.007 C 
ATOM     18  C   UNL     1     119.786 121.813 124.309  1.00  0.00     0.008 C 
ATOM     19  C   UNL     1     119.394 119.752 125.767  1.00  0.00     0.012 C 
ATOM     20  C   UNL     1     122.423 120.325 124.932  1.00  0.00     0.001 C 
ATOM     21  C   UNL     1     120.979 121.684 123.312  1.00  0.00     0.005 C 
ATOM     22  C   UNL     1     121.776 120.369 123.519  1.00  0.00     0.003 C 
ATOM     23  C   UNL     1     122.771 118.875 125.265  1.00  0.00     0.031 C 
ATOM     24  C   UNL     1     122.828 119.986 122.419  1.00  0.00    -0.008 C 
ATOM     25  C   UNL     1     123.582 118.258 124.145  1.00  0.00    -0.027 C 
ATOM     26  C   UNL     1     123.580 118.711 122.861  1.00  0.00    -0.065 C 
ATOM     27  C   UNL     1     122.083 119.683 121.078  1.00  0.00     0.014 C 
ATOM     28  C   UNL     1     123.847 121.134 122.184  1.00  0.00     0.016 C 
ATOM     29  C   UNL     1     124.406 117.976 121.826  1.00  0.00     0.063 C 
ATOM     30  C   UNL     1     122.954 118.976 120.025  1.00  0.00     0.033 C 
ATOM     31  C   UNL     1     123.564 117.682 120.583  1.00  0.00     0.118 C 
BRANCH  31  32
ATOM     32  O   UNL     1     124.377 117.079 119.610  1.00  0.00    -0.393 OA
ATOM     33  H   UNL     1     124.295 117.631 118.788  1.00  0.00     0.210 HD
ENDBRANCH  31  32
ENDBRANCH  10  12
ENDBRANCH   8  10
ENDBRANCH   1   8
TORSDOF 8
ENDMDL
