MODEL 1
REMARK VINA RESULT:    -6.413      0.000      0.000
REMARK INTER + INTRA:          -8.049
REMARK INTER:                  -7.725
REMARK INTRA:                  -0.324
REMARK UNBOUND:                -0.324
REMARK SMILES O=c1c(O)c(-c2ccc(O)c(O)c2)oc2cc(O)cc(O)c12
REMARK SMILES IDX 5 1 3 2 2 3 1 4 22 5 20 6 19 7 17 8 16 9 15 10 14 11 6 12
REMARK SMILES IDX 7 13 8 14 9 15 13 16 11 17 10 18 12 20 4 22 21 24 18 26
REMARK H PARENT 10 19 12 21 4 23 21 25 18 27
REMARK Flexibility Score: inf
ROOT
ATOM      1  C   UNL     1      -4.759   7.320   0.424  1.00  0.00     0.180 A 
ATOM      2  C   UNL     1      -5.155   7.578  -0.900  1.00  0.00     0.208 A 
ATOM      3  C   UNL     1      -6.497   7.376  -1.262  1.00  0.00     0.238 A 
ATOM      4  O   UNL     1      -6.857   7.661  -2.433  1.00  0.00    -0.285 OA
ATOM      5  C   UNL     1      -7.422   6.903  -0.299  1.00  0.00     0.111 A 
ATOM      6  C   UNL     1      -8.796   6.625  -0.564  1.00  0.00     0.134 A 
ATOM      7  C   UNL     1      -9.649   6.285   0.493  1.00  0.00     0.093 A 
ATOM      8  C   UNL     1      -9.165   6.152   1.794  1.00  0.00     0.123 A 
ATOM      9  C   UNL     1      -7.810   6.363   2.055  1.00  0.00     0.094 A 
ATOM     10  C   UNL     1      -6.943   6.738   1.027  1.00  0.00     0.146 A 
ATOM     11  O   UNL     1      -5.663   6.940   1.319  1.00  0.00    -0.452 OA
ENDROOT
BRANCH   1  12
ATOM     12  C   UNL     1      -3.358   7.486   0.873  1.00  0.00     0.025 A 
ATOM     13  C   UNL     1      -2.931   8.731   1.360  1.00  0.00     0.016 A 
ATOM     14  C   UNL     1      -1.619   8.904   1.809  1.00  0.00     0.051 A 
ATOM     15  C   UNL     1      -0.720   7.834   1.793  1.00  0.00     0.157 A 
ATOM     16  C   UNL     1      -2.458   6.405   0.878  1.00  0.00     0.062 A 
ATOM     17  C   UNL     1      -1.141   6.576   1.330  1.00  0.00     0.158 A 
BRANCH  15  18
ATOM     18  O   UNL     1       0.583   8.037   2.245  1.00  0.00    -0.504 OA
ATOM     19  H   UNL     1       0.806   8.716   2.964  1.00  0.00     0.293 HD
ENDBRANCH  15  18
BRANCH  17  20
ATOM     20  O   UNL     1      -0.253   5.501   1.325  1.00  0.00    -0.504 OA
ATOM     21  H   UNL     1      -0.307   4.772   0.623  1.00  0.00     0.293 HD
ENDBRANCH  17  20
ENDBRANCH   1  12
BRANCH   2  22
ATOM     22  O   UNL     1      -4.231   8.065  -1.828  1.00  0.00    -0.502 OA
ATOM     23  H   UNL     1      -3.232   7.940  -1.719  1.00  0.00     0.293 HD
ENDBRANCH   2  22
BRANCH   6  24
ATOM     24  O   UNL     1      -9.363   6.640  -1.842  1.00  0.00    -0.507 OA
ATOM     25  H   UNL     1      -9.589   7.475  -2.362  1.00  0.00     0.293 HD
ENDBRANCH   6  24
BRANCH   8  26
ATOM     26  O   UNL     1     -10.040   5.797   2.820  1.00  0.00    -0.508 OA
ATOM     27  H   UNL     1     -10.764   6.429   3.140  1.00  0.00     0.293 HD
ENDBRANCH   8  26
TORSDOF 6
ENDMDL
MODEL 2
REMARK VINA RESULT:    -6.407      2.872      3.968
REMARK INTER + INTRA:          -8.042
REMARK INTER:                  -8.386
REMARK INTRA:                   0.344
REMARK UNBOUND:                -0.324
REMARK SMILES O=c1c(O)c(-c2ccc(O)c(O)c2)oc2cc(O)cc(O)c12
REMARK SMILES IDX 5 1 3 2 2 3 1 4 22 5 20 6 19 7 17 8 16 9 15 10 14 11 6 12
REMARK SMILES IDX 7 13 8 14 9 15 13 16 11 17 10 18 12 20 4 22 21 24 18 26
REMARK H PARENT 10 19 12 21 4 23 21 25 18 27
REMARK Flexibility Score: inf
ROOT
ATOM      1  C   UNL     1      -2.455   6.692   2.669  1.00  0.00     0.180 A 
ATOM      2  C   UNL     1      -1.949   6.869   1.370  1.00  0.00     0.208 A 
ATOM      3  C   UNL     1      -2.849   7.043   0.306  1.00  0.00     0.238 A 
ATOM      4  O   UNL     1      -2.389   7.255  -0.846  1.00  0.00    -0.285 OA
ATOM      5  C   UNL     1      -4.243   7.021   0.552  1.00  0.00     0.111 A 
ATOM      6  C   UNL     1      -5.246   7.146  -0.456  1.00  0.00     0.134 A 
ATOM      7  C   UNL     1      -6.592   7.241  -0.083  1.00  0.00     0.093 A 
ATOM      8  C   UNL     1      -6.977   7.151   1.254  1.00  0.00     0.123 A 
ATOM      9  C   UNL     1      -6.009   6.967   2.244  1.00  0.00     0.094 A 
ATOM     10  C   UNL     1      -4.656   6.905   1.905  1.00  0.00     0.146 A 
ATOM     11  O   UNL     1      -3.766   6.742   2.877  1.00  0.00    -0.452 OA
ENDROOT
BRANCH   1  12
ATOM     12  C   UNL     1      -1.570   6.479   3.837  1.00  0.00     0.025 A 
ATOM     13  C   UNL     1      -0.283   7.036   3.840  1.00  0.00     0.016 A 
ATOM     14  C   UNL     1       0.561   6.865   4.940  1.00  0.00     0.051 A 
ATOM     15  C   UNL     1       0.126   6.149   6.059  1.00  0.00     0.157 A 
ATOM     16  C   UNL     1      -2.014   5.776   4.973  1.00  0.00     0.062 A 
ATOM     17  C   UNL     1      -1.169   5.605   6.080  1.00  0.00     0.158 A 
BRANCH  15  18
ATOM     18  O   UNL     1       0.991   5.992   7.142  1.00  0.00    -0.504 OA
ATOM     19  H   UNL     1       0.710   6.206   8.091  1.00  0.00     0.293 HD
ENDBRANCH  15  18
BRANCH  17  20
ATOM     20  O   UNL     1      -1.613   4.902   7.198  1.00  0.00    -0.504 OA
ATOM     21  H   UNL     1      -1.063   4.854   8.048  1.00  0.00     0.293 HD
ENDBRANCH  17  20
ENDBRANCH   1  12
BRANCH   2  22
ATOM     22  O   UNL     1      -0.569   6.909   1.152  1.00  0.00    -0.502 OA
ATOM     23  H   UNL     1      -0.005   6.071   1.080  1.00  0.00     0.293 HD
ENDBRANCH   2  22
BRANCH   6  24
ATOM     24  O   UNL     1      -4.978   7.154  -1.828  1.00  0.00    -0.507 OA
ATOM     25  H   UNL     1      -5.603   6.802  -2.538  1.00  0.00     0.293 HD
ENDBRANCH   6  24
BRANCH   8  26
ATOM     26  O   UNL     1      -8.327   7.234   1.588  1.00  0.00    -0.508 OA
ATOM     27  H   UNL     1      -8.651   7.066   2.534  1.00  0.00     0.293 HD
ENDBRANCH   8  26
TORSDOF 6
ENDMDL
MODEL 3
REMARK VINA RESULT:    -6.363      3.516      5.409
REMARK INTER + INTRA:          -7.989
REMARK INTER:                  -7.664
REMARK INTRA:                  -0.325
REMARK UNBOUND:                -0.324
REMARK SMILES O=c1c(O)c(-c2ccc(O)c(O)c2)oc2cc(O)cc(O)c12
REMARK SMILES IDX 5 1 3 2 2 3 1 4 22 5 20 6 19 7 17 8 16 9 15 10 14 11 6 12
REMARK SMILES IDX 7 13 8 14 9 15 13 16 11 17 10 18 12 20 4 22 21 24 18 26
REMARK H PARENT 10 19 12 21 4 23 21 25 18 27
REMARK Flexibility Score: inf
ROOT
ATOM      1  C   UNL     1      -2.305   7.446   3.431  1.00  0.00     0.180 A 
ATOM      2  C   UNL     1      -1.238   7.906   2.639  1.00  0.00     0.208 A 
ATOM      3  C   UNL     1      -1.416   8.010   1.250  1.00  0.00     0.238 A 
ATOM      4  O   UNL     1      -0.476   8.473   0.554  1.00  0.00    -0.285 OA
ATOM      5  C   UNL     1      -2.652   7.638   0.669  1.00  0.00     0.111 A 
ATOM      6  C   UNL     1      -2.930   7.665  -0.731  1.00  0.00     0.134 A 
ATOM      7  C   UNL     1      -4.229   7.399  -1.183  1.00  0.00     0.093 A 
ATOM      8  C   UNL     1      -5.242   7.046  -0.293  1.00  0.00     0.123 A 
ATOM      9  C   UNL     1      -4.967   6.958   1.073  1.00  0.00     0.094 A 
ATOM     10  C   UNL     1      -3.691   7.252   1.557  1.00  0.00     0.146 A 
ATOM     11  O   UNL     1      -3.473   7.167   2.864  1.00  0.00    -0.452 OA
ENDROOT
BRANCH   1  12
ATOM     12  C   UNL     1      -2.186   7.286   4.899  1.00  0.00     0.025 A 
ATOM     13  C   UNL     1      -2.495   8.366   5.739  1.00  0.00     0.016 A 
ATOM     14  C   UNL     1      -2.409   8.231   7.127  1.00  0.00     0.051 A 
ATOM     15  C   UNL     1      -2.029   7.013   7.696  1.00  0.00     0.157 A 
ATOM     16  C   UNL     1      -1.823   6.054   5.473  1.00  0.00     0.062 A 
ATOM     17  C   UNL     1      -1.739   5.916   6.867  1.00  0.00     0.158 A 
BRANCH  15  18
ATOM     18  O   UNL     1      -1.950   6.907   9.084  1.00  0.00    -0.504 OA
ATOM     19  H   UNL     1      -1.178   6.443   9.547  1.00  0.00     0.293 HD
ENDBRANCH  15  18
BRANCH  17  20
ATOM     20  O   UNL     1      -1.372   4.694   7.429  1.00  0.00    -0.504 OA
ATOM     21  H   UNL     1      -0.925   3.970   6.878  1.00  0.00     0.293 HD
ENDBRANCH  17  20
ENDBRANCH   1  12
BRANCH   2  22
ATOM     22  O   UNL     1      -0.034   8.288   3.236  1.00  0.00    -0.502 OA
ATOM     23  H   UNL     1       0.606   8.940   2.800  1.00  0.00     0.293 HD
ENDBRANCH   2  22
BRANCH   6  24
ATOM     24  O   UNL     1      -1.968   7.916  -1.713  1.00  0.00    -0.507 OA
ATOM     25  H   UNL     1      -1.310   8.681  -1.691  1.00  0.00     0.293 HD
ENDBRANCH   6  24
BRANCH   8  26
ATOM     26  O   UNL     1      -6.520   6.773  -0.779  1.00  0.00    -0.508 OA
ATOM     27  H   UNL     1      -6.885   7.239  -1.601  1.00  0.00     0.293 HD
ENDBRANCH   8  26
TORSDOF 6
ENDMDL
MODEL 4
REMARK VINA RESULT:    -6.328      2.338      6.502
REMARK INTER + INTRA:          -7.947
REMARK INTER:                  -8.402
REMARK INTRA:                   0.456
REMARK UNBOUND:                -0.324
REMARK SMILES O=c1c(O)c(-c2ccc(O)c(O)c2)oc2cc(O)cc(O)c12
REMARK SMILES IDX 5 1 3 2 2 3 1 4 22 5 20 6 19 7 17 8 16 9 15 10 14 11 6 12
REMARK SMILES IDX 7 13 8 14 9 15 13 16 11 17 10 18 12 20 4 22 21 24 18 26
REMARK H PARENT 10 19 12 21 4 23 21 25 18 27
REMARK Flexibility Score: inf
ROOT
ATOM      1  C   UNL     1      -4.219   6.914   0.963  1.00  0.00     0.180 A 
ATOM      2  C   UNL     1      -2.903   6.860   0.472  1.00  0.00     0.208 A 
ATOM      3  C   UNL     1      -1.840   6.744   1.383  1.00  0.00     0.238 A 
ATOM      4  O   UNL     1      -0.669   6.641   0.935  1.00  0.00    -0.285 OA
ATOM      5  C   UNL     1      -2.106   6.700   2.773  1.00  0.00     0.111 A 
ATOM      6  C   UNL     1      -1.105   6.624   3.788  1.00  0.00     0.134 A 
ATOM      7  C   UNL     1      -1.486   6.456   5.124  1.00  0.00     0.093 A 
ATOM      8  C   UNL     1      -2.831   6.424   5.490  1.00  0.00     0.123 A 
ATOM      9  C   UNL     1      -3.820   6.558   4.513  1.00  0.00     0.094 A 
ATOM     10  C   UNL     1      -3.469   6.691   3.168  1.00  0.00     0.146 A 
ATOM     11  O   UNL     1      -4.439   6.805   2.268  1.00  0.00    -0.452 OA
ENDROOT
BRANCH   1  12
ATOM     12  C   UNL     1      -5.389   7.060   0.067  1.00  0.00     0.025 A 
ATOM     13  C   UNL     1      -6.683   7.015   0.607  1.00  0.00     0.016 A 
ATOM     14  C   UNL     1      -7.801   7.172  -0.217  1.00  0.00     0.051 A 
ATOM     15  C   UNL     1      -7.642   7.391  -1.588  1.00  0.00     0.157 A 
ATOM     16  C   UNL     1      -5.231   7.302  -1.310  1.00  0.00     0.062 A 
ATOM     17  C   UNL     1      -6.351   7.462  -2.139  1.00  0.00     0.158 A 
BRANCH  15  18
ATOM     18  O   UNL     1      -8.775   7.542  -2.386  1.00  0.00    -0.504 OA
ATOM     19  H   UNL     1      -9.231   6.753  -2.830  1.00  0.00     0.293 HD
ENDBRANCH  15  18
BRANCH  17  20
ATOM     20  O   UNL     1      -6.186   7.694  -3.503  1.00  0.00    -0.504 OA
ATOM     21  H   UNL     1      -6.833   7.319  -4.187  1.00  0.00     0.293 HD
ENDBRANCH  17  20
ENDBRANCH   1  12
BRANCH   2  22
ATOM     22  O   UNL     1      -2.665   6.882  -0.904  1.00  0.00    -0.502 OA
ATOM     23  H   UNL     1      -1.793   7.211  -1.300  1.00  0.00     0.293 HD
ENDBRANCH   2  22
BRANCH   6  24
ATOM     24  O   UNL     1       0.267   6.737   3.541  1.00  0.00    -0.507 OA
ATOM     25  H   UNL     1       0.747   7.604   3.349  1.00  0.00     0.293 HD
ENDBRANCH   6  24
BRANCH   8  26
ATOM     26  O   UNL     1      -3.176   6.271   6.832  1.00  0.00    -0.508 OA
ATOM     27  H   UNL     1      -2.969   5.417   7.338  1.00  0.00     0.293 HD
ENDBRANCH   8  26
TORSDOF 6
ENDMDL
MODEL 5
REMARK VINA RESULT:    -6.291      1.571      3.192
REMARK INTER + INTRA:          -7.902
REMARK INTER:                  -7.638
REMARK INTRA:                  -0.263
REMARK UNBOUND:                -0.324
REMARK SMILES O=c1c(O)c(-c2ccc(O)c(O)c2)oc2cc(O)cc(O)c12
REMARK SMILES IDX 5 1 3 2 2 3 1 4 22 5 20 6 19 7 17 8 16 9 15 10 14 11 6 12
REMARK SMILES IDX 7 13 8 14 9 15 13 16 11 17 10 18 12 20 4 22 21 24 18 26
REMARK H PARENT 10 19 12 21 4 23 21 25 18 27
REMARK Flexibility Score: inf
ROOT
ATOM      1  C   UNL     1      -3.909   7.192   2.008  1.00  0.00     0.180 A 
ATOM      2  C   UNL     1      -4.808   6.906   3.051  1.00  0.00     0.208 A 
ATOM      3  C   UNL     1      -6.166   6.717   2.747  1.00  0.00     0.238 A 
ATOM      4  O   UNL     1      -6.955   6.408   3.676  1.00  0.00    -0.285 OA
ATOM      5  C   UNL     1      -6.610   6.833   1.408  1.00  0.00     0.111 A 
ATOM      6  C   UNL     1      -7.969   6.700   0.991  1.00  0.00     0.134 A 
ATOM      7  C   UNL     1      -8.276   6.706  -0.375  1.00  0.00     0.093 A 
ATOM      8  C   UNL     1      -7.284   6.901  -1.336  1.00  0.00     0.123 A 
ATOM      9  C   UNL     1      -5.960   7.091  -0.936  1.00  0.00     0.094 A 
ATOM     10  C   UNL     1      -5.618   7.055   0.417  1.00  0.00     0.146 A 
ATOM     11  O   UNL     1      -4.346   7.230   0.755  1.00  0.00    -0.452 OA
ENDROOT
BRANCH   1  12
ATOM     12  C   UNL     1      -2.467   7.428   2.253  1.00  0.00     0.025 A 
ATOM     13  C   UNL     1      -2.054   8.638   2.831  1.00  0.00     0.016 A 
ATOM     14  C   UNL     1      -0.701   8.874   3.090  1.00  0.00     0.051 A 
ATOM     15  C   UNL     1       0.255   7.899   2.790  1.00  0.00     0.157 A 
ATOM     16  C   UNL     1      -1.506   6.441   1.971  1.00  0.00     0.062 A 
ATOM     17  C   UNL     1      -0.148   6.674   2.232  1.00  0.00     0.158 A 
BRANCH  15  18
ATOM     18  O   UNL     1       1.598   8.163   3.057  1.00  0.00    -0.504 OA
ATOM     19  H   UNL     1       2.153   8.778   2.475  1.00  0.00     0.293 HD
ENDBRANCH  15  18
BRANCH  17  20
ATOM     20  O   UNL     1       0.800   5.693   1.944  1.00  0.00    -0.504 OA
ATOM     21  H   UNL     1       1.239   5.148   2.677  1.00  0.00     0.293 HD
ENDBRANCH  17  20
ENDBRANCH   1  12
BRANCH   2  22
ATOM     22  O   UNL     1      -4.344   6.775   4.362  1.00  0.00    -0.502 OA
ATOM     23  H   UNL     1      -4.058   7.570   4.920  1.00  0.00     0.293 HD
ENDBRANCH   2  22
BRANCH   6  24
ATOM     24  O   UNL     1      -9.049   6.592   1.872  1.00  0.00    -0.507 OA
ATOM     25  H   UNL     1      -9.044   6.052   2.724  1.00  0.00     0.293 HD
ENDBRANCH   6  24
BRANCH   8  26
ATOM     26  O   UNL     1      -7.628   6.915  -2.686  1.00  0.00    -0.508 OA
ATOM     27  H   UNL     1      -7.308   6.194  -3.322  1.00  0.00     0.293 HD
ENDBRANCH   8  26
TORSDOF 6
ENDMDL
MODEL 6
REMARK VINA RESULT:    -6.283      1.536      1.998
REMARK INTER + INTRA:          -7.892
REMARK INTER:                  -7.722
REMARK INTRA:                  -0.170
REMARK UNBOUND:                -0.324
REMARK SMILES O=c1c(O)c(-c2ccc(O)c(O)c2)oc2cc(O)cc(O)c12
REMARK SMILES IDX 5 1 3 2 2 3 1 4 22 5 20 6 19 7 17 8 16 9 15 10 14 11 6 12
REMARK SMILES IDX 7 13 8 14 9 15 13 16 11 17 10 18 12 20 4 22 21 24 18 26
REMARK H PARENT 10 19 12 21 4 23 21 25 18 27
REMARK Flexibility Score: inf
ROOT
ATOM      1  C   UNL     1      -4.921   7.050   1.900  1.00  0.00     0.180 A 
ATOM      2  C   UNL     1      -5.610   6.797   0.701  1.00  0.00     0.208 A 
ATOM      3  C   UNL     1      -6.997   6.585   0.744  1.00  0.00     0.238 A 
ATOM      4  O   UNL     1      -7.616   6.413  -0.338  1.00  0.00    -0.285 OA
ATOM      5  C   UNL     1      -7.675   6.611   1.987  1.00  0.00     0.111 A 
ATOM      6  C   UNL     1      -9.072   6.369   2.153  1.00  0.00     0.134 A 
ATOM      7  C   UNL     1      -9.660   6.549   3.411  1.00  0.00     0.093 A 
ATOM      8  C   UNL     1      -8.891   6.899   4.521  1.00  0.00     0.123 A 
ATOM      9  C   UNL     1      -7.514   7.079   4.383  1.00  0.00     0.094 A 
ATOM     10  C   UNL     1      -6.906   6.942   3.133  1.00  0.00     0.146 A 
ATOM     11  O   UNL     1      -5.595   7.133   3.041  1.00  0.00    -0.452 OA
ENDROOT
BRANCH   1  12
ATOM     12  C   UNL     1      -3.455   7.259   1.938  1.00  0.00     0.025 A 
ATOM     13  C   UNL     1      -2.942   8.468   2.432  1.00  0.00     0.016 A 
ATOM     14  C   UNL     1      -1.563   8.679   2.496  1.00  0.00     0.051 A 
ATOM     15  C   UNL     1      -0.676   7.680   2.083  1.00  0.00     0.157 A 
ATOM     16  C   UNL     1      -2.561   6.248   1.542  1.00  0.00     0.062 A 
ATOM     17  C   UNL     1      -1.175   6.456   1.608  1.00  0.00     0.158 A 
BRANCH  15  18
ATOM     18  O   UNL     1       0.696   7.919   2.157  1.00  0.00    -0.504 OA
ATOM     19  H   UNL     1       1.075   8.774   2.547  1.00  0.00     0.293 HD
ENDBRANCH  15  18
BRANCH  17  20
ATOM     20  O   UNL     1      -0.296   5.451   1.207  1.00  0.00    -0.504 OA
ATOM     21  H   UNL     1      -0.617   4.640   0.692  1.00  0.00     0.293 HD
ENDBRANCH  17  20
ENDBRANCH   1  12
BRANCH   2  22
ATOM     22  O   UNL     1      -4.924   6.797  -0.517  1.00  0.00    -0.502 OA
ATOM     23  H   UNL     1      -3.948   6.541  -0.591  1.00  0.00     0.293 HD
ENDBRANCH   2  22
BRANCH   6  24
ATOM     24  O   UNL     1      -9.915   5.927   1.129  1.00  0.00    -0.507 OA
ATOM     25  H   UNL     1      -9.847   5.027   0.677  1.00  0.00     0.293 HD
ENDBRANCH   6  24
BRANCH   8  26
ATOM     26  O   UNL     1      -9.507   7.054   5.762  1.00  0.00    -0.508 OA
ATOM     27  H   UNL     1     -10.145   7.820   5.945  1.00  0.00     0.293 HD
ENDBRANCH   8  26
TORSDOF 6
ENDMDL
MODEL 7
REMARK VINA RESULT:    -6.250      1.205      1.393
REMARK INTER + INTRA:          -7.852
REMARK INTER:                  -7.753
REMARK INTRA:                  -0.099
REMARK UNBOUND:                -0.324
REMARK SMILES O=c1c(O)c(-c2ccc(O)c(O)c2)oc2cc(O)cc(O)c12
REMARK SMILES IDX 5 1 3 2 2 3 1 4 22 5 20 6 19 7 17 8 16 9 15 10 14 11 6 12
REMARK SMILES IDX 7 13 8 14 9 15 13 16 11 17 10 18 12 20 4 22 21 24 18 26
REMARK H PARENT 10 19 12 21 4 23 21 25 18 27
REMARK Flexibility Score: inf
ROOT
ATOM      1  C   UNL     1      -3.944   7.142   0.906  1.00  0.00     0.180 A 
ATOM      2  C   UNL     1      -3.928   7.474  -0.460  1.00  0.00     0.208 A 
ATOM      3  C   UNL     1      -5.126   7.416  -1.190  1.00  0.00     0.238 A 
ATOM      4  O   UNL     1      -5.115   7.767  -2.398  1.00  0.00    -0.285 OA
ATOM      5  C   UNL     1      -6.321   7.010  -0.549  1.00  0.00     0.111 A 
ATOM      6  C   UNL     1      -7.585   6.876  -1.200  1.00  0.00     0.134 A 
ATOM      7  C   UNL     1      -8.727   6.593  -0.441  1.00  0.00     0.093 A 
ATOM      8  C   UNL     1      -8.642   6.377   0.934  1.00  0.00     0.123 A 
ATOM      9  C   UNL     1      -7.402   6.446   1.572  1.00  0.00     0.094 A 
ATOM     10  C   UNL     1      -6.251   6.761   0.847  1.00  0.00     0.146 A 
ATOM     11  O   UNL     1      -5.093   6.828   1.493  1.00  0.00    -0.452 OA
ENDROOT
BRANCH   1  12
ATOM     12  C   UNL     1      -2.716   7.156   1.735  1.00  0.00     0.025 A 
ATOM     13  C   UNL     1      -2.697   7.895   2.928  1.00  0.00     0.016 A 
ATOM     14  C   UNL     1      -1.558   7.905   3.736  1.00  0.00     0.051 A 
ATOM     15  C   UNL     1      -0.427   7.167   3.373  1.00  0.00     0.157 A 
ATOM     16  C   UNL     1      -1.586   6.398   1.382  1.00  0.00     0.062 A 
ATOM     17  C   UNL     1      -0.441   6.405   2.192  1.00  0.00     0.158 A 
BRANCH  15  18
ATOM     18  O   UNL     1       0.697   7.199   4.198  1.00  0.00    -0.504 OA
ATOM     19  H   UNL     1       1.133   6.354   4.547  1.00  0.00     0.293 HD
ENDBRANCH  15  18
BRANCH  17  20
ATOM     20  O   UNL     1       0.678   5.657   1.832  1.00  0.00    -0.504 OA
ATOM     21  H   UNL     1       1.566   5.767   2.307  1.00  0.00     0.293 HD
ENDBRANCH  17  20
ENDBRANCH   1  12
BRANCH   2  22
ATOM     22  O   UNL     1      -2.741   7.893  -1.068  1.00  0.00    -0.502 OA
ATOM     23  H   UNL     1      -2.671   8.067  -2.062  1.00  0.00     0.293 HD
ENDBRANCH   2  22
BRANCH   6  24
ATOM     24  O   UNL     1      -7.766   6.982  -2.582  1.00  0.00    -0.507 OA
ATOM     25  H   UNL     1      -8.649   7.167  -3.034  1.00  0.00     0.293 HD
ENDBRANCH   6  24
BRANCH   8  26
ATOM     26  O   UNL     1      -9.797   6.082   1.657  1.00  0.00    -0.508 OA
ATOM     27  H   UNL     1      -9.866   5.248   2.228  1.00  0.00     0.293 HD
ENDBRANCH   8  26
TORSDOF 6
ENDMDL
MODEL 8
REMARK VINA RESULT:    -6.197     15.048     16.731
REMARK INTER + INTRA:          -7.789
REMARK INTER:                  -7.554
REMARK INTRA:                  -0.234
REMARK UNBOUND:                -0.324
REMARK SMILES O=c1c(O)c(-c2ccc(O)c(O)c2)oc2cc(O)cc(O)c12
REMARK SMILES IDX 5 1 3 2 2 3 1 4 22 5 20 6 19 7 17 8 16 9 15 10 14 11 6 12
REMARK SMILES IDX 7 13 8 14 9 15 13 16 11 17 10 18 12 20 4 22 21 24 18 26
REMARK H PARENT 10 19 12 21 4 23 21 25 18 27
REMARK Flexibility Score: inf
ROOT
ATOM      1  C   UNL     1      -2.174  -8.124  -1.766  1.00  0.00     0.180 A 
ATOM      2  C   UNL     1      -0.817  -7.785  -1.627  1.00  0.00     0.208 A 
ATOM      3  C   UNL     1      -0.077  -7.452  -2.773  1.00  0.00     0.238 A 
ATOM      4  O   UNL     1       1.122  -7.097  -2.635  1.00  0.00    -0.285 OA
ATOM      5  C   UNL     1      -0.699  -7.478  -4.044  1.00  0.00     0.111 A 
ATOM      6  C   UNL     1      -0.035  -7.198  -5.277  1.00  0.00     0.134 A 
ATOM      7  C   UNL     1      -0.778  -7.127  -6.461  1.00  0.00     0.093 A 
ATOM      8  C   UNL     1      -2.148  -7.388  -6.469  1.00  0.00     0.123 A 
ATOM      9  C   UNL     1      -2.797  -7.722  -5.279  1.00  0.00     0.094 A 
ATOM     10  C   UNL     1      -2.088  -7.766  -4.076  1.00  0.00     0.146 A 
ATOM     11  O   UNL     1      -2.744  -8.076  -2.964  1.00  0.00    -0.452 OA
ENDROOT
BRANCH   1  12
ATOM     12  C   UNL     1      -3.013  -8.511  -0.608  1.00  0.00     0.025 A 
ATOM     13  C   UNL     1      -2.799  -9.749   0.017  1.00  0.00     0.016 A 
ATOM     14  C   UNL     1      -3.565 -10.125   1.124  1.00  0.00     0.051 A 
ATOM     15  C   UNL     1      -4.542  -9.264   1.632  1.00  0.00     0.157 A 
ATOM     16  C   UNL     1      -3.982  -7.638  -0.083  1.00  0.00     0.062 A 
ATOM     17  C   UNL     1      -4.751  -8.012   1.030  1.00  0.00     0.158 A 
BRANCH  15  18
ATOM     18  O   UNL     1      -5.293  -9.667   2.736  1.00  0.00    -0.504 OA
ATOM     19  H   UNL     1      -5.274 -10.618   3.083  1.00  0.00     0.293 HD
ENDBRANCH  15  18
BRANCH  17  20
ATOM     20  O   UNL     1      -5.714  -7.144   1.540  1.00  0.00    -0.504 OA
ATOM     21  H   UNL     1      -6.198  -7.340   2.408  1.00  0.00     0.293 HD
ENDBRANCH  17  20
ENDBRANCH   1  12
BRANCH   2  22
ATOM     22  O   UNL     1      -0.229  -7.744  -0.360  1.00  0.00    -0.502 OA
ATOM     23  H   UNL     1       0.635  -7.249  -0.177  1.00  0.00     0.293 HD
ENDBRANCH   2  22
BRANCH   6  24
ATOM     24  O   UNL     1       1.345  -7.012  -5.395  1.00  0.00    -0.507 OA
ATOM     25  H   UNL     1       1.782  -6.251  -5.894  1.00  0.00     0.293 HD
ENDBRANCH   6  24
BRANCH   8  26
ATOM     26  O   UNL     1      -2.854  -7.323  -7.668  1.00  0.00    -0.508 OA
ATOM     27  H   UNL     1      -2.865  -8.099  -8.320  1.00  0.00     0.293 HD
ENDBRANCH   8  26
TORSDOF 6
ENDMDL
MODEL 9
REMARK VINA RESULT:    -6.140      3.513      5.312
REMARK INTER + INTRA:          -7.721
REMARK INTER:                  -7.404
REMARK INTRA:                  -0.317
REMARK UNBOUND:                -0.324
REMARK SMILES O=c1c(O)c(-c2ccc(O)c(O)c2)oc2cc(O)cc(O)c12
REMARK SMILES IDX 5 1 3 2 2 3 1 4 22 5 20 6 19 7 17 8 16 9 15 10 14 11 6 12
REMARK SMILES IDX 7 13 8 14 9 15 13 16 11 17 10 18 12 20 4 22 21 24 18 26
REMARK H PARENT 10 19 12 21 4 23 21 25 18 27
REMARK Flexibility Score: inf
ROOT
ATOM      1  C   UNL     1      -3.648   7.201   3.210  1.00  0.00     0.180 A 
ATOM      2  C   UNL     1      -4.930   6.759   2.838  1.00  0.00     0.208 A 
ATOM      3  C   UNL     1      -5.308   6.826   1.488  1.00  0.00     0.238 A 
ATOM      4  O   UNL     1      -6.436   6.379   1.153  1.00  0.00    -0.285 OA
ATOM      5  C   UNL     1      -4.407   7.349   0.529  1.00  0.00     0.111 A 
ATOM      6  C   UNL     1      -4.700   7.501  -0.860  1.00  0.00     0.134 A 
ATOM      7  C   UNL     1      -3.689   7.908  -1.739  1.00  0.00     0.093 A 
ATOM      8  C   UNL     1      -2.415   8.230  -1.271  1.00  0.00     0.123 A 
ATOM      9  C   UNL     1      -2.135   8.143   0.094  1.00  0.00     0.094 A 
ATOM     10  C   UNL     1      -3.113   7.705   0.989  1.00  0.00     0.146 A 
ATOM     11  O   UNL     1      -2.803   7.625   2.278  1.00  0.00    -0.452 OA
ENDROOT
BRANCH   1  12
ATOM     12  C   UNL     1      -3.186   7.185   4.617  1.00  0.00     0.025 A 
ATOM     13  C   UNL     1      -3.372   8.321   5.419  1.00  0.00     0.016 A 
ATOM     14  C   UNL     1      -2.963   8.320   6.755  1.00  0.00     0.051 A 
ATOM     15  C   UNL     1      -2.377   7.181   7.313  1.00  0.00     0.157 A 
ATOM     16  C   UNL     1      -2.615   6.032   5.186  1.00  0.00     0.062 A 
ATOM     17  C   UNL     1      -2.205   6.028   6.528  1.00  0.00     0.158 A 
BRANCH  15  18
ATOM     18  O   UNL     1      -1.976   7.210   8.649  1.00  0.00    -0.504 OA
ATOM     19  H   UNL     1      -2.603   7.489   9.394  1.00  0.00     0.293 HD
ENDBRANCH  15  18
BRANCH  17  20
ATOM     20  O   UNL     1      -1.634   4.884   7.083  1.00  0.00    -0.504 OA
ATOM     21  H   UNL     1      -1.884   4.563   8.011  1.00  0.00     0.293 HD
ENDBRANCH  17  20
ENDBRANCH   1  12
BRANCH   2  22
ATOM     22  O   UNL     1      -5.795   6.226   3.797  1.00  0.00    -0.502 OA
ATOM     23  H   UNL     1      -6.789   6.418   3.800  1.00  0.00     0.293 HD
ENDBRANCH   2  22
BRANCH   6  24
ATOM     24  O   UNL     1      -5.964   7.294  -1.418  1.00  0.00    -0.507 OA
ATOM     25  H   UNL     1      -6.474   7.979  -1.958  1.00  0.00     0.293 HD
ENDBRANCH   6  24
BRANCH   8  26
ATOM     26  O   UNL     1      -1.437   8.647  -2.172  1.00  0.00    -0.508 OA
ATOM     27  H   UNL     1      -1.645   9.305  -2.913  1.00  0.00     0.293 HD
ENDBRANCH   8  26
TORSDOF 6
ENDMDL
