MODEL 1
REMARK VINA RESULT:    -2.955      0.000      0.000
REMARK INTER + INTRA:          -4.938
REMARK INTER:                  -3.992
REMARK INTRA:                  -0.946
REMARK UNBOUND:                -0.946
REMARK SMILES CCCCCCC=CC(=O)[O-]
REMARK SMILES IDX 5 1 6 2 7 3 8 4 9 5 10 6 11 7 4 8 3 9 2 10 1 11
REMARK H PARENT
REMARK Flexibility Score: inf
ROOT
ATOM      1  C   UNL     1      27.103  -6.910 -28.509  1.00  0.00     0.004 C 
ENDROOT
BRANCH   1   2
ATOM      2  C   UNL     1      27.358  -5.845 -29.586  1.00  0.00     0.027 C 
BRANCH   2   3
ATOM      3  C   UNL     1      26.478  -4.634 -29.415  1.00  0.00    -0.025 C 
ATOM      4  C   UNL     1      25.324  -4.399 -30.061  1.00  0.00     0.020 C 
BRANCH   4   5
ATOM      5  C   UNL     1      24.705  -5.250 -31.099  1.00  0.00     0.064 C 
ATOM      6  O   UNL     1      25.098  -5.240 -32.295  1.00  0.00    -0.545 OA
ATOM      7  O   UNL     1      23.640  -6.068 -30.748  1.00  0.00    -0.545 OA
ENDBRANCH   4   5
ENDBRANCH   2   3
ENDBRANCH   1   2
BRANCH   1   8
ATOM      8  C   UNL     1      26.071  -7.955 -28.964  1.00  0.00     0.000 C 
BRANCH   8   9
ATOM      9  C   UNL     1      24.812  -7.980 -28.079  1.00  0.00    -0.000 C 
BRANCH   9  10
ATOM     10  C   UNL     1      24.846  -7.017 -26.879  1.00  0.00    -0.003 C 
ATOM     11  C   UNL     1      23.811  -5.897 -26.981  1.00  0.00     0.004 C 
ENDBRANCH   9  10
ENDBRANCH   8   9
ENDBRANCH   1   8
TORSDOF 6
ENDMDL
MODEL 2
REMARK VINA RESULT:    -2.890      1.657      2.753
REMARK INTER + INTRA:          -4.850
REMARK INTER:                  -4.291
REMARK INTRA:                  -0.559
REMARK UNBOUND:                -0.946
REMARK SMILES CCCCCCC=CC(=O)[O-]
REMARK SMILES IDX 5 1 6 2 7 3 8 4 9 5 10 6 11 7 4 8 3 9 2 10 1 11
REMARK H PARENT
REMARK Flexibility Score: inf
ROOT
ATOM      1  C   UNL     1      24.110  -6.087 -27.762  1.00  0.00     0.004 C 
ENDROOT
BRANCH   1   2
ATOM      2  C   UNL     1      24.160  -5.172 -28.996  1.00  0.00     0.027 C 
BRANCH   2   3
ATOM      3  C   UNL     1      23.878  -5.918 -30.274  1.00  0.00    -0.025 C 
ATOM      4  C   UNL     1      24.274  -5.554 -31.505  1.00  0.00     0.020 C 
BRANCH   4   5
ATOM      5  C   UNL     1      25.025  -4.333 -31.865  1.00  0.00     0.064 C 
ATOM      6  O   UNL     1      24.488  -3.195 -31.873  1.00  0.00    -0.545 OA
ATOM      7  O   UNL     1      26.359  -4.449 -32.230  1.00  0.00    -0.545 OA
ENDBRANCH   4   5
ENDBRANCH   2   3
ENDBRANCH   1   2
BRANCH   1   8
ATOM      8  C   UNL     1      24.530  -7.529 -28.096  1.00  0.00     0.000 C 
BRANCH   8   9
ATOM      9  C   UNL     1      25.590  -8.084 -27.128  1.00  0.00    -0.000 C 
BRANCH   9  10
ATOM     10  C   UNL     1      27.022  -8.125 -27.690  1.00  0.00    -0.003 C 
ATOM     11  C   UNL     1      27.111  -7.635 -29.136  1.00  0.00     0.004 C 
ENDBRANCH   9  10
ENDBRANCH   8   9
ENDBRANCH   1   8
TORSDOF 6
ENDMDL
MODEL 3
REMARK VINA RESULT:    -2.869     13.241     14.839
REMARK INTER + INTRA:          -4.821
REMARK INTER:                  -3.903
REMARK INTRA:                  -0.918
REMARK UNBOUND:                -0.946
REMARK SMILES CCCCCCC=CC(=O)[O-]
REMARK SMILES IDX 5 1 6 2 7 3 8 4 9 5 10 6 11 7 4 8 3 9 2 10 1 11
REMARK H PARENT
REMARK Flexibility Score: inf
ROOT
ATOM      1  C   UNL     1      34.281   4.095 -33.256  1.00  0.00     0.004 C 
ENDROOT
BRANCH   1   2
ATOM      2  C   UNL     1      34.978   5.459 -33.387  1.00  0.00     0.027 C 
BRANCH   2   3
ATOM      3  C   UNL     1      35.793   5.806 -32.169  1.00  0.00    -0.025 C 
ATOM      4  C   UNL     1      35.423   6.638 -31.181  1.00  0.00     0.020 C 
BRANCH   4   5
ATOM      5  C   UNL     1      34.167   7.415 -31.108  1.00  0.00     0.064 C 
ATOM      6  O   UNL     1      33.100   6.922 -30.657  1.00  0.00    -0.545 OA
ATOM      7  O   UNL     1      34.160   8.722 -31.574  1.00  0.00    -0.545 OA
ENDBRANCH   4   5
ENDBRANCH   2   3
ENDBRANCH   1   2
BRANCH   1   8
ATOM      8  C   UNL     1      32.784   4.242 -32.934  1.00  0.00     0.000 C 
BRANCH   8   9
ATOM      9  C   UNL     1      32.406   3.660 -31.560  1.00  0.00    -0.000 C 
BRANCH   9  10
ATOM     10  C   UNL     1      33.601   3.250 -30.680  1.00  0.00    -0.003 C 
ATOM     11  C   UNL     1      33.494   3.770 -29.247  1.00  0.00     0.004 C 
ENDBRANCH   9  10
ENDBRANCH   8   9
ENDBRANCH   1   8
TORSDOF 6
ENDMDL
MODEL 4
REMARK VINA RESULT:    -2.867     14.337     15.972
REMARK INTER + INTRA:          -4.818
REMARK INTER:                  -4.253
REMARK INTRA:                  -0.565
REMARK UNBOUND:                -0.946
REMARK SMILES CCCCCCC=CC(=O)[O-]
REMARK SMILES IDX 5 1 6 2 7 3 8 4 9 5 10 6 11 7 4 8 3 9 2 10 1 11
REMARK H PARENT
REMARK Flexibility Score: inf
ROOT
ATOM      1  C   UNL     1      35.610   6.125 -32.202  1.00  0.00     0.004 C 
ENDROOT
BRANCH   1   2
ATOM      2  C   UNL     1      34.988   7.322 -31.466  1.00  0.00     0.027 C 
BRANCH   2   3
ATOM      3  C   UNL     1      33.518   7.128 -31.196  1.00  0.00    -0.025 C 
ATOM      4  C   UNL     1      32.656   8.078 -30.796  1.00  0.00     0.020 C 
BRANCH   4   5
ATOM      5  C   UNL     1      32.976   9.489 -30.497  1.00  0.00     0.064 C 
ATOM      6  O   UNL     1      32.936   9.952 -29.327  1.00  0.00    -0.545 OA
ATOM      7  O   UNL     1      33.308  10.338 -31.544  1.00  0.00    -0.545 OA
ENDBRANCH   4   5
ENDBRANCH   2   3
ENDBRANCH   1   2
BRANCH   1   8
ATOM      8  C   UNL     1      34.657   5.540 -33.259  1.00  0.00     0.000 C 
BRANCH   8   9
ATOM      9  C   UNL     1      34.436   4.026 -33.093  1.00  0.00    -0.000 C 
BRANCH   9  10
ATOM     10  C   UNL     1      33.015   3.623 -32.658  1.00  0.00    -0.003 C 
ATOM     11  C   UNL     1      31.935   4.557 -33.203  1.00  0.00     0.004 C 
ENDBRANCH   9  10
ENDBRANCH   8   9
ENDBRANCH   1   8
TORSDOF 6
ENDMDL
MODEL 5
REMARK VINA RESULT:    -2.841     14.089     15.729
REMARK INTER + INTRA:          -4.783
REMARK INTER:                  -4.407
REMARK INTRA:                  -0.376
REMARK UNBOUND:                -0.946
REMARK SMILES CCCCCCC=CC(=O)[O-]
REMARK SMILES IDX 5 1 6 2 7 3 8 4 9 5 10 6 11 7 4 8 3 9 2 10 1 11
REMARK H PARENT
REMARK Flexibility Score: inf
ROOT
ATOM      1  C   UNL     1      34.236   6.736 -30.433  1.00  0.00     0.004 C 
ENDROOT
BRANCH   1   2
ATOM      2  C   UNL     1      35.282   5.693 -30.859  1.00  0.00     0.027 C 
BRANCH   2   3
ATOM      3  C   UNL     1      35.666   5.826 -32.310  1.00  0.00    -0.025 C 
ATOM      4  C   UNL     1      35.043   5.246 -33.349  1.00  0.00     0.020 C 
BRANCH   4   5
ATOM      5  C   UNL     1      33.887   4.328 -33.282  1.00  0.00     0.064 C 
ATOM      6  O   UNL     1      33.997   3.095 -33.512  1.00  0.00    -0.545 OA
ATOM      7  O   UNL     1      32.635   4.846 -32.982  1.00  0.00    -0.545 OA
ENDBRANCH   4   5
ENDBRANCH   2   3
ENDBRANCH   1   2
BRANCH   1   8
ATOM      8  C   UNL     1      34.215   7.950 -31.377  1.00  0.00     0.000 C 
BRANCH   8   9
ATOM      9  C   UNL     1      33.206   9.028 -30.945  1.00  0.00    -0.000 C 
BRANCH   9  10
ATOM     10  C   UNL     1      32.584   8.813 -29.553  1.00  0.00    -0.003 C 
ATOM     11  C   UNL     1      32.922   9.931 -28.567  1.00  0.00     0.004 C 
ENDBRANCH   9  10
ENDBRANCH   8   9
ENDBRANCH   1   8
TORSDOF 6
ENDMDL
MODEL 6
REMARK VINA RESULT:    -2.824     15.178     16.875
REMARK INTER + INTRA:          -4.760
REMARK INTER:                  -4.442
REMARK INTRA:                  -0.319
REMARK UNBOUND:                -0.946
REMARK SMILES CCCCCCC=CC(=O)[O-]
REMARK SMILES IDX 5 1 6 2 7 3 8 4 9 5 10 6 11 7 4 8 3 9 2 10 1 11
REMARK H PARENT
REMARK Flexibility Score: inf
ROOT
ATOM      1  C   UNL     1      33.808   7.609 -31.077  1.00  0.00     0.004 C 
ENDROOT
BRANCH   1   2
ATOM      2  C   UNL     1      33.598   9.131 -31.126  1.00  0.00     0.027 C 
BRANCH   2   3
ATOM      3  C   UNL     1      32.241   9.540 -30.616  1.00  0.00    -0.025 C 
ATOM      4  C   UNL     1      31.919   9.787 -29.335  1.00  0.00     0.020 C 
BRANCH   4   5
ATOM      5  C   UNL     1      32.812   9.667 -28.163  1.00  0.00     0.064 C 
ATOM      6  O   UNL     1      33.512  10.629 -27.754  1.00  0.00    -0.545 OA
ATOM      7  O   UNL     1      32.898   8.446 -27.509  1.00  0.00    -0.545 OA
ENDBRANCH   4   5
ENDBRANCH   2   3
ENDBRANCH   1   2
BRANCH   1   8
ATOM      8  C   UNL     1      35.251   7.214 -31.435  1.00  0.00     0.000 C 
BRANCH   8   9
ATOM      9  C   UNL     1      35.406   5.710 -31.722  1.00  0.00    -0.000 C 
BRANCH   9  10
ATOM     10  C   UNL     1      35.112   5.293 -33.174  1.00  0.00    -0.003 C 
ATOM     11  C   UNL     1      34.215   4.060 -33.272  1.00  0.00     0.004 C 
ENDBRANCH   9  10
ENDBRANCH   8   9
ENDBRANCH   1   8
TORSDOF 6
ENDMDL
MODEL 7
REMARK VINA RESULT:    -2.788      1.134      1.977
REMARK INTER + INTRA:          -4.711
REMARK INTER:                  -4.111
REMARK INTRA:                  -0.601
REMARK UNBOUND:                -0.946
REMARK SMILES CCCCCCC=CC(=O)[O-]
REMARK SMILES IDX 5 1 6 2 7 3 8 4 9 5 10 6 11 7 4 8 3 9 2 10 1 11
REMARK H PARENT
REMARK Flexibility Score: inf
ROOT
ATOM      1  C   UNL     1      24.447  -7.678 -27.969  1.00  0.00     0.004 C 
ENDROOT
BRANCH   1   2
ATOM      2  C   UNL     1      25.356  -7.809 -29.201  1.00  0.00     0.027 C 
BRANCH   2   3
ATOM      3  C   UNL     1      26.199  -6.580 -29.424  1.00  0.00    -0.025 C 
ATOM      4  C   UNL     1      25.855  -5.508 -30.157  1.00  0.00     0.020 C 
BRANCH   4   5
ATOM      5  C   UNL     1      24.606  -5.331 -30.928  1.00  0.00     0.064 C 
ATOM      6  O   UNL     1      24.551  -5.535 -32.169  1.00  0.00    -0.545 OA
ATOM      7  O   UNL     1      23.464  -4.902 -30.265  1.00  0.00    -0.545 OA
ENDBRANCH   4   5
ENDBRANCH   2   3
ENDBRANCH   1   2
BRANCH   1   8
ATOM      8  C   UNL     1      25.176  -8.064 -26.670  1.00  0.00     0.000 C 
BRANCH   8   9
ATOM      9  C   UNL     1      25.254  -6.906 -25.660  1.00  0.00    -0.000 C 
BRANCH   9  10
ATOM     10  C   UNL     1      24.552  -5.611 -26.104  1.00  0.00    -0.003 C 
ATOM     11  C   UNL     1      23.338  -5.262 -25.243  1.00  0.00     0.004 C 
ENDBRANCH   9  10
ENDBRANCH   8   9
ENDBRANCH   1   8
TORSDOF 6
ENDMDL
MODEL 8
REMARK VINA RESULT:    -2.775     13.479     15.220
REMARK INTER + INTRA:          -4.694
REMARK INTER:                  -3.950
REMARK INTRA:                  -0.744
REMARK UNBOUND:                -0.946
REMARK SMILES CCCCCCC=CC(=O)[O-]
REMARK SMILES IDX 5 1 6 2 7 3 8 4 9 5 10 6 11 7 4 8 3 9 2 10 1 11
REMARK H PARENT
REMARK Flexibility Score: inf
ROOT
ATOM      1  C   UNL     1      35.667   7.207 -31.506  1.00  0.00     0.004 C 
ENDROOT
BRANCH   1   2
ATOM      2  C   UNL     1      34.251   7.763 -31.284  1.00  0.00     0.027 C 
BRANCH   2   3
ATOM      3  C   UNL     1      33.522   7.049 -30.175  1.00  0.00    -0.025 C 
ATOM      4  C   UNL     1      32.215   6.741 -30.159  1.00  0.00     0.020 C 
BRANCH   4   5
ATOM      5  C   UNL     1      31.217   7.077 -31.197  1.00  0.00     0.064 C 
ATOM      6  O   UNL     1      30.651   8.200 -31.244  1.00  0.00    -0.545 OA
ATOM      7  O   UNL     1      30.876   6.112 -32.135  1.00  0.00    -0.545 OA
ENDBRANCH   4   5
ENDBRANCH   2   3
ENDBRANCH   1   2
BRANCH   1   8
ATOM      8  C   UNL     1      35.657   5.690 -31.763  1.00  0.00     0.000 C 
BRANCH   8   9
ATOM      9  C   UNL     1      35.184   5.326 -33.182  1.00  0.00    -0.000 C 
BRANCH   9  10
ATOM     10  C   UNL     1      34.262   4.097 -33.261  1.00  0.00    -0.003 C 
ATOM     11  C   UNL     1      33.571   3.781 -31.935  1.00  0.00     0.004 C 
ENDBRANCH   9  10
ENDBRANCH   8   9
ENDBRANCH   1   8
TORSDOF 6
ENDMDL
MODEL 9
REMARK VINA RESULT:    -2.767     17.053     18.402
REMARK INTER + INTRA:          -4.684
REMARK INTER:                  -4.257
REMARK INTRA:                  -0.426
REMARK UNBOUND:                -0.946
REMARK SMILES CCCCCCC=CC(=O)[O-]
REMARK SMILES IDX 5 1 6 2 7 3 8 4 9 5 10 6 11 7 4 8 3 9 2 10 1 11
REMARK H PARENT
REMARK Flexibility Score: inf
ROOT
ATOM      1  C   UNL     1      32.255   8.891 -28.762  1.00  0.00     0.004 C 
ENDROOT
BRANCH   1   2
ATOM      2  C   UNL     1      32.785   9.305 -27.380  1.00  0.00     0.027 C 
BRANCH   2   3
ATOM      3  C   UNL     1      33.396  10.682 -27.390  1.00  0.00    -0.025 C 
ATOM      4  C   UNL     1      33.688  11.424 -26.309  1.00  0.00     0.020 C 
BRANCH   4   5
ATOM      5  C   UNL     1      33.431  11.067 -24.898  1.00  0.00     0.064 C 
ATOM      6  O   UNL     1      34.162  10.258 -24.269  1.00  0.00    -0.545 OA
ATOM      7  O   UNL     1      32.333  11.622 -24.255  1.00  0.00    -0.545 OA
ENDBRANCH   4   5
ENDBRANCH   2   3
ENDBRANCH   1   2
BRANCH   1   8
ATOM      8  C   UNL     1      32.693   9.870 -29.865  1.00  0.00     0.000 C 
BRANCH   8   9
ATOM      9  C   UNL     1      33.311   9.162 -31.084  1.00  0.00    -0.000 C 
BRANCH   9  10
ATOM     10  C   UNL     1      33.653   7.678 -30.866  1.00  0.00    -0.003 C 
ATOM     11  C   UNL     1      34.997   7.278 -31.475  1.00  0.00     0.004 C 
ENDBRANCH   9  10
ENDBRANCH   8   9
ENDBRANCH   1   8
TORSDOF 6
ENDMDL
