MODEL 1
REMARK VINA RESULT:    -3.807      0.000      0.000
REMARK INTER + INTRA:          -5.868
REMARK INTER:                  -5.810
REMARK INTRA:                  -0.058
REMARK UNBOUND:                -0.058
REMARK SMILES CC1=CCC[C@@H](C)C(=O)C[C@@H](C(C)C)C(=O)C1
REMARK SMILES IDX 8 1 9 2 6 3 7 4 5 5 4 6 3 7 2 8 1 9 10 11 11 12 15 13 16 14
REMARK SMILES IDX 17 15 12 17 13 18 14 19
REMARK H PARENT
REMARK Flexibility Score: 70.00
ROOT
ATOM      1  C   UNL     1      50.713  22.568  18.649  1.00  0.00     0.136 C 
ATOM      2  O   UNL     1      51.836  22.112  18.483  1.00  0.00    -0.299 OA
ENDROOT
BRANCH   1   3
ATOM      3  C   UNL     1      49.763  21.869  19.625  1.00  0.00     0.053 C 
ATOM      4  C   UNL     1      48.490  21.361  18.926  1.00  0.00     0.016 C 
BRANCH   3   5
ATOM      5  C   UNL     1      49.375  22.775  20.828  1.00  0.00     0.015 C 
BRANCH   5   6
ATOM      6  C   UNL     1      50.490  23.690  21.378  1.00  0.00     0.028 C 
BRANCH   6   7
ATOM      7  C   UNL     1      50.114  25.079  21.857  1.00  0.00    -0.028 C 
ATOM      8  C   UNL     1      49.604  26.099  21.124  1.00  0.00    -0.070 CG0
ATOM      9  C   UNL     1      49.145  27.329  21.870  1.00  0.00     0.039 C 
ATOM     10  G   UNL     1      49.562  26.133  19.605  1.00  0.00     0.000 G0
ENDBRANCH   6   7
ENDBRANCH   5   6
ENDBRANCH   3   5
ENDBRANCH   1   3
BRANCH   1  11
ATOM     11  C   UNL     1      50.371  23.875  17.939  1.00  0.00     0.087 C 
BRANCH  11  12
ATOM     12  C   UNL     1      51.424  25.001  18.103  1.00  0.00     0.066 C 
BRANCH  12  13
ATOM     13  C   UNL     1      50.922  26.139  18.979  1.00  0.00     0.140 C 
ATOM     14  O   UNL     1      51.638  27.122  19.108  1.00  0.00    -0.299 OA
BRANCH  13  15
ATOM     15  C   UNL     1      49.535  26.143  19.602  1.00  0.00     0.106 CG0
ATOM     16  G   UNL     1      49.613  26.113  21.120  1.00  0.00     0.000 G0
ENDBRANCH  13  15
ENDBRANCH  12  13
BRANCH  12  17
ATOM     17  C   UNL     1      51.925  25.556  16.730  1.00  0.00    -0.006 C 
ATOM     18  C   UNL     1      52.462  24.427  15.831  1.00  0.00     0.008 C 
ATOM     19  C   UNL     1      50.825  26.315  15.966  1.00  0.00     0.008 C 
ENDBRANCH  12  17
ENDBRANCH  11  12
ENDBRANCH   1  11
TORSDOF 1
ENDMDL
MODEL 2
REMARK VINA RESULT:    -3.786      2.081      4.431
REMARK INTER + INTRA:          -5.836
REMARK INTER:                  -5.320
REMARK INTRA:                  -0.516
REMARK UNBOUND:                -0.058
REMARK SMILES CC1=CCC[C@@H](C)C(=O)C[C@@H](C(C)C)C(=O)C1
REMARK SMILES IDX 8 1 9 2 6 3 7 4 5 5 4 6 3 7 2 8 1 9 10 11 11 12 15 13 16 14
REMARK SMILES IDX 17 15 12 17 13 18 14 19
REMARK H PARENT
REMARK Flexibility Score: 70.00
ROOT
ATOM      1  C   UNL     1      51.701  23.992  19.169  1.00  0.00     0.136 C 
ATOM      2  O   UNL     1      52.409  23.013  18.977  1.00  0.00    -0.299 OA
ENDROOT
BRANCH   1   3
ATOM      3  C   UNL     1      50.478  24.213  18.274  1.00  0.00     0.053 C 
ATOM      4  C   UNL     1      49.595  22.957  18.184  1.00  0.00     0.016 C 
BRANCH   3   5
ATOM      5  C   UNL     1      50.868  24.685  16.845  1.00  0.00     0.015 C 
BRANCH   5   6
ATOM      6  C   UNL     1      50.960  26.211  16.633  1.00  0.00     0.028 C 
BRANCH   6   7
ATOM      7  C   UNL     1      52.333  26.856  16.614  1.00  0.00    -0.028 C 
ATOM      8  C   UNL     1      52.898  27.631  17.572  1.00  0.00    -0.070 CG0
ATOM      9  C   UNL     1      54.350  28.007  17.395  1.00  0.00     0.039 C 
ATOM     10  G   UNL     1      52.149  28.231  18.751  1.00  0.00     0.000 G0
ENDBRANCH   6   7
ENDBRANCH   5   6
ENDBRANCH   3   5
ENDBRANCH   1   3
BRANCH   1  11
ATOM     11  C   UNL     1      52.034  24.878  20.365  1.00  0.00     0.087 C 
BRANCH  11  12
ATOM     12  C   UNL     1      51.333  26.261  20.368  1.00  0.00     0.066 C 
BRANCH  12  13
ATOM     13  C   UNL     1      52.290  27.395  20.030  1.00  0.00     0.140 C 
ATOM     14  O   UNL     1      53.256  27.566  20.759  1.00  0.00    -0.299 OA
BRANCH  13  15
ATOM     15  C   UNL     1      52.147  28.240  18.774  1.00  0.00     0.106 CG0
ATOM     16  G   UNL     1      52.885  27.613  17.602  1.00  0.00     0.000 G0
ENDBRANCH  13  15
ENDBRANCH  12  13
BRANCH  12  17
ATOM     17  C   UNL     1      50.598  26.557  21.716  1.00  0.00    -0.006 C 
ATOM     18  C   UNL     1      49.644  27.758  21.582  1.00  0.00     0.008 C 
ATOM     19  C   UNL     1      49.799  25.345  22.228  1.00  0.00     0.008 C 
ENDBRANCH  12  17
ENDBRANCH  11  12
ENDBRANCH   1  11
TORSDOF 1
ENDMDL
MODEL 3
REMARK VINA RESULT:    -3.619      1.736      3.975
REMARK INTER + INTRA:          -5.581
REMARK INTER:                  -5.405
REMARK INTRA:                  -0.176
REMARK UNBOUND:                -0.058
REMARK SMILES CC1=CCC[C@@H](C)C(=O)C[C@@H](C(C)C)C(=O)C1
REMARK SMILES IDX 8 1 9 2 6 3 7 4 5 5 4 6 3 7 2 8 1 9 10 11 11 12 15 13 16 14
REMARK SMILES IDX 17 15 12 17 13 18 14 19
REMARK H PARENT
REMARK Flexibility Score: 70.00
ROOT
ATOM      1  C   UNL     1      50.734  27.079  20.384  1.00  0.00     0.136 C 
ATOM      2  O   UNL     1      49.895  27.900  20.040  1.00  0.00    -0.299 OA
ENDROOT
BRANCH   1   3
ATOM      3  C   UNL     1      50.837  26.693  21.862  1.00  0.00     0.053 C 
ATOM      4  C   UNL     1      52.286  26.752  22.374  1.00  0.00     0.016 C 
BRANCH   3   5
ATOM      5  C   UNL     1      50.234  25.289  22.151  1.00  0.00     0.015 C 
BRANCH   5   6
ATOM      6  C   UNL     1      49.030  24.873  21.281  1.00  0.00     0.028 C 
BRANCH   6   7
ATOM      7  C   UNL     1      48.983  23.455  20.742  1.00  0.00    -0.028 C 
ATOM      8  C   UNL     1      49.912  22.827  19.980  1.00  0.00    -0.070 CG0
ATOM      9  C   UNL     1      49.716  21.352  19.721  1.00  0.00     0.039 C 
ATOM     10  G   UNL     1      51.072  23.521  19.286  1.00  0.00     0.000 G0
ENDBRANCH   6   7
ENDBRANCH   5   6
ENDBRANCH   3   5
ENDBRANCH   1   3
BRANCH   1  11
ATOM     11  C   UNL     1      51.562  26.417  19.286  1.00  0.00     0.087 C 
BRANCH  11  12
ATOM     12  C   UNL     1      50.744  25.896  18.077  1.00  0.00     0.066 C 
BRANCH  12  13
ATOM     13  C   UNL     1      50.567  24.385  18.106  1.00  0.00     0.140 C 
ATOM     14  O   UNL     1      50.079  23.846  17.122  1.00  0.00    -0.299 OA
BRANCH  13  15
ATOM     15  C   UNL     1      51.069  23.524  19.254  1.00  0.00     0.106 CG0
ATOM     16  G   UNL     1      49.918  22.838  19.972  1.00  0.00     0.000 G0
ENDBRANCH  13  15
ENDBRANCH  12  13
BRANCH  12  17
ATOM     17  C   UNL     1      51.349  26.343  16.707  1.00  0.00    -0.006 C 
ATOM     18  C   UNL     1      51.156  27.853  16.475  1.00  0.00     0.008 C 
ATOM     19  C   UNL     1      52.848  26.014  16.591  1.00  0.00     0.008 C 
ENDBRANCH  12  17
ENDBRANCH  11  12
ENDBRANCH   1  11
TORSDOF 1
ENDMDL
MODEL 4
REMARK VINA RESULT:    -3.550      1.713      3.999
REMARK INTER + INTRA:          -5.476
REMARK INTER:                  -5.421
REMARK INTRA:                  -0.055
REMARK UNBOUND:                -0.058
REMARK SMILES CC1=CCC[C@@H](C)C(=O)C[C@@H](C(C)C)C(=O)C1
REMARK SMILES IDX 8 1 9 2 6 3 7 4 5 5 4 6 3 7 2 8 1 9 10 11 11 12 15 13 16 14
REMARK SMILES IDX 17 15 12 17 13 18 14 19
REMARK H PARENT
REMARK Flexibility Score: 70.00
ROOT
ATOM      1  C   UNL     1      50.436  24.368  20.379  1.00  0.00     0.136 C 
ATOM      2  O   UNL     1      51.625  24.266  20.647  1.00  0.00    -0.299 OA
ENDROOT
BRANCH   1   3
ATOM      3  C   UNL     1      49.687  23.146  19.839  1.00  0.00     0.053 C 
ATOM      4  C   UNL     1      49.737  21.961  20.818  1.00  0.00     0.016 C 
BRANCH   3   5
ATOM      5  C   UNL     1      50.211  22.698  18.445  1.00  0.00     0.015 C 
BRANCH   5   6
ATOM      6  C   UNL     1      50.159  23.759  17.326  1.00  0.00     0.028 C 
BRANCH   6   7
ATOM      7  C   UNL     1      51.431  24.511  16.983  1.00  0.00    -0.028 C 
ATOM      8  C   UNL     1      51.645  25.849  17.043  1.00  0.00    -0.070 CG0
ATOM      9  C   UNL     1      53.057  26.338  16.822  1.00  0.00     0.039 C 
ATOM     10  G   UNL     1      50.551  26.891  17.210  1.00  0.00     0.000 G0
ENDBRANCH   6   7
ENDBRANCH   5   6
ENDBRANCH   3   5
ENDBRANCH   1   3
BRANCH   1  11
ATOM     11  C   UNL     1      49.753  25.694  20.700  1.00  0.00     0.087 C 
BRANCH  11  12
ATOM     12  C   UNL     1      49.189  26.452  19.471  1.00  0.00     0.066 C 
BRANCH  12  13
ATOM     13  C   UNL     1      50.276  27.176  18.690  1.00  0.00     0.140 C 
ATOM     14  O   UNL     1      51.000  27.950  19.300  1.00  0.00    -0.299 OA
BRANCH  13  15
ATOM     15  C   UNL     1      50.557  26.893  17.224  1.00  0.00     0.106 CG0
ATOM     16  G   UNL     1      51.652  25.850  17.064  1.00  0.00     0.000 G0
ENDBRANCH  13  15
ENDBRANCH  12  13
BRANCH  12  17
ATOM     17  C   UNL     1      48.045  27.445  19.855  1.00  0.00    -0.006 C 
ATOM     18  C   UNL     1      48.180  27.920  21.313  1.00  0.00     0.008 C 
ATOM     19  C   UNL     1      48.004  28.679  18.935  1.00  0.00     0.008 C 
ENDBRANCH  12  17
ENDBRANCH  11  12
ENDBRANCH   1  11
TORSDOF 1
ENDMDL
MODEL 5
REMARK VINA RESULT:    -3.543      8.871     10.533
REMARK INTER + INTRA:          -5.465
REMARK INTER:                  -5.115
REMARK INTRA:                  -0.350
REMARK UNBOUND:                -0.058
REMARK SMILES CC1=CCC[C@@H](C)C(=O)C[C@@H](C(C)C)C(=O)C1
REMARK SMILES IDX 8 1 9 2 6 3 7 4 5 5 4 6 3 7 2 8 1 9 10 11 11 12 15 13 16 14
REMARK SMILES IDX 17 15 12 17 13 18 14 19
REMARK H PARENT
REMARK Flexibility Score: 70.00
ROOT
ATOM      1  C   UNL     1      41.304  21.388  22.085  1.00  0.00     0.136 C 
ATOM      2  O   UNL     1      40.622  20.384  21.932  1.00  0.00    -0.299 OA
ENDROOT
BRANCH   1   3
ATOM      3  C   UNL     1      42.466  21.652  21.124  1.00  0.00     0.053 C 
ATOM      4  C   UNL     1      43.831  21.541  21.824  1.00  0.00     0.016 C 
BRANCH   3   5
ATOM      5  C   UNL     1      42.349  23.032  20.417  1.00  0.00     0.015 C 
BRANCH   5   6
ATOM      6  C   UNL     1      43.310  24.134  20.912  1.00  0.00     0.028 C 
BRANCH   6   7
ATOM      7  C   UNL     1      42.771  25.542  21.079  1.00  0.00    -0.028 C 
ATOM      8  C   UNL     1      42.204  26.087  22.184  1.00  0.00    -0.070 CG0
ATOM      9  C   UNL     1      41.910  27.567  22.155  1.00  0.00     0.039 C 
ATOM     10  G   UNL     1      41.750  25.296  23.400  1.00  0.00     0.000 G0
ENDBRANCH   6   7
ENDBRANCH   5   6
ENDBRANCH   3   5
ENDBRANCH   1   3
BRANCH   1  11
ATOM     11  C   UNL     1      40.881  22.367  23.176  1.00  0.00     0.087 C 
BRANCH  11  12
ATOM     12  C   UNL     1      39.925  23.493  22.707  1.00  0.00     0.066 C 
BRANCH  12  13
ATOM     13  C   UNL     1      40.308  24.851  23.279  1.00  0.00     0.140 C 
ATOM     14  O   UNL     1      39.414  25.554  23.730  1.00  0.00    -0.299 OA
BRANCH  13  15
ATOM     15  C   UNL     1      41.751  25.310  23.405  1.00  0.00     0.106 CG0
ATOM     16  G   UNL     1      42.187  26.100  22.182  1.00  0.00     0.000 G0
ENDBRANCH  13  15
ENDBRANCH  12  13
BRANCH  12  17
ATOM     17  C   UNL     1      38.427  23.177  23.021  1.00  0.00    -0.006 C 
ATOM     18  C   UNL     1      37.660  22.777  21.746  1.00  0.00     0.008 C 
ATOM     19  C   UNL     1      38.269  22.057  24.065  1.00  0.00     0.008 C 
ENDBRANCH  12  17
ENDBRANCH  11  12
ENDBRANCH   1  11
TORSDOF 1
ENDMDL
MODEL 6
REMARK VINA RESULT:    -3.531      2.023      4.033
REMARK INTER + INTRA:          -5.447
REMARK INTER:                  -5.022
REMARK INTRA:                  -0.425
REMARK UNBOUND:                -0.058
REMARK SMILES CC1=CCC[C@@H](C)C(=O)C[C@@H](C(C)C)C(=O)C1
REMARK SMILES IDX 8 1 9 2 6 3 7 4 5 5 4 6 3 7 2 8 1 9 10 11 11 12 15 13 16 14
REMARK SMILES IDX 17 15 12 17 13 18 14 19
REMARK H PARENT
REMARK Flexibility Score: 70.00
ROOT
ATOM      1  C   UNL     1      52.451  25.862  20.879  1.00  0.00     0.136 C 
ATOM      2  O   UNL     1      53.482  25.820  21.534  1.00  0.00    -0.299 OA
ENDROOT
BRANCH   1   3
ATOM      3  C   UNL     1      51.902  27.223  20.440  1.00  0.00     0.053 C 
ATOM      4  C   UNL     1      52.774  27.872  19.351  1.00  0.00     0.016 C 
BRANCH   3   5
ATOM      5  C   UNL     1      51.734  28.207  21.633  1.00  0.00     0.015 C 
BRANCH   5   6
ATOM      6  C   UNL     1      50.384  28.149  22.378  1.00  0.00     0.028 C 
BRANCH   6   7
ATOM      7  C   UNL     1      49.129  27.860  21.577  1.00  0.00    -0.028 C 
ATOM      8  C   UNL     1      48.470  26.680  21.465  1.00  0.00    -0.070 CG0
ATOM      9  C   UNL     1      47.140  26.691  20.750  1.00  0.00     0.039 C 
ATOM     10  G   UNL     1      49.023  25.337  21.913  1.00  0.00     0.000 G0
ENDBRANCH   6   7
ENDBRANCH   5   6
ENDBRANCH   3   5
ENDBRANCH   1   3
BRANCH   1  11
ATOM     11  C   UNL     1      51.830  24.534  20.455  1.00  0.00     0.087 C 
BRANCH  11  12
ATOM     12  C   UNL     1      50.451  24.651  19.759  1.00  0.00     0.066 C 
BRANCH  12  13
ATOM     13  C   UNL     1      49.295  24.412  20.720  1.00  0.00     0.140 C 
ATOM     14  O   UNL     1      48.628  23.397  20.572  1.00  0.00    -0.299 OA
BRANCH  13  15
ATOM     15  C   UNL     1      49.016  25.320  21.906  1.00  0.00     0.106 CG0
ATOM     16  G   UNL     1      48.454  26.659  21.455  1.00  0.00     0.000 G0
ENDBRANCH  13  15
ENDBRANCH  12  13
BRANCH  12  17
ATOM     17  C   UNL     1      50.325  23.709  18.517  1.00  0.00    -0.006 C 
ATOM     18  C   UNL     1      50.531  24.484  17.203  1.00  0.00     0.008 C 
ATOM     19  C   UNL     1      51.325  22.539  18.563  1.00  0.00     0.008 C 
ENDBRANCH  12  17
ENDBRANCH  11  12
ENDBRANCH   1  11
TORSDOF 1
ENDMDL
MODEL 7
REMARK VINA RESULT:    -3.484      9.859     11.070
REMARK INTER + INTRA:          -5.376
REMARK INTER:                  -4.947
REMARK INTRA:                  -0.428
REMARK UNBOUND:                -0.058
REMARK SMILES CC1=CCC[C@@H](C)C(=O)C[C@@H](C(C)C)C(=O)C1
REMARK SMILES IDX 8 1 9 2 6 3 7 4 5 5 4 6 3 7 2 8 1 9 10 11 11 12 15 13 16 14
REMARK SMILES IDX 17 15 12 17 13 18 14 19
REMARK H PARENT
REMARK Flexibility Score: 70.00
ROOT
ATOM      1  C   UNL     1      38.821  23.290  22.004  1.00  0.00     0.136 C 
ATOM      2  O   UNL     1      37.784  23.628  21.450  1.00  0.00    -0.299 OA
ENDROOT
BRANCH   1   3
ATOM      3  C   UNL     1      38.857  21.966  22.773  1.00  0.00     0.053 C 
ATOM      4  C   UNL     1      38.270  20.806  21.951  1.00  0.00     0.016 C 
BRANCH   3   5
ATOM      5  C   UNL     1      38.130  22.058  24.145  1.00  0.00     0.015 C 
BRANCH   5   6
ATOM      6  C   UNL     1      38.389  23.338  24.968  1.00  0.00     0.028 C 
BRANCH   6   7
ATOM      7  C   UNL     1      39.627  23.397  25.843  1.00  0.00    -0.028 C 
ATOM      8  C   UNL     1      40.644  24.291  25.780  1.00  0.00    -0.070 CG0
ATOM      9  C   UNL     1      41.677  24.246  26.880  1.00  0.00     0.039 C 
ATOM     10  G   UNL     1      40.872  25.260  24.631  1.00  0.00     0.000 G0
ENDBRANCH   6   7
ENDBRANCH   5   6
ENDBRANCH   3   5
ENDBRANCH   1   3
BRANCH   1  11
ATOM     11  C   UNL     1      40.048  24.175  21.802  1.00  0.00     0.087 C 
BRANCH  11  12
ATOM     12  C   UNL     1      41.324  23.700  22.544  1.00  0.00     0.066 C 
BRANCH  12  13
ATOM     13  C   UNL     1      41.798  24.708  23.582  1.00  0.00     0.140 C 
ATOM     14  O   UNL     1      42.942  25.128  23.489  1.00  0.00    -0.299 OA
BRANCH  13  15
ATOM     15  C   UNL     1      40.877  25.282  24.646  1.00  0.00     0.106 CG0
ATOM     16  G   UNL     1      40.662  24.292  25.780  1.00  0.00     0.000 G0
ENDBRANCH  13  15
ENDBRANCH  12  13
BRANCH  12  17
ATOM     17  C   UNL     1      42.488  23.344  21.565  1.00  0.00    -0.006 C 
ATOM     18  C   UNL     1      42.314  21.930  20.978  1.00  0.00     0.008 C 
ATOM     19  C   UNL     1      42.609  24.348  20.405  1.00  0.00     0.008 C 
ENDBRANCH  12  17
ENDBRANCH  11  12
ENDBRANCH   1  11
TORSDOF 1
ENDMDL
MODEL 8
REMARK VINA RESULT:    -3.340      2.316      4.983
REMARK INTER + INTRA:          -5.154
REMARK INTER:                  -4.583
REMARK INTRA:                  -0.571
REMARK UNBOUND:                -0.058
REMARK SMILES CC1=CCC[C@@H](C)C(=O)C[C@@H](C(C)C)C(=O)C1
REMARK SMILES IDX 8 1 9 2 6 3 7 4 5 5 4 6 3 7 2 8 1 9 10 11 11 12 15 13 16 14
REMARK SMILES IDX 17 15 12 17 13 18 14 19
REMARK H PARENT
REMARK Flexibility Score: 70.00
ROOT
ATOM      1  C   UNL     1      50.660  26.368  19.833  1.00  0.00     0.136 C 
ATOM      2  O   UNL     1      49.918  27.068  20.507  1.00  0.00    -0.299 OA
ENDROOT
BRANCH   1   3
ATOM      3  C   UNL     1      52.166  26.395  20.111  1.00  0.00     0.053 C 
ATOM      4  C   UNL     1      52.492  25.995  21.560  1.00  0.00     0.016 C 
BRANCH   3   5
ATOM      5  C   UNL     1      52.802  27.779  19.793  1.00  0.00     0.015 C 
BRANCH   5   6
ATOM      6  C   UNL     1      52.542  28.339  18.379  1.00  0.00     0.028 C 
BRANCH   6   7
ATOM      7  C   UNL     1      53.229  27.675  17.201  1.00  0.00    -0.028 C 
ATOM      8  C   UNL     1      52.652  26.995  16.179  1.00  0.00    -0.070 CG0
ATOM      9  C   UNL     1      53.539  26.581  15.030  1.00  0.00     0.039 C 
ATOM     10  G   UNL     1      51.204  26.532  16.160  1.00  0.00     0.000 G0
ENDBRANCH   6   7
ENDBRANCH   5   6
ENDBRANCH   3   5
ENDBRANCH   1   3
BRANCH   1  11
ATOM     11  C   UNL     1      50.014  25.432  18.816  1.00  0.00     0.087 C 
BRANCH  11  12
ATOM     12  C   UNL     1      51.010  24.591  17.978  1.00  0.00     0.066 C 
BRANCH  12  13
ATOM     13  C   UNL     1      51.086  25.058  16.531  1.00  0.00     0.140 C 
ATOM     14  O   UNL     1      50.969  24.216  15.651  1.00  0.00    -0.299 OA
BRANCH  13  15
ATOM     15  C   UNL     1      51.192  26.525  16.149  1.00  0.00     0.106 CG0
ATOM     16  G   UNL     1      52.636  26.999  16.177  1.00  0.00     0.000 G0
ENDBRANCH  13  15
ENDBRANCH  12  13
BRANCH  12  17
ATOM     17  C   UNL     1      50.698  23.060  18.036  1.00  0.00    -0.006 C 
ATOM     18  C   UNL     1      51.945  22.249  18.436  1.00  0.00     0.008 C 
ATOM     19  C   UNL     1      49.559  22.729  19.017  1.00  0.00     0.008 C 
ENDBRANCH  12  17
ENDBRANCH  11  12
ENDBRANCH   1  11
TORSDOF 1
ENDMDL
MODEL 9
REMARK VINA RESULT:    -3.273      2.268      4.492
REMARK INTER + INTRA:          -5.054
REMARK INTER:                  -4.993
REMARK INTRA:                  -0.060
REMARK UNBOUND:                -0.058
REMARK SMILES CC1=CCC[C@@H](C)C(=O)C[C@@H](C(C)C)C(=O)C1
REMARK SMILES IDX 8 1 9 2 6 3 7 4 5 5 4 6 3 7 2 8 1 9 10 11 11 12 15 13 16 14
REMARK SMILES IDX 17 15 12 17 13 18 14 19
REMARK H PARENT
REMARK Flexibility Score: 70.00
ROOT
ATOM      1  C   UNL     1      50.505  24.497  19.804  1.00  0.00     0.136 C 
ATOM      2  O   UNL     1      49.557  24.655  20.561  1.00  0.00    -0.299 OA
ENDROOT
BRANCH   1   3
ATOM      3  C   UNL     1      50.457  23.361  18.779  1.00  0.00     0.053 C 
ATOM      4  C   UNL     1      51.750  22.527  18.781  1.00  0.00     0.016 C 
BRANCH   3   5
ATOM      5  C   UNL     1      50.165  23.873  17.339  1.00  0.00     0.015 C 
BRANCH   5   6
ATOM      6  C   UNL     1      51.312  24.635  16.643  1.00  0.00     0.028 C 
BRANCH   6   7
ATOM      7  C   UNL     1      51.025  26.012  16.075  1.00  0.00    -0.028 C 
ATOM      8  C   UNL     1      51.559  27.197  16.462  1.00  0.00    -0.070 CG0
ATOM      9  C   UNL     1      51.245  28.409  15.618  1.00  0.00     0.039 C 
ATOM     10  G   UNL     1      52.359  27.407  17.738  1.00  0.00     0.000 G0
ENDBRANCH   6   7
ENDBRANCH   5   6
ENDBRANCH   3   5
ENDBRANCH   1   3
BRANCH   1  11
ATOM     11  C   UNL     1      51.638  25.517  19.871  1.00  0.00     0.087 C 
BRANCH  11  12
ATOM     12  C   UNL     1      51.184  26.982  20.094  1.00  0.00     0.066 C 
BRANCH  12  13
ATOM     13  C   UNL     1      51.466  27.865  18.887  1.00  0.00     0.140 C 
ATOM     14  O   UNL     1      51.029  29.007  18.898  1.00  0.00    -0.299 OA
BRANCH  13  15
ATOM     15  C   UNL     1      52.352  27.418  17.735  1.00  0.00     0.106 CG0
ATOM     16  G   UNL     1      51.542  27.213  16.465  1.00  0.00     0.000 G0
ENDBRANCH  13  15
ENDBRANCH  12  13
BRANCH  12  17
ATOM     17  C   UNL     1      51.806  27.612  21.382  1.00  0.00    -0.006 C 
ATOM     18  C   UNL     1      50.714  28.058  22.372  1.00  0.00     0.008 C 
ATOM     19  C   UNL     1      52.764  26.648  22.105  1.00  0.00     0.008 C 
ENDBRANCH  12  17
ENDBRANCH  11  12
ENDBRANCH   1  11
TORSDOF 1
ENDMDL
