MODEL 1
REMARK VINA RESULT:    -3.514      0.000      0.000
REMARK INTER + INTRA:          -6.041
REMARK INTER:                  -5.363
REMARK INTRA:                  -0.678
REMARK UNBOUND:                -0.678
REMARK SMILES O=C([O-])CCCCCCCCC(=O)[O-]
REMARK SMILES IDX 7 1 6 2 5 3 4 4 2 5 1 6 3 7 8 8 9 9 10 10 11 11 12 12 13 13
REMARK SMILES IDX 14 14
REMARK H PARENT
REMARK Flexibility Score: inf
ROOT
ATOM      1  C   UNL     1      59.270  17.298  48.438  1.00  0.00     0.000 C 
ENDROOT
BRANCH   1   2
ATOM      2  C   UNL     1      60.127  18.418  49.047  1.00  0.00     0.000 C 
BRANCH   2   3
ATOM      3  C   UNL     1      59.734  19.785  48.466  1.00  0.00     0.006 C 
BRANCH   3   4
ATOM      4  C   UNL     1      60.904  20.777  48.472  1.00  0.00     0.053 C 
BRANCH   4   5
ATOM      5  C   UNL     1      60.864  21.675  49.670  1.00  0.00     0.041 C 
ATOM      6  O   UNL     1      60.510  22.878  49.550  1.00  0.00    -0.550 OA
ATOM      7  O   UNL     1      61.188  21.176  50.925  1.00  0.00    -0.550 OA
ENDBRANCH   4   5
ENDBRANCH   3   4
ENDBRANCH   2   3
ENDBRANCH   1   2
BRANCH   1   8
ATOM      8  C   UNL     1      57.959  17.068  49.207  1.00  0.00     0.000 C 
BRANCH   8   9
ATOM      9  C   UNL     1      58.185  16.875  50.717  1.00  0.00     0.000 C 
BRANCH   9  10
ATOM     10  C   UNL     1      57.415  17.902  51.564  1.00  0.00     0.006 C 
BRANCH  10  11
ATOM     11  C   UNL     1      56.844  19.053  50.725  1.00  0.00     0.053 C 
BRANCH  11  12
ATOM     12  C   UNL     1      55.376  19.198  50.971  1.00  0.00     0.041 C 
ATOM     13  O   UNL     1      54.550  18.898  50.069  1.00  0.00    -0.550 OA
ATOM     14  O   UNL     1      54.919  19.711  52.179  1.00  0.00    -0.550 OA
ENDBRANCH  11  12
ENDBRANCH  10  11
ENDBRANCH   9  10
ENDBRANCH   8   9
ENDBRANCH   1   8
TORSDOF 9
ENDMDL
MODEL 2
REMARK VINA RESULT:    -3.421      1.279      2.274
REMARK INTER + INTRA:          -5.899
REMARK INTER:                  -5.169
REMARK INTRA:                  -0.730
REMARK UNBOUND:                -0.678
REMARK SMILES O=C([O-])CCCCCCCCC(=O)[O-]
REMARK SMILES IDX 7 1 6 2 5 3 4 4 2 5 1 6 3 7 8 8 9 9 10 10 11 11 12 12 13 13
REMARK SMILES IDX 14 14
REMARK H PARENT
REMARK Flexibility Score: inf
ROOT
ATOM      1  C   UNL     1      60.878  19.137  49.608  1.00  0.00     0.000 C 
ENDROOT
BRANCH   1   2
ATOM      2  C   UNL     1      60.088  20.025  48.635  1.00  0.00     0.000 C 
BRANCH   2   3
ATOM      3  C   UNL     1      60.755  21.400  48.484  1.00  0.00     0.006 C 
BRANCH   3   4
ATOM      4  C   UNL     1      61.673  21.734  49.668  1.00  0.00     0.053 C 
BRANCH   4   5
ATOM      5  C   UNL     1      61.172  22.915  50.442  1.00  0.00     0.041 C 
ATOM      6  O   UNL     1      61.790  24.012  50.396  1.00  0.00    -0.550 OA
ATOM      7  O   UNL     1      60.005  22.814  51.188  1.00  0.00    -0.550 OA
ENDBRANCH   4   5
ENDBRANCH   3   4
ENDBRANCH   2   3
ENDBRANCH   1   2
BRANCH   1   8
ATOM      8  C   UNL     1      60.457  17.660  49.539  1.00  0.00     0.000 C 
BRANCH   8   9
ATOM      9  C   UNL     1      59.353  17.408  48.496  1.00  0.00     0.000 C 
BRANCH   9  10
ATOM     10  C   UNL     1      58.056  16.875  49.128  1.00  0.00     0.006 C 
BRANCH  10  11
ATOM     11  C   UNL     1      57.923  17.248  50.611  1.00  0.00     0.053 C 
BRANCH  11  12
ATOM     12  C   UNL     1      57.122  18.502  50.762  1.00  0.00     0.041 C 
ATOM     13  O   UNL     1      57.620  19.507  51.335  1.00  0.00    -0.550 OA
ATOM     14  O   UNL     1      55.807  18.546  50.316  1.00  0.00    -0.550 OA
ENDBRANCH  11  12
ENDBRANCH  10  11
ENDBRANCH   9  10
ENDBRANCH   8   9
ENDBRANCH   1   8
TORSDOF 9
ENDMDL
MODEL 3
REMARK VINA RESULT:    -3.390      7.926     10.684
REMARK INTER + INTRA:          -5.851
REMARK INTER:                  -5.396
REMARK INTRA:                  -0.455
REMARK UNBOUND:                -0.678
REMARK SMILES O=C([O-])CCCCCCCCC(=O)[O-]
REMARK SMILES IDX 7 1 6 2 5 3 4 4 2 5 1 6 3 7 8 8 9 9 10 10 11 11 12 12 13 13
REMARK SMILES IDX 14 14
REMARK H PARENT
REMARK Flexibility Score: inf
ROOT
ATOM      1  C   UNL     1      56.719  28.426  50.366  1.00  0.00     0.000 C 
ENDROOT
BRANCH   1   2
ATOM      2  C   UNL     1      55.301  28.926  50.684  1.00  0.00     0.000 C 
BRANCH   2   3
ATOM      3  C   UNL     1      54.243  28.020  50.037  1.00  0.00     0.006 C 
BRANCH   3   4
ATOM      4  C   UNL     1      54.789  26.621  49.722  1.00  0.00     0.053 C 
BRANCH   4   5
ATOM      5  C   UNL     1      53.701  25.684  49.296  1.00  0.00     0.041 C 
ATOM      6  O   UNL     1      53.512  24.606  49.919  1.00  0.00    -0.550 OA
ATOM      7  O   UNL     1      52.875  26.015  48.230  1.00  0.00    -0.550 OA
ENDBRANCH   4   5
ENDBRANCH   3   4
ENDBRANCH   2   3
ENDBRANCH   1   2
BRANCH   1   8
ATOM      8  C   UNL     1      57.754  29.562  50.328  1.00  0.00     0.000 C 
BRANCH   8   9
ATOM      9  C   UNL     1      58.817  29.356  49.235  1.00  0.00     0.000 C 
BRANCH   9  10
ATOM     10  C   UNL     1      59.407  27.936  49.246  1.00  0.00     0.006 C 
BRANCH  10  11
ATOM     11  C   UNL     1      60.932  27.930  49.415  1.00  0.00     0.053 C 
BRANCH  11  12
ATOM     12  C   UNL     1      61.326  28.738  50.610  1.00  0.00     0.041 C 
ATOM     13  O   UNL     1      62.076  29.742  50.477  1.00  0.00    -0.550 OA
ATOM     14  O   UNL     1      60.906  28.357  51.878  1.00  0.00    -0.550 OA
ENDBRANCH  11  12
ENDBRANCH  10  11
ENDBRANCH   9  10
ENDBRANCH   8   9
ENDBRANCH   1   8
TORSDOF 9
ENDMDL
MODEL 4
REMARK VINA RESULT:    -3.380      7.049      9.928
REMARK INTER + INTRA:          -5.836
REMARK INTER:                  -5.176
REMARK INTRA:                  -0.660
REMARK UNBOUND:                -0.678
REMARK SMILES O=C([O-])CCCCCCCCC(=O)[O-]
REMARK SMILES IDX 7 1 6 2 5 3 4 4 2 5 1 6 3 7 8 8 9 9 10 10 11 11 12 12 13 13
REMARK SMILES IDX 14 14
REMARK H PARENT
REMARK Flexibility Score: inf
ROOT
ATOM      1  C   UNL     1      56.700  28.292  50.873  1.00  0.00     0.000 C 
ENDROOT
BRANCH   1   2
ATOM      2  C   UNL     1      55.351  28.989  50.638  1.00  0.00     0.000 C 
BRANCH   2   3
ATOM      3  C   UNL     1      54.331  28.016  50.027  1.00  0.00     0.006 C 
BRANCH   3   4
ATOM      4  C   UNL     1      54.937  26.633  49.756  1.00  0.00     0.053 C 
BRANCH   4   5
ATOM      5  C   UNL     1      54.079  25.534  50.306  1.00  0.00     0.041 C 
ATOM      6  O   UNL     1      53.426  24.790  49.528  1.00  0.00    -0.550 OA
ATOM      7  O   UNL     1      54.027  25.313  51.676  1.00  0.00    -0.550 OA
ENDBRANCH   4   5
ENDBRANCH   3   4
ENDBRANCH   2   3
ENDBRANCH   1   2
BRANCH   1   8
ATOM      8  C   UNL     1      57.867  29.284  50.996  1.00  0.00     0.000 C 
BRANCH   8   9
ATOM      9  C   UNL     1      58.483  29.645  49.633  1.00  0.00     0.000 C 
BRANCH   9  10
ATOM     10  C   UNL     1      59.263  28.475  49.010  1.00  0.00     0.006 C 
BRANCH  10  11
ATOM     11  C   UNL     1      60.318  27.894  49.961  1.00  0.00     0.053 C 
BRANCH  11  12
ATOM     12  C   UNL     1      60.206  26.404  50.014  1.00  0.00     0.041 C 
ATOM     13  O   UNL     1      59.079  25.849  49.919  1.00  0.00    -0.550 OA
ATOM     14  O   UNL     1      61.339  25.627  50.218  1.00  0.00    -0.550 OA
ENDBRANCH  11  12
ENDBRANCH  10  11
ENDBRANCH   9  10
ENDBRANCH   8   9
ENDBRANCH   1   8
TORSDOF 9
ENDMDL
MODEL 5
REMARK VINA RESULT:    -3.314      1.266      5.196
REMARK INTER + INTRA:          -5.736
REMARK INTER:                  -5.113
REMARK INTRA:                  -0.624
REMARK UNBOUND:                -0.678
REMARK SMILES O=C([O-])CCCCCCCCC(=O)[O-]
REMARK SMILES IDX 7 1 6 2 5 3 4 4 2 5 1 6 3 7 8 8 9 9 10 10 11 11 12 12 13 13
REMARK SMILES IDX 14 14
REMARK H PARENT
REMARK Flexibility Score: inf
ROOT
ATOM      1  C   UNL     1      59.917  16.876  49.177  1.00  0.00     0.000 C 
ENDROOT
BRANCH   1   2
ATOM      2  C   UNL     1      58.387  16.892  49.042  1.00  0.00     0.000 C 
BRANCH   2   3
ATOM      3  C   UNL     1      57.721  17.152  50.402  1.00  0.00     0.006 C 
BRANCH   3   4
ATOM      4  C   UNL     1      56.747  18.337  50.355  1.00  0.00     0.053 C 
BRANCH   4   5
ATOM      5  C   UNL     1      56.711  19.077  51.657  1.00  0.00     0.041 C 
ATOM      6  O   UNL     1      55.861  18.774  52.536  1.00  0.00    -0.550 OA
ATOM      7  O   UNL     1      57.637  20.080  51.912  1.00  0.00    -0.550 OA
ENDBRANCH   4   5
ENDBRANCH   3   4
ENDBRANCH   2   3
ENDBRANCH   1   2
BRANCH   1   8
ATOM      8  C   UNL     1      60.514  18.282  49.342  1.00  0.00     0.000 C 
BRANCH   8   9
ATOM      9  C   UNL     1      59.880  19.310  48.388  1.00  0.00     0.000 C 
BRANCH   9  10
ATOM     10  C   UNL     1      59.770  20.709  49.017  1.00  0.00     0.006 C 
BRANCH  10  11
ATOM     11  C   UNL     1      60.920  21.637  48.604  1.00  0.00     0.053 C 
BRANCH  11  12
ATOM     12  C   UNL     1      61.200  22.632  49.684  1.00  0.00     0.041 C 
ATOM     13  O   UNL     1      60.447  23.631  49.836  1.00  0.00    -0.550 OA
ATOM     14  O   UNL     1      62.319  22.486  50.493  1.00  0.00    -0.550 OA
ENDBRANCH  11  12
ENDBRANCH  10  11
ENDBRANCH   9  10
ENDBRANCH   8   9
ENDBRANCH   1   8
TORSDOF 9
ENDMDL
MODEL 6
REMARK VINA RESULT:    -3.279      1.113      5.243
REMARK INTER + INTRA:          -5.682
REMARK INTER:                  -5.081
REMARK INTRA:                  -0.601
REMARK UNBOUND:                -0.678
REMARK SMILES O=C([O-])CCCCCCCCC(=O)[O-]
REMARK SMILES IDX 7 1 6 2 5 3 4 4 2 5 1 6 3 7 8 8 9 9 10 10 11 11 12 12 13 13
REMARK SMILES IDX 14 14
REMARK H PARENT
REMARK Flexibility Score: inf
ROOT
ATOM      1  C   UNL     1      58.217  16.875  50.940  1.00  0.00     0.000 C 
ENDROOT
BRANCH   1   2
ATOM      2  C   UNL     1      57.709  17.949  51.914  1.00  0.00     0.000 C 
BRANCH   2   3
ATOM      3  C   UNL     1      56.976  19.069  51.161  1.00  0.00     0.006 C 
BRANCH   3   4
ATOM      4  C   UNL     1      55.453  18.981  51.328  1.00  0.00     0.053 C 
BRANCH   4   5
ATOM      5  C   UNL     1      54.949  19.960  52.344  1.00  0.00     0.041 C 
ATOM      6  O   UNL     1      53.711  20.140  52.491  1.00  0.00    -0.550 OA
ATOM      7  O   UNL     1      55.845  20.650  53.149  1.00  0.00    -0.550 OA
ENDBRANCH   4   5
ENDBRANCH   3   4
ENDBRANCH   2   3
ENDBRANCH   1   2
BRANCH   1   8
ATOM      8  C   UNL     1      57.843  17.174  49.479  1.00  0.00     0.000 C 
BRANCH   8   9
ATOM      9  C   UNL     1      59.055  17.113  48.534  1.00  0.00     0.000 C 
BRANCH   9  10
ATOM     10  C   UNL     1      60.115  18.178  48.865  1.00  0.00     0.006 C 
BRANCH  10  11
ATOM     11  C   UNL     1      59.710  19.582  48.397  1.00  0.00     0.053 C 
BRANCH  11  12
ATOM     12  C   UNL     1      60.661  20.603  48.935  1.00  0.00     0.041 C 
ATOM     13  O   UNL     1      60.854  21.681  48.311  1.00  0.00    -0.550 OA
ATOM     14  O   UNL     1      61.374  20.347  50.099  1.00  0.00    -0.550 OA
ENDBRANCH  11  12
ENDBRANCH  10  11
ENDBRANCH   9  10
ENDBRANCH   8   9
ENDBRANCH   1   8
TORSDOF 9
ENDMDL
MODEL 7
REMARK VINA RESULT:    -3.223      0.954      1.566
REMARK INTER + INTRA:          -5.597
REMARK INTER:                  -4.783
REMARK INTRA:                  -0.813
REMARK UNBOUND:                -0.678
REMARK SMILES O=C([O-])CCCCCCCCC(=O)[O-]
REMARK SMILES IDX 7 1 6 2 5 3 4 4 2 5 1 6 3 7 8 8 9 9 10 10 11 11 12 12 13 13
REMARK SMILES IDX 14 14
REMARK H PARENT
REMARK Flexibility Score: inf
ROOT
ATOM      1  C   UNL     1      59.494  17.180  50.091  1.00  0.00     0.000 C 
ENDROOT
BRANCH   1   2
ATOM      2  C   UNL     1      59.141  17.397  48.612  1.00  0.00     0.000 C 
BRANCH   2   3
ATOM      3  C   UNL     1      59.629  18.770  48.128  1.00  0.00     0.006 C 
BRANCH   3   4
ATOM      4  C   UNL     1      59.409  19.868  49.177  1.00  0.00     0.053 C 
BRANCH   4   5
ATOM      5  C   UNL     1      60.626  20.726  49.346  1.00  0.00     0.041 C 
ATOM      6  O   UNL     1      61.555  20.365  50.116  1.00  0.00    -0.550 OA
ATOM      7  O   UNL     1      60.749  21.908  48.627  1.00  0.00    -0.550 OA
ENDBRANCH   4   5
ENDBRANCH   3   4
ENDBRANCH   2   3
ENDBRANCH   1   2
BRANCH   1   8
ATOM      8  C   UNL     1      58.262  16.875  50.958  1.00  0.00     0.000 C 
BRANCH   8   9
ATOM      9  C   UNL     1      58.134  17.826  52.160  1.00  0.00     0.000 C 
BRANCH   9  10
ATOM     10  C   UNL     1      57.043  18.891  51.956  1.00  0.00     0.006 C 
BRANCH  10  11
ATOM     11  C   UNL     1      56.127  18.580  50.765  1.00  0.00     0.053 C 
BRANCH  11  12
ATOM     12  C   UNL     1      54.905  19.441  50.810  1.00  0.00     0.041 C 
ATOM     13  O   UNL     1      54.357  19.819  49.741  1.00  0.00    -0.550 OA
ATOM     14  O   UNL     1      54.398  19.868  52.031  1.00  0.00    -0.550 OA
ENDBRANCH  11  12
ENDBRANCH  10  11
ENDBRANCH   9  10
ENDBRANCH   8   9
ENDBRANCH   1   8
TORSDOF 9
ENDMDL
MODEL 8
REMARK VINA RESULT:    -3.219      7.039      8.861
REMARK INTER + INTRA:          -5.590
REMARK INTER:                  -4.756
REMARK INTRA:                  -0.834
REMARK UNBOUND:                -0.678
REMARK SMILES O=C([O-])CCCCCCCCC(=O)[O-]
REMARK SMILES IDX 7 1 6 2 5 3 4 4 2 5 1 6 3 7 8 8 9 9 10 10 11 11 12 12 13 13
REMARK SMILES IDX 14 14
REMARK H PARENT
REMARK Flexibility Score: inf
ROOT
ATOM      1  C   UNL     1      58.139  29.775  50.939  1.00  0.00     0.000 C 
ENDROOT
BRANCH   1   2
ATOM      2  C   UNL     1      58.535  29.351  49.517  1.00  0.00     0.000 C 
BRANCH   2   3
ATOM      3  C   UNL     1      59.683  28.331  49.549  1.00  0.00     0.006 C 
BRANCH   3   4
ATOM      4  C   UNL     1      59.185  26.891  49.364  1.00  0.00     0.053 C 
BRANCH   4   5
ATOM      5  C   UNL     1      59.447  26.054  50.579  1.00  0.00     0.041 C 
ATOM      6  O   UNL     1      59.331  24.801  50.522  1.00  0.00    -0.550 OA
ATOM      7  O   UNL     1      59.850  26.654  51.764  1.00  0.00    -0.550 OA
ENDBRANCH   4   5
ENDBRANCH   3   4
ENDBRANCH   2   3
ENDBRANCH   1   2
BRANCH   1   8
ATOM      8  C   UNL     1      57.064  28.863  51.553  1.00  0.00     0.000 C 
BRANCH   8   9
ATOM      9  C   UNL     1      55.637  29.380  51.303  1.00  0.00     0.000 C 
BRANCH   9  10
ATOM     10  C   UNL     1      54.871  28.523  50.280  1.00  0.00     0.006 C 
BRANCH  10  11
ATOM     11  C   UNL     1      55.515  27.148  50.060  1.00  0.00     0.053 C 
BRANCH  11  12
ATOM     12  C   UNL     1      54.479  26.071  50.130  1.00  0.00     0.041 C 
ATOM     13  O   UNL     1      54.096  25.632  51.247  1.00  0.00    -0.550 OA
ATOM     14  O   UNL     1      53.972  25.515  48.962  1.00  0.00    -0.550 OA
ENDBRANCH  11  12
ENDBRANCH  10  11
ENDBRANCH   9  10
ENDBRANCH   8   9
ENDBRANCH   1   8
TORSDOF 9
ENDMDL
MODEL 9
REMARK VINA RESULT:    -3.168      1.385      5.029
REMARK INTER + INTRA:          -5.513
REMARK INTER:                  -4.499
REMARK INTRA:                  -1.015
REMARK UNBOUND:                -0.678
REMARK SMILES O=C([O-])CCCCCCCCC(=O)[O-]
REMARK SMILES IDX 7 1 6 2 5 3 4 4 2 5 1 6 3 7 8 8 9 9 10 10 11 11 12 12 13 13
REMARK SMILES IDX 14 14
REMARK H PARENT
REMARK Flexibility Score: inf
ROOT
ATOM      1  C   UNL     1      58.279  17.094  49.110  1.00  0.00     0.000 C 
ENDROOT
BRANCH   1   2
ATOM      2  C   UNL     1      58.304  16.876  50.630  1.00  0.00     0.000 C 
BRANCH   2   3
ATOM      3  C   UNL     1      57.498  17.966  51.353  1.00  0.00     0.006 C 
BRANCH   3   4
ATOM      4  C   UNL     1      56.604  18.761  50.392  1.00  0.00     0.053 C 
BRANCH   4   5
ATOM      5  C   UNL     1      55.329  19.192  51.049  1.00  0.00     0.041 C 
ATOM      6  O   UNL     1      55.229  19.189  52.305  1.00  0.00    -0.550 OA
ATOM      7  O   UNL     1      54.260  19.628  50.276  1.00  0.00    -0.550 OA
ENDBRANCH   4   5
ENDBRANCH   3   4
ENDBRANCH   2   3
ENDBRANCH   1   2
BRANCH   1   8
ATOM      8  C   UNL     1      59.625  17.591  48.559  1.00  0.00     0.000 C 
BRANCH   8   9
ATOM      9  C   UNL     1      59.591  19.078  48.166  1.00  0.00     0.000 C 
BRANCH   9  10
ATOM     10  C   UNL     1      60.104  19.996  49.288  1.00  0.00     0.006 C 
BRANCH  10  11
ATOM     11  C   UNL     1      61.252  19.367  50.090  1.00  0.00     0.053 C 
BRANCH  11  12
ATOM     12  C   UNL     1      60.920  19.350  51.548  1.00  0.00     0.041 C 
ATOM     13  O   UNL     1      61.184  18.336  52.247  1.00  0.00    -0.550 OA
ATOM     14  O   UNL     1      60.273  20.435  52.128  1.00  0.00    -0.550 OA
ENDBRANCH  11  12
ENDBRANCH  10  11
ENDBRANCH   9  10
ENDBRANCH   8   9
ENDBRANCH   1   8
TORSDOF 9
ENDMDL
