MODEL 1
REMARK VINA RESULT:    -3.481      0.000      0.000
REMARK INTER + INTRA:          -6.711
REMARK INTER:                  -5.516
REMARK INTRA:                  -1.195
REMARK UNBOUND:                -1.195
REMARK SMILES CCCCCCCCCCCC(=O)[O-]
REMARK SMILES IDX 7 1 8 2 9 3 10 4 11 5 12 6 13 7 14 8 6 9 5 10 4 11 3 12 2 13
REMARK SMILES IDX 1 14
REMARK H PARENT
REMARK Flexibility Score: inf
ROOT
ATOM      1  C   UNL     1      -1.775  18.652  -5.995  1.00  0.00     0.000 C 
ENDROOT
BRANCH   1   2
ATOM      2  C   UNL     1      -2.766  17.670  -5.345  1.00  0.00     0.000 C 
BRANCH   2   3
ATOM      3  C   UNL     1      -2.998  16.359  -6.124  1.00  0.00     0.000 C 
BRANCH   3   4
ATOM      4  C   UNL     1      -3.081  15.087  -5.257  1.00  0.00     0.006 C 
BRANCH   4   5
ATOM      5  C   UNL     1      -2.442  13.843  -5.894  1.00  0.00     0.053 C 
BRANCH   5   6
ATOM      6  C   UNL     1      -2.154  12.779  -4.879  1.00  0.00     0.041 C 
ATOM      7  O   UNL     1      -1.031  12.731  -4.314  1.00  0.00    -0.550 OA
ATOM      8  O   UNL     1      -3.116  11.822  -4.582  1.00  0.00    -0.550 OA
ENDBRANCH   5   6
ENDBRANCH   4   5
ENDBRANCH   3   4
ENDBRANCH   2   3
ENDBRANCH   1   2
BRANCH   1   9
ATOM      9  C   UNL     1      -0.353  18.527  -5.428  1.00  0.00     0.000 C 
BRANCH   9  10
ATOM     10  C   UNL     1       0.331  17.251  -5.936  1.00  0.00    -0.000 C 
BRANCH  10  11
ATOM     11  C   UNL     1       0.517  16.189  -4.836  1.00  0.00    -0.000 C 
BRANCH  11  12
ATOM     12  C   UNL     1       0.402  16.718  -3.394  1.00  0.00    -0.000 C 
BRANCH  12  13
ATOM     13  C   UNL     1      -0.619  15.942  -2.550  1.00  0.00    -0.003 C 
ATOM     14  C   UNL     1      -0.136  15.785  -1.110  1.00  0.00     0.004 C 
ENDBRANCH  12  13
ENDBRANCH  11  12
ENDBRANCH  10  11
ENDBRANCH   9  10
ENDBRANCH   1   9
TORSDOF 10
ENDMDL
MODEL 2
REMARK VINA RESULT:    -3.288      1.016      3.108
REMARK INTER + INTRA:          -6.406
REMARK INTER:                  -5.221
REMARK INTRA:                  -1.185
REMARK UNBOUND:                -1.195
REMARK SMILES CCCCCCCCCCCC(=O)[O-]
REMARK SMILES IDX 7 1 8 2 9 3 10 4 11 5 12 6 13 7 14 8 6 9 5 10 4 11 3 12 2 13
REMARK SMILES IDX 1 14
REMARK H PARENT
REMARK Flexibility Score: inf
ROOT
ATOM      1  C   UNL     1      -0.525  15.479  -3.089  1.00  0.00     0.000 C 
ENDROOT
BRANCH   1   2
ATOM      2  C   UNL     1      -2.001  15.866  -3.286  1.00  0.00     0.000 C 
BRANCH   2   3
ATOM      3  C   UNL     1      -2.954  14.689  -3.582  1.00  0.00     0.000 C 
BRANCH   3   4
ATOM      4  C   UNL     1      -3.294  14.481  -5.072  1.00  0.00     0.006 C 
BRANCH   4   5
ATOM      5  C   UNL     1      -2.504  13.350  -5.750  1.00  0.00     0.053 C 
BRANCH   5   6
ATOM      6  C   UNL     1      -2.245  12.210  -4.813  1.00  0.00     0.041 C 
ATOM      7  O   UNL     1      -3.189  11.460  -4.451  1.00  0.00    -0.550 OA
ATOM      8  O   UNL     1      -0.966  11.996  -4.315  1.00  0.00    -0.550 OA
ENDBRANCH   5   6
ENDBRANCH   4   5
ENDBRANCH   3   4
ENDBRANCH   2   3
ENDBRANCH   1   2
BRANCH   1   9
ATOM      9  C   UNL     1       0.320  15.684  -4.355  1.00  0.00     0.000 C 
BRANCH   9  10
ATOM     10  C   UNL     1       1.124  16.989  -4.273  1.00  0.00    -0.000 C 
BRANCH  10  11
ATOM     11  C   UNL     1       0.484  18.141  -5.069  1.00  0.00    -0.000 C 
BRANCH  11  12
ATOM     12  C   UNL     1      -0.672  17.727  -5.998  1.00  0.00    -0.000 C 
BRANCH  12  13
ATOM     13  C   UNL     1      -1.791  18.775  -6.066  1.00  0.00    -0.003 C 
ATOM     14  C   UNL     1      -3.166  18.121  -5.946  1.00  0.00     0.004 C 
ENDBRANCH  12  13
ENDBRANCH  11  12
ENDBRANCH  10  11
ENDBRANCH   9  10
ENDBRANCH   1   9
TORSDOF 10
ENDMDL
MODEL 3
REMARK VINA RESULT:    -3.277      5.088      6.802
REMARK INTER + INTRA:          -6.388
REMARK INTER:                  -5.948
REMARK INTRA:                  -0.440
REMARK UNBOUND:                -1.195
REMARK SMILES CCCCCCCCCCCC(=O)[O-]
REMARK SMILES IDX 7 1 8 2 9 3 10 4 11 5 12 6 13 7 14 8 6 9 5 10 4 11 3 12 2 13
REMARK SMILES IDX 1 14
REMARK H PARENT
REMARK Flexibility Score: inf
ROOT
ATOM      1  C   UNL     1       0.807  11.269  -2.814  1.00  0.00     0.000 C 
ENDROOT
BRANCH   1   2
ATOM      2  C   UNL     1       0.665  12.206  -4.026  1.00  0.00     0.000 C 
BRANCH   2   3
ATOM      3  C   UNL     1      -0.726  12.851  -4.198  1.00  0.00     0.000 C 
BRANCH   3   4
ATOM      4  C   UNL     1      -1.847  11.885  -4.632  1.00  0.00     0.006 C 
BRANCH   4   5
ATOM      5  C   UNL     1      -2.976  12.545  -5.440  1.00  0.00     0.053 C 
BRANCH   5   6
ATOM      6  C   UNL     1      -3.231  13.953  -4.996  1.00  0.00     0.041 C 
ATOM      7  O   UNL     1      -3.753  14.178  -3.873  1.00  0.00    -0.550 OA
ATOM      8  O   UNL     1      -2.923  15.015  -5.836  1.00  0.00    -0.550 OA
ENDBRANCH   5   6
ENDBRANCH   4   5
ENDBRANCH   3   4
ENDBRANCH   2   3
ENDBRANCH   1   2
BRANCH   1   9
ATOM      9  C   UNL     1       1.992  10.301  -2.944  1.00  0.00     0.000 C 
BRANCH   9  10
ATOM     10  C   UNL     1       2.264   9.584  -1.614  1.00  0.00    -0.000 C 
BRANCH  10  11
ATOM     11  C   UNL     1       1.178   9.850  -0.555  1.00  0.00    -0.000 C 
BRANCH  11  12
ATOM     12  C   UNL     1       0.745   8.616   0.257  1.00  0.00    -0.000 C 
BRANCH  12  13
ATOM     13  C   UNL     1       1.670   7.408   0.052  1.00  0.00    -0.003 C 
ATOM     14  C   UNL     1       2.284   6.954   1.374  1.00  0.00     0.004 C 
ENDBRANCH  12  13
ENDBRANCH  11  12
ENDBRANCH  10  11
ENDBRANCH   9  10
ENDBRANCH   1   9
TORSDOF 10
ENDMDL
MODEL 4
REMARK VINA RESULT:    -3.275      1.533      2.639
REMARK INTER + INTRA:          -6.385
REMARK INTER:                  -5.359
REMARK INTRA:                  -1.027
REMARK UNBOUND:                -1.195
REMARK SMILES CCCCCCCCCCCC(=O)[O-]
REMARK SMILES IDX 7 1 8 2 9 3 10 4 11 5 12 6 13 7 14 8 6 9 5 10 4 11 3 12 2 13
REMARK SMILES IDX 1 14
REMARK H PARENT
REMARK Flexibility Score: inf
ROOT
ATOM      1  C   UNL     1      -1.519  15.980  -3.946  1.00  0.00     0.000 C 
ENDROOT
BRANCH   1   2
ATOM      2  C   UNL     1      -2.165  16.535  -5.228  1.00  0.00     0.000 C 
BRANCH   2   3
ATOM      3  C   UNL     1      -2.971  15.510  -6.053  1.00  0.00     0.000 C 
BRANCH   3   4
ATOM      4  C   UNL     1      -3.462  14.277  -5.268  1.00  0.00     0.006 C 
BRANCH   4   5
ATOM      5  C   UNL     1      -3.001  12.931  -5.848  1.00  0.00     0.053 C 
BRANCH   5   6
ATOM      6  C   UNL     1      -2.308  12.088  -4.821  1.00  0.00     0.041 C 
ATOM      7  O   UNL     1      -1.117  12.336  -4.497  1.00  0.00    -0.550 OA
ATOM      8  O   UNL     1      -2.967  11.008  -4.247  1.00  0.00    -0.550 OA
ENDBRANCH   5   6
ENDBRANCH   4   5
ENDBRANCH   3   4
ENDBRANCH   2   3
ENDBRANCH   1   2
BRANCH   1   9
ATOM      9  C   UNL     1       0.016  15.968  -4.008  1.00  0.00     0.000 C 
BRANCH   9  10
ATOM     10  C   UNL     1       0.507  15.362  -5.330  1.00  0.00    -0.000 C 
BRANCH  10  11
ATOM     11  C   UNL     1       1.434  16.307  -6.117  1.00  0.00    -0.000 C 
BRANCH  11  12
ATOM     12  C   UNL     1       1.355  17.789  -5.706  1.00  0.00    -0.000 C 
BRANCH  12  13
ATOM     13  C   UNL     1       2.729  18.402  -5.404  1.00  0.00    -0.003 C 
ATOM     14  C   UNL     1       3.729  17.329  -4.981  1.00  0.00     0.004 C 
ENDBRANCH  12  13
ENDBRANCH  11  12
ENDBRANCH  10  11
ENDBRANCH   9  10
ENDBRANCH   1   9
TORSDOF 10
ENDMDL
MODEL 5
REMARK VINA RESULT:    -3.261      1.871      4.159
REMARK INTER + INTRA:          -6.362
REMARK INTER:                  -5.414
REMARK INTRA:                  -0.948
REMARK UNBOUND:                -1.195
REMARK SMILES CCCCCCCCCCCC(=O)[O-]
REMARK SMILES IDX 7 1 8 2 9 3 10 4 11 5 12 6 13 7 14 8 6 9 5 10 4 11 3 12 2 13
REMARK SMILES IDX 1 14
REMARK H PARENT
REMARK Flexibility Score: inf
ROOT
ATOM      1  C   UNL     1      -2.563  17.630  -5.434  1.00  0.00     0.000 C 
ENDROOT
BRANCH   1   2
ATOM      2  C   UNL     1      -1.205  18.087  -5.996  1.00  0.00     0.000 C 
BRANCH   2   3
ATOM      3  C   UNL     1       0.018  17.306  -5.471  1.00  0.00     0.000 C 
BRANCH   3   4
ATOM      4  C   UNL     1       0.145  17.241  -3.936  1.00  0.00     0.006 C 
BRANCH   4   5
ATOM      5  C   UNL     1      -0.066  15.839  -3.342  1.00  0.00     0.053 C 
BRANCH   5   6
ATOM      6  C   UNL     1      -0.780  15.890  -2.026  1.00  0.00     0.041 C 
ATOM      7  O   UNL     1      -0.127  15.878  -0.950  1.00  0.00    -0.550 OA
ATOM      8  O   UNL     1      -2.168  15.917  -1.988  1.00  0.00    -0.550 OA
ENDBRANCH   5   6
ENDBRANCH   4   5
ENDBRANCH   3   4
ENDBRANCH   2   3
ENDBRANCH   1   2
BRANCH   1   9
ATOM      9  C   UNL     1      -3.099  16.367  -6.125  1.00  0.00     0.000 C 
BRANCH   9  10
ATOM     10  C   UNL     1      -3.004  15.150  -5.194  1.00  0.00    -0.000 C 
BRANCH  10  11
ATOM     11  C   UNL     1      -2.318  13.940  -5.855  1.00  0.00    -0.000 C 
BRANCH  11  12
ATOM     12  C   UNL     1      -3.082  12.609  -5.729  1.00  0.00    -0.000 C 
BRANCH  12  13
ATOM     13  C   UNL     1      -2.528  11.702  -4.622  1.00  0.00    -0.003 C 
ATOM     14  C   UNL     1      -1.106  12.105  -4.240  1.00  0.00     0.004 C 
ENDBRANCH  12  13
ENDBRANCH  11  12
ENDBRANCH  10  11
ENDBRANCH   9  10
ENDBRANCH   1   9
TORSDOF 10
ENDMDL
MODEL 6
REMARK VINA RESULT:    -3.184      1.609      2.810
REMARK INTER + INTRA:          -6.241
REMARK INTER:                  -5.190
REMARK INTRA:                  -1.051
REMARK UNBOUND:                -1.195
REMARK SMILES CCCCCCCCCCCC(=O)[O-]
REMARK SMILES IDX 7 1 8 2 9 3 10 4 11 5 12 6 13 7 14 8 6 9 5 10 4 11 3 12 2 13
REMARK SMILES IDX 1 14
REMARK H PARENT
REMARK Flexibility Score: inf
ROOT
ATOM      1  C   UNL     1      -0.180  16.614  -3.678  1.00  0.00     0.000 C 
ENDROOT
BRANCH   1   2
ATOM      2  C   UNL     1      -1.557  15.933  -3.772  1.00  0.00     0.000 C 
BRANCH   2   3
ATOM      3  C   UNL     1      -2.219  15.979  -5.165  1.00  0.00     0.000 C 
BRANCH   3   4
ATOM      4  C   UNL     1      -2.087  14.687  -5.995  1.00  0.00     0.006 C 
BRANCH   4   5
ATOM      5  C   UNL     1      -3.109  13.595  -5.635  1.00  0.00     0.053 C 
BRANCH   5   6
ATOM      6  C   UNL     1      -2.486  12.485  -4.847  1.00  0.00     0.041 C 
ATOM      7  O   UNL     1      -3.187  11.517  -4.454  1.00  0.00    -0.550 OA
ATOM      8  O   UNL     1      -1.137  12.536  -4.518  1.00  0.00    -0.550 OA
ENDBRANCH   5   6
ENDBRANCH   4   5
ENDBRANCH   3   4
ENDBRANCH   2   3
ENDBRANCH   1   2
BRANCH   1   9
ATOM      9  C   UNL     1      -0.112  17.931  -4.466  1.00  0.00     0.000 C 
BRANCH   9  10
ATOM     10  C   UNL     1       1.293  18.152  -5.045  1.00  0.00    -0.000 C 
BRANCH  10  11
ATOM     11  C   UNL     1       1.703  17.066  -6.057  1.00  0.00    -0.000 C 
BRANCH  11  12
ATOM     12  C   UNL     1       3.137  16.531  -5.893  1.00  0.00    -0.000 C 
BRANCH  12  13
ATOM     13  C   UNL     1       3.224  15.003  -6.009  1.00  0.00    -0.003 C 
ATOM     14  C   UNL     1       1.859  14.356  -5.789  1.00  0.00     0.004 C 
ENDBRANCH  12  13
ENDBRANCH  11  12
ENDBRANCH  10  11
ENDBRANCH   9  10
ENDBRANCH   1   9
TORSDOF 10
ENDMDL
MODEL 7
REMARK VINA RESULT:    -3.116      3.891      5.886
REMARK INTER + INTRA:          -6.133
REMARK INTER:                  -5.392
REMARK INTRA:                  -0.742
REMARK UNBOUND:                -1.195
REMARK SMILES CCCCCCCCCCCC(=O)[O-]
REMARK SMILES IDX 7 1 8 2 9 3 10 4 11 5 12 6 13 7 14 8 6 9 5 10 4 11 3 12 2 13
REMARK SMILES IDX 1 14
REMARK H PARENT
REMARK Flexibility Score: inf
ROOT
ATOM      1  C   UNL     1      -1.590  11.434  -4.452  1.00  0.00     0.000 C 
ENDROOT
BRANCH   1   2
ATOM      2  C   UNL     1      -0.391  12.242  -3.925  1.00  0.00     0.000 C 
BRANCH   2   3
ATOM      3  C   UNL     1       0.808  11.398  -3.443  1.00  0.00     0.000 C 
BRANCH   3   4
ATOM      4  C   UNL     1       0.742  10.949  -1.969  1.00  0.00     0.006 C 
BRANCH   4   5
ATOM      5  C   UNL     1       1.773   9.874  -1.588  1.00  0.00     0.053 C 
BRANCH   5   6
ATOM      6  C   UNL     1       1.511   9.306  -0.227  1.00  0.00     0.041 C 
ATOM      7  O   UNL     1       2.457   8.829   0.452  1.00  0.00    -0.550 OA
ATOM      8  O   UNL     1       0.217   9.273   0.277  1.00  0.00    -0.550 OA
ENDBRANCH   5   6
ENDBRANCH   4   5
ENDBRANCH   3   4
ENDBRANCH   2   3
ENDBRANCH   1   2
BRANCH   1   9
ATOM      9  C   UNL     1      -2.873  12.271  -4.557  1.00  0.00     0.000 C 
BRANCH   9  10
ATOM     10  C   UNL     1      -2.981  12.940  -5.935  1.00  0.00    -0.000 C 
BRANCH  10  11
ATOM     11  C   UNL     1      -3.000  14.477  -5.858  1.00  0.00    -0.000 C 
BRANCH  11  12
ATOM     12  C   UNL     1      -2.641  15.065  -4.481  1.00  0.00    -0.000 C 
BRANCH  12  13
ATOM     13  C   UNL     1      -1.329  15.862  -4.492  1.00  0.00    -0.003 C 
ATOM     14  C   UNL     1      -0.679  15.871  -3.111  1.00  0.00     0.004 C 
ENDBRANCH  12  13
ENDBRANCH  11  12
ENDBRANCH  10  11
ENDBRANCH   9  10
ENDBRANCH   1   9
TORSDOF 10
ENDMDL
MODEL 8
REMARK VINA RESULT:    -3.079      1.470      2.789
REMARK INTER + INTRA:          -6.074
REMARK INTER:                  -4.980
REMARK INTRA:                  -1.094
REMARK UNBOUND:                -1.195
REMARK SMILES CCCCCCCCCCCC(=O)[O-]
REMARK SMILES IDX 7 1 8 2 9 3 10 4 11 5 12 6 13 7 14 8 6 9 5 10 4 11 3 12 2 13
REMARK SMILES IDX 1 14
REMARK H PARENT
REMARK Flexibility Score: inf
ROOT
ATOM      1  C   UNL     1      -2.314  16.367  -6.125  1.00  0.00     0.000 C 
ENDROOT
BRANCH   1   2
ATOM      2  C   UNL     1      -2.874  15.262  -5.212  1.00  0.00     0.000 C 
BRANCH   2   3
ATOM      3  C   UNL     1      -2.220  15.170  -3.818  1.00  0.00     0.000 C 
BRANCH   3   4
ATOM      4  C   UNL     1      -0.679  15.116  -3.819  1.00  0.00     0.006 C 
BRANCH   4   5
ATOM      5  C   UNL     1      -0.083  14.036  -4.735  1.00  0.00     0.053 C 
BRANCH   5   6
ATOM      6  C   UNL     1      -0.324  12.656  -4.204  1.00  0.00     0.041 C 
ATOM      7  O   UNL     1       0.528  12.109  -3.455  1.00  0.00    -0.550 OA
ATOM      8  O   UNL     1      -1.472  11.963  -4.562  1.00  0.00    -0.550 OA
ENDBRANCH   5   6
ENDBRANCH   4   5
ENDBRANCH   3   4
ENDBRANCH   2   3
ENDBRANCH   1   2
BRANCH   1   9
ATOM      9  C   UNL     1      -2.800  17.770  -5.732  1.00  0.00     0.000 C 
BRANCH   9  10
ATOM     10  C   UNL     1      -1.663  18.795  -5.838  1.00  0.00    -0.000 C 
BRANCH  10  11
ATOM     11  C   UNL     1      -0.270  18.143  -5.907  1.00  0.00    -0.000 C 
BRANCH  11  12
ATOM     12  C   UNL     1       0.570  18.261  -4.622  1.00  0.00    -0.000 C 
BRANCH  12  13
ATOM     13  C   UNL     1       2.077  18.120  -4.875  1.00  0.00    -0.003 C 
ATOM     14  C   UNL     1       2.426  16.712  -5.350  1.00  0.00     0.004 C 
ENDBRANCH  12  13
ENDBRANCH  11  12
ENDBRANCH  10  11
ENDBRANCH   9  10
ENDBRANCH   1   9
TORSDOF 10
ENDMDL
MODEL 9
REMARK VINA RESULT:    -3.042      3.053      5.169
REMARK INTER + INTRA:          -6.016
REMARK INTER:                  -5.121
REMARK INTRA:                  -0.895
REMARK UNBOUND:                -1.195
REMARK SMILES CCCCCCCCCCCC(=O)[O-]
REMARK SMILES IDX 7 1 8 2 9 3 10 4 11 5 12 6 13 7 14 8 6 9 5 10 4 11 3 12 2 13
REMARK SMILES IDX 1 14
REMARK H PARENT
REMARK Flexibility Score: inf
ROOT
ATOM      1  C   UNL     1      -1.353  15.925  -3.744  1.00  0.00     0.000 C 
ENDROOT
BRANCH   1   2
ATOM      2  C   UNL     1       0.037  16.585  -3.781  1.00  0.00     0.000 C 
BRANCH   2   3
ATOM      3  C   UNL     1       0.127  17.878  -4.618  1.00  0.00     0.000 C 
BRANCH   3   4
ATOM      4  C   UNL     1       1.052  17.798  -5.849  1.00  0.00     0.006 C 
BRANCH   4   5
ATOM      5  C   UNL     1       1.838  16.482  -5.967  1.00  0.00     0.053 C 
BRANCH   5   6
ATOM      6  C   UNL     1       3.258  16.636  -5.519  1.00  0.00     0.041 C 
ATOM      7  O   UNL     1       3.681  17.755  -5.127  1.00  0.00    -0.550 OA
ATOM      8  O   UNL     1       4.125  15.551  -5.565  1.00  0.00    -0.550 OA
ENDBRANCH   5   6
ENDBRANCH   4   5
ENDBRANCH   3   4
ENDBRANCH   2   3
ENDBRANCH   1   2
BRANCH   1   9
ATOM      9  C   UNL     1      -2.251  16.361  -4.910  1.00  0.00     0.000 C 
BRANCH   9  10
ATOM     10  C   UNL     1      -2.564  15.176  -5.835  1.00  0.00    -0.000 C 
BRANCH  10  11
ATOM     11  C   UNL     1      -3.356  14.057  -5.133  1.00  0.00    -0.000 C 
BRANCH  11  12
ATOM     12  C   UNL     1      -3.111  12.641  -5.685  1.00  0.00    -0.000 C 
BRANCH  12  13
ATOM     13  C   UNL     1      -2.507  11.688  -4.645  1.00  0.00    -0.003 C 
ATOM     14  C   UNL     1      -1.089  12.112  -4.268  1.00  0.00     0.004 C 
ENDBRANCH  12  13
ENDBRANCH  11  12
ENDBRANCH  10  11
ENDBRANCH   9  10
ENDBRANCH   1   9
TORSDOF 10
ENDMDL
