MODEL 1
REMARK VINA RESULT:    -5.277      0.000      0.000
REMARK INTER + INTRA:          -6.620
REMARK INTER:                  -6.357
REMARK INTRA:                  -0.263
REMARK UNBOUND:                -0.263
REMARK SMILES O=c1c(O)c(-c2ccc(O)c(O)c2)oc2cc(O)cc(O)c12
REMARK SMILES IDX 5 1 3 2 2 3 1 4 22 5 20 6 19 7 17 8 16 9 15 10 14 11 6 12
REMARK SMILES IDX 7 13 8 14 9 15 13 16 11 17 10 18 12 20 4 22 21 24 18 26
REMARK H PARENT 10 19 12 21 4 23 21 25 18 27
REMARK Flexibility Score: inf
ROOT
ATOM      1  C   UNL     1       3.899 109.505 181.803  1.00  0.00     0.180 A 
ATOM      2  C   UNL     1       4.804 108.456 182.044  1.00  0.00     0.208 A 
ATOM      3  C   UNL     1       4.572 107.207 181.445  1.00  0.00     0.238 A 
ATOM      4  O   UNL     1       5.354 106.257 181.708  1.00  0.00    -0.285 OA
ATOM      5  C   UNL     1       3.450 107.027 180.601  1.00  0.00     0.111 A 
ATOM      6  C   UNL     1       3.141 105.817 179.911  1.00  0.00     0.134 A 
ATOM      7  C   UNL     1       1.935 105.712 179.207  1.00  0.00     0.093 A 
ATOM      8  C   UNL     1       1.059 106.792 179.113  1.00  0.00     0.123 A 
ATOM      9  C   UNL     1       1.379 108.000 179.735  1.00  0.00     0.094 A 
ATOM     10  C   UNL     1       2.558 108.124 180.475  1.00  0.00     0.146 A 
ATOM     11  O   UNL     1       2.821 109.287 181.059  1.00  0.00    -0.452 OA
ENDROOT
BRANCH   1  12
ATOM     12  C   UNL     1       4.089 110.856 182.377  1.00  0.00     0.025 A 
ATOM     13  C   UNL     1       5.075 111.701 181.845  1.00  0.00     0.016 A 
ATOM     14  C   UNL     1       5.287 112.972 182.384  1.00  0.00     0.051 A 
ATOM     15  C   UNL     1       4.527 113.413 183.474  1.00  0.00     0.157 A 
ATOM     16  C   UNL     1       3.341 111.294 183.485  1.00  0.00     0.062 A 
ATOM     17  C   UNL     1       3.552 112.568 184.031  1.00  0.00     0.158 A 
BRANCH  15  18
ATOM     18  O   UNL     1       4.759 114.688 183.990  1.00  0.00    -0.504 OA
ATOM     19  H   UNL     1       4.706 115.519 183.412  1.00  0.00     0.293 HD
ENDBRANCH  15  18
BRANCH  17  20
ATOM     20  O   UNL     1       2.802 112.995 185.125  1.00  0.00    -0.504 OA
ATOM     21  H   UNL     1       2.294 113.872 185.112  1.00  0.00     0.293 HD
ENDBRANCH  17  20
ENDBRANCH   1  12
BRANCH   2  22
ATOM     22  O   UNL     1       5.893 108.650 182.898  1.00  0.00    -0.502 OA
ATOM     23  H   UNL     1       6.516 109.444 182.812  1.00  0.00     0.293 HD
ENDBRANCH   2  22
BRANCH   6  24
ATOM     24  O   UNL     1       3.990 104.707 179.862  1.00  0.00    -0.507 OA
ATOM     25  H   UNL     1       3.691 103.750 179.969  1.00  0.00     0.293 HD
ENDBRANCH   6  24
BRANCH   8  26
ATOM     26  O   UNL     1      -0.125 106.657 178.391  1.00  0.00    -0.508 OA
ATOM     27  H   UNL     1      -0.878 107.329 178.478  1.00  0.00     0.293 HD
ENDBRANCH   8  26
TORSDOF 6
ENDMDL
MODEL 2
REMARK VINA RESULT:    -5.219      1.786      2.928
REMARK INTER + INTRA:          -6.550
REMARK INTER:                  -6.230
REMARK INTRA:                  -0.320
REMARK UNBOUND:                -0.263
REMARK SMILES O=c1c(O)c(-c2ccc(O)c(O)c2)oc2cc(O)cc(O)c12
REMARK SMILES IDX 5 1 3 2 2 3 1 4 22 5 20 6 19 7 17 8 16 9 15 10 14 11 6 12
REMARK SMILES IDX 7 13 8 14 9 15 13 16 11 17 10 18 12 20 4 22 21 24 18 26
REMARK H PARENT 10 19 12 21 4 23 21 25 18 27
REMARK Flexibility Score: inf
ROOT
ATOM      1  C   UNL     1       4.482 110.903 183.161  1.00  0.00     0.180 A 
ATOM      2  C   UNL     1       5.505 110.262 183.882  1.00  0.00     0.208 A 
ATOM      3  C   UNL     1       5.775 108.909 183.623  1.00  0.00     0.238 A 
ATOM      4  O   UNL     1       6.655 108.326 184.309  1.00  0.00    -0.285 OA
ATOM      5  C   UNL     1       5.032 108.218 182.636  1.00  0.00     0.111 A 
ATOM      6  C   UNL     1       5.248 106.857 182.263  1.00  0.00     0.134 A 
ATOM      7  C   UNL     1       4.367 106.239 181.367  1.00  0.00     0.093 A 
ATOM      8  C   UNL     1       3.319 106.948 180.781  1.00  0.00     0.123 A 
ATOM      9  C   UNL     1       3.134 108.295 181.094  1.00  0.00     0.094 A 
ATOM     10  C   UNL     1       3.974 108.930 182.012  1.00  0.00     0.146 A 
ATOM     11  O   UNL     1       3.758 110.211 182.288  1.00  0.00    -0.452 OA
ENDROOT
BRANCH   1  12
ATOM     12  C   UNL     1       4.155 112.333 183.360  1.00  0.00     0.025 A 
ATOM     13  C   UNL     1       3.233 112.699 184.353  1.00  0.00     0.016 A 
ATOM     14  C   UNL     1       2.894 114.041 184.545  1.00  0.00     0.051 A 
ATOM     15  C   UNL     1       3.458 115.035 183.739  1.00  0.00     0.157 A 
ATOM     16  C   UNL     1       4.706 113.333 182.537  1.00  0.00     0.062 A 
ATOM     17  C   UNL     1       4.365 114.680 182.726  1.00  0.00     0.158 A 
BRANCH  15  18
ATOM     18  O   UNL     1       3.103 116.366 183.956  1.00  0.00    -0.504 OA
ATOM     19  H   UNL     1       3.796 117.091 184.103  1.00  0.00     0.293 HD
ENDBRANCH  15  18
BRANCH  17  20
ATOM     20  O   UNL     1       4.920 115.664 181.909  1.00  0.00    -0.504 OA
ATOM     21  H   UNL     1       5.719 116.211 182.205  1.00  0.00     0.293 HD
ENDBRANCH  17  20
ENDBRANCH   1  12
BRANCH   2  22
ATOM     22  O   UNL     1       6.212 110.957 184.867  1.00  0.00    -0.502 OA
ATOM     23  H   UNL     1       6.559 111.899 184.725  1.00  0.00     0.293 HD
ENDBRANCH   2  22
BRANCH   6  24
ATOM     24  O   UNL     1       6.320 106.084 182.718  1.00  0.00    -0.507 OA
ATOM     25  H   UNL     1       7.288 106.257 182.495  1.00  0.00     0.293 HD
ENDBRANCH   6  24
BRANCH   8  26
ATOM     26  O   UNL     1       2.472 106.304 179.882  1.00  0.00    -0.508 OA
ATOM     27  H   UNL     1       1.533 106.643 179.703  1.00  0.00     0.293 HD
ENDBRANCH   8  26
TORSDOF 6
ENDMDL
MODEL 3
REMARK VINA RESULT:    -5.148      2.299      2.988
REMARK INTER + INTRA:          -6.464
REMARK INTER:                  -6.369
REMARK INTRA:                  -0.095
REMARK UNBOUND:                -0.263
REMARK SMILES O=c1c(O)c(-c2ccc(O)c(O)c2)oc2cc(O)cc(O)c12
REMARK SMILES IDX 5 1 3 2 2 3 1 4 22 5 20 6 19 7 17 8 16 9 15 10 14 11 6 12
REMARK SMILES IDX 7 13 8 14 9 15 13 16 11 17 10 18 12 20 4 22 21 24 18 26
REMARK H PARENT 10 19 12 21 4 23 21 25 18 27
REMARK Flexibility Score: inf
ROOT
ATOM      1  C   UNL     1       4.424 107.621 180.714  1.00  0.00     0.180 A 
ATOM      2  C   UNL     1       5.596 106.902 181.008  1.00  0.00     0.208 A 
ATOM      3  C   UNL     1       5.998 105.872 180.142  1.00  0.00     0.238 A 
ATOM      4  O   UNL     1       7.017 105.196 180.439  1.00  0.00    -0.285 OA
ATOM      5  C   UNL     1       5.234 105.586 178.985  1.00  0.00     0.111 A 
ATOM      6  C   UNL     1       5.570 104.592 178.017  1.00  0.00     0.134 A 
ATOM      7  C   UNL     1       4.673 104.307 176.981  1.00  0.00     0.093 A 
ATOM      8  C   UNL     1       3.484 105.021 176.839  1.00  0.00     0.123 A 
ATOM      9  C   UNL     1       3.173 106.035 177.746  1.00  0.00     0.094 A 
ATOM     10  C   UNL     1       4.031 106.319 178.811  1.00  0.00     0.146 A 
ATOM     11  O   UNL     1       3.693 107.286 179.657  1.00  0.00    -0.452 OA
ENDROOT
BRANCH   1  12
ATOM     12  C   UNL     1       3.950 108.735 181.565  1.00  0.00     0.025 A 
ATOM     13  C   UNL     1       4.786 109.841 181.785  1.00  0.00     0.016 A 
ATOM     14  C   UNL     1       4.368 110.895 182.602  1.00  0.00     0.051 A 
ATOM     15  C   UNL     1       3.115 110.853 183.224  1.00  0.00     0.157 A 
ATOM     16  C   UNL     1       2.699 108.687 182.208  1.00  0.00     0.062 A 
ATOM     17  C   UNL     1       2.277 109.742 183.030  1.00  0.00     0.158 A 
BRANCH  15  18
ATOM     18  O   UNL     1       2.723 111.921 184.031  1.00  0.00    -0.504 OA
ATOM     19  H   UNL     1       1.897 111.877 184.617  1.00  0.00     0.293 HD
ENDBRANCH  15  18
BRANCH  17  20
ATOM     20  O   UNL     1       1.034 109.687 183.657  1.00  0.00    -0.504 OA
ATOM     21  H   UNL     1       0.844 110.207 184.506  1.00  0.00     0.293 HD
ENDBRANCH  17  20
ENDBRANCH   1  12
BRANCH   2  22
ATOM     22  O   UNL     1       6.323 107.187 182.167  1.00  0.00    -0.502 OA
ATOM     23  H   UNL     1       7.028 106.558 182.535  1.00  0.00     0.293 HD
ENDBRANCH   2  22
BRANCH   6  24
ATOM     24  O   UNL     1       6.775 103.884 178.012  1.00  0.00    -0.507 OA
ATOM     25  H   UNL     1       7.385 103.792 177.214  1.00  0.00     0.293 HD
ENDBRANCH   6  24
BRANCH   8  26
ATOM     26  O   UNL     1       2.622 104.720 175.787  1.00  0.00    -0.508 OA
ATOM     27  H   UNL     1       1.922 103.992 175.868  1.00  0.00     0.293 HD
ENDBRANCH   8  26
TORSDOF 6
ENDMDL
MODEL 4
REMARK VINA RESULT:    -5.147      3.596      8.338
REMARK INTER + INTRA:          -6.463
REMARK INTER:                  -6.191
REMARK INTRA:                  -0.272
REMARK UNBOUND:                -0.263
REMARK SMILES O=c1c(O)c(-c2ccc(O)c(O)c2)oc2cc(O)cc(O)c12
REMARK SMILES IDX 5 1 3 2 2 3 1 4 22 5 20 6 19 7 17 8 16 9 15 10 14 11 6 12
REMARK SMILES IDX 7 13 8 14 9 15 13 16 11 17 10 18 12 20 4 22 21 24 18 26
REMARK H PARENT 10 19 12 21 4 23 21 25 18 27
REMARK Flexibility Score: inf
ROOT
ATOM      1  C   UNL     1       4.733 105.306 178.364  1.00  0.00     0.180 A 
ATOM      2  C   UNL     1       3.529 105.888 177.932  1.00  0.00     0.208 A 
ATOM      3  C   UNL     1       2.830 106.735 178.807  1.00  0.00     0.238 A 
ATOM      4  O   UNL     1       1.725 107.210 178.435  1.00  0.00    -0.285 OA
ATOM      5  C   UNL     1       3.350 107.001 180.096  1.00  0.00     0.111 A 
ATOM      6  C   UNL     1       2.746 107.875 181.050  1.00  0.00     0.134 A 
ATOM      7  C   UNL     1       3.281 107.963 182.341  1.00  0.00     0.093 A 
ATOM      8  C   UNL     1       4.432 107.260 182.694  1.00  0.00     0.123 A 
ATOM      9  C   UNL     1       5.065 106.449 181.752  1.00  0.00     0.094 A 
ATOM     10  C   UNL     1       4.535 106.313 180.466  1.00  0.00     0.146 A 
ATOM     11  O   UNL     1       5.163 105.523 179.602  1.00  0.00    -0.452 OA
ENDROOT
BRANCH   1  12
ATOM     12  C   UNL     1       5.539 104.423 177.491  1.00  0.00     0.025 A 
ATOM     13  C   UNL     1       6.677 104.938 176.850  1.00  0.00     0.016 A 
ATOM     14  C   UNL     1       7.440 104.129 176.004  1.00  0.00     0.051 A 
ATOM     15  C   UNL     1       7.071 102.799 175.774  1.00  0.00     0.157 A 
ATOM     16  C   UNL     1       5.158 103.092 177.242  1.00  0.00     0.062 A 
ATOM     17  C   UNL     1       5.922 102.278 176.392  1.00  0.00     0.158 A 
BRANCH  15  18
ATOM     18  O   UNL     1       7.854 102.015 174.928  1.00  0.00    -0.504 OA
ATOM     19  H   UNL     1       8.207 102.365 174.044  1.00  0.00     0.293 HD
ENDBRANCH  15  18
BRANCH  17  20
ATOM     20  O   UNL     1       5.540 100.959 176.156  1.00  0.00    -0.504 OA
ATOM     21  H   UNL     1       5.654 100.239 176.859  1.00  0.00     0.293 HD
ENDBRANCH  17  20
ENDBRANCH   1  12
BRANCH   2  22
ATOM     22  O   UNL     1       3.021 105.594 176.663  1.00  0.00    -0.502 OA
ATOM     23  H   UNL     1       3.601 105.597 175.832  1.00  0.00     0.293 HD
ENDBRANCH   2  22
BRANCH   6  24
ATOM     24  O   UNL     1       1.648 108.693 180.772  1.00  0.00    -0.507 OA
ATOM     25  H   UNL     1       0.818 108.755 181.343  1.00  0.00     0.293 HD
ENDBRANCH   6  24
BRANCH   8  26
ATOM     26  O   UNL     1       4.944 107.384 183.984  1.00  0.00    -0.508 OA
ATOM     27  H   UNL     1       5.942 107.423 184.156  1.00  0.00     0.293 HD
ENDBRANCH   8  26
TORSDOF 6
ENDMDL
MODEL 5
REMARK VINA RESULT:    -5.055      1.614      7.434
REMARK INTER + INTRA:          -6.352
REMARK INTER:                  -6.059
REMARK INTRA:                  -0.293
REMARK UNBOUND:                -0.263
REMARK SMILES O=c1c(O)c(-c2ccc(O)c(O)c2)oc2cc(O)cc(O)c12
REMARK SMILES IDX 5 1 3 2 2 3 1 4 22 5 20 6 19 7 17 8 16 9 15 10 14 11 6 12
REMARK SMILES IDX 7 13 8 14 9 15 13 16 11 17 10 18 12 20 4 22 21 24 18 26
REMARK H PARENT 10 19 12 21 4 23 21 25 18 27
REMARK Flexibility Score: inf
ROOT
ATOM      1  C   UNL     1       4.027 110.326 182.618  1.00  0.00     0.180 A 
ATOM      2  C   UNL     1       3.034 110.980 183.368  1.00  0.00     0.208 A 
ATOM      3  C   UNL     1       3.312 112.247 183.906  1.00  0.00     0.238 A 
ATOM      4  O   UNL     1       2.439 112.804 184.623  1.00  0.00    -0.285 OA
ATOM      5  C   UNL     1       4.570 112.851 183.673  1.00  0.00     0.111 A 
ATOM      6  C   UNL     1       4.945 114.149 184.136  1.00  0.00     0.134 A 
ATOM      7  C   UNL     1       6.261 114.592 183.958  1.00  0.00     0.093 A 
ATOM      8  C   UNL     1       7.198 113.814 183.279  1.00  0.00     0.123 A 
ATOM      9  C   UNL     1       6.826 112.569 182.770  1.00  0.00     0.094 A 
ATOM     10  C   UNL     1       5.530 112.084 182.964  1.00  0.00     0.146 A 
ATOM     11  O   UNL     1       5.220 110.889 182.472  1.00  0.00    -0.452 OA
ENDROOT
BRANCH   1  12
ATOM     12  C   UNL     1       3.800 109.001 181.999  1.00  0.00     0.025 A 
ATOM     13  C   UNL     1       4.393 107.862 182.566  1.00  0.00     0.016 A 
ATOM     14  C   UNL     1       4.210 106.604 181.987  1.00  0.00     0.051 A 
ATOM     15  C   UNL     1       3.446 106.466 180.824  1.00  0.00     0.157 A 
ATOM     16  C   UNL     1       3.048 108.862 180.817  1.00  0.00     0.062 A 
ATOM     17  C   UNL     1       2.865 107.601 180.232  1.00  0.00     0.158 A 
BRANCH  15  18
ATOM     18  O   UNL     1       3.278 105.197 180.270  1.00  0.00    -0.504 OA
ATOM     19  H   UNL     1       3.934 104.812 179.600  1.00  0.00     0.293 HD
ENDBRANCH  15  18
BRANCH  17  20
ATOM     20  O   UNL     1       2.114 107.472 179.066  1.00  0.00    -0.504 OA
ATOM     21  H   UNL     1       2.108 106.612 178.530  1.00  0.00     0.293 HD
ENDBRANCH  17  20
ENDBRANCH   1  12
BRANCH   2  22
ATOM     22  O   UNL     1       1.806 110.356 183.604  1.00  0.00    -0.502 OA
ATOM     23  H   UNL     1       1.424 109.655 182.981  1.00  0.00     0.293 HD
ENDBRANCH   2  22
BRANCH   6  24
ATOM     24  O   UNL     1       4.062 115.045 184.745  1.00  0.00    -0.507 OA
ATOM     25  H   UNL     1       3.689 114.941 185.677  1.00  0.00     0.293 HD
ENDBRANCH   6  24
BRANCH   8  26
ATOM     26  O   UNL     1       8.495 114.293 183.107  1.00  0.00    -0.508 OA
ATOM     27  H   UNL     1       8.920 114.921 183.779  1.00  0.00     0.293 HD
ENDBRANCH   8  26
TORSDOF 6
ENDMDL
MODEL 6
REMARK VINA RESULT:    -5.048      3.776      8.096
REMARK INTER + INTRA:          -6.344
REMARK INTER:                  -6.062
REMARK INTRA:                  -0.282
REMARK UNBOUND:                -0.263
REMARK SMILES O=c1c(O)c(-c2ccc(O)c(O)c2)oc2cc(O)cc(O)c12
REMARK SMILES IDX 5 1 3 2 2 3 1 4 22 5 20 6 19 7 17 8 16 9 15 10 14 11 6 12
REMARK SMILES IDX 7 13 8 14 9 15 13 16 11 17 10 18 12 20 4 22 21 24 18 26
REMARK H PARENT 10 19 12 21 4 23 21 25 18 27
REMARK Flexibility Score: inf
ROOT
ATOM      1  C   UNL     1       4.802 105.238 178.002  1.00  0.00     0.180 A 
ATOM      2  C   UNL     1       5.589 105.385 179.158  1.00  0.00     0.208 A 
ATOM      3  C   UNL     1       5.103 106.172 180.216  1.00  0.00     0.238 A 
ATOM      4  O   UNL     1       5.835 106.344 181.226  1.00  0.00    -0.285 OA
ATOM      5  C   UNL     1       3.832 106.786 180.112  1.00  0.00     0.111 A 
ATOM      6  C   UNL     1       3.225 107.570 181.138  1.00  0.00     0.134 A 
ATOM      7  C   UNL     1       2.022 108.238 180.876  1.00  0.00     0.093 A 
ATOM      8  C   UNL     1       1.372 108.097 179.650  1.00  0.00     0.123 A 
ATOM      9  C   UNL     1       1.927 107.285 178.661  1.00  0.00     0.094 A 
ATOM     10  C   UNL     1       3.145 106.636 178.879  1.00  0.00     0.146 A 
ATOM     11  O   UNL     1       3.643 105.880 177.908  1.00  0.00    -0.452 OA
ENDROOT
BRANCH   1  12
ATOM     12  C   UNL     1       5.234 104.406 176.857  1.00  0.00     0.025 A 
ATOM     13  C   UNL     1       5.649 105.028 175.669  1.00  0.00     0.016 A 
ATOM     14  C   UNL     1       6.041 104.262 174.568  1.00  0.00     0.051 A 
ATOM     15  C   UNL     1       6.011 102.864 174.631  1.00  0.00     0.157 A 
ATOM     16  C   UNL     1       5.186 103.001 176.912  1.00  0.00     0.062 A 
ATOM     17  C   UNL     1       5.577 102.230 175.807  1.00  0.00     0.158 A 
BRANCH  15  18
ATOM     18  O   UNL     1       6.411 102.127 173.518  1.00  0.00    -0.504 OA
ATOM     19  H   UNL     1       7.298 101.636 173.488  1.00  0.00     0.293 HD
ENDBRANCH  15  18
BRANCH  17  20
ATOM     20  O   UNL     1       5.530 100.838 175.873  1.00  0.00    -0.504 OA
ATOM     21  H   UNL     1       6.221 100.307 176.390  1.00  0.00     0.293 HD
ENDBRANCH  17  20
ENDBRANCH   1  12
BRANCH   2  22
ATOM     22  O   UNL     1       6.850 104.788 179.231  1.00  0.00    -0.502 OA
ATOM     23  H   UNL     1       6.990 103.860 179.614  1.00  0.00     0.293 HD
ENDBRANCH   2  22
BRANCH   6  24
ATOM     24  O   UNL     1       3.743 107.702 182.429  1.00  0.00    -0.507 OA
ATOM     25  H   UNL     1       3.186 107.783 183.267  1.00  0.00     0.293 HD
ENDBRANCH   6  24
BRANCH   8  26
ATOM     26  O   UNL     1       0.168 108.764 179.430  1.00  0.00    -0.508 OA
ATOM     27  H   UNL     1      -0.613 108.671 180.069  1.00  0.00     0.293 HD
ENDBRANCH   8  26
TORSDOF 6
ENDMDL
MODEL 7
REMARK VINA RESULT:    -5.015      3.239      7.022
REMARK INTER + INTRA:          -6.305
REMARK INTER:                  -5.982
REMARK INTRA:                  -0.323
REMARK UNBOUND:                -0.263
REMARK SMILES O=c1c(O)c(-c2ccc(O)c(O)c2)oc2cc(O)cc(O)c12
REMARK SMILES IDX 5 1 3 2 2 3 1 4 22 5 20 6 19 7 17 8 16 9 15 10 14 11 6 12
REMARK SMILES IDX 7 13 8 14 9 15 13 16 11 17 10 18 12 20 4 22 21 24 18 26
REMARK H PARENT 10 19 12 21 4 23 21 25 18 27
REMARK Flexibility Score: inf
ROOT
ATOM      1  C   UNL     1       6.626 107.542 182.885  1.00  0.00     0.180 A 
ATOM      2  C   UNL     1       7.330 108.759 182.889  1.00  0.00     0.208 A 
ATOM      3  C   UNL     1       6.612 109.959 183.019  1.00  0.00     0.238 A 
ATOM      4  O   UNL     1       7.241 111.049 182.967  1.00  0.00    -0.285 OA
ATOM      5  C   UNL     1       5.204 109.927 183.161  1.00  0.00     0.111 A 
ATOM      6  C   UNL     1       4.381 111.079 183.341  1.00  0.00     0.134 A 
ATOM      7  C   UNL     1       2.988 110.939 183.340  1.00  0.00     0.093 A 
ATOM      8  C   UNL     1       2.390 109.684 183.231  1.00  0.00     0.123 A 
ATOM      9  C   UNL     1       3.186 108.545 183.115  1.00  0.00     0.094 A 
ATOM     10  C   UNL     1       4.579 108.656 183.076  1.00  0.00     0.146 A 
ATOM     11  O   UNL     1       5.300 107.548 182.954  1.00  0.00    -0.452 OA
ENDROOT
BRANCH   1  12
ATOM     12  C   UNL     1       7.314 106.236 182.776  1.00  0.00     0.025 A 
ATOM     13  C   UNL     1       7.750 105.586 183.941  1.00  0.00     0.016 A 
ATOM     14  C   UNL     1       8.420 104.362 183.862  1.00  0.00     0.051 A 
ATOM     15  C   UNL     1       8.678 103.777 182.617  1.00  0.00     0.157 A 
ATOM     16  C   UNL     1       7.593 105.655 181.525  1.00  0.00     0.062 A 
ATOM     17  C   UNL     1       8.267 104.429 181.442  1.00  0.00     0.158 A 
BRANCH  15  18
ATOM     18  O   UNL     1       9.346 102.554 182.569  1.00  0.00    -0.504 OA
ATOM     19  H   UNL     1       9.963 102.249 183.313  1.00  0.00     0.293 HD
ENDBRANCH  15  18
BRANCH  17  20
ATOM     20  O   UNL     1       8.534 103.859 180.199  1.00  0.00    -0.504 OA
ATOM     21  H   UNL     1       7.930 103.151 179.798  1.00  0.00     0.293 HD
ENDBRANCH  17  20
ENDBRANCH   1  12
BRANCH   2  22
ATOM     22  O   UNL     1       8.718 108.770 182.725  1.00  0.00    -0.502 OA
ATOM     23  H   UNL     1       9.268 109.616 182.808  1.00  0.00     0.293 HD
ENDBRANCH   2  22
BRANCH   6  24
ATOM     24  O   UNL     1       4.878 112.368 183.552  1.00  0.00    -0.507 OA
ATOM     25  H   UNL     1       5.124 112.750 184.453  1.00  0.00     0.293 HD
ENDBRANCH   6  24
BRANCH   8  26
ATOM     26  O   UNL     1       1.000 109.581 183.250  1.00  0.00    -0.508 OA
ATOM     27  H   UNL     1       0.419 110.324 183.620  1.00  0.00     0.293 HD
ENDBRANCH   8  26
TORSDOF 6
ENDMDL
MODEL 8
REMARK VINA RESULT:    -4.899      3.029      7.271
REMARK INTER + INTRA:          -6.164
REMARK INTER:                  -5.834
REMARK INTRA:                  -0.331
REMARK UNBOUND:                -0.263
REMARK SMILES O=c1c(O)c(-c2ccc(O)c(O)c2)oc2cc(O)cc(O)c12
REMARK SMILES IDX 5 1 3 2 2 3 1 4 22 5 20 6 19 7 17 8 16 9 15 10 14 11 6 12
REMARK SMILES IDX 7 13 8 14 9 15 13 16 11 17 10 18 12 20 4 22 21 24 18 26
REMARK H PARENT 10 19 12 21 4 23 21 25 18 27
REMARK Flexibility Score: inf
ROOT
ATOM      1  C   UNL     1       2.942 107.027 179.511  1.00  0.00     0.180 A 
ATOM      2  C   UNL     1       2.339 107.949 180.384  1.00  0.00     0.208 A 
ATOM      3  C   UNL     1       2.993 108.278 181.583  1.00  0.00     0.238 A 
ATOM      4  O   UNL     1       2.423 109.062 182.386  1.00  0.00    -0.285 OA
ATOM      5  C   UNL     1       4.246 107.695 181.885  1.00  0.00     0.111 A 
ATOM      6  C   UNL     1       5.016 107.987 183.052  1.00  0.00     0.134 A 
ATOM      7  C   UNL     1       6.180 107.254 183.312  1.00  0.00     0.093 A 
ATOM      8  C   UNL     1       6.638 106.287 182.418  1.00  0.00     0.123 A 
ATOM      9  C   UNL     1       5.925 106.035 181.245  1.00  0.00     0.094 A 
ATOM     10  C   UNL     1       4.740 106.724 180.975  1.00  0.00     0.146 A 
ATOM     11  O   UNL     1       4.087 106.447 179.852  1.00  0.00    -0.452 OA
ENDROOT
BRANCH   1  12
ATOM     12  C   UNL     1       2.327 106.649 178.218  1.00  0.00     0.025 A 
ATOM     13  C   UNL     1       1.559 105.477 178.135  1.00  0.00     0.016 A 
ATOM     14  C   UNL     1       0.987 105.090 176.921  1.00  0.00     0.051 A 
ATOM     15  C   UNL     1       1.185 105.858 175.768  1.00  0.00     0.157 A 
ATOM     16  C   UNL     1       2.543 107.409 177.054  1.00  0.00     0.062 A 
ATOM     17  C   UNL     1       1.971 107.021 175.833  1.00  0.00     0.158 A 
BRANCH  15  18
ATOM     18  O   UNL     1       0.599 105.448 174.572  1.00  0.00    -0.504 OA
ATOM     19  H   UNL     1      -0.146 104.761 174.545  1.00  0.00     0.293 HD
ENDBRANCH  15  18
BRANCH  17  20
ATOM     20  O   UNL     1       2.185 107.783 174.686  1.00  0.00    -0.504 OA
ATOM     21  H   UNL     1       1.500 108.454 174.359  1.00  0.00     0.293 HD
ENDBRANCH  17  20
ENDBRANCH   1  12
BRANCH   2  22
ATOM     22  O   UNL     1       1.091 108.496 180.076  1.00  0.00    -0.502 OA
ATOM     23  H   UNL     1       0.227 108.131 180.462  1.00  0.00     0.293 HD
ENDBRANCH   2  22
BRANCH   6  24
ATOM     24  O   UNL     1       4.698 108.997 183.963  1.00  0.00    -0.507 OA
ATOM     25  H   UNL     1       4.163 109.824 183.742  1.00  0.00     0.293 HD
ENDBRANCH   6  24
BRANCH   8  26
ATOM     26  O   UNL     1       7.809 105.588 182.702  1.00  0.00    -0.508 OA
ATOM     27  H   UNL     1       7.838 104.870 183.417  1.00  0.00     0.293 HD
ENDBRANCH   8  26
TORSDOF 6
ENDMDL
