MODEL 1
REMARK VINA RESULT:     0.000      0.000      0.000
REMARK INTER + INTRA:          -3.656
REMARK INTER:                   0.000
REMARK INTRA:                  -3.656
REMARK UNBOUND:                -3.656
REMARK SMILES CCCCCC=CCC=CCCCCCCCC(=O)[O-]
REMARK SMILES IDX 11 1 12 2 13 3 14 4 15 5 16 6 17 7 18 8 19 9 20 10 10 11
REMARK SMILES IDX 9 12 8 13 7 14 6 15 5 16 4 17 3 18 2 19 1 20
REMARK H PARENT
REMARK Flexibility Score: inf
ROOT
ATOM      1  C   UNL     1      26.902  62.649  25.429  1.00  0.00     0.027 C 
ENDROOT
BRANCH   1   2
ATOM      2  C   UNL     1      25.533  62.540  24.742  1.00  0.00     0.004 C 
BRANCH   2   3
ATOM      3  C   UNL     1      25.319  61.159  24.096  1.00  0.00     0.000 C 
BRANCH   3   4
ATOM      4  C   UNL     1      25.383  61.209  22.564  1.00  0.00     0.000 C 
BRANCH   4   5
ATOM      5  C   UNL     1      25.281  62.641  22.014  1.00  0.00     0.000 C 
BRANCH   5   6
ATOM      6  C   UNL     1      26.323  62.878  20.908  1.00  0.00     0.006 C 
BRANCH   6   7
ATOM      7  C   UNL     1      27.018  64.241  21.046  1.00  0.00     0.053 C 
BRANCH   7   8
ATOM      8  C   UNL     1      28.411  64.212  20.493  1.00  0.00     0.041 C 
ATOM      9  O   UNL     1      28.733  63.361  19.621  1.00  0.00    -0.550 OA
ATOM     10  O   UNL     1      29.360  65.108  20.962  1.00  0.00    -0.550 OA
ENDBRANCH   7   8
ENDBRANCH   6   7
ENDBRANCH   5   6
ENDBRANCH   4   5
ENDBRANCH   3   4
ENDBRANCH   2   3
ENDBRANCH   1   2
BRANCH   1  11
ATOM     11  C   UNL     1      27.762  63.704  24.778  1.00  0.00    -0.031 C 
ATOM     12  C   UNL     1      28.903  63.460  24.109  1.00  0.00    -0.027 C 
BRANCH  12  13
ATOM     13  C   UNL     1      29.572  62.109  24.006  1.00  0.00     0.054 C 
BRANCH  13  14
ATOM     14  C   UNL     1      29.118  61.354  22.780  1.00  0.00    -0.027 C 
ATOM     15  C   UNL     1      28.899  60.028  22.731  1.00  0.00    -0.031 C 
BRANCH  15  16
ATOM     16  C   UNL     1      29.169  59.060  23.860  1.00  0.00     0.027 C 
BRANCH  16  17
ATOM     17  C   UNL     1      27.872  58.645  24.576  1.00  0.00     0.004 C 
BRANCH  17  18
ATOM     18  C   UNL     1      27.833  59.131  26.037  1.00  0.00     0.000 C 
BRANCH  18  19
ATOM     19  C   UNL     1      29.247  59.423  26.561  1.00  0.00    -0.003 C 
ATOM     20  C   UNL     1      29.261  60.674  27.438  1.00  0.00     0.004 C 
ENDBRANCH  18  19
ENDBRANCH  17  18
ENDBRANCH  16  17
ENDBRANCH  15  16
ENDBRANCH  13  14
ENDBRANCH  12  13
ENDBRANCH   1  11
TORSDOF 14
ENDMDL
MODEL 2
REMARK VINA RESULT:     0.002      5.375      7.124
REMARK INTER + INTRA:          -3.653
REMARK INTER:                   0.000
REMARK INTRA:                  -3.653
REMARK UNBOUND:                -3.656
REMARK SMILES CCCCCC=CCC=CCCCCCCCC(=O)[O-]
REMARK SMILES IDX 11 1 12 2 13 3 14 4 15 5 16 6 17 7 18 8 19 9 20 10 10 11
REMARK SMILES IDX 9 12 8 13 7 14 6 15 5 16 4 17 3 18 2 19 1 20
REMARK H PARENT
REMARK Flexibility Score: inf
ROOT
ATOM      1  C   UNL     1      22.912  67.547  24.759  1.00  0.00     0.027 C 
ENDROOT
BRANCH   1   2
ATOM      2  C   UNL     1      21.774  68.409  24.195  1.00  0.00     0.004 C 
BRANCH   2   3
ATOM      3  C   UNL     1      20.941  67.650  23.146  1.00  0.00     0.000 C 
BRANCH   3   4
ATOM      4  C   UNL     1      21.036  68.281  21.750  1.00  0.00     0.000 C 
BRANCH   4   5
ATOM      5  C   UNL     1      21.938  69.525  21.723  1.00  0.00     0.000 C 
BRANCH   5   6
ATOM      6  C   UNL     1      22.892  69.484  20.519  1.00  0.00     0.006 C 
BRANCH   6   7
ATOM      7  C   UNL     1      24.316  69.923  20.889  1.00  0.00     0.053 C 
BRANCH   7   8
ATOM      8  C   UNL     1      25.340  69.311  19.981  1.00  0.00     0.041 C 
ATOM      9  O   UNL     1      26.392  68.805  20.456  1.00  0.00    -0.550 OA
ATOM     10  O   UNL     1      25.142  69.322  18.608  1.00  0.00    -0.550 OA
ENDBRANCH   7   8
ENDBRANCH   6   7
ENDBRANCH   5   6
ENDBRANCH   4   5
ENDBRANCH   3   4
ENDBRANCH   2   3
ENDBRANCH   1   2
BRANCH   1  11
ATOM     11  C   UNL     1      24.262  68.071  24.336  1.00  0.00    -0.031 C 
ATOM     12  C   UNL     1      25.090  67.455  23.473  1.00  0.00    -0.027 C 
BRANCH  12  13
ATOM     13  C   UNL     1      24.858  66.083  22.885  1.00  0.00     0.054 C 
BRANCH  13  14
ATOM     14  C   UNL     1      24.100  66.155  21.581  1.00  0.00    -0.027 C 
ATOM     15  C   UNL     1      23.181  65.261  21.176  1.00  0.00    -0.031 C 
BRANCH  15  16
ATOM     16  C   UNL     1      22.830  63.983  21.904  1.00  0.00     0.027 C 
BRANCH  16  17
ATOM     17  C   UNL     1      21.489  64.104  22.649  1.00  0.00     0.004 C 
BRANCH  17  18
ATOM     18  C   UNL     1      21.670  64.106  24.177  1.00  0.00     0.000 C 
BRANCH  18  19
ATOM     19  C   UNL     1      22.963  63.385  24.583  1.00  0.00    -0.003 C 
ATOM     20  C   UNL     1      23.627  64.071  25.775  1.00  0.00     0.004 C 
ENDBRANCH  18  19
ENDBRANCH  17  18
ENDBRANCH  16  17
ENDBRANCH  15  16
ENDBRANCH  13  14
ENDBRANCH  12  13
ENDBRANCH   1  11
TORSDOF 14
ENDMDL
MODEL 3
REMARK VINA RESULT:     0.006      4.275      6.784
REMARK INTER + INTRA:          -3.644
REMARK INTER:                   0.000
REMARK INTRA:                  -3.644
REMARK UNBOUND:                -3.656
REMARK SMILES CCCCCC=CCC=CCCCCCCCC(=O)[O-]
REMARK SMILES IDX 11 1 12 2 13 3 14 4 15 5 16 6 17 7 18 8 19 9 20 10 10 11
REMARK SMILES IDX 9 12 8 13 7 14 6 15 5 16 4 17 3 18 2 19 1 20
REMARK H PARENT
REMARK Flexibility Score: inf
ROOT
ATOM      1  C   UNL     1      21.201  64.961  22.147  1.00  0.00     0.027 C 
ENDROOT
BRANCH   1   2
ATOM      2  C   UNL     1      20.729  63.939  23.190  1.00  0.00     0.004 C 
BRANCH   2   3
ATOM      3  C   UNL     1      21.802  62.875  23.484  1.00  0.00     0.000 C 
BRANCH   3   4
ATOM      4  C   UNL     1      23.209  63.328  23.072  1.00  0.00     0.000 C 
BRANCH   4   5
ATOM      5  C   UNL     1      24.303  62.787  24.007  1.00  0.00     0.000 C 
BRANCH   5   6
ATOM      6  C   UNL     1      25.701  63.166  23.491  1.00  0.00     0.006 C 
BRANCH   6   7
ATOM      7  C   UNL     1      25.638  64.106  22.279  1.00  0.00     0.053 C 
BRANCH   7   8
ATOM      8  C   UNL     1      26.678  65.183  22.357  1.00  0.00     0.041 C 
ATOM      9  O   UNL     1      27.522  65.187  23.293  1.00  0.00    -0.550 OA
ATOM     10  O   UNL     1      26.697  66.197  21.411  1.00  0.00    -0.550 OA
ENDBRANCH   7   8
ENDBRANCH   6   7
ENDBRANCH   5   6
ENDBRANCH   4   5
ENDBRANCH   3   4
ENDBRANCH   2   3
ENDBRANCH   1   2
BRANCH   1  11
ATOM     11  C   UNL     1      20.981  66.376  22.622  1.00  0.00    -0.031 C 
ATOM     12  C   UNL     1      21.954  67.286  22.802  1.00  0.00    -0.027 C 
BRANCH  12  13
ATOM     13  C   UNL     1      23.433  67.005  22.677  1.00  0.00     0.054 C 
BRANCH  13  14
ATOM     14  C   UNL     1      24.252  67.932  23.543  1.00  0.00    -0.027 C 
ATOM     15  C   UNL     1      24.858  67.577  24.690  1.00  0.00    -0.031 C 
BRANCH  15  16
ATOM     16  C   UNL     1      24.735  66.226  25.357  1.00  0.00     0.027 C 
BRANCH  16  17
ATOM     17  C   UNL     1      23.682  66.240  26.480  1.00  0.00     0.004 C 
BRANCH  17  18
ATOM     18  C   UNL     1      22.494  65.310  26.175  1.00  0.00     0.000 C 
BRANCH  18  19
ATOM     19  C   UNL     1      21.159  66.058  26.301  1.00  0.00    -0.003 C 
ATOM     20  C   UNL     1      21.380  67.564  26.433  1.00  0.00     0.004 C 
ENDBRANCH  18  19
ENDBRANCH  17  18
ENDBRANCH  16  17
ENDBRANCH  15  16
ENDBRANCH  13  14
ENDBRANCH  12  13
ENDBRANCH   1  11
TORSDOF 14
ENDMDL
MODEL 4
REMARK VINA RESULT:     0.014      6.252      8.520
REMARK INTER + INTRA:          -3.631
REMARK INTER:                   0.000
REMARK INTRA:                  -3.631
REMARK UNBOUND:                -3.656
REMARK SMILES CCCCCC=CCC=CCCCCCCCC(=O)[O-]
REMARK SMILES IDX 11 1 12 2 13 3 14 4 15 5 16 6 17 7 18 8 19 9 20 10 10 11
REMARK SMILES IDX 9 12 8 13 7 14 6 15 5 16 4 17 3 18 2 19 1 20
REMARK H PARENT
REMARK Flexibility Score: inf
ROOT
ATOM      1  C   UNL     1      20.753  59.290  24.371  1.00  0.00     0.027 C 
ENDROOT
BRANCH   1   2
ATOM      2  C   UNL     1      22.123  59.954  24.568  1.00  0.00     0.004 C 
BRANCH   2   3
ATOM      3  C   UNL     1      22.263  61.246  23.742  1.00  0.00     0.000 C 
BRANCH   3   4
ATOM      4  C   UNL     1      22.601  62.466  24.610  1.00  0.00     0.000 C 
BRANCH   4   5
ATOM      5  C   UNL     1      21.424  63.447  24.735  1.00  0.00     0.000 C 
BRANCH   5   6
ATOM      6  C   UNL     1      21.711  64.512  25.806  1.00  0.00     0.006 C 
BRANCH   6   7
ATOM      7  C   UNL     1      20.424  65.090  26.412  1.00  0.00     0.053 C 
BRANCH   7   8
ATOM      8  C   UNL     1      20.524  65.223  27.902  1.00  0.00     0.041 C 
ATOM      9  O   UNL     1      21.622  65.521  28.443  1.00  0.00    -0.550 OA
ATOM     10  O   UNL     1      19.408  64.991  28.693  1.00  0.00    -0.550 OA
ENDBRANCH   7   8
ENDBRANCH   6   7
ENDBRANCH   5   6
ENDBRANCH   4   5
ENDBRANCH   3   4
ENDBRANCH   2   3
ENDBRANCH   1   2
BRANCH   1  11
ATOM     11  C   UNL     1      19.788  60.215  23.674  1.00  0.00    -0.031 C 
ATOM     12  C   UNL     1      18.750  60.832  24.267  1.00  0.00    -0.027 C 
BRANCH  12  13
ATOM     13  C   UNL     1      18.309  60.601  25.693  1.00  0.00     0.054 C 
BRANCH  13  14
ATOM     14  C   UNL     1      18.775  61.709  26.607  1.00  0.00    -0.027 C 
ATOM     15  C   UNL     1      19.727  61.581  27.548  1.00  0.00    -0.031 C 
BRANCH  15  16
ATOM     16  C   UNL     1      20.414  60.286  27.919  1.00  0.00     0.027 C 
BRANCH  16  17
ATOM     17  C   UNL     1      21.918  60.494  28.174  1.00  0.00     0.004 C 
BRANCH  17  18
ATOM     18  C   UNL     1      22.262  61.967  28.456  1.00  0.00     0.000 C 
BRANCH  18  19
ATOM     19  C   UNL     1      23.729  62.268  28.119  1.00  0.00    -0.003 C 
ATOM     20  C   UNL     1      24.413  61.052  27.497  1.00  0.00     0.004 C 
ENDBRANCH  18  19
ENDBRANCH  17  18
ENDBRANCH  16  17
ENDBRANCH  15  16
ENDBRANCH  13  14
ENDBRANCH  12  13
ENDBRANCH   1  11
TORSDOF 14
ENDMDL
MODEL 5
REMARK VINA RESULT:     0.014      4.995      7.304
REMARK INTER + INTRA:          -3.631
REMARK INTER:                   0.000
REMARK INTRA:                  -3.631
REMARK UNBOUND:                -3.656
REMARK SMILES CCCCCC=CCC=CCCCCCCCC(=O)[O-]
REMARK SMILES IDX 11 1 12 2 13 3 14 4 15 5 16 6 17 7 18 8 19 9 20 10 10 11
REMARK SMILES IDX 9 12 8 13 7 14 6 15 5 16 4 17 3 18 2 19 1 20
REMARK H PARENT
REMARK Flexibility Score: inf
ROOT
ATOM      1  C   UNL     1      22.486  58.795  23.283  1.00  0.00     0.027 C 
ENDROOT
BRANCH   1   2
ATOM      2  C   UNL     1      22.774  58.175  21.909  1.00  0.00     0.004 C 
BRANCH   2   3
ATOM      3  C   UNL     1      21.504  58.068  21.045  1.00  0.00     0.000 C 
BRANCH   3   4
ATOM      4  C   UNL     1      21.740  58.507  19.594  1.00  0.00     0.000 C 
BRANCH   4   5
ATOM      5  C   UNL     1      21.350  59.974  19.349  1.00  0.00     0.000 C 
BRANCH   5   6
ATOM      6  C   UNL     1      19.876  60.216  19.711  1.00  0.00     0.006 C 
BRANCH   6   7
ATOM      7  C   UNL     1      19.571  61.703  19.946  1.00  0.00     0.053 C 
BRANCH   7   8
ATOM      8  C   UNL     1      20.022  62.550  18.795  1.00  0.00     0.041 C 
ATOM      9  O   UNL     1      20.887  63.451  18.966  1.00  0.00    -0.550 OA
ATOM     10  O   UNL     1      19.466  62.363  17.538  1.00  0.00    -0.550 OA
ENDBRANCH   7   8
ENDBRANCH   6   7
ENDBRANCH   5   6
ENDBRANCH   4   5
ENDBRANCH   3   4
ENDBRANCH   2   3
ENDBRANCH   1   2
BRANCH   1  11
ATOM     11  C   UNL     1      21.185  59.559  23.281  1.00  0.00    -0.031 C 
ATOM     12  C   UNL     1      21.081  60.899  23.225  1.00  0.00    -0.027 C 
BRANCH  12  13
ATOM     13  C   UNL     1      22.246  61.859  23.280  1.00  0.00     0.054 C 
BRANCH  13  14
ATOM     14  C   UNL     1      22.628  62.351  21.904  1.00  0.00    -0.027 C 
ATOM     15  C   UNL     1      23.773  62.045  21.269  1.00  0.00    -0.031 C 
BRANCH  15  16
ATOM     16  C   UNL     1      24.912  61.247  21.865  1.00  0.00     0.027 C 
BRANCH  16  17
ATOM     17  C   UNL     1      25.562  60.320  20.822  1.00  0.00     0.004 C 
BRANCH  17  18
ATOM     18  C   UNL     1      25.012  60.563  19.405  1.00  0.00     0.000 C 
BRANCH  18  19
ATOM     19  C   UNL     1      25.211  59.328  18.515  1.00  0.00    -0.003 C 
ATOM     20  C   UNL     1      25.475  58.079  19.354  1.00  0.00     0.004 C 
ENDBRANCH  18  19
ENDBRANCH  17  18
ENDBRANCH  16  17
ENDBRANCH  15  16
ENDBRANCH  13  14
ENDBRANCH  12  13
ENDBRANCH   1  11
TORSDOF 14
ENDMDL
MODEL 6
REMARK VINA RESULT:     0.024      3.214      5.395
REMARK INTER + INTRA:          -3.612
REMARK INTER:                   0.000
REMARK INTRA:                  -3.612
REMARK UNBOUND:                -3.656
REMARK SMILES CCCCCC=CCC=CCCCCCCCC(=O)[O-]
REMARK SMILES IDX 11 1 12 2 13 3 14 4 15 5 16 6 17 7 18 8 19 9 20 10 10 11
REMARK SMILES IDX 9 12 8 13 7 14 6 15 5 16 4 17 3 18 2 19 1 20
REMARK H PARENT
REMARK Flexibility Score: inf
ROOT
ATOM      1  C   UNL     1      32.003  58.945  27.588  1.00  0.00     0.027 C 
ENDROOT
BRANCH   1   2
ATOM      2  C   UNL     1      31.473  60.345  27.927  1.00  0.00     0.004 C 
BRANCH   2   3
ATOM      3  C   UNL     1      31.245  61.198  26.666  1.00  0.00     0.000 C 
BRANCH   3   4
ATOM      4  C   UNL     1      29.928  61.984  26.717  1.00  0.00     0.000 C 
BRANCH   4   5
ATOM      5  C   UNL     1      28.934  61.545  25.629  1.00  0.00     0.000 C 
BRANCH   5   6
ATOM      6  C   UNL     1      29.675  61.131  24.346  1.00  0.00     0.006 C 
BRANCH   6   7
ATOM      7  C   UNL     1      28.750  60.431  23.341  1.00  0.00     0.053 C 
BRANCH   7   8
ATOM      8  C   UNL     1      29.493  59.433  22.504  1.00  0.00     0.041 C 
ATOM      9  O   UNL     1      29.084  58.244  22.417  1.00  0.00    -0.550 OA
ATOM     10  O   UNL     1      30.652  59.812  21.843  1.00  0.00    -0.550 OA
ENDBRANCH   7   8
ENDBRANCH   6   7
ENDBRANCH   5   6
ENDBRANCH   4   5
ENDBRANCH   3   4
ENDBRANCH   2   3
ENDBRANCH   1   2
BRANCH   1  11
ATOM     11  C   UNL     1      32.100  58.739  26.097  1.00  0.00    -0.031 C 
ATOM     12  C   UNL     1      31.266  57.972  25.371  1.00  0.00    -0.027 C 
BRANCH  12  13
ATOM     13  C   UNL     1      30.177  57.097  25.946  1.00  0.00     0.054 C 
BRANCH  13  14
ATOM     14  C   UNL     1      28.842  57.803  25.958  1.00  0.00    -0.027 C 
ATOM     15  C   UNL     1      28.185  58.187  27.066  1.00  0.00    -0.031 C 
BRANCH  15  16
ATOM     16  C   UNL     1      28.618  57.885  28.483  1.00  0.00     0.027 C 
BRANCH  16  17
ATOM     17  C   UNL     1      28.341  59.068  29.427  1.00  0.00     0.004 C 
BRANCH  17  18
ATOM     18  C   UNL     1      27.424  60.123  28.782  1.00  0.00     0.000 C 
BRANCH  18  19
ATOM     19  C   UNL     1      27.512  61.463  29.527  1.00  0.00    -0.003 C 
ATOM     20  C   UNL     1      28.827  61.582  30.295  1.00  0.00     0.004 C 
ENDBRANCH  18  19
ENDBRANCH  17  18
ENDBRANCH  16  17
ENDBRANCH  15  16
ENDBRANCH  13  14
ENDBRANCH  12  13
ENDBRANCH   1  11
TORSDOF 14
ENDMDL
MODEL 7
REMARK VINA RESULT:     0.025      4.557      7.436
REMARK INTER + INTRA:          -3.610
REMARK INTER:                   0.000
REMARK INTRA:                  -3.610
REMARK UNBOUND:                -3.656
REMARK SMILES CCCCCC=CCC=CCCCCCCCC(=O)[O-]
REMARK SMILES IDX 11 1 12 2 13 3 14 4 15 5 16 6 17 7 18 8 19 9 20 10 10 11
REMARK SMILES IDX 9 12 8 13 7 14 6 15 5 16 4 17 3 18 2 19 1 20
REMARK H PARENT
REMARK Flexibility Score: inf
ROOT
ATOM      1  C   UNL     1      26.425  66.784  24.905  1.00  0.00     0.027 C 
ENDROOT
BRANCH   1   2
ATOM      2  C   UNL     1      27.428  66.781  23.742  1.00  0.00     0.004 C 
BRANCH   2   3
ATOM      3  C   UNL     1      27.367  65.474  22.930  1.00  0.00     0.000 C 
BRANCH   3   4
ATOM      4  C   UNL     1      27.173  65.723  21.428  1.00  0.00     0.000 C 
BRANCH   4   5
ATOM      5  C   UNL     1      25.863  65.122  20.893  1.00  0.00     0.000 C 
BRANCH   5   6
ATOM      6  C   UNL     1      25.521  63.815  21.628  1.00  0.00     0.006 C 
BRANCH   6   7
ATOM      7  C   UNL     1      24.108  63.315  21.298  1.00  0.00     0.053 C 
BRANCH   7   8
ATOM      8  C   UNL     1      23.464  62.651  22.478  1.00  0.00     0.041 C 
ATOM      9  O   UNL     1      22.275  62.926  22.794  1.00  0.00    -0.550 OA
ATOM     10  O   UNL     1      24.187  61.749  23.244  1.00  0.00    -0.550 OA
ENDBRANCH   7   8
ENDBRANCH   6   7
ENDBRANCH   5   6
ENDBRANCH   4   5
ENDBRANCH   3   4
ENDBRANCH   2   3
ENDBRANCH   1   2
BRANCH   1  11
ATOM     11  C   UNL     1      25.792  65.427  25.089  1.00  0.00    -0.031 C 
ATOM     12  C   UNL     1      24.483  65.162  24.929  1.00  0.00    -0.027 C 
BRANCH  12  13
ATOM     13  C   UNL     1      23.418  66.199  24.661  1.00  0.00     0.054 C 
BRANCH  13  14
ATOM     14  C   UNL     1      23.162  66.366  23.182  1.00  0.00    -0.027 C 
ATOM     15  C   UNL     1      23.438  67.475  22.474  1.00  0.00    -0.031 C 
BRANCH  15  16
ATOM     16  C   UNL     1      23.952  68.772  23.055  1.00  0.00     0.027 C 
BRANCH  16  17
ATOM     17  C   UNL     1      25.157  69.312  22.264  1.00  0.00     0.004 C 
BRANCH  17  18
ATOM     18  C   UNL     1      25.175  68.801  20.813  1.00  0.00     0.000 C 
BRANCH  18  19
ATOM     19  C   UNL     1      26.491  69.169  20.112  1.00  0.00    -0.003 C 
ATOM     20  C   UNL     1      27.599  69.442  21.127  1.00  0.00     0.004 C 
ENDBRANCH  18  19
ENDBRANCH  17  18
ENDBRANCH  16  17
ENDBRANCH  15  16
ENDBRANCH  13  14
ENDBRANCH  12  13
ENDBRANCH   1  11
TORSDOF 14
ENDMDL
MODEL 8
REMARK VINA RESULT:     0.026      6.691      8.818
REMARK INTER + INTRA:          -3.609
REMARK INTER:                   0.000
REMARK INTRA:                  -3.609
REMARK UNBOUND:                -3.656
REMARK SMILES CCCCCC=CCC=CCCCCCCCC(=O)[O-]
REMARK SMILES IDX 11 1 12 2 13 3 14 4 15 5 16 6 17 7 18 8 19 9 20 10 10 11
REMARK SMILES IDX 9 12 8 13 7 14 6 15 5 16 4 17 3 18 2 19 1 20
REMARK H PARENT
REMARK Flexibility Score: inf
ROOT
ATOM      1  C   UNL     1      22.972  63.886  16.862  1.00  0.00     0.027 C 
ENDROOT
BRANCH   1   2
ATOM      2  C   UNL     1      21.661  64.455  16.301  1.00  0.00     0.004 C 
BRANCH   2   3
ATOM      3  C   UNL     1      21.267  65.779  16.980  1.00  0.00     0.000 C 
BRANCH   3   4
ATOM      4  C   UNL     1      19.772  65.846  17.319  1.00  0.00     0.000 C 
BRANCH   4   5
ATOM      5  C   UNL     1      19.512  66.331  18.755  1.00  0.00     0.000 C 
BRANCH   5   6
ATOM      6  C   UNL     1      20.824  66.750  19.437  1.00  0.00     0.006 C 
BRANCH   6   7
ATOM      7  C   UNL     1      20.782  66.542  20.957  1.00  0.00     0.053 C 
BRANCH   7   8
ATOM      8  C   UNL     1      22.146  66.646  21.570  1.00  0.00     0.041 C 
ATOM      9  O   UNL     1      22.405  66.057  22.654  1.00  0.00    -0.550 OA
ATOM     10  O   UNL     1      23.124  67.416  20.957  1.00  0.00    -0.550 OA
ENDBRANCH   7   8
ENDBRANCH   6   7
ENDBRANCH   5   6
ENDBRANCH   4   5
ENDBRANCH   3   4
ENDBRANCH   2   3
ENDBRANCH   1   2
BRANCH   1  11
ATOM     11  C   UNL     1      23.494  64.727  18.000  1.00  0.00    -0.031 C 
ATOM     12  C   UNL     1      23.704  64.281  19.252  1.00  0.00    -0.027 C 
BRANCH  12  13
ATOM     13  C   UNL     1      23.334  62.904  19.751  1.00  0.00     0.054 C 
BRANCH  13  14
ATOM     14  C   UNL     1      22.288  62.967  20.838  1.00  0.00    -0.027 C 
ATOM     15  C   UNL     1      20.963  62.859  20.638  1.00  0.00    -0.031 C 
BRANCH  15  16
ATOM     16  C   UNL     1      20.293  62.763  19.286  1.00  0.00     0.027 C 
BRANCH  16  17
ATOM     17  C   UNL     1      20.086  61.299  18.858  1.00  0.00     0.004 C 
BRANCH  17  18
ATOM     18  C   UNL     1      20.612  61.030  17.436  1.00  0.00     0.000 C 
BRANCH  18  19
ATOM     19  C   UNL     1      21.969  60.311  17.475  1.00  0.00    -0.003 C 
ATOM     20  C   UNL     1      22.130  59.505  18.763  1.00  0.00     0.004 C 
ENDBRANCH  18  19
ENDBRANCH  17  18
ENDBRANCH  16  17
ENDBRANCH  15  16
ENDBRANCH  13  14
ENDBRANCH  12  13
ENDBRANCH   1  11
TORSDOF 14
ENDMDL
MODEL 9
REMARK VINA RESULT:     0.027      4.212      6.632
REMARK INTER + INTRA:          -3.607
REMARK INTER:                   0.000
REMARK INTRA:                  -3.607
REMARK UNBOUND:                -3.656
REMARK SMILES CCCCCC=CCC=CCCCCCCCC(=O)[O-]
REMARK SMILES IDX 11 1 12 2 13 3 14 4 15 5 16 6 17 7 18 8 19 9 20 10 10 11
REMARK SMILES IDX 9 12 8 13 7 14 6 15 5 16 4 17 3 18 2 19 1 20
REMARK H PARENT
REMARK Flexibility Score: inf
ROOT
ATOM      1  C   UNL     1      24.035  68.539  22.706  1.00  0.00     0.027 C 
ENDROOT
BRANCH   1   2
ATOM      2  C   UNL     1      24.013  67.064  22.282  1.00  0.00     0.004 C 
BRANCH   2   3
ATOM      3  C   UNL     1      25.142  66.730  21.291  1.00  0.00     0.000 C 
BRANCH   3   4
ATOM      4  C   UNL     1      26.151  65.726  21.864  1.00  0.00     0.000 C 
BRANCH   4   5
ATOM      5  C   UNL     1      27.544  66.341  22.075  1.00  0.00     0.000 C 
BRANCH   5   6
ATOM      6  C   UNL     1      27.968  67.168  20.850  1.00  0.00     0.006 C 
BRANCH   6   7
ATOM      7  C   UNL     1      29.023  68.226  21.199  1.00  0.00     0.053 C 
BRANCH   7   8
ATOM      8  C   UNL     1      30.193  67.627  21.920  1.00  0.00     0.041 C 
ATOM      9  O   UNL     1      30.480  67.998  23.089  1.00  0.00    -0.550 OA
ATOM     10  O   UNL     1      30.982  66.677  21.288  1.00  0.00    -0.550 OA
ENDBRANCH   7   8
ENDBRANCH   6   7
ENDBRANCH   5   6
ENDBRANCH   4   5
ENDBRANCH   3   4
ENDBRANCH   2   3
ENDBRANCH   1   2
BRANCH   1  11
ATOM     11  C   UNL     1      24.989  69.342  21.855  1.00  0.00    -0.031 C 
ATOM     12  C   UNL     1      26.024  70.058  22.329  1.00  0.00    -0.027 C 
BRANCH  12  13
ATOM     13  C   UNL     1      26.326  70.275  23.793  1.00  0.00     0.054 C 
BRANCH  13  14
ATOM     14  C   UNL     1      27.359  69.298  24.301  1.00  0.00    -0.027 C 
ATOM     15  C   UNL     1      27.122  68.324  25.197  1.00  0.00    -0.031 C 
BRANCH  15  16
ATOM     16  C   UNL     1      25.812  68.110  25.922  1.00  0.00     0.027 C 
BRANCH  16  17
ATOM     17  C   UNL     1      25.281  66.679  25.726  1.00  0.00     0.004 C 
BRANCH  17  18
ATOM     18  C   UNL     1      26.418  65.651  25.587  1.00  0.00     0.000 C 
BRANCH  18  19
ATOM     19  C   UNL     1      25.866  64.251  25.280  1.00  0.00    -0.003 C 
ATOM     20  C   UNL     1      24.401  64.318  24.853  1.00  0.00     0.004 C 
ENDBRANCH  18  19
ENDBRANCH  17  18
ENDBRANCH  16  17
ENDBRANCH  15  16
ENDBRANCH  13  14
ENDBRANCH  12  13
ENDBRANCH   1  11
TORSDOF 14
ENDMDL
