MODEL 1
REMARK VINA RESULT:    -4.453      0.000      0.000
REMARK INTER + INTRA:          -6.864
REMARK INTER:                  -6.536
REMARK INTRA:                  -0.328
REMARK UNBOUND:                -0.328
REMARK SMILES O=C([O-])CCCCCCCC(=O)[O-]
REMARK SMILES IDX 7 1 6 2 5 3 4 4 2 5 1 6 3 7 8 8 9 9 10 10 11 11 12 12 13 13
REMARK H PARENT
REMARK Flexibility Score: inf
ROOT
ATOM      1  C   UNL     1      39.861 117.779  13.294  1.00  0.00     0.000 C 
ENDROOT
BRANCH   1   2
ATOM      2  C   UNL     1      40.025 117.501  11.791  1.00  0.00     0.000 C 
BRANCH   2   3
ATOM      3  C   UNL     1      41.486 117.188  11.447  1.00  0.00     0.006 C 
BRANCH   3   4
ATOM      4  C   UNL     1      41.826 117.643  10.026  1.00  0.00     0.053 C 
BRANCH   4   5
ATOM      5  C   UNL     1      43.109 117.026   9.570  1.00  0.00     0.041 C 
ATOM      6  O   UNL     1      44.058 116.864  10.382  1.00  0.00    -0.550 OA
ATOM      7  O   UNL     1      43.242 116.586   8.259  1.00  0.00    -0.550 OA
ENDBRANCH   4   5
ENDBRANCH   3   4
ENDBRANCH   2   3
ENDBRANCH   1   2
BRANCH   1   8
ATOM      8  C   UNL     1      39.292 119.177  13.580  1.00  0.00     0.000 C 
BRANCH   8   9
ATOM      9  C   UNL     1      37.917 119.127  14.269  1.00  0.00     0.006 C 
BRANCH   9  10
ATOM     10  C   UNL     1      36.811 119.736  13.398  1.00  0.00     0.053 C 
BRANCH  10  11
ATOM     11  C   UNL     1      35.890 118.689  12.851  1.00  0.00     0.041 C 
ATOM     12  O   UNL     1      36.329 117.543  12.572  1.00  0.00    -0.550 OA
ATOM     13  O   UNL     1      34.540 118.970  12.678  1.00  0.00    -0.550 OA
ENDBRANCH  10  11
ENDBRANCH   9  10
ENDBRANCH   8   9
ENDBRANCH   1   8
TORSDOF 8
ENDMDL
MODEL 2
REMARK VINA RESULT:    -4.452      0.756      6.816
REMARK INTER + INTRA:          -6.862
REMARK INTER:                  -6.583
REMARK INTRA:                  -0.279
REMARK UNBOUND:                -0.328
REMARK SMILES O=C([O-])CCCCCCCC(=O)[O-]
REMARK SMILES IDX 7 1 6 2 5 3 4 4 2 5 1 6 3 7 8 8 9 9 10 10 11 11 12 12 13 13
REMARK H PARENT
REMARK Flexibility Score: inf
ROOT
ATOM      1  C   UNL     1      40.090 118.042  12.879  1.00  0.00     0.000 C 
ENDROOT
BRANCH   1   2
ATOM      2  C   UNL     1      39.247 119.326  12.878  1.00  0.00     0.000 C 
BRANCH   2   3
ATOM      3  C   UNL     1      38.135 119.253  13.932  1.00  0.00     0.006 C 
BRANCH   3   4
ATOM      4  C   UNL     1      36.812 119.783  13.373  1.00  0.00     0.053 C 
BRANCH   4   5
ATOM      5  C   UNL     1      35.950 118.653  12.908  1.00  0.00     0.041 C 
ATOM      6  O   UNL     1      34.773 118.873  12.517  1.00  0.00    -0.550 OA
ATOM      7  O   UNL     1      36.461 117.362  12.860  1.00  0.00    -0.550 OA
ENDBRANCH   4   5
ENDBRANCH   3   4
ENDBRANCH   2   3
ENDBRANCH   1   2
BRANCH   1   8
ATOM      8  C   UNL     1      40.237 117.426  11.478  1.00  0.00     0.000 C 
BRANCH   8   9
ATOM      9  C   UNL     1      41.419 118.018  10.692  1.00  0.00     0.006 C 
BRANCH   9  10
ATOM     10  C   UNL     1      42.575 117.021  10.548  1.00  0.00     0.053 C 
BRANCH  10  11
ATOM     11  C   UNL     1      42.983 116.842   9.117  1.00  0.00     0.041 C 
ATOM     12  O   UNL     1      44.107 116.349   8.836  1.00  0.00    -0.550 OA
ATOM     13  O   UNL     1      42.109 117.191   8.095  1.00  0.00    -0.550 OA
ENDBRANCH  10  11
ENDBRANCH   9  10
ENDBRANCH   8   9
ENDBRANCH   1   8
TORSDOF 8
ENDMDL
MODEL 3
REMARK VINA RESULT:    -4.431      1.413      1.750
REMARK INTER + INTRA:          -6.831
REMARK INTER:                  -6.689
REMARK INTRA:                  -0.142
REMARK UNBOUND:                -0.328
REMARK SMILES O=C([O-])CCCCCCCC(=O)[O-]
REMARK SMILES IDX 7 1 6 2 5 3 4 4 2 5 1 6 3 7 8 8 9 9 10 10 11 11 12 12 13 13
REMARK H PARENT
REMARK Flexibility Score: inf
ROOT
ATOM      1  C   UNL     1      40.449 117.622  11.937  1.00  0.00     0.000 C 
ENDROOT
BRANCH   1   2
ATOM      2  C   UNL     1      41.147 117.922  10.601  1.00  0.00     0.000 C 
BRANCH   2   3
ATOM      3  C   UNL     1      42.441 117.110  10.464  1.00  0.00     0.006 C 
BRANCH   3   4
ATOM      4  C   UNL     1      42.898 117.048   9.004  1.00  0.00     0.053 C 
BRANCH   4   5
ATOM      5  C   UNL     1      43.826 115.895   8.793  1.00  0.00     0.041 C 
ATOM      6  O   UNL     1      43.598 114.788   9.348  1.00  0.00    -0.550 OA
ATOM      7  O   UNL     1      44.918 116.028   7.945  1.00  0.00    -0.550 OA
ENDBRANCH   4   5
ENDBRANCH   3   4
ENDBRANCH   2   3
ENDBRANCH   1   2
BRANCH   1   8
ATOM      8  C   UNL     1      39.994 118.895  12.668  1.00  0.00     0.000 C 
BRANCH   8   9
ATOM      9  C   UNL     1      38.662 118.706  13.415  1.00  0.00     0.006 C 
BRANCH   9  10
ATOM     10  C   UNL     1      37.891 120.023  13.566  1.00  0.00     0.053 C 
BRANCH  10  11
ATOM     11  C   UNL     1      36.426 119.791  13.778  1.00  0.00     0.041 C 
ATOM     12  O   UNL     1      35.682 119.510  12.802  1.00  0.00    -0.550 OA
ATOM     13  O   UNL     1      35.889 119.856  15.057  1.00  0.00    -0.550 OA
ENDBRANCH  10  11
ENDBRANCH   9  10
ENDBRANCH   8   9
ENDBRANCH   1   8
TORSDOF 8
ENDMDL
MODEL 4
REMARK VINA RESULT:    -4.417      1.831      7.349
REMARK INTER + INTRA:          -6.811
REMARK INTER:                  -6.645
REMARK INTRA:                  -0.166
REMARK UNBOUND:                -0.328
REMARK SMILES O=C([O-])CCCCCCCC(=O)[O-]
REMARK SMILES IDX 7 1 6 2 5 3 4 4 2 5 1 6 3 7 8 8 9 9 10 10 11 11 12 12 13 13
REMARK H PARENT
REMARK Flexibility Score: inf
ROOT
ATOM      1  C   UNL     1      39.626 117.609  12.279  1.00  0.00     0.000 C 
ENDROOT
BRANCH   1   2
ATOM      2  C   UNL     1      39.658 118.840  13.197  1.00  0.00     0.000 C 
BRANCH   2   3
ATOM      3  C   UNL     1      38.323 119.009  13.935  1.00  0.00     0.006 C 
BRANCH   3   4
ATOM      4  C   UNL     1      37.669 120.349  13.587  1.00  0.00     0.053 C 
BRANCH   4   5
ATOM      5  C   UNL     1      36.876 120.861  14.747  1.00  0.00     0.041 C 
ATOM      6  O   UNL     1      36.186 120.069  15.442  1.00  0.00    -0.550 OA
ATOM      7  O   UNL     1      36.936 122.206  15.091  1.00  0.00    -0.550 OA
ENDBRANCH   4   5
ENDBRANCH   3   4
ENDBRANCH   2   3
ENDBRANCH   1   2
BRANCH   1   8
ATOM      8  C   UNL     1      41.031 117.081  11.944  1.00  0.00     0.000 C 
BRANCH   8   9
ATOM      9  C   UNL     1      41.539 117.576  10.579  1.00  0.00     0.006 C 
BRANCH   9  10
ATOM     10  C   UNL     1      42.957 117.076  10.275  1.00  0.00     0.053 C 
BRANCH  10  11
ATOM     11  C   UNL     1      43.137 116.759   8.821  1.00  0.00     0.041 C 
ATOM     12  O   UNL     1      42.191 116.940   8.012  1.00  0.00    -0.550 OA
ATOM     13  O   UNL     1      44.361 116.293   8.357  1.00  0.00    -0.550 OA
ENDBRANCH  10  11
ENDBRANCH   9  10
ENDBRANCH   8   9
ENDBRANCH   1   8
TORSDOF 8
ENDMDL
MODEL 5
REMARK VINA RESULT:    -4.376      1.409      7.442
REMARK INTER + INTRA:          -6.751
REMARK INTER:                  -6.604
REMARK INTRA:                  -0.146
REMARK UNBOUND:                -0.328
REMARK SMILES O=C([O-])CCCCCCCC(=O)[O-]
REMARK SMILES IDX 7 1 6 2 5 3 4 4 2 5 1 6 3 7 8 8 9 9 10 10 11 11 12 12 13 13
REMARK H PARENT
REMARK Flexibility Score: inf
ROOT
ATOM      1  C   UNL     1      40.239 117.675  11.949  1.00  0.00     0.000 C 
ENDROOT
BRANCH   1   2
ATOM      2  C   UNL     1      39.960 118.997  12.682  1.00  0.00     0.000 C 
BRANCH   2   3
ATOM      3  C   UNL     1      38.716 118.879  13.571  1.00  0.00     0.006 C 
BRANCH   3   4
ATOM      4  C   UNL     1      37.839 120.129  13.457  1.00  0.00     0.053 C 
BRANCH   4   5
ATOM      5  C   UNL     1      36.408 119.792  13.728  1.00  0.00     0.041 C 
ATOM      6  O   UNL     1      35.641 119.473  12.782  1.00  0.00    -0.550 OA
ATOM      7  O   UNL     1      35.931 119.782  15.033  1.00  0.00    -0.550 OA
ENDBRANCH   4   5
ENDBRANCH   3   4
ENDBRANCH   2   3
ENDBRANCH   1   2
BRANCH   1   8
ATOM      8  C   UNL     1      41.142 117.857  10.719  1.00  0.00     0.000 C 
BRANCH   8   9
ATOM      9  C   UNL     1      42.369 116.929  10.743  1.00  0.00     0.006 C 
BRANCH   9  10
ATOM     10  C   UNL     1      43.234 117.082   9.486  1.00  0.00     0.053 C 
BRANCH  10  11
ATOM     11  C   UNL     1      43.896 115.793   9.103  1.00  0.00     0.041 C 
ATOM     12  O   UNL     1      44.693 115.755   8.130  1.00  0.00    -0.550 OA
ATOM     13  O   UNL     1      43.655 114.641   9.841  1.00  0.00    -0.550 OA
ENDBRANCH  10  11
ENDBRANCH   9  10
ENDBRANCH   8   9
ENDBRANCH   1   8
TORSDOF 8
ENDMDL
MODEL 6
REMARK VINA RESULT:    -4.299      2.601      4.183
REMARK INTER + INTRA:          -6.637
REMARK INTER:                  -6.234
REMARK INTRA:                  -0.403
REMARK UNBOUND:                -0.328
REMARK SMILES O=C([O-])CCCCCCCC(=O)[O-]
REMARK SMILES IDX 7 1 6 2 5 3 4 4 2 5 1 6 3 7 8 8 9 9 10 10 11 11 12 12 13 13
REMARK H PARENT
REMARK Flexibility Score: inf
ROOT
ATOM      1  C   UNL     1      42.328 117.489   9.881  1.00  0.00     0.000 C 
ENDROOT
BRANCH   1   2
ATOM      2  C   UNL     1      42.798 116.759   8.613  1.00  0.00     0.000 C 
BRANCH   2   3
ATOM      3  C   UNL     1      44.223 116.220   8.788  1.00  0.00     0.006 C 
BRANCH   3   4
ATOM      4  C   UNL     1      44.279 114.716   8.505  1.00  0.00     0.053 C 
BRANCH   4   5
ATOM      5  C   UNL     1      45.206 114.037   9.462  1.00  0.00     0.041 C 
ATOM      6  O   UNL     1      45.280 114.427  10.657  1.00  0.00    -0.550 OA
ATOM      7  O   UNL     1      45.952 112.940   9.049  1.00  0.00    -0.550 OA
ENDBRANCH   4   5
ENDBRANCH   3   4
ENDBRANCH   2   3
ENDBRANCH   1   2
BRANCH   1   8
ATOM      8  C   UNL     1      42.631 116.702  11.166  1.00  0.00     0.000 C 
BRANCH   8   9
ATOM      9  C   UNL     1      41.437 116.668  12.136  1.00  0.00     0.006 C 
BRANCH   9  10
ATOM     10  C   UNL     1      40.328 117.643  11.722  1.00  0.00     0.053 C 
BRANCH  10  11
ATOM     11  C   UNL     1      39.554 118.143  12.903  1.00  0.00     0.041 C 
ATOM     12  O   UNL     1      39.304 119.371  13.023  1.00  0.00    -0.550 OA
ATOM     13  O   UNL     1      39.082 117.248  13.855  1.00  0.00    -0.550 OA
ENDBRANCH  10  11
ENDBRANCH   9  10
ENDBRANCH   8   9
ENDBRANCH   1   8
TORSDOF 8
ENDMDL
MODEL 7
REMARK VINA RESULT:    -4.291      2.626      7.819
REMARK INTER + INTRA:          -6.626
REMARK INTER:                  -6.268
REMARK INTRA:                  -0.358
REMARK UNBOUND:                -0.328
REMARK SMILES O=C([O-])CCCCCCCC(=O)[O-]
REMARK SMILES IDX 7 1 6 2 5 3 4 4 2 5 1 6 3 7 8 8 9 9 10 10 11 11 12 12 13 13
REMARK H PARENT
REMARK Flexibility Score: inf
ROOT
ATOM      1  C   UNL     1      42.327 117.435   9.816  1.00  0.00     0.000 C 
ENDROOT
BRANCH   1   2
ATOM      2  C   UNL     1      42.744 116.759  11.131  1.00  0.00     0.000 C 
BRANCH   2   3
ATOM      3  C   UNL     1      41.583 116.744  12.133  1.00  0.00     0.006 C 
BRANCH   3   4
ATOM      4  C   UNL     1      40.374 117.507  11.583  1.00  0.00     0.053 C 
BRANCH   4   5
ATOM      5  C   UNL     1      39.492 117.967  12.700  1.00  0.00     0.041 C 
ATOM      6  O   UNL     1      39.907 118.825  13.523  1.00  0.00    -0.550 OA
ATOM      7  O   UNL     1      38.194 117.484  12.805  1.00  0.00    -0.550 OA
ENDBRANCH   4   5
ENDBRANCH   3   4
ENDBRANCH   2   3
ENDBRANCH   1   2
BRANCH   1   8
ATOM      8  C   UNL     1      42.940 116.758   8.580  1.00  0.00     0.000 C 
BRANCH   8   9
ATOM      9  C   UNL     1      43.479 115.349   8.882  1.00  0.00     0.006 C 
BRANCH   9  10
ATOM     10  C   UNL     1      44.846 115.101   8.232  1.00  0.00     0.053 C 
BRANCH  10  11
ATOM     11  C   UNL     1      45.278 113.673   8.368  1.00  0.00     0.041 C 
ATOM     12  O   UNL     1      45.638 113.224   9.488  1.00  0.00    -0.550 OA
ATOM     13  O   UNL     1      45.255 112.830   7.264  1.00  0.00    -0.550 OA
ENDBRANCH  10  11
ENDBRANCH   9  10
ENDBRANCH   8   9
ENDBRANCH   1   8
TORSDOF 8
ENDMDL
MODEL 8
REMARK VINA RESULT:    -4.264      5.169      8.037
REMARK INTER + INTRA:          -6.586
REMARK INTER:                  -6.249
REMARK INTRA:                  -0.337
REMARK UNBOUND:                -0.328
REMARK SMILES O=C([O-])CCCCCCCC(=O)[O-]
REMARK SMILES IDX 7 1 6 2 5 3 4 4 2 5 1 6 3 7 8 8 9 9 10 10 11 11 12 12 13 13
REMARK H PARENT
REMARK Flexibility Score: inf
ROOT
ATOM      1  C   UNL     1      45.531 113.541   8.552  1.00  0.00     0.000 C 
ENDROOT
BRANCH   1   2
ATOM      2  C   UNL     1      45.379 112.692   7.281  1.00  0.00     0.000 C 
BRANCH   2   3
ATOM      3  C   UNL     1      46.642 112.770   6.414  1.00  0.00     0.006 C 
BRANCH   3   4
ATOM      4  C   UNL     1      46.636 114.032   5.547  1.00  0.00     0.053 C 
BRANCH   4   5
ATOM      5  C   UNL     1      47.963 114.220   4.884  1.00  0.00     0.041 C 
ATOM      6  O   UNL     1      49.018 113.848   5.462  1.00  0.00    -0.550 OA
ATOM      7  O   UNL     1      48.032 114.761   3.606  1.00  0.00    -0.550 OA
ENDBRANCH   4   5
ENDBRANCH   3   4
ENDBRANCH   2   3
ENDBRANCH   1   2
BRANCH   1   8
ATOM      8  C   UNL     1      44.298 114.414   8.834  1.00  0.00     0.000 C 
BRANCH   8   9
ATOM      9  C   UNL     1      44.599 115.918   8.721  1.00  0.00     0.006 C 
BRANCH   9  10
ATOM     10  C   UNL     1      43.864 116.737   9.789  1.00  0.00     0.053 C 
BRANCH  10  11
ATOM     11  C   UNL     1      42.562 117.278   9.282  1.00  0.00     0.041 C 
ATOM     12  O   UNL     1      41.819 117.955  10.039  1.00  0.00    -0.550 OA
ATOM     13  O   UNL     1      42.183 117.058   7.964  1.00  0.00    -0.550 OA
ENDBRANCH  10  11
ENDBRANCH   9  10
ENDBRANCH   8   9
ENDBRANCH   1   8
TORSDOF 8
ENDMDL
MODEL 9
REMARK VINA RESULT:    -4.193      3.381      5.492
REMARK INTER + INTRA:          -6.481
REMARK INTER:                  -6.099
REMARK INTRA:                  -0.382
REMARK UNBOUND:                -0.328
REMARK SMILES O=C([O-])CCCCCCCC(=O)[O-]
REMARK SMILES IDX 7 1 6 2 5 3 4 4 2 5 1 6 3 7 8 8 9 9 10 10 11 11 12 12 13 13
REMARK H PARENT
REMARK Flexibility Score: inf
ROOT
ATOM      1  C   UNL     1      43.419 115.836   8.483  1.00  0.00     0.000 C 
ENDROOT
BRANCH   1   2
ATOM      2  C   UNL     1      44.623 115.534   9.387  1.00  0.00     0.000 C 
BRANCH   2   3
ATOM      3  C   UNL     1      44.767 114.025   9.624  1.00  0.00     0.006 C 
BRANCH   3   4
ATOM      4  C   UNL     1      44.221 113.630  10.999  1.00  0.00     0.053 C 
BRANCH   4   5
ATOM      5  C   UNL     1      45.321 113.110  11.870  1.00  0.00     0.041 C 
ATOM      6  O   UNL     1      45.817 113.840  12.767  1.00  0.00    -0.550 OA
ATOM      7  O   UNL     1      45.763 111.801  11.723  1.00  0.00    -0.550 OA
ENDBRANCH   4   5
ENDBRANCH   3   4
ENDBRANCH   2   3
ENDBRANCH   1   2
BRANCH   1   8
ATOM      8  C   UNL     1      42.685 117.126   8.883  1.00  0.00     0.000 C 
BRANCH   8   9
ATOM      9  C   UNL     1      42.500 117.255  10.405  1.00  0.00     0.006 C 
BRANCH   9  10
ATOM     10  C   UNL     1      41.169 117.921  10.772  1.00  0.00     0.053 C 
BRANCH  10  11
ATOM     11  C   UNL     1      40.474 117.204  11.889  1.00  0.00     0.041 C 
ATOM     12  O   UNL     1      39.222 117.268  12.001  1.00  0.00    -0.550 OA
ATOM     13  O   UNL     1      41.207 116.441  12.789  1.00  0.00    -0.550 OA
ENDBRANCH  10  11
ENDBRANCH   9  10
ENDBRANCH   8   9
ENDBRANCH   1   8
TORSDOF 8
ENDMDL
