MODEL 1
REMARK VINA RESULT:    -6.716      0.000      0.000
REMARK INTER + INTRA:          -7.263
REMARK INTER:                  -7.305
REMARK INTRA:                   0.041
REMARK UNBOUND:                 0.041
REMARK SMILES C[C@H]1[C@H](C)CC[C@]2(C(=O)[O-])CC[C@]3(C)C(=CC[C@H]4[C@@]5(C)CC[C@@H](O)C(C)(C)[C@H]5CC[C@@]43C)[C@@H]12
REMARK SMILES IDX 7 1 6 2 11 3 33 4 5 5 12 6 15 7 2 8 3 9 13 10 16 11 1 12
REMARK SMILES IDX 4 13 14 14 31 15 17 16 18 17 30 18 32 19 19 20 29 21 28 22
REMARK SMILES IDX 21 23 20 24 25 25 22 26 23 27 26 28 27 29 8 30 9 31 10 32
REMARK SMILES IDX 24 33
REMARK H PARENT 24 34
REMARK Flexibility Score: inf
ROOT
ATOM      1  C   UNL     1     -16.880  53.588  19.141  1.00  0.00     0.017 C 
ATOM      2  C   UNL     1     -17.684  52.352  19.651  1.00  0.00     0.014 C 
ATOM      3  C   UNL     1     -15.764  53.132  18.135  1.00  0.00     0.014 C 
ATOM      4  C   UNL     1     -16.252  54.260  20.407  1.00  0.00     0.030 C 
ATOM      5  C   UNL     1     -18.730  52.707  20.736  1.00  0.00     0.004 C 
ATOM      6  C   UNL     1     -14.370  53.005  18.773  1.00  0.00     0.013 C 
ATOM      7  C   UNL     1     -15.032  55.106  20.045  1.00  0.00    -0.063 C 
ATOM      8  C   UNL     1     -17.307  54.750  21.456  1.00  0.00    -0.003 C 
ATOM      9  C   UNL     1     -18.166  53.531  21.928  1.00  0.00    -0.011 C 
ATOM     10  C   UNL     1     -13.826  54.357  19.401  1.00  0.00    -0.006 C 
ATOM     11  C   UNL     1     -15.015  56.443  20.213  1.00  0.00    -0.027 C 
ATOM     12  C   UNL     1     -18.257  55.891  21.009  1.00  0.00     0.008 C 
ATOM     13  C   UNL     1     -17.420  52.627  22.927  1.00  0.00     0.008 C 
ATOM     14  C   UNL     1     -12.962  53.901  20.620  1.00  0.00     0.017 C 
ATOM     15  C   UNL     1     -12.972  55.310  18.352  1.00  0.00    -0.020 C 
ATOM     16  C   UNL     1     -14.140  57.320  19.370  1.00  0.00     0.032 C 
ATOM     17  C   UNL     1     -13.821  56.596  18.031  1.00  0.00     0.006 C 
ATOM     18  C   UNL     1     -12.695  54.614  16.993  1.00  0.00     0.008 C 
ATOM     19  C   UNL     1     -11.563  55.669  18.949  1.00  0.00     0.012 C 
ATOM     20  C   UNL     1     -13.406  57.572  16.833  1.00  0.00    -0.025 C 
ATOM     21  C   UNL     1     -12.013  55.514  15.961  1.00  0.00     0.005 C 
ATOM     22  C   UNL     1     -12.853  56.760  15.573  1.00  0.00     0.003 C 
ATOM     23  C   UNL     1     -12.388  58.654  17.322  1.00  0.00     0.010 C 
ATOM     24  C   UNL     1     -14.726  58.318  16.403  1.00  0.00     0.012 C 
ATOM     25  C   UNL     1     -12.127  57.652  14.464  1.00  0.00    -0.006 C 
ATOM     26  C   UNL     1     -11.778  59.512  16.207  1.00  0.00     0.033 C 
ATOM     27  C   UNL     1     -11.129  58.665  15.112  1.00  0.00     0.120 C 
ATOM     28  C   UNL     1     -13.169  58.420  13.601  1.00  0.00     0.014 C 
ATOM     29  C   UNL     1     -11.344  56.784  13.435  1.00  0.00     0.014 C 
ENDROOT
BRANCH   1  30
ATOM     30  C   UNL     1     -17.787  54.535  18.364  1.00  0.00     0.048 C 
ATOM     31  O   UNL     1     -17.309  55.566  17.820  1.00  0.00    -0.550 OA
ATOM     32  O   UNL     1     -19.124  54.223  18.140  1.00  0.00    -0.550 OA
ENDBRANCH   1  30
BRANCH  27  33
ATOM     33  O   UNL     1     -10.018  57.998  15.664  1.00  0.00    -0.393 OA
ATOM     34  H   UNL     1      -9.287  58.664  15.762  1.00  0.00     0.210 HD
ENDBRANCH  27  33
TORSDOF 2
ENDMDL
MODEL 2
REMARK VINA RESULT:    -6.304      1.860      7.687
REMARK INTER + INTRA:          -6.815
REMARK INTER:                  -6.906
REMARK INTRA:                   0.091
REMARK UNBOUND:                 0.041
REMARK SMILES C[C@H]1[C@H](C)CC[C@]2(C(=O)[O-])CC[C@]3(C)C(=CC[C@H]4[C@@]5(C)CC[C@@H](O)C(C)(C)[C@H]5CC[C@@]43C)[C@@H]12
REMARK SMILES IDX 7 1 6 2 11 3 33 4 5 5 12 6 15 7 2 8 3 9 13 10 16 11 1 12
REMARK SMILES IDX 4 13 14 14 31 15 17 16 18 17 30 18 32 19 19 20 29 21 28 22
REMARK SMILES IDX 21 23 20 24 25 25 22 26 23 27 26 28 27 29 8 30 9 31 10 32
REMARK SMILES IDX 24 33
REMARK H PARENT 24 34
REMARK Flexibility Score: inf
ROOT
ATOM      1  C   UNL     1     -11.966  56.504  14.217  1.00  0.00     0.017 C 
ATOM      2  C   UNL     1     -11.321  57.074  12.917  1.00  0.00     0.014 C 
ATOM      3  C   UNL     1     -13.506  56.810  14.238  1.00  0.00     0.014 C 
ATOM      4  C   UNL     1     -11.240  57.202  15.414  1.00  0.00     0.030 C 
ATOM      5  C   UNL     1      -9.781  56.912  12.875  1.00  0.00     0.004 C 
ATOM      6  C   UNL     1     -13.881  58.039  15.082  1.00  0.00     0.013 C 
ATOM      7  C   UNL     1     -12.098  57.181  16.679  1.00  0.00    -0.063 C 
ATOM      8  C   UNL     1      -9.697  56.935  15.465  1.00  0.00    -0.003 C 
ATOM      9  C   UNL     1      -9.044  57.443  14.137  1.00  0.00    -0.011 C 
ATOM     10  C   UNL     1     -13.468  57.919  16.610  1.00  0.00    -0.006 C 
ATOM     11  C   UNL     1     -11.723  56.505  17.784  1.00  0.00    -0.027 C 
ATOM     12  C   UNL     1      -9.250  55.472  15.717  1.00  0.00     0.008 C 
ATOM     13  C   UNL     1      -8.896  58.975  14.094  1.00  0.00     0.008 C 
ATOM     14  C   UNL     1     -13.135  59.385  17.040  1.00  0.00     0.017 C 
ATOM     15  C   UNL     1     -14.614  57.228  17.582  1.00  0.00    -0.020 C 
ATOM     16  C   UNL     1     -12.738  55.991  18.759  1.00  0.00     0.032 C 
ATOM     17  C   UNL     1     -14.103  55.811  18.037  1.00  0.00     0.006 C 
ATOM     18  C   UNL     1     -15.964  56.998  16.853  1.00  0.00     0.008 C 
ATOM     19  C   UNL     1     -14.937  58.159  18.807  1.00  0.00     0.012 C 
ATOM     20  C   UNL     1     -15.094  54.772  18.743  1.00  0.00    -0.025 C 
ATOM     21  C   UNL     1     -17.003  56.250  17.691  1.00  0.00     0.005 C 
ATOM     22  C   UNL     1     -16.558  54.822  18.103  1.00  0.00     0.003 C 
ATOM     23  C   UNL     1     -15.127  54.996  20.291  1.00  0.00     0.010 C 
ATOM     24  C   UNL     1     -14.485  53.343  18.480  1.00  0.00     0.012 C 
ATOM     25  C   UNL     1     -17.684  54.060  18.940  1.00  0.00    -0.006 C 
ATOM     26  C   UNL     1     -16.194  54.185  21.034  1.00  0.00     0.033 C 
ATOM     27  C   UNL     1     -17.595  54.405  20.461  1.00  0.00     0.120 C 
ATOM     28  C   UNL     1     -17.574  52.520  18.744  1.00  0.00     0.014 C 
ATOM     29  C   UNL     1     -19.119  54.406  18.443  1.00  0.00     0.014 C 
ENDROOT
BRANCH   1  30
ATOM     30  C   UNL     1     -11.837  54.985  14.259  1.00  0.00     0.048 C 
ATOM     31  O   UNL     1     -12.242  54.343  15.264  1.00  0.00    -0.550 OA
ATOM     32  O   UNL     1     -11.385  54.274  13.153  1.00  0.00    -0.550 OA
ENDBRANCH   1  30
BRANCH  27  33
ATOM     33  O   UNL     1     -17.968  55.742  20.700  1.00  0.00    -0.393 OA
ATOM     34  H   UNL     1     -18.433  56.074  19.887  1.00  0.00     0.210 HD
ENDBRANCH  27  33
TORSDOF 2
ENDMDL
MODEL 3
REMARK VINA RESULT:    -4.103      2.693      5.100
REMARK INTER + INTRA:          -4.422
REMARK INTER:                  -4.464
REMARK INTRA:                   0.042
REMARK UNBOUND:                 0.041
REMARK SMILES C[C@H]1[C@H](C)CC[C@]2(C(=O)[O-])CC[C@]3(C)C(=CC[C@H]4[C@@]5(C)CC[C@@H](O)C(C)(C)[C@H]5CC[C@@]43C)[C@@H]12
REMARK SMILES IDX 7 1 6 2 11 3 33 4 5 5 12 6 15 7 2 8 3 9 13 10 16 11 1 12
REMARK SMILES IDX 4 13 14 14 31 15 17 16 18 17 30 18 32 19 19 20 29 21 28 22
REMARK SMILES IDX 21 23 20 24 25 25 22 26 23 27 26 28 27 29 8 30 9 31 10 32
REMARK SMILES IDX 24 33
REMARK H PARENT 24 34
REMARK Flexibility Score: inf
ROOT
ATOM      1  C   UNL     1     -13.360  56.088  19.379  1.00  0.00     0.017 C 
ATOM      2  C   UNL     1     -14.311  56.324  20.592  1.00  0.00     0.014 C 
ATOM      3  C   UNL     1     -12.345  57.279  19.246  1.00  0.00     0.014 C 
ATOM      4  C   UNL     1     -14.274  55.986  18.113  1.00  0.00     0.030 C 
ATOM      5  C   UNL     1     -15.417  55.248  20.722  1.00  0.00     0.004 C 
ATOM      6  C   UNL     1     -12.753  58.325  18.196  1.00  0.00     0.013 C 
ATOM      7  C   UNL     1     -13.499  56.309  16.836  1.00  0.00    -0.063 C 
ATOM      8  C   UNL     1     -15.310  54.813  18.169  1.00  0.00    -0.003 C 
ATOM      9  C   UNL     1     -16.231  55.001  19.420  1.00  0.00    -0.011 C 
ATOM     10  C   UNL     1     -12.891  57.740  16.726  1.00  0.00    -0.006 C 
ATOM     11  C   UNL     1     -13.293  55.387  15.874  1.00  0.00    -0.027 C 
ATOM     12  C   UNL     1     -14.734  53.374  18.181  1.00  0.00     0.008 C 
ATOM     13  C   UNL     1     -17.300  56.091  19.215  1.00  0.00     0.008 C 
ATOM     14  C   UNL     1     -14.028  58.590  16.074  1.00  0.00     0.017 C 
ATOM     15  C   UNL     1     -11.497  57.773  15.837  1.00  0.00    -0.020 C 
ATOM     16  C   UNL     1     -12.111  55.474  14.957  1.00  0.00     0.032 C 
ATOM     17  C   UNL     1     -10.985  56.297  15.644  1.00  0.00     0.006 C 
ATOM     18  C   UNL     1     -10.352  58.550  16.538  1.00  0.00     0.008 C 
ATOM     19  C   UNL     1     -11.733  58.499  14.462  1.00  0.00     0.012 C 
ATOM     20  C   UNL     1      -9.516  56.009  15.080  1.00  0.00    -0.025 C 
ATOM     21  C   UNL     1      -9.017  58.494  15.795  1.00  0.00     0.005 C 
ATOM     22  C   UNL     1      -8.449  57.057  15.643  1.00  0.00     0.003 C 
ATOM     23  C   UNL     1      -9.517  55.962  13.516  1.00  0.00     0.010 C 
ATOM     24  C   UNL     1      -9.125  54.574  15.600  1.00  0.00     0.012 C 
ATOM     25  C   UNL     1      -7.036  57.045  14.899  1.00  0.00    -0.006 C 
ATOM     26  C   UNL     1      -8.127  55.890  12.875  1.00  0.00     0.033 C 
ATOM     27  C   UNL     1      -7.210  57.020  13.346  1.00  0.00     0.120 C 
ATOM     28  C   UNL     1      -6.182  55.825  15.351  1.00  0.00     0.014 C 
ATOM     29  C   UNL     1      -6.166  58.281  15.273  1.00  0.00     0.014 C 
ENDROOT
BRANCH   1  30
ATOM     30  C   UNL     1     -12.516  54.836  19.594  1.00  0.00     0.048 C 
ATOM     31  O   UNL     1     -11.614  54.531  18.770  1.00  0.00    -0.550 OA
ATOM     32  O   UNL     1     -12.642  54.079  20.754  1.00  0.00    -0.550 OA
ENDBRANCH   1  30
BRANCH  27  33
ATOM     33  O   UNL     1      -7.730  58.240  12.875  1.00  0.00    -0.393 OA
ATOM     34  H   UNL     1      -8.350  58.591  13.568  1.00  0.00     0.210 HD
ENDBRANCH  27  33
TORSDOF 2
ENDMDL
