MODEL 1
REMARK VINA RESULT:   108.481      0.000      0.000
REMARK INTER + INTRA:         259.791
REMARK INTER:                 257.513
REMARK INTRA:                   2.278
REMARK UNBOUND:                 2.278
REMARK SMILES O=C(OC[C@@H]1O[C@@H](OC(=O)c2cc(O)c(O)c(O)c2)[C@@H](OC(=O)c2cc(O)c(O)c(O)c2)[C@H](OC(=O)c2cc(O)c(O)c(O)c2)[C@@H]1OC(=O)c1cc(O)c(O)c(O)c1)c1cc(O)c(O)c(O)c1
REMARK SMILES IDX 5 1 46 2 33 3 20 4 7 5 6 6 4 7 3 8 2 9 1 10 59 11 60 12
REMARK SMILES IDX 61 13 67 14 63 15 65 16 62 17 64 19 66 21 47 23 48 24 49 25
REMARK SMILES IDX 50 26 58 27 51 28 56 29 52 30 54 31 57 32 53 34 55 36 34 38
REMARK SMILES IDX 35 39 36 40 37 41 45 42 38 43 43 44 39 45 41 46 44 47 40 49
REMARK SMILES IDX 42 51 8 53 9 54 10 55 11 56 19 57 12 58 17 59 13 60 15 61
REMARK SMILES IDX 18 62 14 64 16 66 21 68 22 69 23 70 24 71 32 72 25 73 30 74
REMARK SMILES IDX 26 75 28 76 31 77 27 79 29 81
REMARK H PARENT 62 18 64 20 66 22 57 33 53 35 55 37 44 48 40 50 42 52 18 63
REMARK H PARENT 14 65 16 67 31 78 27 80 29 82
REMARK Flexibility Score: inf
ROOT
ATOM      1  C   UNL     1     -35.012  29.800 -16.625  1.00  0.00     0.205 C 
ATOM      2  C   UNL     1     -34.774  30.778 -17.797  1.00  0.00     0.254 C 
ATOM      3  C   UNL     1     -36.112  31.039 -18.518  1.00  0.00     0.267 C 
ATOM      4  C   UNL     1     -36.775  29.704 -18.901  1.00  0.00     0.290 C 
ATOM      5  C   UNL     1     -36.843  28.774 -17.676  1.00  0.00     0.357 C 
ATOM      6  O   UNL     1     -35.560  28.580 -17.101  1.00  0.00    -0.329 OA
ENDROOT
BRANCH   1   7
ATOM      7  C   UNL     1     -33.703  29.507 -15.874  1.00  0.00     0.269 C 
BRANCH   7   8
ATOM      8  O   UNL     1     -33.063  28.350 -16.410  1.00  0.00    -0.459 OA
BRANCH   8   9
ATOM      9  C   UNL     1     -31.685  28.245 -16.630  1.00  0.00     0.338 C 
ATOM     10  O   UNL     1     -31.113  29.010 -17.453  1.00  0.00    -0.246 OA
BRANCH   9  11
ATOM     11  C   UNL     1     -30.896  27.255 -15.865  1.00  0.00     0.067 A 
ATOM     12  C   UNL     1     -31.129  27.074 -14.495  1.00  0.00     0.066 A 
ATOM     13  C   UNL     1     -30.380  26.155 -13.757  1.00  0.00     0.162 A 
ATOM     14  C   UNL     1     -29.903  26.489 -16.494  1.00  0.00     0.066 A 
ATOM     15  C   UNL     1     -29.377  25.396 -14.386  1.00  0.00     0.200 A 
ATOM     16  C   UNL     1     -29.143  25.562 -15.774  1.00  0.00     0.162 A 
BRANCH  13  17
ATOM     17  O   UNL     1     -30.635  26.020 -12.391  1.00  0.00    -0.504 OA
ATOM     18  H   UNL     1     -30.839  26.815 -11.796  1.00  0.00     0.293 HD
ENDBRANCH  13  17
BRANCH  15  19
ATOM     19  O   UNL     1     -28.635  24.501 -13.608  1.00  0.00    -0.502 OA
ATOM     20  H   UNL     1     -27.800  24.034 -13.925  1.00  0.00     0.293 HD
ENDBRANCH  15  19
BRANCH  16  21
ATOM     21  O   UNL     1     -28.181  24.827 -16.472  1.00  0.00    -0.504 OA
ATOM     22  H   UNL     1     -27.698  24.026 -16.100  1.00  0.00     0.293 HD
ENDBRANCH  16  21
ENDBRANCH   9  11
ENDBRANCH   8   9
ENDBRANCH   7   8
ENDBRANCH   1   7
BRANCH   2  23
ATOM     23  O   UNL     1     -33.836  30.207 -18.709  1.00  0.00    -0.452 OA
BRANCH  23  24
ATOM     24  C   UNL     1     -32.489  30.590 -18.790  1.00  0.00     0.338 C 
ATOM     25  O   UNL     1     -31.710  30.010 -19.596  1.00  0.00    -0.246 OA
BRANCH  24  26
ATOM     26  C   UNL     1     -31.989  31.679 -17.928  1.00  0.00     0.067 A 
ATOM     27  C   UNL     1     -32.139  33.024 -18.312  1.00  0.00     0.066 A 
ATOM     28  C   UNL     1     -31.365  31.381 -16.708  1.00  0.00     0.066 A 
ATOM     29  C   UNL     1     -31.674  34.054 -17.490  1.00  0.00     0.162 A 
ATOM     30  C   UNL     1     -30.890  32.405 -15.883  1.00  0.00     0.162 A 
ATOM     31  C   UNL     1     -31.041  33.748 -16.273  1.00  0.00     0.200 A 
BRANCH  29  32
ATOM     32  O   UNL     1     -31.866  35.378 -17.890  1.00  0.00    -0.504 OA
ATOM     33  H   UNL     1     -32.769  35.830 -17.825  1.00  0.00     0.293 HD
ENDBRANCH  29  32
BRANCH  30  34
ATOM     34  O   UNL     1     -30.259  32.095 -14.677  1.00  0.00    -0.504 OA
ATOM     35  H   UNL     1     -29.924  32.826 -14.056  1.00  0.00     0.293 HD
ENDBRANCH  30  34
BRANCH  31  36
ATOM     36  O   UNL     1     -30.578  34.782 -15.458  1.00  0.00    -0.502 OA
ATOM     37  H   UNL     1     -31.013  35.700 -15.449  1.00  0.00     0.293 HD
ENDBRANCH  31  36
ENDBRANCH  24  26
ENDBRANCH  23  24
ENDBRANCH   2  23
BRANCH   3  38
ATOM     38  O   UNL     1     -35.908  31.813 -19.700  1.00  0.00    -0.450 OA
BRANCH  38  39
ATOM     39  C   UNL     1     -36.925  32.200 -20.578  1.00  0.00     0.338 C 
ATOM     40  O   UNL     1     -37.937  32.816 -20.143  1.00  0.00    -0.246 OA
BRANCH  39  41
ATOM     41  C   UNL     1     -36.810  31.875 -22.019  1.00  0.00     0.067 A 
ATOM     42  C   UNL     1     -36.758  30.543 -22.463  1.00  0.00     0.066 A 
ATOM     43  C   UNL     1     -36.743  32.909 -22.966  1.00  0.00     0.066 A 
ATOM     44  C   UNL     1     -36.608  30.246 -23.826  1.00  0.00     0.162 A 
ATOM     45  C   UNL     1     -36.591  32.625 -24.326  1.00  0.00     0.162 A 
ATOM     46  C   UNL     1     -36.517  31.292 -24.761  1.00  0.00     0.200 A 
BRANCH  44  47
ATOM     47  O   UNL     1     -36.546  28.918 -24.255  1.00  0.00    -0.504 OA
ATOM     48  H   UNL     1     -35.682  28.386 -24.230  1.00  0.00     0.293 HD
ENDBRANCH  44  47
BRANCH  45  49
ATOM     49  O   UNL     1     -36.519  33.680 -25.235  1.00  0.00    -0.504 OA
ATOM     50  H   UNL     1     -37.329  34.235 -25.478  1.00  0.00     0.293 HD
ENDBRANCH  45  49
BRANCH  46  51
ATOM     51  O   UNL     1     -36.358  31.021 -26.120  1.00  0.00    -0.502 OA
ATOM     52  H   UNL     1     -35.797  30.248 -26.460  1.00  0.00     0.293 HD
ENDBRANCH  46  51
ENDBRANCH  39  41
ENDBRANCH  38  39
ENDBRANCH   3  38
BRANCH   5  53
ATOM     53  O   UNL     1     -37.760  29.281 -16.703  1.00  0.00    -0.428 OA
BRANCH  53  54
ATOM     54  C   UNL     1     -37.976  28.675 -15.458  1.00  0.00     0.340 C 
ATOM     55  O   UNL     1     -37.360  29.087 -14.438  1.00  0.00    -0.246 OA
BRANCH  54  56
ATOM     56  C   UNL     1     -38.909  27.531 -15.358  1.00  0.00     0.067 A 
ATOM     57  C   UNL     1     -38.582  26.424 -14.557  1.00  0.00     0.066 A 
ATOM     58  C   UNL     1     -40.132  27.543 -16.049  1.00  0.00     0.066 A 
ATOM     59  C   UNL     1     -39.462  25.336 -14.455  1.00  0.00     0.162 A 
ATOM     60  C   UNL     1     -41.018  26.462 -15.944  1.00  0.00     0.162 A 
ATOM     61  C   UNL     1     -40.682  25.352 -15.152  1.00  0.00     0.200 A 
BRANCH  59  62
ATOM     62  O   UNL     1     -39.130  24.240 -13.663  1.00  0.00    -0.504 OA
ATOM     63  H   UNL     1     -38.165  23.993 -13.472  1.00  0.00     0.293 HD
ENDBRANCH  59  62
BRANCH  60  64
ATOM     64  O   UNL     1     -42.224  26.496 -16.642  1.00  0.00    -0.504 OA
ATOM     65  H   UNL     1     -42.257  26.492 -17.656  1.00  0.00     0.293 HD
ENDBRANCH  60  64
BRANCH  61  66
ATOM     66  O   UNL     1     -41.570  24.277 -15.067  1.00  0.00    -0.502 OA
ATOM     67  H   UNL     1     -42.017  23.882 -15.894  1.00  0.00     0.293 HD
ENDBRANCH  61  66
ENDBRANCH  54  56
ENDBRANCH  53  54
ENDBRANCH   5  53
BRANCH   4  68
ATOM     68  O   UNL     1     -38.098  29.932 -19.397  1.00  0.00    -0.448 OA
BRANCH  68  69
ATOM     69  C   UNL     1     -38.594  29.354 -20.575  1.00  0.00     0.339 C 
ATOM     70  O   UNL     1     -37.949  28.434 -21.147  1.00  0.00    -0.246 OA
BRANCH  69  71
ATOM     71  C   UNL     1     -39.893  29.795 -21.126  1.00  0.00     0.067 A 
ATOM     72  C   UNL     1     -40.727  30.656 -20.391  1.00  0.00     0.066 A 
ATOM     73  C   UNL     1     -40.309  29.363 -22.396  1.00  0.00     0.066 A 
ATOM     74  C   UNL     1     -41.941  31.104 -20.930  1.00  0.00     0.162 A 
ATOM     75  C   UNL     1     -41.528  29.789 -22.940  1.00  0.00     0.162 A 
ATOM     76  C   UNL     1     -42.344  30.686 -22.206  1.00  0.00     0.200 A 
BRANCH  74  77
ATOM     77  O   UNL     1     -42.752  31.980 -20.207  1.00  0.00    -0.504 OA
ATOM     78  H   UNL     1     -43.727  31.779 -20.041  1.00  0.00     0.293 HD
ENDBRANCH  74  77
BRANCH  75  79
ATOM     79  O   UNL     1     -41.885  29.291 -24.196  1.00  0.00    -0.504 OA
ATOM     80  H   UNL     1     -41.632  28.376 -24.534  1.00  0.00     0.293 HD
ENDBRANCH  75  79
BRANCH  76  81
ATOM     81  O   UNL     1     -43.545  31.186 -22.715  1.00  0.00    -0.502 OA
ATOM     82  H   UNL     1     -43.919  30.927 -23.611  1.00  0.00     0.293 HD
ENDBRANCH  76  81
ENDBRANCH  69  71
ENDBRANCH  68  69
ENDBRANCH   4  68
TORSDOF 31
ENDMDL
MODEL 2
REMARK VINA RESULT:   108.643      1.460      2.776
REMARK INTER + INTRA:         260.177
REMARK INTER:                 260.944
REMARK INTRA:                  -0.767
REMARK UNBOUND:                 2.278
REMARK SMILES O=C(OC[C@@H]1O[C@@H](OC(=O)c2cc(O)c(O)c(O)c2)[C@@H](OC(=O)c2cc(O)c(O)c(O)c2)[C@H](OC(=O)c2cc(O)c(O)c(O)c2)[C@@H]1OC(=O)c1cc(O)c(O)c(O)c1)c1cc(O)c(O)c(O)c1
REMARK SMILES IDX 5 1 46 2 33 3 20 4 7 5 6 6 4 7 3 8 2 9 1 10 59 11 60 12
REMARK SMILES IDX 61 13 67 14 63 15 65 16 62 17 64 19 66 21 47 23 48 24 49 25
REMARK SMILES IDX 50 26 58 27 51 28 56 29 52 30 54 31 57 32 53 34 55 36 34 38
REMARK SMILES IDX 35 39 36 40 37 41 45 42 38 43 43 44 39 45 41 46 44 47 40 49
REMARK SMILES IDX 42 51 8 53 9 54 10 55 11 56 19 57 12 58 17 59 13 60 15 61
REMARK SMILES IDX 18 62 14 64 16 66 21 68 22 69 23 70 24 71 32 72 25 73 30 74
REMARK SMILES IDX 26 75 28 76 31 77 27 79 29 81
REMARK H PARENT 62 18 64 20 66 22 57 33 53 35 55 37 44 48 40 50 42 52 18 63
REMARK H PARENT 14 65 16 67 31 78 27 80 29 82
REMARK Flexibility Score: inf
ROOT
ATOM      1  C   UNL     1     -35.156  29.781 -16.452  1.00  0.00     0.205 C 
ATOM      2  C   UNL     1     -34.882  30.675 -17.681  1.00  0.00     0.254 C 
ATOM      3  C   UNL     1     -36.203  30.908 -18.442  1.00  0.00     0.267 C 
ATOM      4  C   UNL     1     -36.883  29.561 -18.747  1.00  0.00     0.290 C 
ATOM      5  C   UNL     1     -36.986  28.717 -17.464  1.00  0.00     0.357 C 
ATOM      6  O   UNL     1     -35.717  28.541 -16.855  1.00  0.00    -0.329 OA
ENDROOT
BRANCH   1   7
ATOM      7  C   UNL     1     -33.865  29.518 -15.660  1.00  0.00     0.269 C 
BRANCH   7   8
ATOM      8  O   UNL     1     -32.963  28.715 -16.419  1.00  0.00    -0.459 OA
BRANCH   8   9
ATOM      9  C   UNL     1     -31.569  28.827 -16.358  1.00  0.00     0.338 C 
ATOM     10  O   UNL     1     -31.011  29.938 -16.570  1.00  0.00    -0.246 OA
BRANCH   9  11
ATOM     11  C   UNL     1     -30.756  27.642 -16.008  1.00  0.00     0.067 A 
ATOM     12  C   UNL     1     -29.361  27.746 -15.915  1.00  0.00     0.066 A 
ATOM     13  C   UNL     1     -28.581  26.632 -15.603  1.00  0.00     0.162 A 
ATOM     14  C   UNL     1     -31.364  26.400 -15.772  1.00  0.00     0.066 A 
ATOM     15  C   UNL     1     -29.189  25.384 -15.377  1.00  0.00     0.200 A 
ATOM     16  C   UNL     1     -30.600  25.272 -15.455  1.00  0.00     0.162 A 
BRANCH  13  17
ATOM     17  O   UNL     1     -27.193  26.778 -15.538  1.00  0.00    -0.504 OA
ATOM     18  H   UNL     1     -26.737  27.675 -15.652  1.00  0.00     0.293 HD
ENDBRANCH  13  17
BRANCH  15  19
ATOM     19  O   UNL     1     -28.370  24.288 -15.087  1.00  0.00    -0.502 OA
ATOM     20  H   UNL     1     -27.972  23.680 -15.785  1.00  0.00     0.293 HD
ENDBRANCH  15  19
BRANCH  16  21
ATOM     21  O   UNL     1     -31.277  24.072 -15.219  1.00  0.00    -0.504 OA
ATOM     22  H   UNL     1     -31.303  23.299 -15.863  1.00  0.00     0.293 HD
ENDBRANCH  16  21
ENDBRANCH   9  11
ENDBRANCH   8   9
ENDBRANCH   7   8
ENDBRANCH   1   7
BRANCH   2  23
ATOM     23  O   UNL     1     -33.939  30.029 -18.537  1.00  0.00    -0.452 OA
BRANCH  23  24
ATOM     24  C   UNL     1     -32.683  30.562 -18.862  1.00  0.00     0.338 C 
ATOM     25  O   UNL     1     -32.278  31.621 -18.309  1.00  0.00    -0.246 OA
BRANCH  24  26
ATOM     26  C   UNL     1     -31.835  29.873 -19.856  1.00  0.00     0.067 A 
ATOM     27  C   UNL     1     -31.755  28.470 -19.880  1.00  0.00     0.066 A 
ATOM     28  C   UNL     1     -31.106  30.617 -20.795  1.00  0.00     0.066 A 
ATOM     29  C   UNL     1     -30.960  27.818 -20.827  1.00  0.00     0.162 A 
ATOM     30  C   UNL     1     -30.302  29.975 -21.741  1.00  0.00     0.162 A 
ATOM     31  C   UNL     1     -30.224  28.571 -21.759  1.00  0.00     0.200 A 
BRANCH  29  32
ATOM     32  O   UNL     1     -30.926  26.423 -20.840  1.00  0.00    -0.504 OA
ATOM     33  H   UNL     1     -30.083  25.910 -21.068  1.00  0.00     0.293 HD
ENDBRANCH  29  32
BRANCH  30  34
ATOM     34  O   UNL     1     -29.571  30.726 -22.663  1.00  0.00    -0.504 OA
ATOM     35  H   UNL     1     -29.967  30.984 -23.562  1.00  0.00     0.293 HD
ENDBRANCH  30  34
BRANCH  31  36
ATOM     36  O   UNL     1     -29.431  27.914 -22.701  1.00  0.00    -0.502 OA
ATOM     37  H   UNL     1     -29.552  28.050 -23.701  1.00  0.00     0.293 HD
ENDBRANCH  31  36
ENDBRANCH  24  26
ENDBRANCH  23  24
ENDBRANCH   2  23
BRANCH   3  38
ATOM     38  O   UNL     1     -35.967  31.598 -19.669  1.00  0.00    -0.450 OA
BRANCH  38  39
ATOM     39  C   UNL     1     -36.971  32.019 -20.547  1.00  0.00     0.338 C 
ATOM     40  O   UNL     1     -37.979  32.636 -20.107  1.00  0.00    -0.246 OA
BRANCH  39  41
ATOM     41  C   UNL     1     -36.845  31.727 -21.995  1.00  0.00     0.067 A 
ATOM     42  C   UNL     1     -36.730  30.407 -22.464  1.00  0.00     0.066 A 
ATOM     43  C   UNL     1     -36.832  32.780 -22.922  1.00  0.00     0.066 A 
ATOM     44  C   UNL     1     -36.571  30.144 -23.832  1.00  0.00     0.162 A 
ATOM     45  C   UNL     1     -36.671  32.529 -24.287  1.00  0.00     0.162 A 
ATOM     46  C   UNL     1     -36.534  31.210 -24.748  1.00  0.00     0.200 A 
BRANCH  44  47
ATOM     47  O   UNL     1     -36.446  28.828 -24.287  1.00  0.00    -0.504 OA
ATOM     48  H   UNL     1     -35.658  28.244 -24.028  1.00  0.00     0.293 HD
ENDBRANCH  44  47
BRANCH  45  49
ATOM     49  O   UNL     1     -36.655  33.604 -25.177  1.00  0.00    -0.504 OA
ATOM     50  H   UNL     1     -35.921  33.721 -25.863  1.00  0.00     0.293 HD
ENDBRANCH  45  49
BRANCH  46  51
ATOM     51  O   UNL     1     -36.368  30.972 -26.112  1.00  0.00    -0.502 OA
ATOM     52  H   UNL     1     -36.147  30.055 -26.483  1.00  0.00     0.293 HD
ENDBRANCH  46  51
ENDBRANCH  39  41
ENDBRANCH  38  39
ENDBRANCH   3  38
BRANCH   5  53
ATOM     53  O   UNL     1     -37.910  29.301 -16.543  1.00  0.00    -0.428 OA
BRANCH  53  54
ATOM     54  C   UNL     1     -38.239  28.725 -15.310  1.00  0.00     0.340 C 
ATOM     55  O   UNL     1     -37.786  29.217 -14.240  1.00  0.00    -0.246 OA
BRANCH  54  56
ATOM     56  C   UNL     1     -39.095  27.519 -15.274  1.00  0.00     0.067 A 
ATOM     57  C   UNL     1     -38.722  26.412 -14.493  1.00  0.00     0.066 A 
ATOM     58  C   UNL     1     -40.292  27.470 -16.008  1.00  0.00     0.066 A 
ATOM     59  C   UNL     1     -39.529  25.266 -14.452  1.00  0.00     0.162 A 
ATOM     60  C   UNL     1     -41.106  26.331 -15.965  1.00  0.00     0.162 A 
ATOM     61  C   UNL     1     -40.723  25.222 -15.193  1.00  0.00     0.200 A 
BRANCH  59  62
ATOM     62  O   UNL     1     -39.152  24.171 -13.680  1.00  0.00    -0.504 OA
ATOM     63  H   UNL     1     -38.268  24.149 -13.183  1.00  0.00     0.293 HD
ENDBRANCH  59  62
BRANCH  60  64
ATOM     64  O   UNL     1     -42.288  26.304 -16.705  1.00  0.00    -0.504 OA
ATOM     65  H   UNL     1     -43.099  25.778 -16.401  1.00  0.00     0.293 HD
ENDBRANCH  60  64
BRANCH  61  66
ATOM     66  O   UNL     1     -41.540  24.089 -15.169  1.00  0.00    -0.502 OA
ATOM     67  H   UNL     1     -41.645  23.519 -14.330  1.00  0.00     0.293 HD
ENDBRANCH  61  66
ENDBRANCH  54  56
ENDBRANCH  53  54
ENDBRANCH   5  53
BRANCH   4  68
ATOM     68  O   UNL     1     -38.193  29.776 -19.280  1.00  0.00    -0.448 OA
BRANCH  68  69
ATOM     69  C   UNL     1     -38.606  29.304 -20.535  1.00  0.00     0.339 C 
ATOM     70  O   UNL     1     -37.897  28.470 -21.161  1.00  0.00    -0.246 OA
BRANCH  69  71
ATOM     71  C   UNL     1     -39.893  29.753 -21.108  1.00  0.00     0.067 A 
ATOM     72  C   UNL     1     -40.732  30.622 -20.389  1.00  0.00     0.066 A 
ATOM     73  C   UNL     1     -40.292  29.319 -22.383  1.00  0.00     0.066 A 
ATOM     74  C   UNL     1     -41.934  31.077 -20.949  1.00  0.00     0.162 A 
ATOM     75  C   UNL     1     -41.498  29.753 -22.948  1.00  0.00     0.162 A 
ATOM     76  C   UNL     1     -42.320  30.658 -22.230  1.00  0.00     0.200 A 
BRANCH  74  77
ATOM     77  O   UNL     1     -42.750  31.961 -20.242  1.00  0.00    -0.504 OA
ATOM     78  H   UNL     1     -43.514  31.631 -19.671  1.00  0.00     0.293 HD
ENDBRANCH  74  77
BRANCH  75  79
ATOM     79  O   UNL     1     -41.840  29.253 -24.208  1.00  0.00    -0.504 OA
ATOM     80  H   UNL     1     -41.716  28.293 -24.487  1.00  0.00     0.293 HD
ENDBRANCH  75  79
BRANCH  76  81
ATOM     81  O   UNL     1     -43.509  31.165 -22.759  1.00  0.00    -0.502 OA
ATOM     82  H   UNL     1     -44.247  30.586 -23.119  1.00  0.00     0.293 HD
ENDBRANCH  76  81
ENDBRANCH  69  71
ENDBRANCH  68  69
ENDBRANCH   4  68
TORSDOF 31
ENDMDL
MODEL 3
REMARK VINA RESULT:   108.856      2.555      6.571
REMARK INTER + INTRA:         260.682
REMARK INTER:                 262.575
REMARK INTRA:                  -1.893
REMARK UNBOUND:                 2.278
REMARK SMILES O=C(OC[C@@H]1O[C@@H](OC(=O)c2cc(O)c(O)c(O)c2)[C@@H](OC(=O)c2cc(O)c(O)c(O)c2)[C@H](OC(=O)c2cc(O)c(O)c(O)c2)[C@@H]1OC(=O)c1cc(O)c(O)c(O)c1)c1cc(O)c(O)c(O)c1
REMARK SMILES IDX 5 1 46 2 33 3 20 4 7 5 6 6 4 7 3 8 2 9 1 10 59 11 60 12
REMARK SMILES IDX 61 13 67 14 63 15 65 16 62 17 64 19 66 21 47 23 48 24 49 25
REMARK SMILES IDX 50 26 58 27 51 28 56 29 52 30 54 31 57 32 53 34 55 36 34 38
REMARK SMILES IDX 35 39 36 40 37 41 45 42 38 43 43 44 39 45 41 46 44 47 40 49
REMARK SMILES IDX 42 51 8 53 9 54 10 55 11 56 19 57 12 58 17 59 13 60 15 61
REMARK SMILES IDX 18 62 14 64 16 66 21 68 22 69 23 70 24 71 32 72 25 73 30 74
REMARK SMILES IDX 26 75 28 76 31 77 27 79 29 81
REMARK H PARENT 62 18 64 20 66 22 57 33 53 35 55 37 44 48 40 50 42 52 18 63
REMARK H PARENT 14 65 16 67 31 78 27 80 29 82
REMARK Flexibility Score: inf
ROOT
ATOM      1  C   UNL     1     -36.342  29.500 -17.164  1.00  0.00     0.205 C 
ATOM      2  C   UNL     1     -37.357  29.745 -18.303  1.00  0.00     0.254 C 
ATOM      3  C   UNL     1     -38.785  29.520 -17.764  1.00  0.00     0.267 C 
ATOM      4  C   UNL     1     -38.882  28.144 -17.082  1.00  0.00     0.290 C 
ATOM      5  C   UNL     1     -37.744  27.977 -16.059  1.00  0.00     0.357 C 
ATOM      6  O   UNL     1     -36.474  28.180 -16.658  1.00  0.00    -0.329 OA
ENDROOT
BRANCH   1   7
ATOM      7  C   UNL     1     -34.900  29.712 -17.654  1.00  0.00     0.269 C 
BRANCH   7   8
ATOM      8  O   UNL     1     -33.965  29.313 -16.654  1.00  0.00    -0.459 OA
BRANCH   8   9
ATOM      9  C   UNL     1     -32.577  29.296 -16.837  1.00  0.00     0.338 C 
ATOM     10  O   UNL     1     -32.028  30.138 -17.598  1.00  0.00    -0.246 OA
BRANCH   9  11
ATOM     11  C   UNL     1     -31.755  28.307 -16.107  1.00  0.00     0.067 A 
ATOM     12  C   UNL     1     -31.782  28.265 -14.706  1.00  0.00     0.066 A 
ATOM     13  C   UNL     1     -30.998  27.347 -14.004  1.00  0.00     0.162 A 
ATOM     14  C   UNL     1     -30.935  27.404 -16.800  1.00  0.00     0.066 A 
ATOM     15  C   UNL     1     -30.168  26.450 -14.698  1.00  0.00     0.200 A 
ATOM     16  C   UNL     1     -30.144  26.476 -16.115  1.00  0.00     0.162 A 
BRANCH  13  17
ATOM     17  O   UNL     1     -31.044  27.353 -12.608  1.00  0.00    -0.504 OA
ATOM     18  H   UNL     1     -30.586  28.067 -12.053  1.00  0.00     0.293 HD
ENDBRANCH  13  17
BRANCH  15  19
ATOM     19  O   UNL     1     -29.383  25.561 -13.957  1.00  0.00    -0.502 OA
ATOM     20  H   UNL     1     -29.727  24.703 -13.556  1.00  0.00     0.293 HD
ENDBRANCH  15  19
BRANCH  16  21
ATOM     21  O   UNL     1     -29.364  25.600 -16.875  1.00  0.00    -0.504 OA
ATOM     22  H   UNL     1     -28.777  24.880 -16.487  1.00  0.00     0.293 HD
ENDBRANCH  16  21
ENDBRANCH   9  11
ENDBRANCH   8   9
ENDBRANCH   7   8
ENDBRANCH   1   7
BRANCH   2  23
ATOM     23  O   UNL     1     -37.096  28.840 -19.375  1.00  0.00    -0.452 OA
BRANCH  23  24
ATOM     24  C   UNL     1     -37.654  28.961 -20.656  1.00  0.00     0.338 C 
ATOM     25  O   UNL     1     -37.666  30.078 -21.243  1.00  0.00    -0.246 OA
BRANCH  24  26
ATOM     26  C   UNL     1     -38.226  27.770 -21.316  1.00  0.00     0.067 A 
ATOM     27  C   UNL     1     -37.647  26.502 -21.134  1.00  0.00     0.066 A 
ATOM     28  C   UNL     1     -39.363  27.893 -22.128  1.00  0.00     0.066 A 
ATOM     29  C   UNL     1     -38.195  25.374 -21.752  1.00  0.00     0.162 A 
ATOM     30  C   UNL     1     -39.914  26.773 -22.756  1.00  0.00     0.162 A 
ATOM     31  C   UNL     1     -39.330  25.507 -22.571  1.00  0.00     0.200 A 
BRANCH  29  32
ATOM     32  O   UNL     1     -37.611  24.127 -21.526  1.00  0.00    -0.504 OA
ATOM     33  H   UNL     1     -36.911  23.743 -22.149  1.00  0.00     0.293 HD
ENDBRANCH  29  32
BRANCH  30  34
ATOM     34  O   UNL     1     -41.039  26.910 -23.571  1.00  0.00    -0.504 OA
ATOM     35  H   UNL     1     -41.806  26.247 -23.523  1.00  0.00     0.293 HD
ENDBRANCH  30  34
BRANCH  31  36
ATOM     36  O   UNL     1     -39.871  24.377 -23.186  1.00  0.00    -0.502 OA
ATOM     37  H   UNL     1     -40.651  24.434 -23.835  1.00  0.00     0.293 HD
ENDBRANCH  31  36
ENDBRANCH  24  26
ENDBRANCH  23  24
ENDBRANCH   2  23
BRANCH   3  38
ATOM     38  O   UNL     1     -39.741  29.583 -18.822  1.00  0.00    -0.450 OA
BRANCH  38  39
ATOM     39  C   UNL     1     -40.071  30.747 -19.524  1.00  0.00     0.338 C 
ATOM     40  O   UNL     1     -39.428  31.813 -19.319  1.00  0.00    -0.246 OA
BRANCH  39  41
ATOM     41  C   UNL     1     -41.184  30.721 -20.501  1.00  0.00     0.067 A 
ATOM     42  C   UNL     1     -41.037  30.108 -21.757  1.00  0.00     0.066 A 
ATOM     43  C   UNL     1     -42.411  31.323 -20.180  1.00  0.00     0.066 A 
ATOM     44  C   UNL     1     -42.083  30.125 -22.691  1.00  0.00     0.162 A 
ATOM     45  C   UNL     1     -43.459  31.347 -21.103  1.00  0.00     0.162 A 
ATOM     46  C   UNL     1     -43.298  30.753 -22.365  1.00  0.00     0.200 A 
BRANCH  44  47
ATOM     47  O   UNL     1     -41.921  29.522 -23.941  1.00  0.00    -0.504 OA
ATOM     48  H   UNL     1     -41.200  28.830 -24.113  1.00  0.00     0.293 HD
ENDBRANCH  44  47
BRANCH  45  49
ATOM     49  O   UNL     1     -44.660  31.963 -20.750  1.00  0.00    -0.504 OA
ATOM     50  H   UNL     1     -45.557  31.596 -21.041  1.00  0.00     0.293 HD
ENDBRANCH  45  49
BRANCH  46  51
ATOM     51  O   UNL     1     -44.349  30.789 -23.281  1.00  0.00    -0.502 OA
ATOM     52  H   UNL     1     -45.318  30.882 -22.995  1.00  0.00     0.293 HD
ENDBRANCH  46  51
ENDBRANCH  39  41
ENDBRANCH  38  39
ENDBRANCH   3  38
BRANCH   5  53
ATOM     53  O   UNL     1     -37.925  28.860 -14.949  1.00  0.00    -0.428 OA
BRANCH  53  54
ATOM     54  C   UNL     1     -38.694  28.537 -13.824  1.00  0.00     0.340 C 
ATOM     55  O   UNL     1     -39.187  29.452 -13.109  1.00  0.00    -0.246 OA
BRANCH  54  56
ATOM     56  C   UNL     1     -38.898  27.115 -13.465  1.00  0.00     0.067 A 
ATOM     57  C   UNL     1     -38.352  26.101 -14.268  1.00  0.00     0.066 A 
ATOM     58  C   UNL     1     -39.627  26.766 -12.316  1.00  0.00     0.066 A 
ATOM     59  C   UNL     1     -38.538  24.752 -13.935  1.00  0.00     0.162 A 
ATOM     60  C   UNL     1     -39.809  25.420 -11.973  1.00  0.00     0.162 A 
ATOM     61  C   UNL     1     -39.272  24.408 -12.786  1.00  0.00     0.200 A 
BRANCH  59  62
ATOM     62  O   UNL     1     -37.998  23.751 -14.738  1.00  0.00    -0.504 OA
ATOM     63  H   UNL     1     -37.558  22.929 -14.340  1.00  0.00     0.293 HD
ENDBRANCH  59  62
BRANCH  60  64
ATOM     64  O   UNL     1     -40.539  25.097 -10.830  1.00  0.00    -0.504 OA
ATOM     65  H   UNL     1     -40.328  25.505  -9.926  1.00  0.00     0.293 HD
ENDBRANCH  60  64
BRANCH  61  66
ATOM     66  O   UNL     1     -39.473  23.070 -12.437  1.00  0.00    -0.502 OA
ATOM     67  H   UNL     1     -40.161  22.488 -12.913  1.00  0.00     0.293 HD
ENDBRANCH  61  66
ENDBRANCH  54  56
ENDBRANCH  53  54
ENDBRANCH   5  53
BRANCH   4  68
ATOM     68  O   UNL     1     -40.142  28.007 -16.417  1.00  0.00    -0.448 OA
BRANCH  68  69
ATOM     69  C   UNL     1     -41.231  27.307 -16.957  1.00  0.00     0.339 C 
ATOM     70  O   UNL     1     -41.875  27.791 -17.926  1.00  0.00    -0.246 OA
BRANCH  69  71
ATOM     71  C   UNL     1     -41.600  25.981 -16.416  1.00  0.00     0.067 A 
ATOM     72  C   UNL     1     -41.941  25.831 -15.060  1.00  0.00     0.066 A 
ATOM     73  C   UNL     1     -41.619  24.854 -17.253  1.00  0.00     0.066 A 
ATOM     74  C   UNL     1     -42.327  24.581 -14.557  1.00  0.00     0.162 A 
ATOM     75  C   UNL     1     -41.987  23.595 -16.760  1.00  0.00     0.162 A 
ATOM     76  C   UNL     1     -42.364  23.461 -15.400  1.00  0.00     0.200 A 
BRANCH  74  77
ATOM     77  O   UNL     1     -42.690  24.443 -13.217  1.00  0.00    -0.504 OA
ATOM     78  H   UNL     1     -42.529  23.584 -12.714  1.00  0.00     0.293 HD
ENDBRANCH  74  77
BRANCH  75  79
ATOM     79  O   UNL     1     -41.952  22.516 -17.648  1.00  0.00    -0.504 OA
ATOM     80  H   UNL     1     -42.214  21.575 -17.404  1.00  0.00     0.293 HD
ENDBRANCH  75  79
BRANCH  76  81
ATOM     81  O   UNL     1     -42.788  22.245 -14.861  1.00  0.00    -0.502 OA
ATOM     82  H   UNL     1     -43.403  21.610 -15.340  1.00  0.00     0.293 HD
ENDBRANCH  76  81
ENDBRANCH  69  71
ENDBRANCH  68  69
ENDBRANCH   4  68
TORSDOF 31
ENDMDL
MODEL 4
REMARK VINA RESULT:   109.184      2.569      6.495
REMARK INTER + INTRA:         261.460
REMARK INTER:                 263.234
REMARK INTRA:                  -1.774
REMARK UNBOUND:                 2.278
REMARK SMILES O=C(OC[C@@H]1O[C@@H](OC(=O)c2cc(O)c(O)c(O)c2)[C@@H](OC(=O)c2cc(O)c(O)c(O)c2)[C@H](OC(=O)c2cc(O)c(O)c(O)c2)[C@@H]1OC(=O)c1cc(O)c(O)c(O)c1)c1cc(O)c(O)c(O)c1
REMARK SMILES IDX 5 1 46 2 33 3 20 4 7 5 6 6 4 7 3 8 2 9 1 10 59 11 60 12
REMARK SMILES IDX 61 13 67 14 63 15 65 16 62 17 64 19 66 21 47 23 48 24 49 25
REMARK SMILES IDX 50 26 58 27 51 28 56 29 52 30 54 31 57 32 53 34 55 36 34 38
REMARK SMILES IDX 35 39 36 40 37 41 45 42 38 43 43 44 39 45 41 46 44 47 40 49
REMARK SMILES IDX 42 51 8 53 9 54 10 55 11 56 19 57 12 58 17 59 13 60 15 61
REMARK SMILES IDX 18 62 14 64 16 66 21 68 22 69 23 70 24 71 32 72 25 73 30 74
REMARK SMILES IDX 26 75 28 76 31 77 27 79 29 81
REMARK H PARENT 62 18 64 20 66 22 57 33 53 35 55 37 44 48 40 50 42 52 18 63
REMARK H PARENT 14 65 16 67 31 78 27 80 29 82
REMARK Flexibility Score: inf
ROOT
ATOM      1  C   UNL     1     -36.289  29.446 -17.077  1.00  0.00     0.205 C 
ATOM      2  C   UNL     1     -37.289  29.720 -18.221  1.00  0.00     0.254 C 
ATOM      3  C   UNL     1     -38.725  29.503 -17.700  1.00  0.00     0.267 C 
ATOM      4  C   UNL     1     -38.844  28.117 -17.041  1.00  0.00     0.290 C 
ATOM      5  C   UNL     1     -37.719  27.922 -16.009  1.00  0.00     0.357 C 
ATOM      6  O   UNL     1     -36.441  28.120 -16.592  1.00  0.00    -0.329 OA
ENDROOT
BRANCH   1   7
ATOM      7  C   UNL     1     -34.839  29.649 -17.549  1.00  0.00     0.269 C 
BRANCH   7   8
ATOM      8  O   UNL     1     -33.919  29.161 -16.574  1.00  0.00    -0.459 OA
BRANCH   8   9
ATOM      9  C   UNL     1     -32.528  29.196 -16.720  1.00  0.00     0.338 C 
ATOM     10  O   UNL     1     -31.986  30.096 -17.417  1.00  0.00    -0.246 OA
BRANCH   9  11
ATOM     11  C   UNL     1     -31.694  28.192 -16.023  1.00  0.00     0.067 A 
ATOM     12  C   UNL     1     -31.733  28.090 -14.626  1.00  0.00     0.066 A 
ATOM     13  C   UNL     1     -30.939  27.158 -13.955  1.00  0.00     0.162 A 
ATOM     14  C   UNL     1     -30.850  27.336 -16.746  1.00  0.00     0.066 A 
ATOM     15  C   UNL     1     -30.085  26.307 -14.678  1.00  0.00     0.200 A 
ATOM     16  C   UNL     1     -30.049  26.394 -16.093  1.00  0.00     0.162 A 
BRANCH  13  17
ATOM     17  O   UNL     1     -30.998  27.104 -12.561  1.00  0.00    -0.504 OA
ATOM     18  H   UNL     1     -31.776  27.485 -12.035  1.00  0.00     0.293 HD
ENDBRANCH  13  17
BRANCH  15  19
ATOM     19  O   UNL     1     -29.290  25.402 -13.968  1.00  0.00    -0.502 OA
ATOM     20  H   UNL     1     -28.519  25.671 -13.376  1.00  0.00     0.293 HD
ENDBRANCH  15  19
BRANCH  16  21
ATOM     21  O   UNL     1     -29.244  25.566 -16.881  1.00  0.00    -0.504 OA
ATOM     22  H   UNL     1     -29.180  24.567 -16.773  1.00  0.00     0.293 HD
ENDBRANCH  16  21
ENDBRANCH   9  11
ENDBRANCH   8   9
ENDBRANCH   7   8
ENDBRANCH   1   7
BRANCH   2  23
ATOM     23  O   UNL     1     -37.028  28.829 -19.305  1.00  0.00    -0.452 OA
BRANCH  23  24
ATOM     24  C   UNL     1     -37.590  28.962 -20.582  1.00  0.00     0.338 C 
ATOM     25  O   UNL     1     -37.596  30.084 -21.161  1.00  0.00    -0.246 OA
BRANCH  24  26
ATOM     26  C   UNL     1     -38.172  27.780 -21.249  1.00  0.00     0.067 A 
ATOM     27  C   UNL     1     -39.301  27.907 -22.078  1.00  0.00     0.066 A 
ATOM     28  C   UNL     1     -37.594  26.515 -21.069  1.00  0.00     0.066 A 
ATOM     29  C   UNL     1     -39.845  26.789 -22.716  1.00  0.00     0.162 A 
ATOM     30  C   UNL     1     -38.135  25.390 -21.697  1.00  0.00     0.162 A 
ATOM     31  C   UNL     1     -39.266  25.523 -22.523  1.00  0.00     0.200 A 
BRANCH  29  32
ATOM     32  O   UNL     1     -40.948  26.957 -23.553  1.00  0.00    -0.504 OA
ATOM     33  H   UNL     1     -41.580  26.195 -23.765  1.00  0.00     0.293 HD
ENDBRANCH  29  32
BRANCH  30  34
ATOM     34  O   UNL     1     -37.559  24.134 -21.501  1.00  0.00    -0.504 OA
ATOM     35  H   UNL     1     -36.660  24.034 -21.041  1.00  0.00     0.293 HD
ENDBRANCH  30  34
BRANCH  31  36
ATOM     36  O   UNL     1     -39.815  24.410 -23.163  1.00  0.00    -0.502 OA
ATOM     37  H   UNL     1     -40.571  23.869 -22.754  1.00  0.00     0.293 HD
ENDBRANCH  31  36
ENDBRANCH  24  26
ENDBRANCH  23  24
ENDBRANCH   2  23
BRANCH   3  38
ATOM     38  O   UNL     1     -39.670  29.593 -18.767  1.00  0.00    -0.450 OA
BRANCH  38  39
ATOM     39  C   UNL     1     -39.971  30.770 -19.461  1.00  0.00     0.338 C 
ATOM     40  O   UNL     1     -39.297  31.816 -19.255  1.00  0.00    -0.246 OA
BRANCH  39  41
ATOM     41  C   UNL     1     -41.092  30.779 -20.430  1.00  0.00     0.067 A 
ATOM     42  C   UNL     1     -42.324  31.378 -20.113  1.00  0.00     0.066 A 
ATOM     43  C   UNL     1     -40.934  30.176 -21.687  1.00  0.00     0.066 A 
ATOM     44  C   UNL     1     -43.391  31.345 -21.022  1.00  0.00     0.162 A 
ATOM     45  C   UNL     1     -41.992  30.137 -22.599  1.00  0.00     0.162 A 
ATOM     46  C   UNL     1     -43.227  30.717 -22.268  1.00  0.00     0.200 A 
BRANCH  44  47
ATOM     47  O   UNL     1     -44.615  31.934 -20.692  1.00  0.00    -0.504 OA
ATOM     48  H   UNL     1     -45.218  31.549 -19.972  1.00  0.00     0.293 HD
ENDBRANCH  44  47
BRANCH  45  49
ATOM     49  O   UNL     1     -41.798  29.521 -23.836  1.00  0.00    -0.504 OA
ATOM     50  H   UNL     1     -42.386  29.723 -24.634  1.00  0.00     0.293 HD
ENDBRANCH  45  49
BRANCH  46  51
ATOM     51  O   UNL     1     -44.277  30.665 -23.184  1.00  0.00    -0.502 OA
ATOM     52  H   UNL     1     -44.138  30.785 -24.182  1.00  0.00     0.293 HD
ENDBRANCH  46  51
ENDBRANCH  39  41
ENDBRANCH  38  39
ENDBRANCH   3  38
BRANCH   5  53
ATOM     53  O   UNL     1     -37.901  28.789 -14.887  1.00  0.00    -0.428 OA
BRANCH  53  54
ATOM     54  C   UNL     1     -38.704  28.467 -13.786  1.00  0.00     0.340 C 
ATOM     55  O   UNL     1     -39.224  29.383 -13.092  1.00  0.00    -0.246 OA
BRANCH  54  56
ATOM     56  C   UNL     1     -38.913  27.046 -13.428  1.00  0.00     0.067 A 
ATOM     57  C   UNL     1     -38.351  26.031 -14.218  1.00  0.00     0.066 A 
ATOM     58  C   UNL     1     -39.662  26.699 -12.291  1.00  0.00     0.066 A 
ATOM     59  C   UNL     1     -38.541  24.682 -13.885  1.00  0.00     0.162 A 
ATOM     60  C   UNL     1     -39.849  25.353 -11.949  1.00  0.00     0.162 A 
ATOM     61  C   UNL     1     -39.296  24.340 -12.749  1.00  0.00     0.200 A 
BRANCH  59  62
ATOM     62  O   UNL     1     -37.985  23.680 -14.675  1.00  0.00    -0.504 OA
ATOM     63  H   UNL     1     -37.029  23.732 -15.006  1.00  0.00     0.293 HD
ENDBRANCH  59  62
BRANCH  60  64
ATOM     64  O   UNL     1     -40.599  25.032 -10.818  1.00  0.00    -0.504 OA
ATOM     65  H   UNL     1     -41.345  25.631 -10.482  1.00  0.00     0.293 HD
ENDBRANCH  60  64
BRANCH  61  66
ATOM     66  O   UNL     1     -39.501  23.003 -12.401  1.00  0.00    -0.502 OA
ATOM     67  H   UNL     1     -39.248  22.239 -13.027  1.00  0.00     0.293 HD
ENDBRANCH  61  66
ENDBRANCH  54  56
ENDBRANCH  53  54
ENDBRANCH   5  53
BRANCH   4  68
ATOM     68  O   UNL     1     -40.112  27.985 -16.391  1.00  0.00    -0.448 OA
BRANCH  68  69
ATOM     69  C   UNL     1     -41.198  27.290 -16.945  1.00  0.00     0.339 C 
ATOM     70  O   UNL     1     -41.829  27.780 -17.920  1.00  0.00    -0.246 OA
BRANCH  69  71
ATOM     71  C   UNL     1     -41.579  25.965 -16.412  1.00  0.00     0.067 A 
ATOM     72  C   UNL     1     -41.936  25.813 -15.060  1.00  0.00     0.066 A 
ATOM     73  C   UNL     1     -41.594  24.840 -17.252  1.00  0.00     0.066 A 
ATOM     74  C   UNL     1     -42.333  24.564 -14.564  1.00  0.00     0.162 A 
ATOM     75  C   UNL     1     -41.974  23.582 -16.765  1.00  0.00     0.162 A 
ATOM     76  C   UNL     1     -42.367  23.446 -15.410  1.00  0.00     0.200 A 
BRANCH  74  77
ATOM     77  O   UNL     1     -42.712  24.424 -13.229  1.00  0.00    -0.504 OA
ATOM     78  H   UNL     1     -42.524  23.577 -12.714  1.00  0.00     0.293 HD
ENDBRANCH  74  77
BRANCH  75  79
ATOM     79  O   UNL     1     -41.934  22.505 -17.656  1.00  0.00    -0.504 OA
ATOM     80  H   UNL     1     -41.722  21.557 -17.388  1.00  0.00     0.293 HD
ENDBRANCH  75  79
BRANCH  76  81
ATOM     81  O   UNL     1     -42.802  22.230 -14.879  1.00  0.00    -0.502 OA
ATOM     82  H   UNL     1     -42.649  21.343 -15.326  1.00  0.00     0.293 HD
ENDBRANCH  76  81
ENDBRANCH  69  71
ENDBRANCH  68  69
ENDBRANCH   4  68
TORSDOF 31
ENDMDL
MODEL 5
REMARK VINA RESULT:   109.566      2.559      9.093
REMARK INTER + INTRA:         262.368
REMARK INTER:                 264.283
REMARK INTRA:                  -1.915
REMARK UNBOUND:                 2.278
REMARK SMILES O=C(OC[C@@H]1O[C@@H](OC(=O)c2cc(O)c(O)c(O)c2)[C@@H](OC(=O)c2cc(O)c(O)c(O)c2)[C@H](OC(=O)c2cc(O)c(O)c(O)c2)[C@@H]1OC(=O)c1cc(O)c(O)c(O)c1)c1cc(O)c(O)c(O)c1
REMARK SMILES IDX 5 1 46 2 33 3 20 4 7 5 6 6 4 7 3 8 2 9 1 10 59 11 60 12
REMARK SMILES IDX 61 13 67 14 63 15 65 16 62 17 64 19 66 21 47 23 48 24 49 25
REMARK SMILES IDX 50 26 58 27 51 28 56 29 52 30 54 31 57 32 53 34 55 36 34 38
REMARK SMILES IDX 35 39 36 40 37 41 45 42 38 43 43 44 39 45 41 46 44 47 40 49
REMARK SMILES IDX 42 51 8 53 9 54 10 55 11 56 19 57 12 58 17 59 13 60 15 61
REMARK SMILES IDX 18 62 14 64 16 66 21 68 22 69 23 70 24 71 32 72 25 73 30 74
REMARK SMILES IDX 26 75 28 76 31 77 27 79 29 81
REMARK H PARENT 62 18 64 20 66 22 57 33 53 35 55 37 44 48 40 50 42 52 18 63
REMARK H PARENT 14 65 16 67 31 78 27 80 29 82
REMARK Flexibility Score: inf
ROOT
ATOM      1  C   UNL     1     -38.441  29.822 -19.040  1.00  0.00     0.205 C 
ATOM      2  C   UNL     1     -38.997  28.980 -20.209  1.00  0.00     0.254 C 
ATOM      3  C   UNL     1     -37.873  28.736 -21.236  1.00  0.00     0.267 C 
ATOM      4  C   UNL     1     -37.226  30.074 -21.639  1.00  0.00     0.290 C 
ATOM      5  C   UNL     1     -36.827  30.869 -20.383  1.00  0.00     0.357 C 
ATOM      6  O   UNL     1     -37.935  31.060 -19.517  1.00  0.00    -0.329 OA
ENDROOT
BRANCH   1   7
ATOM      7  C   UNL     1     -39.529  30.093 -17.987  1.00  0.00     0.269 C 
BRANCH   7   8
ATOM      8  O   UNL     1     -39.980  28.872 -17.403  1.00  0.00    -0.459 OA
BRANCH   8   9
ATOM      9  C   UNL     1     -40.133  28.670 -16.026  1.00  0.00     0.338 C 
ATOM     10  O   UNL     1     -40.205  29.656 -15.244  1.00  0.00    -0.246 OA
BRANCH   9  11
ATOM     11  C   UNL     1     -40.245  27.293 -15.498  1.00  0.00     0.067 A 
ATOM     12  C   UNL     1     -39.189  26.729 -14.770  1.00  0.00     0.066 A 
ATOM     13  C   UNL     1     -39.274  25.424 -14.281  1.00  0.00     0.162 A 
ATOM     14  C   UNL     1     -41.401  26.531 -15.722  1.00  0.00     0.066 A 
ATOM     15  C   UNL     1     -40.429  24.656 -14.515  1.00  0.00     0.200 A 
ATOM     16  C   UNL     1     -41.508  25.223 -15.239  1.00  0.00     0.162 A 
BRANCH  13  17
ATOM     17  O   UNL     1     -38.191  24.897 -13.576  1.00  0.00    -0.504 OA
ATOM     18  H   UNL     1     -37.257  25.285 -13.645  1.00  0.00     0.293 HD
ENDBRANCH  13  17
BRANCH  15  19
ATOM     19  O   UNL     1     -40.467  23.346 -14.026  1.00  0.00    -0.502 OA
ATOM     20  H   UNL     1     -40.704  23.104 -13.077  1.00  0.00     0.293 HD
ENDBRANCH  15  19
BRANCH  16  21
ATOM     21  O   UNL     1     -42.696  24.531 -15.490  1.00  0.00    -0.504 OA
ATOM     22  H   UNL     1     -43.497  24.536 -14.880  1.00  0.00     0.293 HD
ENDBRANCH  16  21
ENDBRANCH   9  11
ENDBRANCH   8   9
ENDBRANCH   7   8
ENDBRANCH   1   7
BRANCH   2  23
ATOM     23  O   UNL     1     -40.075  29.681 -20.829  1.00  0.00    -0.452 OA
BRANCH  23  24
ATOM     24  C   UNL     1     -41.213  29.057 -21.360  1.00  0.00     0.338 C 
ATOM     25  O   UNL     1     -41.257  27.800 -21.470  1.00  0.00    -0.246 OA
BRANCH  24  26
ATOM     26  C   UNL     1     -42.362  29.880 -21.787  1.00  0.00     0.067 A 
ATOM     27  C   UNL     1     -42.950  30.804 -20.905  1.00  0.00     0.066 A 
ATOM     28  C   UNL     1     -42.875  29.752 -23.086  1.00  0.00     0.066 A 
ATOM     29  C   UNL     1     -44.031  31.589 -21.314  1.00  0.00     0.162 A 
ATOM     30  C   UNL     1     -43.961  30.528 -23.501  1.00  0.00     0.162 A 
ATOM     31  C   UNL     1     -44.545  31.450 -22.615  1.00  0.00     0.200 A 
BRANCH  29  32
ATOM     32  O   UNL     1     -44.570  32.517 -20.421  1.00  0.00    -0.504 OA
ATOM     33  H   UNL     1     -44.997  32.233 -19.548  1.00  0.00     0.293 HD
ENDBRANCH  29  32
BRANCH  30  34
ATOM     34  O   UNL     1     -44.470  30.384 -24.793  1.00  0.00    -0.504 OA
ATOM     35  H   UNL     1     -43.912  29.975 -25.536  1.00  0.00     0.293 HD
ENDBRANCH  30  34
BRANCH  31  36
ATOM     36  O   UNL     1     -45.626  32.237 -23.015  1.00  0.00    -0.502 OA
ATOM     37  H   UNL     1     -46.106  32.087 -23.898  1.00  0.00     0.293 HD
ENDBRANCH  31  36
ENDBRANCH  24  26
ENDBRANCH  23  24
ENDBRANCH   2  23
BRANCH   3  38
ATOM     38  O   UNL     1     -38.384  28.096 -22.405  1.00  0.00    -0.450 OA
BRANCH  38  39
ATOM     39  C   UNL     1     -38.940  26.813 -22.427  1.00  0.00     0.338 C 
ATOM     40  O   UNL     1     -39.923  26.562 -23.177  1.00  0.00    -0.246 OA
BRANCH  39  41
ATOM     41  C   UNL     1     -38.372  25.755 -21.559  1.00  0.00     0.067 A 
ATOM     42  C   UNL     1     -39.202  24.842 -20.886  1.00  0.00     0.066 A 
ATOM     43  C   UNL     1     -36.982  25.660 -21.391  1.00  0.00     0.066 A 
ATOM     44  C   UNL     1     -38.657  23.871 -20.034  1.00  0.00     0.162 A 
ATOM     45  C   UNL     1     -36.429  24.698 -20.542  1.00  0.00     0.162 A 
ATOM     46  C   UNL     1     -37.264  23.802 -19.856  1.00  0.00     0.200 A 
BRANCH  44  47
ATOM     47  O   UNL     1     -39.492  22.974 -19.361  1.00  0.00    -0.504 OA
ATOM     48  H   UNL     1     -39.151  22.087 -19.007  1.00  0.00     0.293 HD
ENDBRANCH  44  47
BRANCH  45  49
ATOM     49  O   UNL     1     -35.042  24.640 -20.395  1.00  0.00    -0.504 OA
ATOM     50  H   UNL     1     -34.510  25.414 -20.020  1.00  0.00     0.293 HD
ENDBRANCH  45  49
BRANCH  46  51
ATOM     51  O   UNL     1     -36.700  22.850 -19.007  1.00  0.00    -0.502 OA
ATOM     52  H   UNL     1     -36.929  22.795 -18.020  1.00  0.00     0.293 HD
ENDBRANCH  46  51
ENDBRANCH  39  41
ENDBRANCH  38  39
ENDBRANCH   3  38
BRANCH   5  53
ATOM     53  O   UNL     1     -35.752  30.228 -19.694  1.00  0.00    -0.428 OA
BRANCH  53  54
ATOM     54  C   UNL     1     -34.983  30.858 -18.707  1.00  0.00     0.340 C 
ATOM     55  O   UNL     1     -35.364  31.952 -18.209  1.00  0.00    -0.246 OA
BRANCH  54  56
ATOM     56  C   UNL     1     -33.707  30.244 -18.276  1.00  0.00     0.067 A 
ATOM     57  C   UNL     1     -32.621  30.180 -19.165  1.00  0.00     0.066 A 
ATOM     58  C   UNL     1     -33.563  29.733 -16.976  1.00  0.00     0.066 A 
ATOM     59  C   UNL     1     -31.407  29.603 -18.764  1.00  0.00     0.162 A 
ATOM     60  C   UNL     1     -32.350  29.163 -16.567  1.00  0.00     0.162 A 
ATOM     61  C   UNL     1     -31.271  29.089 -17.463  1.00  0.00     0.200 A 
BRANCH  59  62
ATOM     62  O   UNL     1     -30.336  29.537 -19.652  1.00  0.00    -0.504 OA
ATOM     63  H   UNL     1     -29.651  28.792 -19.605  1.00  0.00     0.293 HD
ENDBRANCH  59  62
BRANCH  60  64
ATOM     64  O   UNL     1     -32.232  28.659 -15.272  1.00  0.00    -0.504 OA
ATOM     65  H   UNL     1     -33.044  28.459 -14.699  1.00  0.00     0.293 HD
ENDBRANCH  60  64
BRANCH  61  66
ATOM     66  O   UNL     1     -30.072  28.506 -17.045  1.00  0.00    -0.502 OA
ATOM     67  H   UNL     1     -29.175  28.769 -17.452  1.00  0.00     0.293 HD
ENDBRANCH  61  66
ENDBRANCH  54  56
ENDBRANCH  53  54
ENDBRANCH   5  53
BRANCH   4  68
ATOM     68  O   UNL     1     -36.064  29.840 -22.441  1.00  0.00    -0.448 OA
BRANCH  68  69
ATOM     69  C   UNL     1     -36.033  30.025 -23.832  1.00  0.00     0.339 C 
ATOM     70  O   UNL     1     -35.491  29.160 -24.571  1.00  0.00    -0.246 OA
BRANCH  69  71
ATOM     71  C   UNL     1     -36.670  31.215 -24.435  1.00  0.00     0.067 A 
ATOM     72  C   UNL     1     -38.070  31.346 -24.450  1.00  0.00     0.066 A 
ATOM     73  C   UNL     1     -35.883  32.233 -24.997  1.00  0.00     0.066 A 
ATOM     74  C   UNL     1     -38.673  32.492 -24.988  1.00  0.00     0.162 A 
ATOM     75  C   UNL     1     -36.473  33.376 -25.554  1.00  0.00     0.162 A 
ATOM     76  C   UNL     1     -37.883  33.516 -25.531  1.00  0.00     0.200 A 
BRANCH  74  77
ATOM     77  O   UNL     1     -40.061  32.630 -24.977  1.00  0.00    -0.504 OA
ATOM     78  H   UNL     1     -40.552  33.076 -25.736  1.00  0.00     0.293 HD
ENDBRANCH  74  77
BRANCH  75  79
ATOM     79  O   UNL     1     -35.624  34.331 -26.121  1.00  0.00    -0.504 OA
ATOM     80  H   UNL     1     -34.662  34.157 -26.365  1.00  0.00     0.293 HD
ENDBRANCH  75  79
BRANCH  76  81
ATOM     81  O   UNL     1     -38.527  34.653 -26.024  1.00  0.00    -0.502 OA
ATOM     82  H   UNL     1     -39.384  34.621 -26.548  1.00  0.00     0.293 HD
ENDBRANCH  76  81
ENDBRANCH  69  71
ENDBRANCH  68  69
ENDBRANCH   4  68
TORSDOF 31
ENDMDL
MODEL 6
REMARK VINA RESULT:   109.713      2.778      6.743
REMARK INTER + INTRA:         262.715
REMARK INTER:                 265.400
REMARK INTRA:                  -2.685
REMARK UNBOUND:                 2.278
REMARK SMILES O=C(OC[C@@H]1O[C@@H](OC(=O)c2cc(O)c(O)c(O)c2)[C@@H](OC(=O)c2cc(O)c(O)c(O)c2)[C@H](OC(=O)c2cc(O)c(O)c(O)c2)[C@@H]1OC(=O)c1cc(O)c(O)c(O)c1)c1cc(O)c(O)c(O)c1
REMARK SMILES IDX 5 1 46 2 33 3 20 4 7 5 6 6 4 7 3 8 2 9 1 10 59 11 60 12
REMARK SMILES IDX 61 13 67 14 63 15 65 16 62 17 64 19 66 21 47 23 48 24 49 25
REMARK SMILES IDX 50 26 58 27 51 28 56 29 52 30 54 31 57 32 53 34 55 36 34 38
REMARK SMILES IDX 35 39 36 40 37 41 45 42 38 43 43 44 39 45 41 46 44 47 40 49
REMARK SMILES IDX 42 51 8 53 9 54 10 55 11 56 19 57 12 58 17 59 13 60 15 61
REMARK SMILES IDX 18 62 14 64 16 66 21 68 22 69 23 70 24 71 32 72 25 73 30 74
REMARK SMILES IDX 26 75 28 76 31 77 27 79 29 81
REMARK H PARENT 62 18 64 20 66 22 57 33 53 35 55 37 44 48 40 50 42 52 18 63
REMARK H PARENT 14 65 16 67 31 78 27 80 29 82
REMARK Flexibility Score: inf
ROOT
ATOM      1  C   UNL     1     -36.634  29.379 -16.662  1.00  0.00     0.205 C 
ATOM      2  C   UNL     1     -37.488  29.645 -17.921  1.00  0.00     0.254 C 
ATOM      3  C   UNL     1     -38.978  29.449 -17.572  1.00  0.00     0.267 C 
ATOM      4  C   UNL     1     -39.189  28.074 -16.913  1.00  0.00     0.290 C 
ATOM      5  C   UNL     1     -38.197  27.884 -15.752  1.00  0.00     0.357 C 
ATOM      6  O   UNL     1     -36.856  28.061 -16.181  1.00  0.00    -0.329 OA
ENDROOT
BRANCH   1   7
ATOM      7  C   UNL     1     -35.136  29.561 -16.961  1.00  0.00     0.269 C 
BRANCH   7   8
ATOM      8  O   UNL     1     -34.354  28.659 -16.181  1.00  0.00    -0.459 OA
BRANCH   8   9
ATOM      9  C   UNL     1     -33.278  29.047 -15.374  1.00  0.00     0.338 C 
ATOM     10  O   UNL     1     -33.462  29.836 -14.408  1.00  0.00    -0.246 OA
BRANCH   9  11
ATOM     11  C   UNL     1     -31.930  28.500 -15.640  1.00  0.00     0.067 A 
ATOM     12  C   UNL     1     -31.551  27.264 -15.099  1.00  0.00     0.066 A 
ATOM     13  C   UNL     1     -30.275  26.745 -15.329  1.00  0.00     0.162 A 
ATOM     14  C   UNL     1     -31.012  29.210 -16.429  1.00  0.00     0.066 A 
ATOM     15  C   UNL     1     -29.351  27.461 -16.110  1.00  0.00     0.200 A 
ATOM     16  C   UNL     1     -29.730  28.705 -16.673  1.00  0.00     0.162 A 
BRANCH  13  17
ATOM     17  O   UNL     1     -29.935  25.517 -14.756  1.00  0.00    -0.504 OA
ATOM     18  H   UNL     1     -28.976  25.260 -14.554  1.00  0.00     0.293 HD
ENDBRANCH  13  17
BRANCH  15  19
ATOM     19  O   UNL     1     -28.077  26.916 -16.299  1.00  0.00    -0.502 OA
ATOM     20  H   UNL     1     -27.862  26.203 -16.979  1.00  0.00     0.293 HD
ENDBRANCH  15  19
BRANCH  16  21
ATOM     21  O   UNL     1     -28.875  29.462 -17.479  1.00  0.00    -0.504 OA
ATOM     22  H   UNL     1     -28.665  29.250 -18.441  1.00  0.00     0.293 HD
ENDBRANCH  16  21
ENDBRANCH   9  11
ENDBRANCH   8   9
ENDBRANCH   7   8
ENDBRANCH   1   7
BRANCH   2  23
ATOM     23  O   UNL     1     -37.109  28.735 -18.954  1.00  0.00    -0.452 OA
BRANCH  23  24
ATOM     24  C   UNL     1     -37.461  28.890 -20.302  1.00  0.00     0.338 C 
ATOM     25  O   UNL     1     -37.290  29.998 -20.882  1.00  0.00    -0.246 OA
BRANCH  24  26
ATOM     26  C   UNL     1     -38.030  27.746 -21.043  1.00  0.00     0.067 A 
ATOM     27  C   UNL     1     -37.480  26.459 -20.908  1.00  0.00     0.066 A 
ATOM     28  C   UNL     1     -39.136  27.933 -21.884  1.00  0.00     0.066 A 
ATOM     29  C   UNL     1     -38.026  25.376 -21.601  1.00  0.00     0.162 A 
ATOM     30  C   UNL     1     -39.684  26.857 -22.588  1.00  0.00     0.162 A 
ATOM     31  C   UNL     1     -39.129  25.572 -22.450  1.00  0.00     0.200 A 
BRANCH  29  32
ATOM     32  O   UNL     1     -37.472  24.108 -21.421  1.00  0.00    -0.504 OA
ATOM     33  H   UNL     1     -36.530  23.887 -21.722  1.00  0.00     0.293 HD
ENDBRANCH  29  32
BRANCH  30  34
ATOM     34  O   UNL     1     -40.778  27.057 -23.432  1.00  0.00    -0.504 OA
ATOM     35  H   UNL     1     -40.847  27.884 -24.016  1.00  0.00     0.293 HD
ENDBRANCH  30  34
BRANCH  31  36
ATOM     36  O   UNL     1     -39.668  24.486 -23.141  1.00  0.00    -0.502 OA
ATOM     37  H   UNL     1     -39.166  23.609 -23.247  1.00  0.00     0.293 HD
ENDBRANCH  31  36
ENDBRANCH  24  26
ENDBRANCH  23  24
ENDBRANCH   2  23
BRANCH   3  38
ATOM     38  O   UNL     1     -39.788  29.532 -18.744  1.00  0.00    -0.450 OA
BRANCH  38  39
ATOM     39  C   UNL     1     -40.020  30.708 -19.465  1.00  0.00     0.338 C 
ATOM     40  O   UNL     1     -39.297  31.723 -19.271  1.00  0.00    -0.246 OA
BRANCH  39  41
ATOM     41  C   UNL     1     -41.126  30.755 -20.450  1.00  0.00     0.067 A 
ATOM     42  C   UNL     1     -42.340  31.399 -20.152  1.00  0.00     0.066 A 
ATOM     43  C   UNL     1     -40.973  30.142 -21.703  1.00  0.00     0.066 A 
ATOM     44  C   UNL     1     -43.395  31.402 -21.075  1.00  0.00     0.162 A 
ATOM     45  C   UNL     1     -42.019  30.138 -22.629  1.00  0.00     0.162 A 
ATOM     46  C   UNL     1     -43.237  30.763 -22.317  1.00  0.00     0.200 A 
BRANCH  44  47
ATOM     47  O   UNL     1     -44.602  32.036 -20.764  1.00  0.00    -0.504 OA
ATOM     48  H   UNL     1     -45.071  32.647 -21.425  1.00  0.00     0.293 HD
ENDBRANCH  44  47
BRANCH  45  49
ATOM     49  O   UNL     1     -41.831  29.510 -23.862  1.00  0.00    -0.504 OA
ATOM     50  H   UNL     1     -42.573  29.438 -24.545  1.00  0.00     0.293 HD
ENDBRANCH  45  49
BRANCH  46  51
ATOM     51  O   UNL     1     -44.276  30.747 -23.248  1.00  0.00    -0.502 OA
ATOM     52  H   UNL     1     -44.113  30.670 -24.246  1.00  0.00     0.293 HD
ENDBRANCH  46  51
ENDBRANCH  39  41
ENDBRANCH  38  39
ENDBRANCH   3  38
BRANCH   5  53
ATOM     53  O   UNL     1     -38.502  28.769 -14.671  1.00  0.00    -0.428 OA
BRANCH  53  54
ATOM     54  C   UNL     1     -38.767  28.332 -13.367  1.00  0.00     0.340 C 
ATOM     55  O   UNL     1     -38.769  29.155 -12.412  1.00  0.00    -0.246 OA
BRANCH  54  56
ATOM     56  C   UNL     1     -39.014  26.894 -13.118  1.00  0.00     0.067 A 
ATOM     57  C   UNL     1     -39.851  26.497 -12.062  1.00  0.00     0.066 A 
ATOM     58  C   UNL     1     -38.428  25.916 -13.937  1.00  0.00     0.066 A 
ATOM     59  C   UNL     1     -40.093  25.137 -11.819  1.00  0.00     0.162 A 
ATOM     60  C   UNL     1     -38.672  24.555 -13.705  1.00  0.00     0.162 A 
ATOM     61  C   UNL     1     -39.499  24.162 -12.640  1.00  0.00     0.200 A 
BRANCH  59  62
ATOM     62  O   UNL     1     -40.919  24.749 -10.768  1.00  0.00    -0.504 OA
ATOM     63  H   UNL     1     -40.813  25.135  -9.837  1.00  0.00     0.293 HD
ENDBRANCH  59  62
BRANCH  60  64
ATOM     64  O   UNL     1     -38.076  23.602 -14.529  1.00  0.00    -0.504 OA
ATOM     65  H   UNL     1     -38.613  22.862 -14.967  1.00  0.00     0.293 HD
ENDBRANCH  60  64
BRANCH  61  66
ATOM     66  O   UNL     1     -39.723  22.801 -12.414  1.00  0.00    -0.502 OA
ATOM     67  H   UNL     1     -39.555  22.101 -13.135  1.00  0.00     0.293 HD
ENDBRANCH  61  66
ENDBRANCH  54  56
ENDBRANCH  53  54
ENDBRANCH   5  53
BRANCH   4  68
ATOM     68  O   UNL     1     -40.527  27.963 -16.416  1.00  0.00    -0.448 OA
BRANCH  68  69
ATOM     69  C   UNL     1     -41.516  27.174 -17.023  1.00  0.00     0.339 C 
ATOM     70  O   UNL     1     -42.090  27.577 -18.071  1.00  0.00    -0.246 OA
BRANCH  69  71
ATOM     71  C   UNL     1     -41.857  25.851 -16.459  1.00  0.00     0.067 A 
ATOM     72  C   UNL     1     -41.858  24.704 -17.273  1.00  0.00     0.066 A 
ATOM     73  C   UNL     1     -42.182  25.722 -15.099  1.00  0.00     0.066 A 
ATOM     74  C   UNL     1     -42.145  23.444 -16.730  1.00  0.00     0.162 A 
ATOM     75  C   UNL     1     -42.487  24.471 -14.546  1.00  0.00     0.162 A 
ATOM     76  C   UNL     1     -42.449  23.316 -15.367  1.00  0.00     0.200 A 
BRANCH  74  77
ATOM     77  O   UNL     1     -42.118  22.306 -17.536  1.00  0.00    -0.504 OA
ATOM     78  H   UNL     1     -41.681  21.452 -17.226  1.00  0.00     0.293 HD
ENDBRANCH  74  77
BRANCH  75  79
ATOM     79  O   UNL     1     -42.828  24.429 -13.191  1.00  0.00    -0.504 OA
ATOM     80  H   UNL     1     -42.508  23.722 -12.549  1.00  0.00     0.293 HD
ENDBRANCH  75  79
BRANCH  76  81
ATOM     81  O   UNL     1     -42.694  22.036 -14.864  1.00  0.00    -0.502 OA
ATOM     82  H   UNL     1     -42.324  21.198 -15.277  1.00  0.00     0.293 HD
ENDBRANCH  76  81
ENDBRANCH  69  71
ENDBRANCH  68  69
ENDBRANCH   4  68
TORSDOF 31
ENDMDL
MODEL 7
REMARK VINA RESULT:   109.741      2.343      9.577
REMARK INTER + INTRA:         262.782
REMARK INTER:                 262.648
REMARK INTRA:                   0.134
REMARK UNBOUND:                 2.278
REMARK SMILES O=C(OC[C@@H]1O[C@@H](OC(=O)c2cc(O)c(O)c(O)c2)[C@@H](OC(=O)c2cc(O)c(O)c(O)c2)[C@H](OC(=O)c2cc(O)c(O)c(O)c2)[C@@H]1OC(=O)c1cc(O)c(O)c(O)c1)c1cc(O)c(O)c(O)c1
REMARK SMILES IDX 5 1 46 2 33 3 20 4 7 5 6 6 4 7 3 8 2 9 1 10 59 11 60 12
REMARK SMILES IDX 61 13 67 14 63 15 65 16 62 17 64 19 66 21 47 23 48 24 49 25
REMARK SMILES IDX 50 26 58 27 51 28 56 29 52 30 54 31 57 32 53 34 55 36 34 38
REMARK SMILES IDX 35 39 36 40 37 41 45 42 38 43 43 44 39 45 41 46 44 47 40 49
REMARK SMILES IDX 42 51 8 53 9 54 10 55 11 56 19 57 12 58 17 59 13 60 15 61
REMARK SMILES IDX 18 62 14 64 16 66 21 68 22 69 23 70 24 71 32 72 25 73 30 74
REMARK SMILES IDX 26 75 28 76 31 77 27 79 29 81
REMARK H PARENT 62 18 64 20 66 22 57 33 53 35 55 37 44 48 40 50 42 52 18 63
REMARK H PARENT 14 65 16 67 31 78 27 80 29 82
REMARK Flexibility Score: inf
ROOT
ATOM      1  C   UNL     1     -39.506  29.136 -18.550  1.00  0.00     0.205 C 
ATOM      2  C   UNL     1     -37.966  29.107 -18.658  1.00  0.00     0.254 C 
ATOM      3  C   UNL     1     -37.395  28.241 -17.517  1.00  0.00     0.267 C 
ATOM      4  C   UNL     1     -37.951  28.719 -16.163  1.00  0.00     0.290 C 
ATOM      5  C   UNL     1     -39.485  28.821 -16.225  1.00  0.00     0.357 C 
ATOM      6  O   UNL     1     -39.906  29.657 -17.292  1.00  0.00    -0.329 OA
ENDROOT
BRANCH   1   7
ATOM      7  C   UNL     1     -40.123  29.991 -19.670  1.00  0.00     0.269 C 
BRANCH   7   8
ATOM      8  O   UNL     1     -39.954  29.359 -20.938  1.00  0.00    -0.459 OA
BRANCH   8   9
ATOM      9  C   UNL     1     -40.954  29.275 -21.914  1.00  0.00     0.338 C 
ATOM     10  O   UNL     1     -40.985  28.295 -22.707  1.00  0.00    -0.246 OA
BRANCH   9  11
ATOM     11  C   UNL     1     -41.994  30.324 -21.986  1.00  0.00     0.067 A 
ATOM     12  C   UNL     1     -43.072  30.311 -21.091  1.00  0.00     0.066 A 
ATOM     13  C   UNL     1     -44.069  31.286 -21.159  1.00  0.00     0.162 A 
ATOM     14  C   UNL     1     -41.922  31.339 -22.952  1.00  0.00     0.066 A 
ATOM     15  C   UNL     1     -44.003  32.297 -22.134  1.00  0.00     0.200 A 
ATOM     16  C   UNL     1     -42.909  32.326 -23.036  1.00  0.00     0.162 A 
BRANCH  13  17
ATOM     17  O   UNL     1     -45.134  31.225 -20.257  1.00  0.00    -0.504 OA
ATOM     18  H   UNL     1     -45.037  31.492 -19.285  1.00  0.00     0.293 HD
ENDBRANCH  13  17
BRANCH  15  19
ATOM     19  O   UNL     1     -45.032  33.242 -22.183  1.00  0.00    -0.502 OA
ATOM     20  H   UNL     1     -46.013  33.009 -22.203  1.00  0.00     0.293 HD
ENDBRANCH  15  19
BRANCH  16  21
ATOM     21  O   UNL     1     -42.762  33.312 -24.015  1.00  0.00    -0.504 OA
ATOM     22  H   UNL     1     -43.528  33.799 -24.450  1.00  0.00     0.293 HD
ENDBRANCH  16  21
ENDBRANCH   9  11
ENDBRANCH   8   9
ENDBRANCH   7   8
ENDBRANCH   1   7
BRANCH   2  23
ATOM     23  O   UNL     1     -37.457  30.437 -18.557  1.00  0.00    -0.452 OA
BRANCH  23  24
ATOM     24  C   UNL     1     -37.067  31.212 -19.659  1.00  0.00     0.338 C 
ATOM     25  O   UNL     1     -36.724  32.416 -19.501  1.00  0.00    -0.246 OA
BRANCH  24  26
ATOM     26  C   UNL     1     -37.056  30.609 -21.006  1.00  0.00     0.067 A 
ATOM     27  C   UNL     1     -36.796  31.396 -22.142  1.00  0.00     0.066 A 
ATOM     28  C   UNL     1     -37.298  29.236 -21.165  1.00  0.00     0.066 A 
ATOM     29  C   UNL     1     -36.777  30.822 -23.416  1.00  0.00     0.162 A 
ATOM     30  C   UNL     1     -37.287  28.655 -22.436  1.00  0.00     0.162 A 
ATOM     31  C   UNL     1     -37.028  29.447 -23.569  1.00  0.00     0.200 A 
BRANCH  29  32
ATOM     32  O   UNL     1     -36.487  31.628 -24.518  1.00  0.00    -0.504 OA
ATOM     33  H   UNL     1     -36.643  31.312 -25.468  1.00  0.00     0.293 HD
ENDBRANCH  29  32
BRANCH  30  34
ATOM     34  O   UNL     1     -37.540  27.290 -22.583  1.00  0.00    -0.504 OA
ATOM     35  H   UNL     1     -37.771  26.892 -23.488  1.00  0.00     0.293 HD
ENDBRANCH  30  34
BRANCH  31  36
ATOM     36  O   UNL     1     -37.009  28.881 -24.844  1.00  0.00    -0.502 OA
ATOM     37  H   UNL     1     -36.160  28.829 -25.401  1.00  0.00     0.293 HD
ENDBRANCH  31  36
ENDBRANCH  24  26
ENDBRANCH  23  24
ENDBRANCH   2  23
BRANCH   3  38
ATOM     38  O   UNL     1     -35.970  28.316 -17.487  1.00  0.00    -0.450 OA
BRANCH  38  39
ATOM     39  C   UNL     1     -35.240  29.216 -16.703  1.00  0.00     0.338 C 
ATOM     40  O   UNL     1     -35.838  29.999 -15.916  1.00  0.00    -0.246 OA
BRANCH  39  41
ATOM     41  C   UNL     1     -33.763  29.248 -16.811  1.00  0.00     0.067 A 
ATOM     42  C   UNL     1     -33.126  29.847 -17.912  1.00  0.00     0.066 A 
ATOM     43  C   UNL     1     -32.976  28.665 -15.806  1.00  0.00     0.066 A 
ATOM     44  C   UNL     1     -31.728  29.836 -18.025  1.00  0.00     0.162 A 
ATOM     45  C   UNL     1     -31.582  28.647 -15.910  1.00  0.00     0.162 A 
ATOM     46  C   UNL     1     -30.952  29.227 -17.023  1.00  0.00     0.200 A 
BRANCH  44  47
ATOM     47  O   UNL     1     -31.105  30.425 -19.129  1.00  0.00    -0.504 OA
ATOM     48  H   UNL     1     -30.562  31.278 -19.045  1.00  0.00     0.293 HD
ENDBRANCH  44  47
BRANCH  45  49
ATOM     49  O   UNL     1     -30.834  28.050 -14.894  1.00  0.00    -0.504 OA
ATOM     50  H   UNL     1     -29.909  28.376 -14.647  1.00  0.00     0.293 HD
ENDBRANCH  45  49
BRANCH  46  51
ATOM     51  O   UNL     1     -29.561  29.196 -17.118  1.00  0.00    -0.502 OA
ATOM     52  H   UNL     1     -29.076  28.706 -17.862  1.00  0.00     0.293 HD
ENDBRANCH  46  51
ENDBRANCH  39  41
ENDBRANCH  38  39
ENDBRANCH   3  38
BRANCH   5  53
ATOM     53  O   UNL     1     -40.077  27.525 -16.336  1.00  0.00    -0.428 OA
BRANCH  53  54
ATOM     54  C   UNL     1     -41.349  27.213 -15.840  1.00  0.00     0.340 C 
ATOM     55  O   UNL     1     -42.126  28.134 -15.463  1.00  0.00    -0.246 OA
BRANCH  54  56
ATOM     56  C   UNL     1     -41.762  25.796 -15.732  1.00  0.00     0.067 A 
ATOM     57  C   UNL     1     -41.745  24.970 -16.868  1.00  0.00     0.066 A 
ATOM     58  C   UNL     1     -42.162  25.259 -14.498  1.00  0.00     0.066 A 
ATOM     59  C   UNL     1     -42.132  23.625 -16.775  1.00  0.00     0.162 A 
ATOM     60  C   UNL     1     -42.542  23.914 -14.397  1.00  0.00     0.162 A 
ATOM     61  C   UNL     1     -42.535  23.095 -15.537  1.00  0.00     0.200 A 
BRANCH  59  62
ATOM     62  O   UNL     1     -42.117  22.812 -17.906  1.00  0.00    -0.504 OA
ATOM     63  H   UNL     1     -42.538  23.108 -18.779  1.00  0.00     0.293 HD
ENDBRANCH  59  62
BRANCH  60  64
ATOM     64  O   UNL     1     -42.938  23.405 -13.160  1.00  0.00    -0.504 OA
ATOM     65  H   UNL     1     -42.265  23.114 -12.460  1.00  0.00     0.293 HD
ENDBRANCH  60  64
BRANCH  61  66
ATOM     66  O   UNL     1     -42.928  21.759 -15.423  1.00  0.00    -0.502 OA
ATOM     67  H   UNL     1     -42.321  20.993 -15.712  1.00  0.00     0.293 HD
ENDBRANCH  61  66
ENDBRANCH  54  56
ENDBRANCH  53  54
ENDBRANCH   5  53
BRANCH   4  68
ATOM     68  O   UNL     1     -37.578  27.807 -15.125  1.00  0.00    -0.448 OA
BRANCH  68  69
ATOM     69  C   UNL     1     -38.288  27.668 -13.923  1.00  0.00     0.339 C 
ATOM     70  O   UNL     1     -38.606  28.690 -13.256  1.00  0.00    -0.246 OA
BRANCH  69  71
ATOM     71  C   UNL     1     -38.701  26.327 -13.457  1.00  0.00     0.067 A 
ATOM     72  C   UNL     1     -39.665  26.188 -12.443  1.00  0.00     0.066 A 
ATOM     73  C   UNL     1     -38.138  25.174 -14.026  1.00  0.00     0.066 A 
ATOM     74  C   UNL     1     -40.084  24.915 -12.028  1.00  0.00     0.162 A 
ATOM     75  C   UNL     1     -38.535  23.896 -13.610  1.00  0.00     0.162 A 
ATOM     76  C   UNL     1     -39.534  23.765 -12.613  1.00  0.00     0.200 A 
BRANCH  74  77
ATOM     77  O   UNL     1     -41.060  24.782 -11.041  1.00  0.00    -0.504 OA
ATOM     78  H   UNL     1     -40.822  24.515 -10.098  1.00  0.00     0.293 HD
ENDBRANCH  74  77
BRANCH  75  79
ATOM     79  O   UNL     1     -37.905  22.798 -14.203  1.00  0.00    -0.504 OA
ATOM     80  H   UNL     1     -36.961  22.809 -14.554  1.00  0.00     0.293 HD
ENDBRANCH  75  79
BRANCH  76  81
ATOM     81  O   UNL     1     -40.007  22.521 -12.191  1.00  0.00    -0.502 OA
ATOM     82  H   UNL     1     -40.831  22.403 -11.627  1.00  0.00     0.293 HD
ENDBRANCH  76  81
ENDBRANCH  69  71
ENDBRANCH  68  69
ENDBRANCH   4  68
TORSDOF 31
ENDMDL
MODEL 8
REMARK VINA RESULT:   109.839      2.328      9.665
REMARK INTER + INTRA:         263.015
REMARK INTER:                 262.807
REMARK INTRA:                   0.208
REMARK UNBOUND:                 2.278
REMARK SMILES O=C(OC[C@@H]1O[C@@H](OC(=O)c2cc(O)c(O)c(O)c2)[C@@H](OC(=O)c2cc(O)c(O)c(O)c2)[C@H](OC(=O)c2cc(O)c(O)c(O)c2)[C@@H]1OC(=O)c1cc(O)c(O)c(O)c1)c1cc(O)c(O)c(O)c1
REMARK SMILES IDX 5 1 46 2 33 3 20 4 7 5 6 6 4 7 3 8 2 9 1 10 59 11 60 12
REMARK SMILES IDX 61 13 67 14 63 15 65 16 62 17 64 19 66 21 47 23 48 24 49 25
REMARK SMILES IDX 50 26 58 27 51 28 56 29 52 30 54 31 57 32 53 34 55 36 34 38
REMARK SMILES IDX 35 39 36 40 37 41 45 42 38 43 43 44 39 45 41 46 44 47 40 49
REMARK SMILES IDX 42 51 8 53 9 54 10 55 11 56 19 57 12 58 17 59 13 60 15 61
REMARK SMILES IDX 18 62 14 64 16 66 21 68 22 69 23 70 24 71 32 72 25 73 30 74
REMARK SMILES IDX 26 75 28 76 31 77 27 79 29 81
REMARK H PARENT 62 18 64 20 66 22 57 33 53 35 55 37 44 48 40 50 42 52 18 63
REMARK H PARENT 14 65 16 67 31 78 27 80 29 82
REMARK Flexibility Score: inf
ROOT
ATOM      1  C   UNL     1     -39.492  29.147 -18.586  1.00  0.00     0.205 C 
ATOM      2  C   UNL     1     -37.951  29.112 -18.689  1.00  0.00     0.254 C 
ATOM      3  C   UNL     1     -37.388  28.248 -17.543  1.00  0.00     0.267 C 
ATOM      4  C   UNL     1     -37.946  28.732 -16.192  1.00  0.00     0.290 C 
ATOM      5  C   UNL     1     -39.479  28.840 -16.260  1.00  0.00     0.357 C 
ATOM      6  O   UNL     1     -39.894  29.674 -17.330  1.00  0.00    -0.329 OA
ENDROOT
BRANCH   1   7
ATOM      7  C   UNL     1     -40.102  30.000 -19.711  1.00  0.00     0.269 C 
BRANCH   7   8
ATOM      8  O   UNL     1     -39.935  29.362 -20.975  1.00  0.00    -0.459 OA
BRANCH   8   9
ATOM      9  C   UNL     1     -40.943  29.253 -21.940  1.00  0.00     0.338 C 
ATOM     10  O   UNL     1     -40.958  28.275 -22.735  1.00  0.00    -0.246 OA
BRANCH   9  11
ATOM     11  C   UNL     1     -42.010  30.276 -22.000  1.00  0.00     0.067 A 
ATOM     12  C   UNL     1     -41.967  31.284 -22.973  1.00  0.00     0.066 A 
ATOM     13  C   UNL     1     -42.959  32.265 -23.030  1.00  0.00     0.162 A 
ATOM     14  C   UNL     1     -43.073  30.257 -21.085  1.00  0.00     0.066 A 
ATOM     15  C   UNL     1     -44.018  32.253 -22.105  1.00  0.00     0.200 A 
ATOM     16  C   UNL     1     -44.077  31.230 -21.126  1.00  0.00     0.162 A 
BRANCH  13  17
ATOM     17  O   UNL     1     -42.866  33.260 -24.005  1.00  0.00    -0.504 OA
ATOM     18  H   UNL     1     -42.484  33.082 -24.927  1.00  0.00     0.293 HD
ENDBRANCH  13  17
BRANCH  15  19
ATOM     19  O   UNL     1     -44.980  33.265 -22.182  1.00  0.00    -0.502 OA
ATOM     20  H   UNL     1     -45.069  33.901 -22.960  1.00  0.00     0.293 HD
ENDBRANCH  15  19
BRANCH  16  21
ATOM     21  O   UNL     1     -45.111  31.138 -20.190  1.00  0.00    -0.504 OA
ATOM     22  H   UNL     1     -45.000  31.306 -19.203  1.00  0.00     0.293 HD
ENDBRANCH  16  21
ENDBRANCH   9  11
ENDBRANCH   8   9
ENDBRANCH   7   8
ENDBRANCH   1   7
BRANCH   2  23
ATOM     23  O   UNL     1     -37.438  30.440 -18.591  1.00  0.00    -0.452 OA
BRANCH  23  24
ATOM     24  C   UNL     1     -37.035  31.208 -19.693  1.00  0.00     0.338 C 
ATOM     25  O   UNL     1     -36.671  32.406 -19.536  1.00  0.00    -0.246 OA
BRANCH  24  26
ATOM     26  C   UNL     1     -37.034  30.603 -21.040  1.00  0.00     0.067 A 
ATOM     27  C   UNL     1     -36.785  31.389 -22.179  1.00  0.00     0.066 A 
ATOM     28  C   UNL     1     -37.275  29.230 -21.196  1.00  0.00     0.066 A 
ATOM     29  C   UNL     1     -36.775  30.814 -23.453  1.00  0.00     0.162 A 
ATOM     30  C   UNL     1     -37.274  28.647 -22.466  1.00  0.00     0.162 A 
ATOM     31  C   UNL     1     -37.026  29.438 -23.601  1.00  0.00     0.200 A 
BRANCH  29  32
ATOM     32  O   UNL     1     -36.496  31.619 -24.558  1.00  0.00    -0.504 OA
ATOM     33  H   UNL     1     -35.546  31.838 -24.833  1.00  0.00     0.293 HD
ENDBRANCH  29  32
BRANCH  30  34
ATOM     34  O   UNL     1     -37.526  27.281 -22.609  1.00  0.00    -0.504 OA
ATOM     35  H   UNL     1     -37.693  26.690 -21.801  1.00  0.00     0.293 HD
ENDBRANCH  30  34
BRANCH  31  36
ATOM     36  O   UNL     1     -37.016  28.871 -24.876  1.00  0.00    -0.502 OA
ATOM     37  H   UNL     1     -36.864  27.877 -25.026  1.00  0.00     0.293 HD
ENDBRANCH  31  36
ENDBRANCH  24  26
ENDBRANCH  23  24
ENDBRANCH   2  23
BRANCH   3  38
ATOM     38  O   UNL     1     -35.962  28.318 -17.509  1.00  0.00    -0.450 OA
BRANCH  38  39
ATOM     39  C   UNL     1     -35.232  29.230 -16.741  1.00  0.00     0.338 C 
ATOM     40  O   UNL     1     -35.829  30.024 -15.964  1.00  0.00    -0.246 OA
BRANCH  39  41
ATOM     41  C   UNL     1     -33.755  29.264 -16.855  1.00  0.00     0.067 A 
ATOM     42  C   UNL     1     -33.122  29.905 -17.933  1.00  0.00     0.066 A 
ATOM     43  C   UNL     1     -32.964  28.640 -15.877  1.00  0.00     0.066 A 
ATOM     44  C   UNL     1     -31.724  29.895 -18.053  1.00  0.00     0.162 A 
ATOM     45  C   UNL     1     -31.572  28.623 -15.987  1.00  0.00     0.162 A 
ATOM     46  C   UNL     1     -30.946  29.246 -17.079  1.00  0.00     0.200 A 
BRANCH  44  47
ATOM     47  O   UNL     1     -31.105  30.526 -19.136  1.00  0.00    -0.504 OA
ATOM     48  H   UNL     1     -31.641  30.926 -19.900  1.00  0.00     0.293 HD
ENDBRANCH  44  47
BRANCH  45  49
ATOM     49  O   UNL     1     -30.820  27.986 -14.999  1.00  0.00    -0.504 OA
ATOM     50  H   UNL     1     -31.118  27.960 -14.033  1.00  0.00     0.293 HD
ENDBRANCH  45  49
BRANCH  46  51
ATOM     51  O   UNL     1     -29.555  29.216 -17.182  1.00  0.00    -0.502 OA
ATOM     52  H   UNL     1     -28.988  30.057 -17.159  1.00  0.00     0.293 HD
ENDBRANCH  46  51
ENDBRANCH  39  41
ENDBRANCH  38  39
ENDBRANCH   3  38
BRANCH   5  53
ATOM     53  O   UNL     1     -40.077  27.546 -16.369  1.00  0.00    -0.428 OA
BRANCH  53  54
ATOM     54  C   UNL     1     -41.329  27.227 -15.829  1.00  0.00     0.340 C 
ATOM     55  O   UNL     1     -42.087  28.141 -15.404  1.00  0.00    -0.246 OA
BRANCH  54  56
ATOM     56  C   UNL     1     -41.742  25.808 -15.737  1.00  0.00     0.067 A 
ATOM     57  C   UNL     1     -41.721  24.992 -16.880  1.00  0.00     0.066 A 
ATOM     58  C   UNL     1     -42.146  25.261 -14.508  1.00  0.00     0.066 A 
ATOM     59  C   UNL     1     -42.108  23.647 -16.800  1.00  0.00     0.162 A 
ATOM     60  C   UNL     1     -42.526  23.915 -14.421  1.00  0.00     0.162 A 
ATOM     61  C   UNL     1     -42.516  23.106 -15.568  1.00  0.00     0.200 A 
BRANCH  59  62
ATOM     62  O   UNL     1     -42.089  22.844 -17.938  1.00  0.00    -0.504 OA
ATOM     63  H   UNL     1     -41.741  23.187 -18.825  1.00  0.00     0.293 HD
ENDBRANCH  59  62
BRANCH  60  64
ATOM     64  O   UNL     1     -42.927  23.395 -13.190  1.00  0.00    -0.504 OA
ATOM     65  H   UNL     1     -43.604  23.869 -12.604  1.00  0.00     0.293 HD
ENDBRANCH  60  64
BRANCH  61  66
ATOM     66  O   UNL     1     -42.909  21.769 -15.468  1.00  0.00    -0.502 OA
ATOM     67  H   UNL     1     -43.311  21.390 -14.611  1.00  0.00     0.293 HD
ENDBRANCH  61  66
ENDBRANCH  54  56
ENDBRANCH  53  54
ENDBRANCH   5  53
BRANCH   4  68
ATOM     68  O   UNL     1     -37.580  27.822 -15.150  1.00  0.00    -0.448 OA
BRANCH  68  69
ATOM     69  C   UNL     1     -38.327  27.649 -13.975  1.00  0.00     0.339 C 
ATOM     70  O   UNL     1     -38.712  28.653 -13.318  1.00  0.00    -0.246 OA
BRANCH  69  71
ATOM     71  C   UNL     1     -38.697  26.289 -13.527  1.00  0.00     0.067 A 
ATOM     72  C   UNL     1     -38.124  25.156 -14.131  1.00  0.00     0.066 A 
ATOM     73  C   UNL     1     -39.625  26.113 -12.488  1.00  0.00     0.066 A 
ATOM     74  C   UNL     1     -38.447  23.868 -13.681  1.00  0.00     0.162 A 
ATOM     75  C   UNL     1     -39.969  24.831 -12.039  1.00  0.00     0.162 A 
ATOM     76  C   UNL     1     -39.359  23.696 -12.629  1.00  0.00     0.200 A 
BRANCH  74  77
ATOM     77  O   UNL     1     -37.856  22.748 -14.266  1.00  0.00    -0.504 OA
ATOM     78  H   UNL     1     -38.105  22.445 -15.195  1.00  0.00     0.293 HD
ENDBRANCH  74  77
BRANCH  75  79
ATOM     79  O   UNL     1     -40.923  24.737 -11.020  1.00  0.00    -0.504 OA
ATOM     80  H   UNL     1     -40.713  24.461 -10.074  1.00  0.00     0.293 HD
ENDBRANCH  75  79
BRANCH  76  81
ATOM     81  O   UNL     1     -39.623  22.396 -12.193  1.00  0.00    -0.502 OA
ATOM     82  H   UNL     1     -39.226  22.000 -11.358  1.00  0.00     0.293 HD
ENDBRANCH  76  81
ENDBRANCH  69  71
ENDBRANCH  68  69
ENDBRANCH   4  68
TORSDOF 31
ENDMDL
MODEL 9
REMARK VINA RESULT:   110.239      1.753      8.956
REMARK INTER + INTRA:         263.965
REMARK INTER:                 265.771
REMARK INTRA:                  -1.806
REMARK UNBOUND:                 2.278
REMARK SMILES O=C(OC[C@@H]1O[C@@H](OC(=O)c2cc(O)c(O)c(O)c2)[C@@H](OC(=O)c2cc(O)c(O)c(O)c2)[C@H](OC(=O)c2cc(O)c(O)c(O)c2)[C@@H]1OC(=O)c1cc(O)c(O)c(O)c1)c1cc(O)c(O)c(O)c1
REMARK SMILES IDX 5 1 46 2 33 3 20 4 7 5 6 6 4 7 3 8 2 9 1 10 59 11 60 12
REMARK SMILES IDX 61 13 67 14 63 15 65 16 62 17 64 19 66 21 47 23 48 24 49 25
REMARK SMILES IDX 50 26 58 27 51 28 56 29 52 30 54 31 57 32 53 34 55 36 34 38
REMARK SMILES IDX 35 39 36 40 37 41 45 42 38 43 43 44 39 45 41 46 44 47 40 49
REMARK SMILES IDX 42 51 8 53 9 54 10 55 11 56 19 57 12 58 17 59 13 60 15 61
REMARK SMILES IDX 18 62 14 64 16 66 21 68 22 69 23 70 24 71 32 72 25 73 30 74
REMARK SMILES IDX 26 75 28 76 31 77 27 79 29 81
REMARK H PARENT 62 18 64 20 66 22 57 33 53 35 55 37 44 48 40 50 42 52 18 63
REMARK H PARENT 14 65 16 67 31 78 27 80 29 82
REMARK Flexibility Score: inf
ROOT
ATOM      1  C   UNL     1     -36.876  28.419 -16.158  1.00  0.00     0.205 C 
ATOM      2  C   UNL     1     -37.474  28.490 -17.580  1.00  0.00     0.254 C 
ATOM      3  C   UNL     1     -36.344  28.779 -18.589  1.00  0.00     0.267 C 
ATOM      4  C   UNL     1     -35.546  30.020 -18.148  1.00  0.00     0.290 C 
ATOM      5  C   UNL     1     -35.114  29.878 -16.678  1.00  0.00     0.357 C 
ATOM      6  O   UNL     1     -36.226  29.638 -15.831  1.00  0.00    -0.329 OA
ENDROOT
BRANCH   1   7
ATOM      7  C   UNL     1     -37.968  28.133 -15.113  1.00  0.00     0.269 C 
BRANCH   7   8
ATOM      8  O   UNL     1     -38.655  26.921 -15.421  1.00  0.00    -0.459 OA
BRANCH   8   9
ATOM      9  C   UNL     1     -38.864  25.882 -14.506  1.00  0.00     0.338 C 
ATOM     10  O   UNL     1     -38.054  25.700 -13.557  1.00  0.00    -0.246 OA
BRANCH   9  11
ATOM     11  C   UNL     1     -40.059  25.021 -14.639  1.00  0.00     0.067 A 
ATOM     12  C   UNL     1     -40.729  24.564 -13.497  1.00  0.00     0.066 A 
ATOM     13  C   UNL     1     -41.849  23.737 -13.607  1.00  0.00     0.162 A 
ATOM     14  C   UNL     1     -40.535  24.645 -15.904  1.00  0.00     0.066 A 
ATOM     15  C   UNL     1     -42.319  23.351 -14.876  1.00  0.00     0.200 A 
ATOM     16  C   UNL     1     -41.656  23.820 -16.037  1.00  0.00     0.162 A 
BRANCH  13  17
ATOM     17  O   UNL     1     -42.474  23.290 -12.441  1.00  0.00    -0.504 OA
ATOM     18  H   UNL     1     -43.085  22.482 -12.429  1.00  0.00     0.293 HD
ENDBRANCH  13  17
BRANCH  15  19
ATOM     19  O   UNL     1     -43.430  22.505 -14.943  1.00  0.00    -0.502 OA
ATOM     20  H   UNL     1     -43.654  21.928 -15.740  1.00  0.00     0.293 HD
ENDBRANCH  15  19
BRANCH  16  21
ATOM     21  O   UNL     1     -42.078  23.499 -17.330  1.00  0.00    -0.504 OA
ATOM     22  H   UNL     1     -41.949  24.093 -18.133  1.00  0.00     0.293 HD
ENDBRANCH  16  21
ENDBRANCH   9  11
ENDBRANCH   8   9
ENDBRANCH   7   8
ENDBRANCH   1   7
BRANCH   2  23
ATOM     23  O   UNL     1     -38.449  29.530 -17.635  1.00  0.00    -0.452 OA
BRANCH  23  24
ATOM     24  C   UNL     1     -39.808  29.317 -17.908  1.00  0.00     0.338 C 
ATOM     25  O   UNL     1     -40.553  28.774 -17.046  1.00  0.00    -0.246 OA
BRANCH  24  26
ATOM     26  C   UNL     1     -40.363  29.736 -19.211  1.00  0.00     0.067 A 
ATOM     27  C   UNL     1     -41.065  30.948 -19.335  1.00  0.00     0.066 A 
ATOM     28  C   UNL     1     -40.186  28.928 -20.344  1.00  0.00     0.066 A 
ATOM     29  C   UNL     1     -41.582  31.347 -20.571  1.00  0.00     0.162 A 
ATOM     30  C   UNL     1     -40.705  29.316 -21.582  1.00  0.00     0.162 A 
ATOM     31  C   UNL     1     -41.408  30.528 -21.700  1.00  0.00     0.200 A 
BRANCH  29  32
ATOM     32  O   UNL     1     -42.248  32.570 -20.663  1.00  0.00    -0.504 OA
ATOM     33  H   UNL     1     -42.804  32.935 -19.899  1.00  0.00     0.293 HD
ENDBRANCH  29  32
BRANCH  30  34
ATOM     34  O   UNL     1     -40.532  28.498 -22.700  1.00  0.00    -0.504 OA
ATOM     35  H   UNL     1     -40.648  27.492 -22.638  1.00  0.00     0.293 HD
ENDBRANCH  30  34
BRANCH  31  36
ATOM     36  O   UNL     1     -41.927  30.933 -22.931  1.00  0.00    -0.502 OA
ATOM     37  H   UNL     1     -41.338  31.081 -23.745  1.00  0.00     0.293 HD
ENDBRANCH  31  36
ENDBRANCH  24  26
ENDBRANCH  23  24
ENDBRANCH   2  23
BRANCH   3  38
ATOM     38  O   UNL     1     -36.876  29.007 -19.894  1.00  0.00    -0.450 OA
BRANCH  38  39
ATOM     39  C   UNL     1     -37.071  30.271 -20.460  1.00  0.00     0.338 C 
ATOM     40  O   UNL     1     -37.362  31.255 -19.726  1.00  0.00    -0.246 OA
BRANCH  39  41
ATOM     41  C   UNL     1     -36.942  30.444 -21.926  1.00  0.00     0.067 A 
ATOM     42  C   UNL     1     -36.861  29.335 -22.785  1.00  0.00     0.066 A 
ATOM     43  C   UNL     1     -36.891  31.734 -22.476  1.00  0.00     0.066 A 
ATOM     44  C   UNL     1     -36.698  29.508 -24.167  1.00  0.00     0.162 A 
ATOM     45  C   UNL     1     -36.727  31.918 -23.852  1.00  0.00     0.162 A 
ATOM     46  C   UNL     1     -36.624  30.806 -24.703  1.00  0.00     0.200 A 
BRANCH  44  47
ATOM     47  O   UNL     1     -36.608  28.398 -25.011  1.00  0.00    -0.504 OA
ATOM     48  H   UNL     1     -37.363  27.725 -25.094  1.00  0.00     0.293 HD
ENDBRANCH  44  47
BRANCH  45  49
ATOM     49  O   UNL     1     -36.672  33.217 -24.360  1.00  0.00    -0.504 OA
ATOM     50  H   UNL     1     -36.844  34.027 -23.780  1.00  0.00     0.293 HD
ENDBRANCH  45  49
BRANCH  46  51
ATOM     51  O   UNL     1     -36.453  31.003 -26.073  1.00  0.00    -0.502 OA
ATOM     52  H   UNL     1     -35.870  30.400 -26.642  1.00  0.00     0.293 HD
ENDBRANCH  46  51
ENDBRANCH  39  41
ENDBRANCH  38  39
ENDBRANCH   3  38
BRANCH   5  53
ATOM     53  O   UNL     1     -34.137  28.844 -16.533  1.00  0.00    -0.428 OA
BRANCH  53  54
ATOM     54  C   UNL     1     -33.065  28.916 -15.635  1.00  0.00     0.340 C 
ATOM     55  O   UNL     1     -33.023  29.835 -14.771  1.00  0.00    -0.246 OA
BRANCH  54  56
ATOM     56  C   UNL     1     -31.969  27.926 -15.727  1.00  0.00     0.067 A 
ATOM     57  C   UNL     1     -31.254  27.557 -14.576  1.00  0.00     0.066 A 
ATOM     58  C   UNL     1     -31.642  27.336 -16.959  1.00  0.00     0.066 A 
ATOM     59  C   UNL     1     -30.216  26.617 -14.654  1.00  0.00     0.162 A 
ATOM     60  C   UNL     1     -30.611  26.390 -17.042  1.00  0.00     0.162 A 
ATOM     61  C   UNL     1     -29.890  26.034 -15.891  1.00  0.00     0.200 A 
BRANCH  59  62
ATOM     62  O   UNL     1     -29.507  26.260 -13.510  1.00  0.00    -0.504 OA
ATOM     63  H   UNL     1     -28.788  26.859 -13.121  1.00  0.00     0.293 HD
ENDBRANCH  59  62
BRANCH  60  64
ATOM     64  O   UNL     1     -30.301  25.821 -18.277  1.00  0.00    -0.504 OA
ATOM     65  H   UNL     1     -30.682  24.927 -18.565  1.00  0.00     0.293 HD
ENDBRANCH  60  64
BRANCH  61  66
ATOM     66  O   UNL     1     -28.857  25.099 -15.992  1.00  0.00    -0.502 OA
ATOM     67  H   UNL     1     -28.738  24.516 -16.820  1.00  0.00     0.293 HD
ENDBRANCH  61  66
ENDBRANCH  54  56
ENDBRANCH  53  54
ENDBRANCH   5  53
BRANCH   4  68
ATOM     68  O   UNL     1     -34.386  30.181 -18.971  1.00  0.00    -0.448 OA
BRANCH  68  69
ATOM     69  C   UNL     1     -33.275  30.954 -18.601  1.00  0.00     0.339 C 
ATOM     70  O   UNL     1     -33.441  32.071 -18.041  1.00  0.00    -0.246 OA
BRANCH  69  71
ATOM     71  C   UNL     1     -31.908  30.441 -18.830  1.00  0.00     0.067 A 
ATOM     72  C   UNL     1     -31.439  30.212 -20.136  1.00  0.00     0.066 A 
ATOM     73  C   UNL     1     -31.056  30.182 -17.744  1.00  0.00     0.066 A 
ATOM     74  C   UNL     1     -30.130  29.761 -20.354  1.00  0.00     0.162 A 
ATOM     75  C   UNL     1     -29.750  29.716 -17.947  1.00  0.00     0.162 A 
ATOM     76  C   UNL     1     -29.275  29.522 -19.268  1.00  0.00     0.200 A 
BRANCH  74  77
ATOM     77  O   UNL     1     -29.661  29.560 -21.652  1.00  0.00    -0.504 OA
ATOM     78  H   UNL     1     -29.994  28.796 -22.220  1.00  0.00     0.293 HD
ENDBRANCH  74  77
BRANCH  75  79
ATOM     79  O   UNL     1     -28.974  29.452 -16.814  1.00  0.00    -0.504 OA
ATOM     80  H   UNL     1     -29.038  28.607 -16.269  1.00  0.00     0.293 HD
ENDBRANCH  75  79
BRANCH  76  81
ATOM     81  O   UNL     1     -27.969  29.108 -19.537  1.00  0.00    -0.502 OA
ATOM     82  H   UNL     1     -27.524  28.337 -19.069  1.00  0.00     0.293 HD
ENDBRANCH  76  81
ENDBRANCH  69  71
ENDBRANCH  68  69
ENDBRANCH   4  68
TORSDOF 31
ENDMDL
