MODEL 1
REMARK VINA RESULT:    -3.551      0.000      0.000
REMARK INTER + INTRA:          -4.811
REMARK INTER:                  -5.004
REMARK INTRA:                   0.193
REMARK UNBOUND:                 0.193
REMARK SMILES CC1=CCC(=C(C)C)C(=O)CC(C)=CCC1
REMARK SMILES IDX 12 1 14 2 13 3 15 4 16 5 2 6 1 7 3 8 11 10 9 11 10 12 5 13
REMARK SMILES IDX 6 14 7 15 8 16 4 17
REMARK H PARENT
REMARK Flexibility Score: 60.00
ROOT
ATOM      1  C   UNL     1      87.772  38.250  28.104  1.00  0.00    -0.070 C 
ATOM      2  C   UNL     1      88.652  38.798  27.235  1.00  0.00    -0.027 C 
ATOM      3  C   UNL     1      87.479  39.000  29.378  1.00  0.00     0.039 C 
ENDROOT
BRANCH   2   4
ATOM      4  C   UNL     1      89.147  38.157  25.957  1.00  0.00     0.032 C 
BRANCH   4   5
ATOM      5  C   UNL     1      88.143  38.189  24.785  1.00  0.00     0.034 C 
BRANCH   5   6
ATOM      6  C   UNL     1      87.864  36.818  24.199  1.00  0.00    -0.077 C 
ATOM      7  C   UNL     1      88.996  36.115  23.491  1.00  0.00     0.039 C 
ATOM      8  C   UNL     1      86.650  36.214  24.209  1.00  0.00    -0.023 CG0
ATOM      9  G   UNL     1      85.384  36.719  24.872  1.00  0.00     0.000 G0
ENDBRANCH   5   6
ENDBRANCH   4   5
ENDBRANCH   2   4
BRANCH   1  10
ATOM     10  C   UNL     1      87.145  36.886  27.902  1.00  0.00     0.111 C 
BRANCH  10  11
ATOM     11  C   UNL     1      85.722  36.994  27.423  1.00  0.00     0.163 C 
ATOM     12  O   UNL     1      84.948  37.780  28.035  1.00  0.00    -0.294 OA
BRANCH  11  13
ATOM     13  C   UNL     1      85.188  36.168  26.300  1.00  0.00    -0.002 C 
ATOM     14  C   UNL     1      84.635  34.939  26.537  1.00  0.00    -0.069 C 
ATOM     15  C   UNL     1      84.230  34.013  25.412  1.00  0.00     0.039 C 
ATOM     16  C   UNL     1      84.402  34.444  27.948  1.00  0.00     0.039 C 
BRANCH  13  17
ATOM     17  C   UNL     1      85.372  36.707  24.891  1.00  0.00     0.066 CG0
ATOM     18  G   UNL     1      86.647  36.205  24.243  1.00  0.00     0.000 G0
ENDBRANCH  13  17
ENDBRANCH  11  13
ENDBRANCH  10  11
ENDBRANCH   1  10
TORSDOF 0
ENDMDL
MODEL 2
REMARK VINA RESULT:    -3.527      2.050      4.084
REMARK INTER + INTRA:          -4.776
REMARK INTER:                  -5.061
REMARK INTRA:                   0.284
REMARK UNBOUND:                 0.193
REMARK SMILES CC1=CCC(=C(C)C)C(=O)CC(C)=CCC1
REMARK SMILES IDX 12 1 14 2 13 3 15 4 16 5 2 6 1 7 3 8 11 10 9 11 10 12 5 13
REMARK SMILES IDX 6 14 7 15 8 16 4 17
REMARK H PARENT
REMARK Flexibility Score: 60.00
ROOT
ATOM      1  C   UNL     1      86.325  36.647  24.261  1.00  0.00    -0.070 C 
ATOM      2  C   UNL     1      87.554  36.911  23.764  1.00  0.00    -0.027 C 
ATOM      3  C   UNL     1      85.518  35.556  23.605  1.00  0.00     0.039 C 
ENDROOT
BRANCH   2   4
ATOM      4  C   UNL     1      88.472  38.025  24.220  1.00  0.00     0.032 C 
BRANCH   4   5
ATOM      5  C   UNL     1      89.161  37.780  25.578  1.00  0.00     0.034 C 
BRANCH   5   6
ATOM      6  C   UNL     1      88.925  38.896  26.579  1.00  0.00    -0.077 C 
ATOM      7  C   UNL     1      89.479  40.260  26.251  1.00  0.00     0.039 C 
ATOM      8  C   UNL     1      88.311  38.732  27.776  1.00  0.00    -0.023 CG0
ATOM      9  G   UNL     1      87.665  37.468  28.307  1.00  0.00     0.000 G0
ENDBRANCH   5   6
ENDBRANCH   4   5
ENDBRANCH   2   4
BRANCH   1  10
ATOM     10  C   UNL     1      85.690  37.451  25.377  1.00  0.00     0.111 C 
BRANCH  10  11
ATOM     11  C   UNL     1      85.759  36.725  26.695  1.00  0.00     0.163 C 
ATOM     12  O   UNL     1      85.410  35.513  26.723  1.00  0.00    -0.294 OA
BRANCH  11  13
ATOM     13  C   UNL     1      86.163  37.400  27.963  1.00  0.00    -0.002 C 
ATOM     14  C   UNL     1      85.234  38.020  28.752  1.00  0.00    -0.069 C 
ATOM     15  C   UNL     1      85.630  38.845  29.957  1.00  0.00     0.039 C 
ATOM     16  C   UNL     1      83.755  37.909  28.455  1.00  0.00     0.039 C 
BRANCH  13  17
ATOM     17  C   UNL     1      87.649  37.449  28.282  1.00  0.00     0.066 CG0
ATOM     18  G   UNL     1      88.301  38.729  27.799  1.00  0.00     0.000 G0
ENDBRANCH  13  17
ENDBRANCH  11  13
ENDBRANCH  10  11
ENDBRANCH   1  10
TORSDOF 0
ENDMDL
MODEL 3
REMARK VINA RESULT:    -3.506      1.849      3.621
REMARK INTER + INTRA:          -4.747
REMARK INTER:                  -4.928
REMARK INTRA:                   0.181
REMARK UNBOUND:                 0.193
REMARK SMILES CC1=CCC(=C(C)C)C(=O)CC(C)=CCC1
REMARK SMILES IDX 12 1 14 2 13 3 15 4 16 5 2 6 1 7 3 8 11 10 9 11 10 12 5 13
REMARK SMILES IDX 6 14 7 15 8 16 4 17
REMARK H PARENT
REMARK Flexibility Score: 60.00
ROOT
ATOM      1  C   UNL     1      89.228  38.870  26.474  1.00  0.00    -0.070 C 
ATOM      2  C   UNL     1      88.987  38.212  25.317  1.00  0.00    -0.027 C 
ATOM      3  C   UNL     1      90.661  39.008  26.922  1.00  0.00     0.039 C 
ENDROOT
BRANCH   2   4
ATOM      4  C   UNL     1      87.621  37.887  24.753  1.00  0.00     0.032 C 
BRANCH   4   5
ATOM      5  C   UNL     1      87.112  36.465  25.070  1.00  0.00     0.034 C 
BRANCH   5   6
ATOM      6  C   UNL     1      85.697  36.445  25.619  1.00  0.00    -0.077 C 
ATOM      7  C   UNL     1      84.560  36.472  24.628  1.00  0.00     0.039 C 
ATOM      8  C   UNL     1      85.390  36.473  26.939  1.00  0.00    -0.023 CG0
ATOM      9  G   UNL     1      86.357  36.431  28.104  1.00  0.00     0.000 G0
ENDBRANCH   5   6
ENDBRANCH   4   5
ENDBRANCH   2   4
BRANCH   1  10
ATOM     10  C   UNL     1      88.129  39.388  27.379  1.00  0.00     0.111 C 
BRANCH  10  11
ATOM     11  C   UNL     1      87.876  38.456  28.535  1.00  0.00     0.163 C 
ATOM     12  O   UNL     1      88.838  38.192  29.306  1.00  0.00    -0.294 OA
BRANCH  11  13
ATOM     13  C   UNL     1      86.556  37.796  28.758  1.00  0.00    -0.002 C 
ATOM     14  C   UNL     1      85.617  38.366  29.573  1.00  0.00    -0.069 C 
ATOM     15  C   UNL     1      84.337  37.649  29.944  1.00  0.00     0.039 C 
ATOM     16  C   UNL     1      85.816  39.751  30.148  1.00  0.00     0.039 C 
BRANCH  13  17
ATOM     17  C   UNL     1      86.344  36.431  28.121  1.00  0.00     0.066 CG0
ATOM     18  G   UNL     1      85.395  36.486  26.942  1.00  0.00     0.000 G0
ENDBRANCH  13  17
ENDBRANCH  11  13
ENDBRANCH  10  11
ENDBRANCH   1  10
TORSDOF 0
ENDMDL
MODEL 4
REMARK VINA RESULT:    -3.498      2.498      4.488
REMARK INTER + INTRA:          -4.735
REMARK INTER:                  -5.531
REMARK INTRA:                   0.796
REMARK UNBOUND:                 0.193
REMARK SMILES CC1=CCC(=C(C)C)C(=O)CC(C)=CCC1
REMARK SMILES IDX 12 1 14 2 13 3 15 4 16 5 2 6 1 7 3 8 11 10 9 11 10 12 5 13
REMARK SMILES IDX 6 14 7 15 8 16 4 17
REMARK H PARENT
REMARK Flexibility Score: 60.00
ROOT
ATOM      1  C   UNL     1      87.031  38.233  29.098  1.00  0.00    -0.070 C 
ATOM      2  C   UNL     1      86.549  39.372  29.646  1.00  0.00    -0.027 C 
ATOM      3  C   UNL     1      88.203  38.344  28.157  1.00  0.00     0.039 C 
ENDROOT
BRANCH   2   4
ATOM      4  C   UNL     1      85.327  39.478  30.532  1.00  0.00     0.032 C 
BRANCH   4   5
ATOM      5  C   UNL     1      84.164  38.540  30.145  1.00  0.00     0.034 C 
BRANCH   5   6
ATOM      6  C   UNL     1      83.409  39.001  28.912  1.00  0.00    -0.077 C 
ATOM      7  C   UNL     1      82.843  40.399  28.919  1.00  0.00     0.039 C 
ATOM      8  C   UNL     1      83.153  38.218  27.836  1.00  0.00    -0.023 CG0
ATOM      9  G   UNL     1      83.633  36.800  27.602  1.00  0.00     0.000 G0
ENDBRANCH   5   6
ENDBRANCH   4   5
ENDBRANCH   2   4
BRANCH   1  10
ATOM     10  C   UNL     1      86.394  36.875  29.310  1.00  0.00     0.111 C 
BRANCH  10  11
ATOM     11  C   UNL     1      86.092  36.192  28.003  1.00  0.00     0.163 C 
ATOM     12  O   UNL     1      86.789  35.192  27.681  1.00  0.00    -0.294 OA
BRANCH  11  13
ATOM     13  C   UNL     1      85.050  36.692  27.059  1.00  0.00    -0.002 C 
ATOM     14  C   UNL     1      85.390  37.130  25.809  1.00  0.00    -0.069 C 
ATOM     15  C   UNL     1      84.384  37.788  24.889  1.00  0.00     0.039 C 
ATOM     16  C   UNL     1      86.800  36.979  25.283  1.00  0.00     0.039 C 
BRANCH  13  17
ATOM     17  C   UNL     1      83.624  36.779  27.580  1.00  0.00     0.066 CG0
ATOM     18  G   UNL     1      83.185  38.209  27.824  1.00  0.00     0.000 G0
ENDBRANCH  13  17
ENDBRANCH  11  13
ENDBRANCH  10  11
ENDBRANCH   1  10
TORSDOF 0
ENDMDL
MODEL 5
REMARK VINA RESULT:    -3.435      2.429      4.811
REMARK INTER + INTRA:          -4.647
REMARK INTER:                  -4.788
REMARK INTRA:                   0.141
REMARK UNBOUND:                 0.193
REMARK SMILES CC1=CCC(=C(C)C)C(=O)CC(C)=CCC1
REMARK SMILES IDX 12 1 14 2 13 3 15 4 16 5 2 6 1 7 3 8 11 10 9 11 10 12 5 13
REMARK SMILES IDX 6 14 7 15 8 16 4 17
REMARK H PARENT
REMARK Flexibility Score: 60.00
ROOT
ATOM      1  C   UNL     1      86.294  36.928  24.152  1.00  0.00    -0.070 C 
ATOM      2  C   UNL     1      85.205  37.215  23.403  1.00  0.00    -0.027 C 
ATOM      3  C   UNL     1      87.211  35.831  23.673  1.00  0.00     0.039 C 
ENDROOT
BRANCH   2   4
ATOM      4  C   UNL     1      84.121  38.208  23.763  1.00  0.00     0.032 C 
BRANCH   4   5
ATOM      5  C   UNL     1      83.074  37.686  24.770  1.00  0.00     0.034 C 
BRANCH   5   6
ATOM      6  C   UNL     1      82.831  38.637  25.927  1.00  0.00    -0.077 C 
ATOM      7  C   UNL     1      82.174  39.960  25.620  1.00  0.00     0.039 C 
ATOM      8  C   UNL     1      83.226  38.406  27.202  1.00  0.00    -0.023 CG0
ATOM      9  G   UNL     1      83.882  37.152  27.743  1.00  0.00     0.000 G0
ENDBRANCH   5   6
ENDBRANCH   4   5
ENDBRANCH   2   4
BRANCH   1  10
ATOM     10  C   UNL     1      86.582  37.587  25.486  1.00  0.00     0.111 C 
BRANCH  10  11
ATOM     11  C   UNL     1      86.152  36.719  26.639  1.00  0.00     0.163 C 
ATOM     12  O   UNL     1      86.401  35.484  26.577  1.00  0.00    -0.294 OA
BRANCH  11  13
ATOM     13  C   UNL     1      85.397  37.256  27.808  1.00  0.00    -0.002 C 
ATOM     14  C   UNL     1      86.055  37.744  28.903  1.00  0.00    -0.069 C 
ATOM     15  C   UNL     1      85.323  38.147  30.164  1.00  0.00     0.039 C 
ATOM     16  C   UNL     1      87.560  37.902  28.905  1.00  0.00     0.039 C 
BRANCH  13  17
ATOM     17  C   UNL     1      83.880  37.149  27.766  1.00  0.00     0.066 CG0
ATOM     18  G   UNL     1      83.229  38.399  27.210  1.00  0.00     0.000 G0
ENDBRANCH  13  17
ENDBRANCH  11  13
ENDBRANCH  10  11
ENDBRANCH   1  10
TORSDOF 0
ENDMDL
MODEL 6
REMARK VINA RESULT:    -3.431      2.001      3.915
REMARK INTER + INTRA:          -4.641
REMARK INTER:                  -4.867
REMARK INTRA:                   0.226
REMARK UNBOUND:                 0.193
REMARK SMILES CC1=CCC(=C(C)C)C(=O)CC(C)=CCC1
REMARK SMILES IDX 12 1 14 2 13 3 15 4 16 5 2 6 1 7 3 8 11 10 9 11 10 12 5 13
REMARK SMILES IDX 6 14 7 15 8 16 4 17
REMARK H PARENT
REMARK Flexibility Score: 60.00
ROOT
ATOM      1  C   UNL     1      87.949  37.672  25.093  1.00  0.00    -0.070 C 
ATOM      2  C   UNL     1      88.777  38.356  25.914  1.00  0.00    -0.027 C 
ATOM      3  C   UNL     1      88.514  37.152  23.795  1.00  0.00     0.039 C 
ENDROOT
BRANCH   2   4
ATOM      4  C   UNL     1      88.378  39.036  27.206  1.00  0.00     0.032 C 
BRANCH   4   5
ATOM      5  C   UNL     1      88.100  38.077  28.383  1.00  0.00     0.034 C 
BRANCH   5   6
ATOM      6  C   UNL     1      86.747  38.302  29.030  1.00  0.00    -0.077 C 
ATOM      7  C   UNL     1      86.503  39.632  29.700  1.00  0.00     0.039 C 
ATOM      8  C   UNL     1      85.770  37.365  29.106  1.00  0.00    -0.023 CG0
ATOM      9  G   UNL     1      85.785  35.978  28.496  1.00  0.00     0.000 G0
ENDBRANCH   5   6
ENDBRANCH   4   5
ENDBRANCH   2   4
BRANCH   1  10
ATOM     10  C   UNL     1      86.471  37.487  25.370  1.00  0.00     0.111 C 
BRANCH  10  11
ATOM     11  C   UNL     1      86.182  36.131  25.958  1.00  0.00     0.163 C 
ATOM     12  O   UNL     1      86.739  35.127  25.437  1.00  0.00    -0.294 OA
BRANCH  11  13
ATOM     13  C   UNL     1      85.222  35.934  27.084  1.00  0.00    -0.002 C 
ATOM     14  C   UNL     1      83.882  35.806  26.847  1.00  0.00    -0.069 C 
ATOM     15  C   UNL     1      82.870  35.764  27.972  1.00  0.00     0.039 C 
ATOM     16  C   UNL     1      83.342  35.703  25.438  1.00  0.00     0.039 C 
BRANCH  13  17
ATOM     17  C   UNL     1      85.787  35.977  28.496  1.00  0.00     0.066 CG0
ATOM     18  G   UNL     1      85.766  37.374  29.083  1.00  0.00     0.000 G0
ENDBRANCH  13  17
ENDBRANCH  11  13
ENDBRANCH  10  11
ENDBRANCH   1  10
TORSDOF 0
ENDMDL
MODEL 7
REMARK VINA RESULT:    -3.310      1.972      3.478
REMARK INTER + INTRA:          -4.471
REMARK INTER:                  -5.213
REMARK INTRA:                   0.742
REMARK UNBOUND:                 0.193
REMARK SMILES CC1=CCC(=C(C)C)C(=O)CC(C)=CCC1
REMARK SMILES IDX 12 1 14 2 13 3 15 4 16 5 2 6 1 7 3 8 11 10 9 11 10 12 5 13
REMARK SMILES IDX 6 14 7 15 8 16 4 17
REMARK H PARENT
REMARK Flexibility Score: 60.00
ROOT
ATOM      1  C   UNL     1      87.424  37.056  24.223  1.00  0.00    -0.070 C 
ATOM      2  C   UNL     1      88.349  36.279  23.614  1.00  0.00    -0.027 C 
ATOM      3  C   UNL     1      87.914  38.174  25.107  1.00  0.00     0.039 C 
ENDROOT
BRANCH   2   4
ATOM      4  C   UNL     1      88.060  35.056  22.771  1.00  0.00     0.032 C 
BRANCH   4   5
ATOM      5  C   UNL     1      87.010  34.095  23.366  1.00  0.00     0.034 C 
BRANCH   5   6
ATOM      6  C   UNL     1      87.461  33.443  24.660  1.00  0.00    -0.077 C 
ATOM      7  C   UNL     1      88.738  32.640  24.632  1.00  0.00     0.039 C 
ATOM      8  C   UNL     1      86.758  33.477  25.818  1.00  0.00    -0.023 CG0
ATOM      9  G   UNL     1      85.470  34.229  26.085  1.00  0.00     0.000 G0
ENDBRANCH   5   6
ENDBRANCH   4   5
ENDBRANCH   2   4
BRANCH   1  10
ATOM     10  C   UNL     1      85.934  36.798  24.133  1.00  0.00     0.111 C 
BRANCH  10  11
ATOM     11  C   UNL     1      85.299  36.725  25.496  1.00  0.00     0.163 C 
ATOM     12  O   UNL     1      84.472  37.622  25.815  1.00  0.00    -0.294 OA
BRANCH  11  13
ATOM     13  C   UNL     1      85.659  35.673  26.492  1.00  0.00    -0.002 C 
ATOM     14  C   UNL     1      86.233  36.008  27.687  1.00  0.00    -0.069 C 
ATOM     15  C   UNL     1      86.752  34.961  28.648  1.00  0.00     0.039 C 
ATOM     16  C   UNL     1      86.380  37.454  28.108  1.00  0.00     0.039 C 
BRANCH  13  17
ATOM     17  C   UNL     1      85.447  34.224  26.082  1.00  0.00     0.066 CG0
ATOM     18  G   UNL     1      86.753  33.502  25.818  1.00  0.00     0.000 G0
ENDBRANCH  13  17
ENDBRANCH  11  13
ENDBRANCH  10  11
ENDBRANCH   1  10
TORSDOF 0
ENDMDL
MODEL 8
REMARK VINA RESULT:    -3.302      2.085      3.761
REMARK INTER + INTRA:          -4.459
REMARK INTER:                  -4.646
REMARK INTRA:                   0.187
REMARK UNBOUND:                 0.193
REMARK SMILES CC1=CCC(=C(C)C)C(=O)CC(C)=CCC1
REMARK SMILES IDX 12 1 14 2 13 3 15 4 16 5 2 6 1 7 3 8 11 10 9 11 10 12 5 13
REMARK SMILES IDX 6 14 7 15 8 16 4 17
REMARK H PARENT
REMARK Flexibility Score: 60.00
ROOT
ATOM      1  C   UNL     1      86.644  37.064  29.211  1.00  0.00    -0.070 C 
ATOM      2  C   UNL     1      86.614  35.999  30.043  1.00  0.00    -0.027 C 
ATOM      3  C   UNL     1      86.046  38.359  29.700  1.00  0.00     0.039 C 
ENDROOT
BRANCH   2   4
ATOM      4  C   UNL     1      87.072  34.598  29.701  1.00  0.00     0.032 C 
BRANCH   4   5
ATOM      5  C   UNL     1      86.093  33.794  28.820  1.00  0.00     0.034 C 
BRANCH   5   6
ATOM      6  C   UNL     1      86.763  33.134  27.629  1.00  0.00    -0.077 C 
ATOM      7  C   UNL     1      87.805  32.078  27.908  1.00  0.00     0.039 C 
ATOM      8  C   UNL     1      86.539  33.478  26.338  1.00  0.00    -0.023 CG0
ATOM      9  G   UNL     1      85.534  34.488  25.823  1.00  0.00     0.000 G0
ENDBRANCH   5   6
ENDBRANCH   4   5
ENDBRANCH   2   4
BRANCH   1  10
ATOM     10  C   UNL     1      87.161  36.993  27.788  1.00  0.00     0.111 C 
BRANCH  10  11
ATOM     11  C   UNL     1      86.041  36.805  26.799  1.00  0.00     0.163 C 
ATOM     12  O   UNL     1      84.964  37.431  26.996  1.00  0.00    -0.294 OA
BRANCH  11  13
ATOM     13  C   UNL     1      86.142  35.868  25.642  1.00  0.00    -0.002 C 
ATOM     14  C   UNL     1      86.684  36.277  24.455  1.00  0.00    -0.069 C 
ATOM     15  C   UNL     1      86.657  35.404  23.219  1.00  0.00     0.039 C 
ATOM     16  C   UNL     1      87.339  37.634  24.319  1.00  0.00     0.039 C 
BRANCH  13  17
ATOM     17  C   UNL     1      85.535  34.484  25.813  1.00  0.00     0.066 CG0
ATOM     18  G   UNL     1      86.540  33.473  26.329  1.00  0.00     0.000 G0
ENDBRANCH  13  17
ENDBRANCH  11  13
ENDBRANCH  10  11
ENDBRANCH   1  10
TORSDOF 0
ENDMDL
MODEL 9
REMARK VINA RESULT:    -3.244      8.643      9.852
REMARK INTER + INTRA:          -4.378
REMARK INTER:                  -4.542
REMARK INTRA:                   0.164
REMARK UNBOUND:                 0.193
REMARK SMILES CC1=CCC(=C(C)C)C(=O)CC(C)=CCC1
REMARK SMILES IDX 12 1 14 2 13 3 15 4 16 5 2 6 1 7 3 8 11 10 9 11 10 12 5 13
REMARK SMILES IDX 6 14 7 15 8 16 4 17
REMARK H PARENT
REMARK Flexibility Score: 60.00
ROOT
ATOM      1  C   UNL     1      82.264  42.007  27.616  1.00  0.00    -0.070 C 
ATOM      2  C   UNL     1      82.239  41.352  26.433  1.00  0.00    -0.027 C 
ATOM      3  C   UNL     1      82.108  41.194  28.876  1.00  0.00     0.039 C 
ENDROOT
BRANCH   2   4
ATOM      4  C   UNL     1      82.282  41.998  25.065  1.00  0.00     0.032 C 
BRANCH   4   5
ATOM      5  C   UNL     1      80.938  42.581  24.583  1.00  0.00     0.034 C 
BRANCH   5   6
ATOM      6  C   UNL     1      81.043  44.023  24.121  1.00  0.00    -0.077 C 
ATOM      7  C   UNL     1      81.832  44.301  22.866  1.00  0.00     0.039 C 
ATOM      8  C   UNL     1      80.533  45.081  24.797  1.00  0.00    -0.023 CG0
ATOM      9  G   UNL     1      79.696  45.042  26.060  1.00  0.00     0.000 G0
ENDBRANCH   5   6
ENDBRANCH   4   5
ENDBRANCH   2   4
BRANCH   1  10
ATOM     10  C   UNL     1      82.348  43.516  27.730  1.00  0.00     0.111 C 
BRANCH  10  11
ATOM     11  C   UNL     1      81.008  44.124  28.050  1.00  0.00     0.163 C 
ATOM     12  O   UNL     1      80.299  43.566  28.932  1.00  0.00    -0.294 OA
BRANCH  11  13
ATOM     13  C   UNL     1      80.473  45.313  27.324  1.00  0.00    -0.002 C 
ATOM     14  C   UNL     1      80.630  46.573  27.833  1.00  0.00    -0.069 C 
ATOM     15  C   UNL     1      79.966  47.778  27.206  1.00  0.00     0.039 C 
ATOM     16  C   UNL     1      81.481  46.822  29.059  1.00  0.00     0.039 C 
BRANCH  13  17
ATOM     17  C   UNL     1      79.673  45.053  26.058  1.00  0.00     0.066 CG0
ATOM     18  G   UNL     1      80.539  45.071  24.814  1.00  0.00     0.000 G0
ENDBRANCH  13  17
ENDBRANCH  11  13
ENDBRANCH  10  11
ENDBRANCH   1  10
TORSDOF 0
ENDMDL
