MODEL 1
REMARK VINA RESULT:    -4.396      0.000      0.000
REMARK INTER + INTRA:          -7.268
REMARK INTER:                  -6.452
REMARK INTRA:                  -0.816
REMARK UNBOUND:                -0.816
REMARK SMILES O=C([O-])CCCCCCCC(=O)[O-]
REMARK SMILES IDX 7 1 6 2 5 3 4 4 2 5 1 6 3 7 8 8 9 9 10 10 11 11 12 12 13 13
REMARK H PARENT
REMARK Flexibility Score: inf
ROOT
ATOM      1  C   UNL     1     161.215 167.930 160.700  1.00  0.00     0.000 C 
ENDROOT
BRANCH   1   2
ATOM      2  C   UNL     1     162.433 167.967 159.763  1.00  0.00     0.000 C 
BRANCH   2   3
ATOM      3  C   UNL     1     163.263 166.672 159.820  1.00  0.00     0.006 C 
BRANCH   3   4
ATOM      4  C   UNL     1     163.623 166.155 158.420  1.00  0.00     0.053 C 
BRANCH   4   5
ATOM      5  C   UNL     1     162.401 165.875 157.599  1.00  0.00     0.041 C 
ATOM      6  O   UNL     1     161.637 164.921 157.904  1.00  0.00    -0.550 OA
ATOM      7  O   UNL     1     162.123 166.650 156.481  1.00  0.00    -0.550 OA
ENDBRANCH   4   5
ENDBRANCH   3   4
ENDBRANCH   2   3
ENDBRANCH   1   2
BRANCH   1   8
ATOM      8  C   UNL     1     159.970 167.329 160.029  1.00  0.00     0.000 C 
BRANCH   8   9
ATOM      9  C   UNL     1     159.613 165.970 160.650  1.00  0.00     0.006 C 
BRANCH   9  10
ATOM     10  C   UNL     1     160.157 165.822 162.077  1.00  0.00     0.053 C 
BRANCH  10  11
ATOM     11  C   UNL     1     161.081 164.648 162.202  1.00  0.00     0.041 C 
ATOM     12  O   UNL     1     161.514 164.302 163.332  1.00  0.00    -0.550 OA
ATOM     13  O   UNL     1     161.435 163.918 161.075  1.00  0.00    -0.550 OA
ENDBRANCH  10  11
ENDBRANCH   9  10
ENDBRANCH   8   9
ENDBRANCH   1   8
TORSDOF 8
ENDMDL
MODEL 2
REMARK VINA RESULT:    -4.338      2.153      4.133
REMARK INTER + INTRA:          -7.183
REMARK INTER:                  -6.531
REMARK INTRA:                  -0.653
REMARK UNBOUND:                -0.816
REMARK SMILES O=C([O-])CCCCCCCC(=O)[O-]
REMARK SMILES IDX 7 1 6 2 5 3 4 4 2 5 1 6 3 7 8 8 9 9 10 10 11 11 12 12 13 13
REMARK H PARENT
REMARK Flexibility Score: inf
ROOT
ATOM      1  C   UNL     1     159.807 167.231 159.952  1.00  0.00     0.000 C 
ENDROOT
BRANCH   1   2
ATOM      2  C   UNL     1     158.905 166.188 160.632  1.00  0.00     0.000 C 
BRANCH   2   3
ATOM      3  C   UNL     1     159.608 164.834 160.826  1.00  0.00     0.006 C 
BRANCH   3   4
ATOM      4  C   UNL     1     160.065 164.224 159.494  1.00  0.00     0.053 C 
BRANCH   4   5
ATOM      5  C   UNL     1     159.213 163.057 159.096  1.00  0.00     0.041 C 
ATOM      6  O   UNL     1     159.747 161.964 158.769  1.00  0.00    -0.550 OA
ATOM      7  O   UNL     1     157.831 163.186 159.059  1.00  0.00    -0.550 OA
ENDBRANCH   4   5
ENDBRANCH   3   4
ENDBRANCH   2   3
ENDBRANCH   1   2
BRANCH   1   8
ATOM      8  C   UNL     1     160.990 167.657 160.834  1.00  0.00     0.000 C 
BRANCH   8   9
ATOM      9  C   UNL     1     162.263 167.842 159.994  1.00  0.00     0.006 C 
BRANCH   9  10
ATOM     10  C   UNL     1     163.245 166.676 160.161  1.00  0.00     0.053 C 
BRANCH  10  11
ATOM     11  C   UNL     1     163.615 166.066 158.842  1.00  0.00     0.041 C 
ATOM     12  O   UNL     1     164.695 165.432 158.720  1.00  0.00    -0.550 OA
ATOM     13  O   UNL     1     162.751 166.170 157.760  1.00  0.00    -0.550 OA
ENDBRANCH  10  11
ENDBRANCH   9  10
ENDBRANCH   8   9
ENDBRANCH   1   8
TORSDOF 8
ENDMDL
MODEL 3
REMARK VINA RESULT:    -4.305      1.691      4.093
REMARK INTER + INTRA:          -7.135
REMARK INTER:                  -6.339
REMARK INTRA:                  -0.796
REMARK UNBOUND:                -0.816
REMARK SMILES O=C([O-])CCCCCCCC(=O)[O-]
REMARK SMILES IDX 7 1 6 2 5 3 4 4 2 5 1 6 3 7 8 8 9 9 10 10 11 11 12 12 13 13
REMARK H PARENT
REMARK Flexibility Score: inf
ROOT
ATOM      1  C   UNL     1     162.509 167.871 159.762  1.00  0.00     0.000 C 
ENDROOT
BRANCH   1   2
ATOM      2  C   UNL     1     161.215 167.958 160.589  1.00  0.00     0.000 C 
BRANCH   2   3
ATOM      3  C   UNL     1     160.050 167.184 159.947  1.00  0.00     0.006 C 
BRANCH   3   4
ATOM      4  C   UNL     1     159.484 166.109 160.885  1.00  0.00     0.053 C 
BRANCH   4   5
ATOM      5  C   UNL     1     159.995 164.744 160.537  1.00  0.00     0.041 C 
ATOM      6  O   UNL     1     160.938 164.231 161.197  1.00  0.00    -0.550 OA
ATOM      7  O   UNL     1     159.449 164.050 159.465  1.00  0.00    -0.550 OA
ENDBRANCH   4   5
ENDBRANCH   3   4
ENDBRANCH   2   3
ENDBRANCH   1   2
BRANCH   1   8
ATOM      8  C   UNL     1     163.266 166.553 159.984  1.00  0.00     0.000 C 
BRANCH   8   9
ATOM      9  C   UNL     1     163.730 165.955 158.647  1.00  0.00     0.006 C 
BRANCH   9  10
ATOM     10  C   UNL     1     162.689 165.004 158.043  1.00  0.00     0.053 C 
BRANCH  10  11
ATOM     11  C   UNL     1     163.167 163.583 158.044  1.00  0.00     0.041 C 
ATOM     12  O   UNL     1     162.340 162.639 158.140  1.00  0.00    -0.550 OA
ATOM     13  O   UNL     1     164.520 163.303 157.904  1.00  0.00    -0.550 OA
ENDBRANCH  10  11
ENDBRANCH   9  10
ENDBRANCH   8   9
ENDBRANCH   1   8
TORSDOF 8
ENDMDL
MODEL 4
REMARK VINA RESULT:    -4.293      2.239      3.201
REMARK INTER + INTRA:          -7.117
REMARK INTER:                  -6.319
REMARK INTRA:                  -0.798
REMARK UNBOUND:                -0.816
REMARK SMILES O=C([O-])CCCCCCCC(=O)[O-]
REMARK SMILES IDX 7 1 6 2 5 3 4 4 2 5 1 6 3 7 8 8 9 9 10 10 11 11 12 12 13 13
REMARK H PARENT
REMARK Flexibility Score: inf
ROOT
ATOM      1  C   UNL     1     159.726 163.694 159.374  1.00  0.00     0.000 C 
ENDROOT
BRANCH   1   2
ATOM      2  C   UNL     1     161.260 163.708 159.470  1.00  0.00     0.000 C 
BRANCH   2   3
ATOM      3  C   UNL     1     161.922 164.425 158.281  1.00  0.00     0.006 C 
BRANCH   3   4
ATOM      4  C   UNL     1     160.924 165.295 157.503  1.00  0.00     0.053 C 
BRANCH   4   5
ATOM      5  C   UNL     1     161.615 166.384 156.739  1.00  0.00     0.041 C 
ATOM      6  O   UNL     1     161.247 166.668 155.568  1.00  0.00    -0.550 OA
ATOM      7  O   UNL     1     162.682 167.064 157.309  1.00  0.00    -0.550 OA
ENDBRANCH   4   5
ENDBRANCH   3   4
ENDBRANCH   2   3
ENDBRANCH   1   2
BRANCH   1   8
ATOM      8  C   UNL     1     159.055 164.500 160.496  1.00  0.00     0.000 C 
BRANCH   8   9
ATOM      9  C   UNL     1     160.088 164.960 161.536  1.00  0.00     0.006 C 
BRANCH   9  10
ATOM     10  C   UNL     1     160.032 166.473 161.783  1.00  0.00     0.053 C 
BRANCH  10  11
ATOM     11  C   UNL     1     160.544 167.249 160.608  1.00  0.00     0.041 C 
ATOM     12  O   UNL     1     159.741 167.701 159.750  1.00  0.00    -0.550 OA
ATOM     13  O   UNL     1     161.904 167.501 160.479  1.00  0.00    -0.550 OA
ENDBRANCH  10  11
ENDBRANCH   9  10
ENDBRANCH   8   9
ENDBRANCH   1   8
TORSDOF 8
ENDMDL
MODEL 5
REMARK VINA RESULT:    -4.288      2.965      4.461
REMARK INTER + INTRA:          -7.110
REMARK INTER:                  -6.578
REMARK INTRA:                  -0.532
REMARK UNBOUND:                -0.816
REMARK SMILES O=C([O-])CCCCCCCC(=O)[O-]
REMARK SMILES IDX 7 1 6 2 5 3 4 4 2 5 1 6 3 7 8 8 9 9 10 10 11 11 12 12 13 13
REMARK H PARENT
REMARK Flexibility Score: inf
ROOT
ATOM      1  C   UNL     1     162.533 164.721 158.127  1.00  0.00     0.000 C 
ENDROOT
BRANCH   1   2
ATOM      2  C   UNL     1     162.852 163.218 158.187  1.00  0.00     0.000 C 
BRANCH   2   3
ATOM      3  C   UNL     1     161.586 162.345 158.212  1.00  0.00     0.006 C 
BRANCH   3   4
ATOM      4  C   UNL     1     160.510 162.914 159.146  1.00  0.00     0.053 C 
BRANCH   4   5
ATOM      5  C   UNL     1     159.179 163.015 158.464  1.00  0.00     0.041 C 
ATOM      6  O   UNL     1     159.090 162.853 157.218  1.00  0.00    -0.550 OA
ATOM      7  O   UNL     1     158.041 163.316 159.201  1.00  0.00    -0.550 OA
ENDBRANCH   4   5
ENDBRANCH   3   4
ENDBRANCH   2   3
ENDBRANCH   1   2
BRANCH   1   8
ATOM      8  C   UNL     1     163.737 165.598 158.505  1.00  0.00     0.000 C 
BRANCH   8   9
ATOM      9  C   UNL     1     163.444 166.414 159.773  1.00  0.00     0.006 C 
BRANCH   9  10
ATOM     10  C   UNL     1     161.978 166.303 160.212  1.00  0.00     0.053 C 
BRANCH  10  11
ATOM     11  C   UNL     1     161.305 167.642 160.245  1.00  0.00     0.041 C 
ATOM     12  O   UNL     1     160.074 167.736 159.999  1.00  0.00    -0.550 OA
ATOM     13  O   UNL     1     162.029 168.778 160.580  1.00  0.00    -0.550 OA
ENDBRANCH  10  11
ENDBRANCH   9  10
ENDBRANCH   8   9
ENDBRANCH   1   8
TORSDOF 8
ENDMDL
MODEL 6
REMARK VINA RESULT:    -4.277      2.077      3.592
REMARK INTER + INTRA:          -7.094
REMARK INTER:                  -6.243
REMARK INTRA:                  -0.850
REMARK UNBOUND:                -0.816
REMARK SMILES O=C([O-])CCCCCCCC(=O)[O-]
REMARK SMILES IDX 7 1 6 2 5 3 4 4 2 5 1 6 3 7 8 8 9 9 10 10 11 11 12 12 13 13
REMARK H PARENT
REMARK Flexibility Score: inf
ROOT
ATOM      1  C   UNL     1     160.280 165.024 161.897  1.00  0.00     0.000 C 
ENDROOT
BRANCH   1   2
ATOM      2  C   UNL     1     160.140 164.441 160.482  1.00  0.00     0.000 C 
BRANCH   2   3
ATOM      3  C   UNL     1     161.400 163.685 160.025  1.00  0.00     0.006 C 
BRANCH   3   4
ATOM      4  C   UNL     1     161.661 163.852 158.522  1.00  0.00     0.053 C 
BRANCH   4   5
ATOM      5  C   UNL     1     163.052 163.437 158.151  1.00  0.00     0.041 C 
ATOM      6  O   UNL     1     163.864 164.282 157.686  1.00  0.00    -0.550 OA
ATOM      7  O   UNL     1     163.443 162.112 158.290  1.00  0.00    -0.550 OA
ENDBRANCH   4   5
ENDBRANCH   3   4
ENDBRANCH   2   3
ENDBRANCH   1   2
BRANCH   1   8
ATOM      8  C   UNL     1     160.096 166.549 161.931  1.00  0.00     0.000 C 
BRANCH   8   9
ATOM      9  C   UNL     1     160.216 167.147 160.521  1.00  0.00     0.006 C 
BRANCH   9  10
ATOM     10  C   UNL     1     161.465 168.025 160.366  1.00  0.00     0.053 C 
BRANCH  10  11
ATOM     11  C   UNL     1     162.549 167.321 159.607  1.00  0.00     0.041 C 
ATOM     12  O   UNL     1     162.567 167.360 158.348  1.00  0.00    -0.550 OA
ATOM     13  O   UNL     1     163.557 166.653 160.290  1.00  0.00    -0.550 OA
ENDBRANCH  10  11
ENDBRANCH   9  10
ENDBRANCH   8   9
ENDBRANCH   1   8
TORSDOF 8
ENDMDL
MODEL 7
REMARK VINA RESULT:    -4.229      2.381      3.714
REMARK INTER + INTRA:          -7.023
REMARK INTER:                  -6.244
REMARK INTRA:                  -0.778
REMARK UNBOUND:                -0.816
REMARK SMILES O=C([O-])CCCCCCCC(=O)[O-]
REMARK SMILES IDX 7 1 6 2 5 3 4 4 2 5 1 6 3 7 8 8 9 9 10 10 11 11 12 12 13 13
REMARK H PARENT
REMARK Flexibility Score: inf
ROOT
ATOM      1  C   UNL     1     162.674 165.301 157.550  1.00  0.00     0.000 C 
ENDROOT
BRANCH   1   2
ATOM      2  C   UNL     1     163.512 166.444 158.145  1.00  0.00     0.000 C 
BRANCH   2   3
ATOM      3  C   UNL     1     163.379 166.541 159.674  1.00  0.00     0.006 C 
BRANCH   3   4
ATOM      4  C   UNL     1     162.393 167.637 160.101  1.00  0.00     0.053 C 
BRANCH   4   5
ATOM      5  C   UNL     1     161.067 167.065 160.504  1.00  0.00     0.041 C 
ATOM      6  O   UNL     1     161.004 166.173 161.391  1.00  0.00    -0.550 OA
ATOM      7  O   UNL     1     159.905 167.497 159.878  1.00  0.00    -0.550 OA
ENDBRANCH   4   5
ENDBRANCH   3   4
ENDBRANCH   2   3
ENDBRANCH   1   2
BRANCH   1   8
ATOM      8  C   UNL     1     162.981 163.942 158.198  1.00  0.00     0.000 C 
BRANCH   8   9
ATOM      9  C   UNL     1     161.722 163.345 158.845  1.00  0.00     0.006 C 
BRANCH   9  10
ATOM     10  C   UNL     1     160.449 164.105 158.450  1.00  0.00     0.053 C 
BRANCH  10  11
ATOM     11  C   UNL     1     159.224 163.492 159.058  1.00  0.00     0.041 C 
ATOM     12  O   UNL     1     158.763 163.941 160.140  1.00  0.00    -0.550 OA
ATOM     13  O   UNL     1     158.574 162.448 158.413  1.00  0.00    -0.550 OA
ENDBRANCH  10  11
ENDBRANCH   9  10
ENDBRANCH   8   9
ENDBRANCH   1   8
TORSDOF 8
ENDMDL
MODEL 8
REMARK VINA RESULT:    -4.210      1.266      4.544
REMARK INTER + INTRA:          -6.995
REMARK INTER:                  -6.294
REMARK INTRA:                  -0.701
REMARK UNBOUND:                -0.816
REMARK SMILES O=C([O-])CCCCCCCC(=O)[O-]
REMARK SMILES IDX 7 1 6 2 5 3 4 4 2 5 1 6 3 7 8 8 9 9 10 10 11 11 12 12 13 13
REMARK H PARENT
REMARK Flexibility Score: inf
ROOT
ATOM      1  C   UNL     1     162.386 167.997 159.946  1.00  0.00     0.000 C 
ENDROOT
BRANCH   1   2
ATOM      2  C   UNL     1     160.909 167.885 160.354  1.00  0.00     0.000 C 
BRANCH   2   3
ATOM      3  C   UNL     1     160.635 166.671 161.259  1.00  0.00     0.006 C 
BRANCH   3   4
ATOM      4  C   UNL     1     159.329 165.956 160.887  1.00  0.00     0.053 C 
BRANCH   4   5
ATOM      5  C   UNL     1     159.574 164.538 160.466  1.00  0.00     0.041 C 
ATOM      6  O   UNL     1     158.624 163.832 160.033  1.00  0.00    -0.550 OA
ATOM      7  O   UNL     1     160.844 163.989 160.578  1.00  0.00    -0.550 OA
ENDBRANCH   4   5
ENDBRANCH   3   4
ENDBRANCH   2   3
ENDBRANCH   1   2
BRANCH   1   8
ATOM      8  C   UNL     1     163.155 166.680 160.133  1.00  0.00     0.000 C 
BRANCH   8   9
ATOM      9  C   UNL     1     163.346 165.960 158.790  1.00  0.00     0.006 C 
BRANCH   9  10
ATOM     10  C   UNL     1     163.045 166.872 157.593  1.00  0.00     0.053 C 
BRANCH  10  11
ATOM     11  C   UNL     1     161.849 166.402 156.822  1.00  0.00     0.041 C 
ATOM     12  O   UNL     1     161.693 166.751 155.622  1.00  0.00    -0.550 OA
ATOM     13  O   UNL     1     160.927 165.551 157.417  1.00  0.00    -0.550 OA
ENDBRANCH  10  11
ENDBRANCH   9  10
ENDBRANCH   8   9
ENDBRANCH   1   8
TORSDOF 8
ENDMDL
MODEL 9
REMARK VINA RESULT:    -4.205      1.995      3.473
REMARK INTER + INTRA:          -6.988
REMARK INTER:                  -6.210
REMARK INTRA:                  -0.778
REMARK UNBOUND:                -0.816
REMARK SMILES O=C([O-])CCCCCCCC(=O)[O-]
REMARK SMILES IDX 7 1 6 2 5 3 4 4 2 5 1 6 3 7 8 8 9 9 10 10 11 11 12 12 13 13
REMARK H PARENT
REMARK Flexibility Score: inf
ROOT
ATOM      1  C   UNL     1     159.891 164.964 161.225  1.00  0.00     0.000 C 
ENDROOT
BRANCH   1   2
ATOM      2  C   UNL     1     159.779 166.480 161.453  1.00  0.00     0.000 C 
BRANCH   2   3
ATOM      3  C   UNL     1     160.156 167.296 160.205  1.00  0.00     0.006 C 
BRANCH   3   4
ATOM      4  C   UNL     1     161.501 168.017 160.369  1.00  0.00     0.053 C 
BRANCH   4   5
ATOM      5  C   UNL     1     162.604 167.306 159.646  1.00  0.00     0.041 C 
ATOM      6  O   UNL     1     163.471 166.658 160.291  1.00  0.00    -0.550 OA
ATOM      7  O   UNL     1     162.691 167.383 158.262  1.00  0.00    -0.550 OA
ENDBRANCH   4   5
ENDBRANCH   3   4
ENDBRANCH   2   3
ENDBRANCH   1   2
BRANCH   1   8
ATOM      8  C   UNL     1     158.955 164.461 160.114  1.00  0.00     0.000 C 
BRANCH   8   9
ATOM      9  C   UNL     1     159.679 163.463 159.197  1.00  0.00     0.006 C 
BRANCH   9  10
ATOM     10  C   UNL     1     160.711 164.147 158.292  1.00  0.00     0.053 C 
BRANCH  10  11
ATOM     11  C   UNL     1     162.080 163.560 158.466  1.00  0.00     0.041 C 
ATOM     12  O   UNL     1     163.063 164.057 157.857  1.00  0.00    -0.550 OA
ATOM     13  O   UNL     1     162.273 162.488 159.327  1.00  0.00    -0.550 OA
ENDBRANCH  10  11
ENDBRANCH   9  10
ENDBRANCH   8   9
ENDBRANCH   1   8
TORSDOF 8
ENDMDL
