MODEL 1
REMARK VINA RESULT:    -3.845      0.000      0.000
REMARK INTER + INTRA:          -4.464
REMARK INTER:                  -4.295
REMARK INTRA:                  -0.169
REMARK UNBOUND:                -0.169
REMARK SMILES C=CCc1ccc2c(c1)OCO2
REMARK SMILES IDX 3 1 2 2 1 3 4 4 9 5 5 6 8 7 6 8 7 9 10 10 12 11 11 12
REMARK H PARENT
REMARK Flexibility Score: inf
ROOT
ATOM      1  C   UNL     1      39.092  31.192  30.588  1.00  0.00     0.062 C 
ENDROOT
BRANCH   1   2
ATOM      2  C   UNL     1      38.051  30.129  30.377  1.00  0.00    -0.030 C 
ATOM      3  C   UNL     1      38.176  29.201  29.424  1.00  0.00     0.004 C 
ENDBRANCH   1   2
BRANCH   1   4
ATOM      4  C   UNL     1      38.839  31.939  31.869  1.00  0.00    -0.040 A 
ATOM      5  C   UNL     1      39.124  33.321  31.949  1.00  0.00     0.054 A 
ATOM      6  C   UNL     1      38.275  31.274  32.988  1.00  0.00     0.008 A 
ATOM      7  C   UNL     1      38.847  33.978  33.145  1.00  0.00     0.166 A 
ATOM      8  C   UNL     1      38.012  31.975  34.179  1.00  0.00     0.051 A 
ATOM      9  C   UNL     1      38.316  33.333  34.213  1.00  0.00     0.165 A 
ATOM     10  O   UNL     1      39.041  35.309  33.460  1.00  0.00    -0.454 OA
ATOM     11  O   UNL     1      38.148  34.226  35.255  1.00  0.00    -0.454 OA
ATOM     12  C   UNL     1      38.603  35.512  34.811  1.00  0.00     0.468 C 
ENDBRANCH   1   4
TORSDOF 2
ENDMDL
MODEL 2
REMARK VINA RESULT:    -3.443      2.991      3.734
REMARK INTER + INTRA:          -4.014
REMARK INTER:                  -3.836
REMARK INTRA:                  -0.178
REMARK UNBOUND:                -0.169
REMARK SMILES C=CCc1ccc2c(c1)OCO2
REMARK SMILES IDX 3 1 2 2 1 3 4 4 9 5 5 6 8 7 6 8 7 9 10 10 12 11 11 12
REMARK H PARENT
REMARK Flexibility Score: inf
ROOT
ATOM      1  C   UNL     1      37.735  29.889  35.363  1.00  0.00     0.062 C 
ENDROOT
BRANCH   1   2
ATOM      2  C   UNL     1      36.691  29.120  36.125  1.00  0.00    -0.030 C 
ATOM      3  C   UNL     1      36.478  27.819  35.908  1.00  0.00     0.004 C 
ENDBRANCH   1   2
BRANCH   1   4
ATOM      4  C   UNL     1      37.372  31.347  35.285  1.00  0.00    -0.040 A 
ATOM      5  C   UNL     1      38.274  32.270  34.708  1.00  0.00     0.054 A 
ATOM      6  C   UNL     1      36.109  31.798  35.749  1.00  0.00     0.008 A 
ATOM      7  C   UNL     1      37.884  33.604  34.631  1.00  0.00     0.166 A 
ATOM      8  C   UNL     1      35.756  33.156  35.654  1.00  0.00     0.051 A 
ATOM      9  C   UNL     1      36.679  34.029  35.085  1.00  0.00     0.165 A 
ATOM     10  O   UNL     1      38.588  34.677  34.119  1.00  0.00    -0.454 OA
ATOM     11  O   UNL     1      36.563  35.391  34.881  1.00  0.00    -0.454 OA
ATOM     12  C   UNL     1      37.772  35.849  34.260  1.00  0.00     0.468 C 
ENDBRANCH   1   4
TORSDOF 2
ENDMDL
MODEL 3
REMARK VINA RESULT:    -3.298      2.234      3.803
REMARK INTER + INTRA:          -3.853
REMARK INTER:                  -3.673
REMARK INTRA:                  -0.180
REMARK UNBOUND:                -0.169
REMARK SMILES C=CCc1ccc2c(c1)OCO2
REMARK SMILES IDX 3 1 2 2 1 3 4 4 9 5 5 6 8 7 6 8 7 9 10 10 12 11 11 12
REMARK H PARENT
REMARK Flexibility Score: inf
ROOT
ATOM      1  C   UNL     1      36.410  30.178  36.125  1.00  0.00     0.062 C 
ENDROOT
BRANCH   1   2
ATOM      2  C   UNL     1      37.124  28.861  36.004  1.00  0.00    -0.030 C 
ATOM      3  C   UNL     1      36.464  27.699  36.021  1.00  0.00     0.004 C 
ENDBRANCH   1   2
BRANCH   1   4
ATOM      4  C   UNL     1      37.109  31.240  35.319  1.00  0.00    -0.040 A 
ATOM      5  C   UNL     1      36.906  32.605  35.623  1.00  0.00     0.054 A 
ATOM      6  C   UNL     1      38.006  30.878  34.281  1.00  0.00     0.008 A 
ATOM      7  C   UNL     1      37.596  33.552  34.869  1.00  0.00     0.166 A 
ATOM      8  C   UNL     1      38.682  31.867  33.544  1.00  0.00     0.051 A 
ATOM      9  C   UNL     1      38.445  33.198  33.873  1.00  0.00     0.165 A 
ATOM     10  O   UNL     1      37.559  34.929  34.976  1.00  0.00    -0.454 OA
ATOM     11  O   UNL     1      38.986  34.335  33.302  1.00  0.00    -0.454 OA
ATOM     12  C   UNL     1      38.440  35.473  33.984  1.00  0.00     0.468 C 
ENDBRANCH   1   4
TORSDOF 2
ENDMDL
MODEL 4
REMARK VINA RESULT:    -2.920      2.260      4.621
REMARK INTER + INTRA:          -3.430
REMARK INTER:                  -3.275
REMARK INTRA:                  -0.156
REMARK UNBOUND:                -0.169
REMARK SMILES C=CCc1ccc2c(c1)OCO2
REMARK SMILES IDX 3 1 2 2 1 3 4 4 9 5 5 6 8 7 6 8 7 9 10 10 12 11 11 12
REMARK H PARENT
REMARK Flexibility Score: inf
ROOT
ATOM      1  C   UNL     1      37.383  31.779  35.997  1.00  0.00     0.062 C 
ENDROOT
BRANCH   1   2
ATOM      2  C   UNL     1      35.884  31.676  36.017  1.00  0.00    -0.030 C 
ATOM      3  C   UNL     1      35.104  32.761  36.004  1.00  0.00     0.004 C 
ENDBRANCH   1   2
BRANCH   1   4
ATOM      4  C   UNL     1      37.869  32.229  34.646  1.00  0.00    -0.040 A 
ATOM      5  C   UNL     1      38.043  31.285  33.608  1.00  0.00     0.054 A 
ATOM      6  C   UNL     1      38.114  33.603  34.392  1.00  0.00     0.008 A 
ATOM      7  C   UNL     1      38.467  31.750  32.365  1.00  0.00     0.166 A 
ATOM      8  C   UNL     1      38.542  34.030  33.122  1.00  0.00     0.051 A 
ATOM      9  C   UNL     1      38.707  33.064  32.134  1.00  0.00     0.165 A 
ATOM     10  O   UNL     1      38.707  31.027  31.213  1.00  0.00    -0.454 OA
ATOM     11  O   UNL     1      39.111  33.235  30.823  1.00  0.00    -0.454 OA
ATOM     12  C   UNL     1      39.125  31.946  30.194  1.00  0.00     0.468 C 
ENDBRANCH   1   4
TORSDOF 2
ENDMDL
MODEL 5
REMARK VINA RESULT:    -2.673      1.136      2.208
REMARK INTER + INTRA:          -3.154
REMARK INTER:                  -2.993
REMARK INTRA:                  -0.162
REMARK UNBOUND:                -0.169
REMARK SMILES C=CCc1ccc2c(c1)OCO2
REMARK SMILES IDX 3 1 2 2 1 3 4 4 9 5 5 6 8 7 6 8 7 9 10 10 12 11 11 12
REMARK H PARENT
REMARK Flexibility Score: inf
ROOT
ATOM      1  C   UNL     1      39.097  31.385  30.217  1.00  0.00     0.062 C 
ENDROOT
BRANCH   1   2
ATOM      2  C   UNL     1      38.447  30.032  30.117  1.00  0.00    -0.030 C 
ATOM      3  C   UNL     1      38.976  29.052  29.379  1.00  0.00     0.004 C 
ENDBRANCH   1   2
BRANCH   1   4
ATOM      4  C   UNL     1      38.783  32.029  31.541  1.00  0.00    -0.040 A 
ATOM      5  C   UNL     1      38.184  31.270  32.571  1.00  0.00     0.054 A 
ATOM      6  C   UNL     1      39.125  33.386  31.777  1.00  0.00     0.008 A 
ATOM      7  C   UNL     1      37.938  31.900  33.789  1.00  0.00     0.166 A 
ATOM      8  C   UNL     1      38.858  33.984  33.022  1.00  0.00     0.051 A 
ATOM      9  C   UNL     1      38.259  33.200  34.004  1.00  0.00     0.165 A 
ATOM     10  O   UNL     1      37.364  31.372  34.929  1.00  0.00    -0.454 OA
ATOM     11  O   UNL     1      37.905  33.556  35.291  1.00  0.00    -0.454 OA
ATOM     12  C   UNL     1      37.324  32.406  35.923  1.00  0.00     0.468 C 
ENDBRANCH   1   4
TORSDOF 2
ENDMDL
MODEL 6
REMARK VINA RESULT:    -2.543      2.295      3.766
REMARK INTER + INTRA:          -3.009
REMARK INTER:                  -2.869
REMARK INTRA:                  -0.140
REMARK UNBOUND:                -0.169
REMARK SMILES C=CCc1ccc2c(c1)OCO2
REMARK SMILES IDX 3 1 2 2 1 3 4 4 9 5 5 6 8 7 6 8 7 9 10 10 12 11 11 12
REMARK H PARENT
REMARK Flexibility Score: inf
ROOT
ATOM      1  C   UNL     1      38.061  29.523  35.731  1.00  0.00     0.062 C 
ENDROOT
BRANCH   1   2
ATOM      2  C   UNL     1      36.650  29.050  35.519  1.00  0.00    -0.030 C 
ATOM      3  C   UNL     1      36.202  27.911  36.055  1.00  0.00     0.004 C 
ENDBRANCH   1   2
BRANCH   1   4
ATOM      4  C   UNL     1      38.262  30.889  35.132  1.00  0.00    -0.040 A 
ATOM      5  C   UNL     1      38.613  31.017  33.769  1.00  0.00     0.054 A 
ATOM      6  C   UNL     1      38.058  32.053  35.916  1.00  0.00     0.008 A 
ATOM      7  C   UNL     1      38.760  32.301  33.250  1.00  0.00     0.166 A 
ATOM      8  C   UNL     1      38.218  33.332  35.352  1.00  0.00     0.051 A 
ATOM      9  C   UNL     1      38.572  33.409  34.008  1.00  0.00     0.165 A 
ATOM     10  O   UNL     1      39.098  32.675  31.963  1.00  0.00    -0.454 OA
ATOM     11  O   UNL     1      38.782  34.537  33.238  1.00  0.00    -0.454 OA
ATOM     12  C   UNL     1      39.124  34.108  31.912  1.00  0.00     0.468 C 
ENDBRANCH   1   4
TORSDOF 2
ENDMDL
MODEL 7
REMARK VINA RESULT:    -2.439      2.010      4.689
REMARK INTER + INTRA:          -2.893
REMARK INTER:                  -2.929
REMARK INTRA:                   0.036
REMARK UNBOUND:                -0.169
REMARK SMILES C=CCc1ccc2c(c1)OCO2
REMARK SMILES IDX 3 1 2 2 1 3 4 4 9 5 5 6 8 7 6 8 7 9 10 10 12 11 11 12
REMARK H PARENT
REMARK Flexibility Score: inf
ROOT
ATOM      1  C   UNL     1      38.488  34.637  35.608  1.00  0.00     0.062 C 
ENDROOT
BRANCH   1   2
ATOM      2  C   UNL     1      37.179  35.372  35.692  1.00  0.00    -0.030 C 
ATOM      3  C   UNL     1      36.543  35.802  34.599  1.00  0.00     0.004 C 
ENDBRANCH   1   2
BRANCH   1   4
ATOM      4  C   UNL     1      38.450  33.606  34.512  1.00  0.00    -0.040 A 
ATOM      5  C   UNL     1      38.828  33.960  33.197  1.00  0.00     0.054 A 
ATOM      6  C   UNL     1      38.079  32.267  34.799  1.00  0.00     0.008 A 
ATOM      7  C   UNL     1      38.806  32.967  32.221  1.00  0.00     0.166 A 
ATOM      8  C   UNL     1      38.069  31.295  33.783  1.00  0.00     0.051 A 
ATOM      9  C   UNL     1      38.441  31.691  32.501  1.00  0.00     0.165 A 
ATOM     10  O   UNL     1      39.125  33.071  30.881  1.00  0.00    -0.454 OA
ATOM     11  O   UNL     1      38.512  30.928  31.352  1.00  0.00    -0.454 OA
ATOM     12  C   UNL     1      38.949  31.779  30.283  1.00  0.00     0.468 C 
ENDBRANCH   1   4
TORSDOF 2
ENDMDL
MODEL 8
REMARK VINA RESULT:    -2.301     22.045     24.290
REMARK INTER + INTRA:          -2.739
REMARK INTER:                  -3.301
REMARK INTRA:                   0.562
REMARK UNBOUND:                -0.169
REMARK SMILES C=CCc1ccc2c(c1)OCO2
REMARK SMILES IDX 3 1 2 2 1 3 4 4 9 5 5 6 8 7 6 8 7 9 10 10 12 11 11 12
REMARK H PARENT
REMARK Flexibility Score: inf
ROOT
ATOM      1  C   UNL     1      18.875  16.838  25.240  1.00  0.00     0.062 C 
ENDROOT
BRANCH   1   2
ATOM      2  C   UNL     1      18.977  15.903  24.068  1.00  0.00    -0.030 C 
ATOM      3  C   UNL     1      18.875  16.339  22.809  1.00  0.00     0.004 C 
ENDBRANCH   1   2
BRANCH   1   4
ATOM      4  C   UNL     1      19.444  18.188  24.896  1.00  0.00    -0.040 A 
ATOM      5  C   UNL     1      20.573  18.677  25.591  1.00  0.00     0.054 A 
ATOM      6  C   UNL     1      18.880  18.958  23.846  1.00  0.00     0.008 A 
ATOM      7  C   UNL     1      21.083  19.918  25.220  1.00  0.00     0.166 A 
ATOM      8  C   UNL     1      19.426  20.208  23.504  1.00  0.00     0.051 A 
ATOM      9  C   UNL     1      20.533  20.652  24.221  1.00  0.00     0.165 A 
ATOM     10  O   UNL     1      22.163  20.597  25.749  1.00  0.00    -0.454 OA
ATOM     11  O   UNL     1      21.239  21.830  24.071  1.00  0.00    -0.454 OA
ATOM     12  C   UNL     1      22.299  21.835  25.037  1.00  0.00     0.468 C 
ENDBRANCH   1   4
TORSDOF 2
ENDMDL
