MODEL 1
REMARK VINA RESULT:    -4.000      0.000      0.000
REMARK INTER + INTRA:          -5.886
REMARK INTER:                  -5.637
REMARK INTRA:                  -0.249
REMARK UNBOUND:                -0.249
REMARK SMILES CC1=CCC(=C(C)C)CCC(C)=CCC1
REMARK SMILES IDX 5 1 6 2 7 3 8 4 9 5 10 6 11 7 12 8 13 9 4 11 3 12 2 13 1 14
REMARK SMILES IDX 15 15 14 16
REMARK H PARENT
REMARK Flexibility Score: 60.00
ROOT
ATOM      1  C   UNL     1       4.965  -3.406  19.553  1.00  0.00    -0.067 C 
ATOM      2  C   UNL     1       5.665  -3.070  20.684  1.00  0.00    -0.077 C 
ATOM      3  C   UNL     1       6.524  -1.821  20.750  1.00  0.00     0.039 C 
ATOM      4  C   UNL     1       5.588  -3.925  21.934  1.00  0.00     0.039 C 
ENDROOT
BRANCH   1   5
ATOM      5  C   UNL     1       5.093  -2.559  18.282  1.00  0.00     0.035 C 
BRANCH   5   6
ATOM      6  C   UNL     1       3.773  -1.854  17.898  1.00  0.00     0.035 C 
BRANCH   6   7
ATOM      7  C   UNL     1       3.230  -2.320  16.558  1.00  0.00    -0.077 C 
ATOM      8  C   UNL     1       4.077  -2.126  15.326  1.00  0.00     0.039 C 
ATOM      9  C   UNL     1       2.025  -2.916  16.410  1.00  0.00    -0.028 CG0
ATOM     10  G   UNL     1       1.016  -3.132  17.513  1.00  0.00     0.000 G0
ENDBRANCH   6   7
ENDBRANCH   5   6
ENDBRANCH   1   5
BRANCH   1  11
ATOM     11  C   UNL     1       4.018  -4.612  19.593  1.00  0.00     0.058 C 
BRANCH  11  12
ATOM     12  C   UNL     1       2.716  -4.383  20.322  1.00  0.00    -0.024 C 
ATOM     13  C   UNL     1       1.500  -4.285  19.741  1.00  0.00    -0.077 C 
ATOM     14  C   UNL     1       0.317  -3.995  20.631  1.00  0.00     0.039 C 
BRANCH  13  15
ATOM     15  C   UNL     1       1.270  -4.464  18.247  1.00  0.00     0.034 C 
BRANCH  15  16
ATOM     16  C   UNL     1       1.008  -3.143  17.509  1.00  0.00     0.032 CG0
ATOM     17  G   UNL     1       2.016  -2.919  16.406  1.00  0.00     0.000 G0
ENDBRANCH  15  16
ENDBRANCH  13  15
ENDBRANCH  11  12
ENDBRANCH   1  11
TORSDOF 0
ENDMDL
MODEL 2
REMARK VINA RESULT:    -3.990      1.601      3.971
REMARK INTER + INTRA:          -5.871
REMARK INTER:                  -5.781
REMARK INTRA:                  -0.090
REMARK UNBOUND:                -0.249
REMARK SMILES CC1=CCC(=C(C)C)CCC(C)=CCC1
REMARK SMILES IDX 5 1 6 2 7 3 8 4 9 5 10 6 11 7 12 8 13 9 4 11 3 12 2 13 1 14
REMARK SMILES IDX 15 15 14 16
REMARK H PARENT
REMARK Flexibility Score: 60.00
ROOT
ATOM      1  C   UNL     1       3.664  -3.233  18.622  1.00  0.00    -0.067 C 
ATOM      2  C   UNL     1       4.813  -3.859  19.039  1.00  0.00    -0.077 C 
ATOM      3  C   UNL     1       4.780  -5.209  19.729  1.00  0.00     0.039 C 
ATOM      4  C   UNL     1       6.174  -3.235  18.799  1.00  0.00     0.039 C 
ENDROOT
BRANCH   1   5
ATOM      5  C   UNL     1       2.294  -3.853  18.916  1.00  0.00     0.035 C 
BRANCH   5   6
ATOM      6  C   UNL     1       1.257  -3.563  17.809  1.00  0.00     0.035 C 
BRANCH   6   7
ATOM      7  C   UNL     1       0.413  -2.336  18.104  1.00  0.00    -0.077 C 
ATOM      8  C   UNL     1      -0.231  -2.208  19.461  1.00  0.00     0.039 C 
ATOM      9  C   UNL     1       0.217  -1.336  17.214  1.00  0.00    -0.028 CG0
ATOM     10  G   UNL     1       0.724  -1.322  15.791  1.00  0.00     0.000 G0
ENDBRANCH   6   7
ENDBRANCH   5   6
ENDBRANCH   1   5
BRANCH   1  11
ATOM     11  C   UNL     1       3.774  -1.930  17.820  1.00  0.00     0.058 C 
BRANCH  11  12
ATOM     12  C   UNL     1       3.980  -2.106  16.335  1.00  0.00    -0.024 C 
ATOM     13  C   UNL     1       3.217  -1.553  15.367  1.00  0.00    -0.077 C 
ATOM     14  C   UNL     1       3.543  -1.891  13.934  1.00  0.00     0.039 C 
BRANCH  13  15
ATOM     15  C   UNL     1       2.062  -0.603  15.654  1.00  0.00     0.034 C 
BRANCH  15  16
ATOM     16  C   UNL     1       0.706  -1.313  15.777  1.00  0.00     0.032 CG0
ATOM     17  G   UNL     1       0.227  -1.339  17.209  1.00  0.00     0.000 G0
ENDBRANCH  15  16
ENDBRANCH  13  15
ENDBRANCH  11  12
ENDBRANCH   1  11
TORSDOF 0
ENDMDL
MODEL 3
REMARK VINA RESULT:    -3.979      1.762      4.328
REMARK INTER + INTRA:          -5.856
REMARK INTER:                  -5.636
REMARK INTRA:                  -0.220
REMARK UNBOUND:                -0.249
REMARK SMILES CC1=CCC(=C(C)C)CCC(C)=CCC1
REMARK SMILES IDX 5 1 6 2 7 3 8 4 9 5 10 6 11 7 12 8 13 9 4 11 3 12 2 13 1 14
REMARK SMILES IDX 15 15 14 16
REMARK H PARENT
REMARK Flexibility Score: 60.00
ROOT
ATOM      1  C   UNL     1       3.264  -1.968  16.938  1.00  0.00    -0.067 C 
ATOM      2  C   UNL     1       3.915  -2.053  15.732  1.00  0.00    -0.077 C 
ATOM      3  C   UNL     1       3.172  -1.948  14.414  1.00  0.00     0.039 C 
ATOM      4  C   UNL     1       5.420  -2.230  15.668  1.00  0.00     0.039 C 
ENDROOT
BRANCH   1   5
ATOM      5  C   UNL     1       1.738  -1.839  16.985  1.00  0.00     0.035 C 
BRANCH   5   6
ATOM      6  C   UNL     1       1.061  -3.022  17.713  1.00  0.00     0.035 C 
BRANCH   6   7
ATOM      7  C   UNL     1       0.411  -2.608  19.022  1.00  0.00    -0.077 C 
ATOM      8  C   UNL     1      -0.658  -1.545  18.997  1.00  0.00     0.039 C 
ATOM      9  C   UNL     1       0.732  -3.154  20.217  1.00  0.00    -0.028 CG0
ATOM     10  G   UNL     1       1.820  -4.177  20.446  1.00  0.00     0.000 G0
ENDBRANCH   6   7
ENDBRANCH   5   6
ENDBRANCH   1   5
BRANCH   1  11
ATOM     11  C   UNL     1       4.088  -1.956  18.231  1.00  0.00     0.058 C 
BRANCH  11  12
ATOM     12  C   UNL     1       4.636  -3.296  18.656  1.00  0.00    -0.024 C 
ATOM     13  C   UNL     1       4.265  -3.979  19.762  1.00  0.00    -0.077 C 
ATOM     14  C   UNL     1       4.968  -5.281  20.054  1.00  0.00     0.039 C 
BRANCH  13  15
ATOM     15  C   UNL     1       3.173  -3.505  20.711  1.00  0.00     0.034 C 
BRANCH  15  16
ATOM     16  C   UNL     1       1.816  -4.178  20.462  1.00  0.00     0.032 CG0
ATOM     17  G   UNL     1       0.729  -3.157  20.226  1.00  0.00     0.000 G0
ENDBRANCH  15  16
ENDBRANCH  13  15
ENDBRANCH  11  12
ENDBRANCH   1  11
TORSDOF 0
ENDMDL
MODEL 4
REMARK VINA RESULT:    -3.977      1.833      5.089
REMARK INTER + INTRA:          -5.853
REMARK INTER:                  -5.647
REMARK INTRA:                  -0.206
REMARK UNBOUND:                -0.249
REMARK SMILES CC1=CCC(=C(C)C)CCC(C)=CCC1
REMARK SMILES IDX 5 1 6 2 7 3 8 4 9 5 10 6 11 7 12 8 13 9 4 11 3 12 2 13 1 14
REMARK SMILES IDX 15 15 14 16
REMARK H PARENT
REMARK Flexibility Score: 60.00
ROOT
ATOM      1  C   UNL     1       2.039  -2.446  16.970  1.00  0.00    -0.067 C 
ATOM      2  C   UNL     1       1.817  -1.470  16.030  1.00  0.00    -0.077 C 
ATOM      3  C   UNL     1       0.488  -0.747  15.929  1.00  0.00     0.039 C 
ATOM      4  C   UNL     1       2.909  -1.052  15.065  1.00  0.00     0.039 C 
ENDROOT
BRANCH   1   5
ATOM      5  C   UNL     1       0.909  -2.892  17.904  1.00  0.00     0.035 C 
BRANCH   5   6
ATOM      6  C   UNL     1       1.325  -2.881  19.392  1.00  0.00     0.035 C 
BRANCH   6   7
ATOM      7  C   UNL     1       1.388  -4.275  19.992  1.00  0.00    -0.077 C 
ATOM      8  C   UNL     1       0.186  -5.175  19.863  1.00  0.00     0.039 C 
ATOM      9  C   UNL     1       2.477  -4.761  20.631  1.00  0.00    -0.028 CG0
ATOM     10  G   UNL     1       3.742  -3.986  20.915  1.00  0.00     0.000 G0
ENDBRANCH   6   7
ENDBRANCH   5   6
ENDBRANCH   1   5
BRANCH   1  11
ATOM     11  C   UNL     1       3.443  -3.049  17.101  1.00  0.00     0.058 C 
BRANCH  11  12
ATOM     12  C   UNL     1       4.411  -2.247  17.935  1.00  0.00    -0.024 C 
ATOM     13  C   UNL     1       4.956  -2.647  19.105  1.00  0.00    -0.077 C 
ATOM     14  C   UNL     1       5.861  -1.681  19.828  1.00  0.00     0.039 C 
BRANCH  13  15
ATOM     15  C   UNL     1       4.711  -4.020  19.715  1.00  0.00     0.034 C 
BRANCH  15  16
ATOM     16  C   UNL     1       3.756  -3.991  20.917  1.00  0.00     0.032 CG0
ATOM     17  G   UNL     1       2.485  -4.755  20.628  1.00  0.00     0.000 G0
ENDBRANCH  15  16
ENDBRANCH  13  15
ENDBRANCH  11  12
ENDBRANCH   1  11
TORSDOF 0
ENDMDL
MODEL 5
REMARK VINA RESULT:    -3.976      1.408      3.217
REMARK INTER + INTRA:          -5.851
REMARK INTER:                  -5.628
REMARK INTRA:                  -0.224
REMARK UNBOUND:                -0.249
REMARK SMILES CC1=CCC(=C(C)C)CCC(C)=CCC1
REMARK SMILES IDX 5 1 6 2 7 3 8 4 9 5 10 6 11 7 12 8 13 9 4 11 3 12 2 13 1 14
REMARK SMILES IDX 15 15 14 16
REMARK H PARENT
REMARK Flexibility Score: 60.00
ROOT
ATOM      1  C   UNL     1       4.981  -2.201  16.986  1.00  0.00    -0.067 C 
ATOM      2  C   UNL     1       6.254  -2.268  16.478  1.00  0.00    -0.077 C 
ATOM      3  C   UNL     1       6.521  -2.235  14.985  1.00  0.00     0.039 C 
ATOM      4  C   UNL     1       7.458  -2.352  17.396  1.00  0.00     0.039 C 
ENDROOT
BRANCH   1   5
ATOM      5  C   UNL     1       3.773  -2.167  16.044  1.00  0.00     0.035 C 
BRANCH   5   6
ATOM      6  C   UNL     1       2.688  -3.199  16.426  1.00  0.00     0.035 C 
BRANCH   6   7
ATOM      7  C   UNL     1       1.469  -2.558  17.065  1.00  0.00    -0.077 C 
ATOM      8  C   UNL     1       0.783  -1.426  16.342  1.00  0.00     0.039 C 
ATOM      9  C   UNL     1       0.953  -2.958  18.249  1.00  0.00    -0.028 CG0
ATOM     10  G   UNL     1       1.542  -4.023  19.144  1.00  0.00     0.000 G0
ENDBRANCH   6   7
ENDBRANCH   5   6
ENDBRANCH   1   5
BRANCH   1  11
ATOM     11  C   UNL     1       4.788  -2.113  18.505  1.00  0.00     0.058 C 
BRANCH  11  12
ATOM     12  C   UNL     1       4.916  -3.422  19.245  1.00  0.00    -0.024 C 
ATOM     13  C   UNL     1       3.949  -3.994  19.997  1.00  0.00    -0.077 C 
ATOM     14  C   UNL     1       4.282  -5.280  20.712  1.00  0.00     0.039 C 
BRANCH  13  15
ATOM     15  C   UNL     1       2.550  -3.412  20.144  1.00  0.00     0.034 C 
BRANCH  15  16
ATOM     16  C   UNL     1       1.534  -4.015  19.163  1.00  0.00     0.032 CG0
ATOM     17  G   UNL     1       0.961  -2.960  18.247  1.00  0.00     0.000 G0
ENDBRANCH  15  16
ENDBRANCH  13  15
ENDBRANCH  11  12
ENDBRANCH   1  11
TORSDOF 0
ENDMDL
MODEL 6
REMARK VINA RESULT:    -3.953      1.939      4.364
REMARK INTER + INTRA:          -5.819
REMARK INTER:                  -5.737
REMARK INTRA:                  -0.082
REMARK UNBOUND:                -0.249
REMARK SMILES CC1=CCC(=C(C)C)CCC(C)=CCC1
REMARK SMILES IDX 5 1 6 2 7 3 8 4 9 5 10 6 11 7 12 8 13 9 4 11 3 12 2 13 1 14
REMARK SMILES IDX 15 15 14 16
REMARK H PARENT
REMARK Flexibility Score: 60.00
ROOT
ATOM      1  C   UNL     1       2.336  -2.228  16.537  1.00  0.00    -0.067 C 
ATOM      2  C   UNL     1       1.821  -1.244  15.729  1.00  0.00    -0.077 C 
ATOM      3  C   UNL     1       2.715  -0.251  15.012  1.00  0.00     0.039 C 
ATOM      4  C   UNL     1       0.327  -1.126  15.497  1.00  0.00     0.039 C 
ENDROOT
BRANCH   1   5
ATOM      5  C   UNL     1       3.843  -2.303  16.801  1.00  0.00     0.035 C 
BRANCH   5   6
ATOM      6  C   UNL     1       4.217  -1.916  18.249  1.00  0.00     0.035 C 
BRANCH   6   7
ATOM      7  C   UNL     1       5.212  -2.878  18.873  1.00  0.00    -0.077 C 
ATOM      8  C   UNL     1       6.582  -3.006  18.256  1.00  0.00     0.039 C 
ATOM      9  C   UNL     1       4.940  -3.624  19.968  1.00  0.00    -0.028 CG0
ATOM     10  G   UNL     1       3.608  -3.679  20.678  1.00  0.00     0.000 G0
ENDBRANCH   6   7
ENDBRANCH   5   6
ENDBRANCH   1   5
BRANCH   1  11
ATOM     11  C   UNL     1       1.387  -3.276  17.132  1.00  0.00     0.058 C 
BRANCH  11  12
ATOM     12  C   UNL     1       0.818  -2.931  18.486  1.00  0.00    -0.024 C 
ATOM     13  C   UNL     1       1.280  -3.390  19.671  1.00  0.00    -0.077 C 
ATOM     14  C   UNL     1       0.542  -2.979  20.921  1.00  0.00     0.039 C 
BRANCH  13  15
ATOM     15  C   UNL     1       2.505  -4.283  19.801  1.00  0.00     0.034 C 
BRANCH  15  16
ATOM     16  C   UNL     1       3.601  -3.687  20.696  1.00  0.00     0.032 CG0
ATOM     17  G   UNL     1       4.930  -3.636  19.979  1.00  0.00     0.000 G0
ENDBRANCH  15  16
ENDBRANCH  13  15
ENDBRANCH  11  12
ENDBRANCH   1  11
TORSDOF 0
ENDMDL
MODEL 7
REMARK VINA RESULT:    -3.945      2.144      4.456
REMARK INTER + INTRA:          -5.808
REMARK INTER:                  -5.605
REMARK INTRA:                  -0.203
REMARK UNBOUND:                -0.249
REMARK SMILES CC1=CCC(=C(C)C)CCC(C)=CCC1
REMARK SMILES IDX 5 1 6 2 7 3 8 4 9 5 10 6 11 7 12 8 13 9 4 11 3 12 2 13 1 14
REMARK SMILES IDX 15 15 14 16
REMARK H PARENT
REMARK Flexibility Score: 60.00
ROOT
ATOM      1  C   UNL     1       2.118  -2.437  17.058  1.00  0.00    -0.067 C 
ATOM      2  C   UNL     1       1.953  -1.522  16.048  1.00  0.00    -0.077 C 
ATOM      3  C   UNL     1       3.133  -0.954  15.284  1.00  0.00     0.039 C 
ATOM      4  C   UNL     1       0.570  -1.059  15.633  1.00  0.00     0.039 C 
ENDROOT
BRANCH   1   5
ATOM      5  C   UNL     1       3.525  -2.857  17.498  1.00  0.00     0.035 C 
BRANCH   5   6
ATOM      6  C   UNL     1       3.739  -2.720  19.022  1.00  0.00     0.035 C 
BRANCH   6   7
ATOM      7  C   UNL     1       3.733  -4.061  19.736  1.00  0.00    -0.077 C 
ATOM      8  C   UNL     1       4.687  -5.133  19.273  1.00  0.00     0.039 C 
ATOM      9  C   UNL     1       2.923  -4.343  20.781  1.00  0.00    -0.028 CG0
ATOM     10  G   UNL     1       1.862  -3.423  21.338  1.00  0.00     0.000 G0
ENDBRANCH   6   7
ENDBRANCH   5   6
ENDBRANCH   1   5
BRANCH   1  11
ATOM     11  C   UNL     1       0.878  -3.066  17.704  1.00  0.00     0.058 C 
BRANCH  11  12
ATOM     12  C   UNL     1       0.138  -2.176  18.673  1.00  0.00    -0.024 C 
ATOM     13  C   UNL     1      -0.070  -2.444  19.981  1.00  0.00    -0.077 C 
ATOM     14  C   UNL     1      -0.886  -1.459  20.780  1.00  0.00     0.039 C 
BRANCH  13  15
ATOM     15  C   UNL     1       0.487  -3.676  20.681  1.00  0.00     0.034 C 
BRANCH  15  16
ATOM     16  C   UNL     1       1.848  -3.433  21.349  1.00  0.00     0.032 CG0
ATOM     17  G   UNL     1       2.911  -4.343  20.779  1.00  0.00     0.000 G0
ENDBRANCH  15  16
ENDBRANCH  13  15
ENDBRANCH  11  12
ENDBRANCH   1  11
TORSDOF 0
ENDMDL
MODEL 8
REMARK VINA RESULT:    -3.881      2.151      4.470
REMARK INTER + INTRA:          -5.718
REMARK INTER:                  -5.550
REMARK INTRA:                  -0.168
REMARK UNBOUND:                -0.249
REMARK SMILES CC1=CCC(=C(C)C)CCC(C)=CCC1
REMARK SMILES IDX 5 1 6 2 7 3 8 4 9 5 10 6 11 7 12 8 13 9 4 11 3 12 2 13 1 14
REMARK SMILES IDX 15 15 14 16
REMARK H PARENT
REMARK Flexibility Score: 60.00
ROOT
ATOM      1  C   UNL     1       2.569  -2.598  17.999  1.00  0.00    -0.067 C 
ATOM      2  C   UNL     1       2.077  -2.136  16.804  1.00  0.00    -0.077 C 
ATOM      3  C   UNL     1       2.925  -2.118  15.546  1.00  0.00     0.039 C 
ATOM      4  C   UNL     1       0.647  -1.648  16.684  1.00  0.00     0.039 C 
ENDROOT
BRANCH   1   5
ATOM      5  C   UNL     1       4.031  -3.042  18.115  1.00  0.00     0.035 C 
BRANCH   5   6
ATOM      6  C   UNL     1       4.202  -4.323  18.962  1.00  0.00     0.035 C 
BRANCH   6   7
ATOM      7  C   UNL     1       4.631  -4.028  20.388  1.00  0.00    -0.077 C 
ATOM      8  C   UNL     1       5.821  -3.131  20.617  1.00  0.00     0.039 C 
ATOM      9  C   UNL     1       3.991  -4.520  21.474  1.00  0.00    -0.028 CG0
ATOM     10  G   UNL     1       2.828  -5.483  21.441  1.00  0.00     0.000 G0
ENDBRANCH   6   7
ENDBRANCH   5   6
ENDBRANCH   1   5
BRANCH   1  11
ATOM     11  C   UNL     1       1.624  -2.708  19.202  1.00  0.00     0.058 C 
BRANCH  11  12
ATOM     12  C   UNL     1       0.742  -3.933  19.216  1.00  0.00    -0.024 C 
ATOM     13  C   UNL     1       0.692  -4.851  20.206  1.00  0.00    -0.077 C 
ATOM     14  C   UNL     1      -0.212  -6.044  20.015  1.00  0.00     0.039 C 
BRANCH  13  15
ATOM     15  C   UNL     1       1.489  -4.732  21.498  1.00  0.00     0.034 C 
BRANCH  15  16
ATOM     16  C   UNL     1       2.830  -5.478  21.457  1.00  0.00     0.032 CG0
ATOM     17  G   UNL     1       3.995  -4.518  21.473  1.00  0.00     0.000 G0
ENDBRANCH  15  16
ENDBRANCH  13  15
ENDBRANCH  11  12
ENDBRANCH   1  11
TORSDOF 0
ENDMDL
MODEL 9
REMARK VINA RESULT:    -3.823      2.351      5.456
REMARK INTER + INTRA:          -5.636
REMARK INTER:                  -5.393
REMARK INTRA:                  -0.242
REMARK UNBOUND:                -0.249
REMARK SMILES CC1=CCC(=C(C)C)CCC(C)=CCC1
REMARK SMILES IDX 5 1 6 2 7 3 8 4 9 5 10 6 11 7 12 8 13 9 4 11 3 12 2 13 1 14
REMARK SMILES IDX 15 15 14 16
REMARK H PARENT
REMARK Flexibility Score: 60.00
ROOT
ATOM      1  C   UNL     1       1.084  -3.164  18.771  1.00  0.00    -0.067 C 
ATOM      2  C   UNL     1       0.386  -2.098  18.261  1.00  0.00    -0.077 C 
ATOM      3  C   UNL     1      -0.734  -1.433  19.038  1.00  0.00     0.039 C 
ATOM      4  C   UNL     1       0.726  -1.520  16.901  1.00  0.00     0.039 C 
ENDROOT
BRANCH   1   5
ATOM      5  C   UNL     1       0.696  -3.768  20.125  1.00  0.00     0.035 C 
BRANCH   5   6
ATOM      6  C   UNL     1       1.862  -3.763  21.139  1.00  0.00     0.035 C 
BRANCH   6   7
ATOM      7  C   UNL     1       2.318  -5.163  21.512  1.00  0.00    -0.077 C 
ATOM      8  C   UNL     1       1.307  -6.128  22.078  1.00  0.00     0.039 C 
ATOM      9  C   UNL     1       3.588  -5.600  21.350  1.00  0.00    -0.028 CG0
ATOM     10  G   UNL     1       4.745  -4.760  20.864  1.00  0.00     0.000 G0
ENDBRANCH   6   7
ENDBRANCH   5   6
ENDBRANCH   1   5
BRANCH   1  11
ATOM     11  C   UNL     1       2.286  -3.710  17.991  1.00  0.00     0.058 C 
BRANCH  11  12
ATOM     12  C   UNL     1       3.561  -2.915  18.136  1.00  0.00    -0.024 C 
ATOM     13  C   UNL     1       4.685  -3.342  18.754  1.00  0.00    -0.077 C 
ATOM     14  C   UNL     1       5.843  -2.381  18.850  1.00  0.00     0.039 C 
BRANCH  13  15
ATOM     15  C   UNL     1       4.837  -4.739  19.340  1.00  0.00     0.034 C 
BRANCH  15  16
ATOM     16  C   UNL     1       4.758  -4.767  20.873  1.00  0.00     0.032 CG0
ATOM     17  G   UNL     1       3.594  -5.603  21.350  1.00  0.00     0.000 G0
ENDBRANCH  15  16
ENDBRANCH  13  15
ENDBRANCH  11  12
ENDBRANCH   1  11
TORSDOF 0
ENDMDL
