MODEL 1
REMARK VINA RESULT:    -6.842      0.000      0.000
REMARK INTER + INTRA:         -11.008
REMARK INTER:                  -9.842
REMARK INTRA:                  -1.167
REMARK UNBOUND:                -1.167
REMARK SMILES O=c1c(O[C@@H]2O[C@@H](CO)[C@@H](O)[C@@H](O)[C@@H]2O)c(-c2ccc(O)cc2)oc2cc(O)cc(O)c12
REMARK SMILES IDX 4 1 3 2 16 3 24 4 2 5 25 6 1 7 32 8 26 9 30 10 27 11 29 12
REMARK SMILES IDX 17 13 18 14 19 15 20 16 23 17 22 18 21 19 31 21 28 23 5 25
REMARK SMILES IDX 14 26 6 27 12 28 7 29 10 30 15 31 13 33 8 35 9 36 11 38
REMARK H PARENT 21 20 31 22 28 24 15 32 13 34 9 37 11 39
REMARK Flexibility Score: inf
ROOT
ATOM      1  O   UNL     1      55.083   3.761  80.834  1.00  0.00    -0.454 OA
ENDROOT
BRANCH   1   2
ATOM      2  C   UNL     1      55.686   4.674  79.957  1.00  0.00     0.214 A 
ATOM      3  C   UNL     1      54.939   5.056  78.816  1.00  0.00     0.180 A 
ATOM      4  O   UNL     1      55.424   5.956  77.973  1.00  0.00    -0.452 OA
ATOM      5  C   UNL     1      56.951   5.263  80.151  1.00  0.00     0.239 A 
ATOM      6  C   UNL     1      56.622   6.496  78.093  1.00  0.00     0.146 A 
ATOM      7  O   UNL     1      57.644   4.968  81.160  1.00  0.00    -0.285 OA
ATOM      8  C   UNL     1      57.453   6.160  79.188  1.00  0.00     0.111 A 
ATOM      9  C   UNL     1      57.077   7.362  77.090  1.00  0.00     0.094 A 
ATOM     10  C   UNL     1      58.791   6.631  79.191  1.00  0.00     0.134 A 
ATOM     11  C   UNL     1      58.400   7.808  77.090  1.00  0.00     0.123 A 
ATOM     12  C   UNL     1      59.249   7.445  78.134  1.00  0.00     0.093 A 
BRANCH   3  13
ATOM     13  C   UNL     1      53.595   4.505  78.541  1.00  0.00     0.021 A 
ATOM     14  C   UNL     1      52.463   5.255  78.908  1.00  0.00     0.016 A 
ATOM     15  C   UNL     1      51.177   4.743  78.715  1.00  0.00     0.047 A 
ATOM     16  C   UNL     1      51.003   3.464  78.165  1.00  0.00     0.115 A 
ATOM     17  C   UNL     1      53.412   3.254  77.920  1.00  0.00     0.016 A 
ATOM     18  C   UNL     1      52.124   2.734  77.750  1.00  0.00     0.047 A 
BRANCH  16  19
ATOM     19  O   UNL     1      49.728   2.903  78.023  1.00  0.00    -0.508 OA
ATOM     20  H   UNL     1      49.257   2.427  78.778  1.00  0.00     0.293 HD
ENDBRANCH  16  19
ENDBRANCH   3  13
BRANCH  10  21
ATOM     21  O   UNL     1      59.699   6.251  80.177  1.00  0.00    -0.507 OA
ATOM     22  H   UNL     1      60.123   5.330  80.077  1.00  0.00     0.293 HD
ENDBRANCH  10  21
BRANCH  11  23
ATOM     23  O   UNL     1      58.857   8.609  76.043  1.00  0.00    -0.508 OA
ATOM     24  H   UNL     1      59.708   8.361  75.527  1.00  0.00     0.293 HD
ENDBRANCH  11  23
ENDBRANCH   1   2
BRANCH   1  25
ATOM     25  C   UNL     1      54.115   3.963  81.869  1.00  0.00     0.339 C 
ATOM     26  C   UNL     1      53.158   2.743  82.022  1.00  0.00     0.214 C 
ATOM     27  O   UNL     1      54.742   4.354  83.086  1.00  0.00    -0.332 OA
ATOM     28  C   UNL     1      52.799   2.531  83.502  1.00  0.00     0.180 C 
ATOM     29  C   UNL     1      53.799   4.743  84.103  1.00  0.00     0.179 C 
ATOM     30  C   UNL     1      52.470   3.889  84.125  1.00  0.00     0.177 C 
BRANCH  26  31
ATOM     31  O   UNL     1      53.682   1.540  81.505  1.00  0.00    -0.384 OA
ATOM     32  H   UNL     1      54.165   1.071  82.243  1.00  0.00     0.211 HD
ENDBRANCH  26  31
BRANCH  28  33
ATOM     33  O   UNL     1      51.722   1.637  83.589  1.00  0.00    -0.387 OA
ATOM     34  H   UNL     1      52.123   0.735  83.734  1.00  0.00     0.211 HD
ENDBRANCH  28  33
BRANCH  29  35
ATOM     35  C   UNL     1      53.609   6.271  84.125  1.00  0.00     0.191 C 
BRANCH  35  36
ATOM     36  O   UNL     1      54.851   6.909  83.938  1.00  0.00    -0.394 OA
ATOM     37  H   UNL     1      55.040   7.407  84.778  1.00  0.00     0.210 HD
ENDBRANCH  35  36
ENDBRANCH  29  35
BRANCH  30  38
ATOM     38  O   UNL     1      51.361   4.476  83.466  1.00  0.00    -0.387 OA
ATOM     39  H   UNL     1      50.598   4.553  84.093  1.00  0.00     0.211 HD
ENDBRANCH  30  38
ENDBRANCH   1  25
TORSDOF 11
ENDMDL
MODEL 2
REMARK VINA RESULT:    -6.742      2.451      6.507
REMARK INTER + INTRA:         -10.864
REMARK INTER:                  -9.811
REMARK INTRA:                  -1.053
REMARK UNBOUND:                -1.167
REMARK SMILES O=c1c(O[C@@H]2O[C@@H](CO)[C@@H](O)[C@@H](O)[C@@H]2O)c(-c2ccc(O)cc2)oc2cc(O)cc(O)c12
REMARK SMILES IDX 4 1 3 2 16 3 24 4 2 5 25 6 1 7 32 8 26 9 30 10 27 11 29 12
REMARK SMILES IDX 17 13 18 14 19 15 20 16 23 17 22 18 21 19 31 21 28 23 5 25
REMARK SMILES IDX 14 26 6 27 12 28 7 29 10 30 15 31 13 33 8 35 9 36 11 38
REMARK H PARENT 21 20 31 22 28 24 15 32 13 34 9 37 11 39
REMARK Flexibility Score: inf
ROOT
ATOM      1  O   UNL     1      55.276   5.692  81.621  1.00  0.00    -0.454 OA
ENDROOT
BRANCH   1   2
ATOM      2  C   UNL     1      54.444   5.069  80.678  1.00  0.00     0.214 A 
ATOM      3  C   UNL     1      54.952   4.937  79.364  1.00  0.00     0.180 A 
ATOM      4  O   UNL     1      54.243   4.310  78.436  1.00  0.00    -0.452 OA
ATOM      5  C   UNL     1      53.171   4.535  80.957  1.00  0.00     0.239 A 
ATOM      6  C   UNL     1      53.029   3.837  78.643  1.00  0.00     0.146 A 
ATOM      7  O   UNL     1      52.686   4.613  82.116  1.00  0.00    -0.285 OA
ATOM      8  C   UNL     1      52.426   3.943  79.918  1.00  0.00     0.111 A 
ATOM      9  C   UNL     1      52.328   3.282  77.564  1.00  0.00     0.094 A 
ATOM     10  C   UNL     1      51.063   3.575  80.054  1.00  0.00     0.134 A 
ATOM     11  C   UNL     1      50.981   2.938  77.701  1.00  0.00     0.123 A 
ATOM     12  C   UNL     1      50.356   3.083  78.938  1.00  0.00     0.093 A 
BRANCH   3  13
ATOM     13  C   UNL     1      56.287   5.449  78.985  1.00  0.00     0.021 A 
ATOM     14  C   UNL     1      57.429   4.872  79.568  1.00  0.00     0.016 A 
ATOM     15  C   UNL     1      58.703   5.366  79.276  1.00  0.00     0.047 A 
ATOM     16  C   UNL     1      58.854   6.458  78.408  1.00  0.00     0.115 A 
ATOM     17  C   UNL     1      56.450   6.496  78.056  1.00  0.00     0.016 A 
ATOM     18  C   UNL     1      57.725   7.004  77.784  1.00  0.00     0.047 A 
BRANCH  16  19
ATOM     19  O   UNL     1      60.114   7.012  78.152  1.00  0.00    -0.508 OA
ATOM     20  H   UNL     1      60.349   7.963  78.398  1.00  0.00     0.293 HD
ENDBRANCH  16  19
ENDBRANCH   3  13
BRANCH  10  21
ATOM     21  O   UNL     1      50.372   3.755  81.251  1.00  0.00    -0.507 OA
ATOM     22  H   UNL     1      49.870   4.635  81.361  1.00  0.00     0.293 HD
ENDBRANCH  10  21
BRANCH  11  23
ATOM     23  O   UNL     1      50.277   2.456  76.597  1.00  0.00    -0.508 OA
ATOM     24  H   UNL     1      49.434   1.885  76.722  1.00  0.00     0.293 HD
ENDBRANCH  11  23
ENDBRANCH   1   2
BRANCH   1  25
ATOM     25  C   UNL     1      55.272   7.029  82.130  1.00  0.00     0.339 C 
ATOM     26  C   UNL     1      56.418   7.269  83.157  1.00  0.00     0.214 C 
ATOM     27  O   UNL     1      55.246   7.980  81.069  1.00  0.00    -0.332 OA
ATOM     28  C   UNL     1      56.969   8.699  83.016  1.00  0.00     0.180 C 
ATOM     29  C   UNL     1      55.058   9.331  81.531  1.00  0.00     0.179 C 
ATOM     30  C   UNL     1      55.791   9.666  82.890  1.00  0.00     0.177 C 
BRANCH  26  31
ATOM     31  O   UNL     1      57.487   6.357  83.041  1.00  0.00    -0.384 OA
ATOM     32  H   UNL     1      57.114   5.482  82.733  1.00  0.00     0.211 HD
ENDBRANCH  26  31
BRANCH  28  33
ATOM     33  O   UNL     1      57.775   8.991  84.125  1.00  0.00    -0.387 OA
ATOM     34  H   UNL     1      58.265   9.829  83.896  1.00  0.00     0.211 HD
ENDBRANCH  28  33
BRANCH  29  35
ATOM     35  C   UNL     1      53.575   9.739  81.456  1.00  0.00     0.191 C 
BRANCH  35  36
ATOM     36  O   UNL     1      52.959   9.096  80.364  1.00  0.00    -0.394 OA
ATOM     37  H   UNL     1      52.154   8.636  80.727  1.00  0.00     0.210 HD
ENDBRANCH  35  36
ENDBRANCH  29  35
BRANCH  30  38
ATOM     38  O   UNL     1      54.979   9.604  84.049  1.00  0.00    -0.387 OA
ATOM     39  H   UNL     1      54.310   8.880  83.954  1.00  0.00     0.211 HD
ENDBRANCH  30  38
ENDBRANCH   1  25
TORSDOF 11
ENDMDL
MODEL 3
REMARK VINA RESULT:    -6.713      2.190      6.487
REMARK INTER + INTRA:         -10.823
REMARK INTER:                  -9.613
REMARK INTRA:                  -1.210
REMARK UNBOUND:                -1.167
REMARK SMILES O=c1c(O[C@@H]2O[C@@H](CO)[C@@H](O)[C@@H](O)[C@@H]2O)c(-c2ccc(O)cc2)oc2cc(O)cc(O)c12
REMARK SMILES IDX 4 1 3 2 16 3 24 4 2 5 25 6 1 7 32 8 26 9 30 10 27 11 29 12
REMARK SMILES IDX 17 13 18 14 19 15 20 16 23 17 22 18 21 19 31 21 28 23 5 25
REMARK SMILES IDX 14 26 6 27 12 28 7 29 10 30 15 31 13 33 8 35 9 36 11 38
REMARK H PARENT 21 20 31 22 28 24 15 32 13 34 9 37 11 39
REMARK Flexibility Score: inf
ROOT
ATOM      1  O   UNL     1      55.649   5.368  81.832  1.00  0.00    -0.454 OA
ENDROOT
BRANCH   1   2
ATOM      2  C   UNL     1      54.785   4.836  80.864  1.00  0.00     0.214 A 
ATOM      3  C   UNL     1      55.236   4.853  79.523  1.00  0.00     0.180 A 
ATOM      4  O   UNL     1      54.495   4.317  78.564  1.00  0.00    -0.452 OA
ATOM      5  C   UNL     1      53.531   4.255  81.137  1.00  0.00     0.239 A 
ATOM      6  C   UNL     1      53.296   3.805  78.769  1.00  0.00     0.146 A 
ATOM      7  O   UNL     1      53.095   4.201  82.317  1.00  0.00    -0.285 OA
ATOM      8  C   UNL     1      52.749   3.765  80.073  1.00  0.00     0.111 A 
ATOM      9  C   UNL     1      52.556   3.357  77.668  1.00  0.00     0.094 A 
ATOM     10  C   UNL     1      51.397   3.362  80.226  1.00  0.00     0.134 A 
ATOM     11  C   UNL     1      51.220   2.978  77.824  1.00  0.00     0.123 A 
ATOM     12  C   UNL     1      50.648   2.981  79.094  1.00  0.00     0.093 A 
BRANCH   3  13
ATOM     13  C   UNL     1      56.548   5.423  79.146  1.00  0.00     0.021 A 
ATOM     14  C   UNL     1      57.721   4.773  79.567  1.00  0.00     0.016 A 
ATOM     15  C   UNL     1      58.977   5.313  79.277  1.00  0.00     0.047 A 
ATOM     16  C   UNL     1      59.078   6.523  78.573  1.00  0.00     0.115 A 
ATOM     17  C   UNL     1      56.658   6.598  78.374  1.00  0.00     0.016 A 
ATOM     18  C   UNL     1      57.916   7.148  78.106  1.00  0.00     0.047 A 
BRANCH  16  19
ATOM     19  O   UNL     1      60.322   7.117  78.328  1.00  0.00    -0.508 OA
ATOM     20  H   UNL     1      60.672   7.891  78.875  1.00  0.00     0.293 HD
ENDBRANCH  16  19
ENDBRANCH   3  13
BRANCH  10  21
ATOM     21  O   UNL     1      50.757   3.403  81.463  1.00  0.00    -0.507 OA
ATOM     22  H   UNL     1      50.547   4.327  81.839  1.00  0.00     0.293 HD
ENDBRANCH  10  21
BRANCH  11  23
ATOM     23  O   UNL     1      50.475   2.606  76.705  1.00  0.00    -0.508 OA
ATOM     24  H   UNL     1      50.939   2.340  75.830  1.00  0.00     0.293 HD
ENDBRANCH  11  23
ENDBRANCH   1   2
BRANCH   1  25
ATOM     25  C   UNL     1      56.073   6.715  82.065  1.00  0.00     0.339 C 
ATOM     26  C   UNL     1      54.962   7.569  82.746  1.00  0.00     0.214 C 
ATOM     27  O   UNL     1      57.320   6.747  82.752  1.00  0.00    -0.332 OA
ATOM     28  C   UNL     1      55.589   8.565  83.738  1.00  0.00     0.180 C 
ATOM     29  C   UNL     1      57.874   8.073  82.848  1.00  0.00     0.179 C 
ATOM     30  C   UNL     1      56.805   9.214  83.075  1.00  0.00     0.177 C 
BRANCH  26  31
ATOM     31  O   UNL     1      53.990   6.804  83.423  1.00  0.00    -0.384 OA
ATOM     32  H   UNL     1      53.870   5.946  82.925  1.00  0.00     0.211 HD
ENDBRANCH  26  31
BRANCH  28  33
ATOM     33  O   UNL     1      54.623   9.511  84.109  1.00  0.00    -0.387 OA
ATOM     34  H   UNL     1      54.939   9.905  84.969  1.00  0.00     0.211 HD
ENDBRANCH  28  33
BRANCH  29  35
ATOM     35  C   UNL     1      58.892   8.330  81.722  1.00  0.00     0.191 C 
BRANCH  35  36
ATOM     36  O   UNL     1      59.405   9.637  81.832  1.00  0.00    -0.394 OA
ATOM     37  H   UNL     1      59.883   9.824  80.980  1.00  0.00     0.210 HD
ENDBRANCH  35  36
ENDBRANCH  29  35
BRANCH  30  38
ATOM     38  O   UNL     1      56.412   9.918  81.910  1.00  0.00    -0.387 OA
ATOM     39  H   UNL     1      56.267  10.874  82.126  1.00  0.00     0.211 HD
ENDBRANCH  30  38
ENDBRANCH   1  25
TORSDOF 11
ENDMDL
MODEL 4
REMARK VINA RESULT:    -6.669      1.507      2.564
REMARK INTER + INTRA:         -10.759
REMARK INTER:                 -10.070
REMARK INTRA:                  -0.689
REMARK UNBOUND:                -1.167
REMARK SMILES O=c1c(O[C@@H]2O[C@@H](CO)[C@@H](O)[C@@H](O)[C@@H]2O)c(-c2ccc(O)cc2)oc2cc(O)cc(O)c12
REMARK SMILES IDX 4 1 3 2 16 3 24 4 2 5 25 6 1 7 32 8 26 9 30 10 27 11 29 12
REMARK SMILES IDX 17 13 18 14 19 15 20 16 23 17 22 18 21 19 31 21 28 23 5 25
REMARK SMILES IDX 14 26 6 27 12 28 7 29 10 30 15 31 13 33 8 35 9 36 11 38
REMARK H PARENT 21 20 31 22 28 24 15 32 13 34 9 37 11 39
REMARK Flexibility Score: inf
ROOT
ATOM      1  O   UNL     1      54.109   5.758  81.613  1.00  0.00    -0.454 OA
ENDROOT
BRANCH   1   2
ATOM      2  C   UNL     1      54.929   6.264  80.594  1.00  0.00     0.214 A 
ATOM      3  C   UNL     1      54.601   5.897  79.267  1.00  0.00     0.180 A 
ATOM      4  O   UNL     1      55.299   6.383  78.250  1.00  0.00    -0.452 OA
ATOM      5  C   UNL     1      56.016   7.136  80.794  1.00  0.00     0.239 A 
ATOM      6  C   UNL     1      56.352   7.164  78.397  1.00  0.00     0.146 A 
ATOM      7  O   UNL     1      56.333   7.505  81.956  1.00  0.00    -0.285 OA
ATOM      8  C   UNL     1      56.771   7.567  79.687  1.00  0.00     0.111 A 
ATOM      9  C   UNL     1      57.078   7.539  77.258  1.00  0.00     0.094 A 
ATOM     10  C   UNL     1      58.000   8.266  79.810  1.00  0.00     0.134 A 
ATOM     11  C   UNL     1      58.295   8.212  77.389  1.00  0.00     0.123 A 
ATOM     12  C   UNL     1      58.750   8.572  78.656  1.00  0.00     0.093 A 
BRANCH   3  13
ATOM     13  C   UNL     1      53.464   5.003  78.960  1.00  0.00     0.021 A 
ATOM     14  C   UNL     1      53.724   3.725  78.433  1.00  0.00     0.016 A 
ATOM     15  C   UNL     1      52.674   2.874  78.080  1.00  0.00     0.047 A 
ATOM     16  C   UNL     1      51.344   3.295  78.232  1.00  0.00     0.115 A 
ATOM     17  C   UNL     1      52.127   5.390  79.181  1.00  0.00     0.016 A 
ATOM     18  C   UNL     1      51.078   4.546  78.803  1.00  0.00     0.047 A 
BRANCH  16  19
ATOM     19  O   UNL     1      50.276   2.487  77.823  1.00  0.00    -0.508 OA
ATOM     20  H   UNL     1      50.080   1.591  78.247  1.00  0.00     0.293 HD
ENDBRANCH  16  19
ENDBRANCH   3  13
BRANCH  10  21
ATOM     21  O   UNL     1      58.531   8.597  81.055  1.00  0.00    -0.507 OA
ATOM     22  H   UNL     1      58.668   9.589  81.243  1.00  0.00     0.293 HD
ENDBRANCH  10  21
BRANCH  11  23
ATOM     23  O   UNL     1      59.043   8.512  76.250  1.00  0.00    -0.508 OA
ATOM     24  H   UNL     1      58.588   8.620  75.338  1.00  0.00     0.293 HD
ENDBRANCH  11  23
ENDBRANCH   1   2
BRANCH   1  25
ATOM     25  C   UNL     1      54.003   4.438  82.156  1.00  0.00     0.339 C 
ATOM     26  C   UNL     1      55.386   3.874  82.598  1.00  0.00     0.214 C 
ATOM     27  O   UNL     1      53.011   4.382  83.176  1.00  0.00    -0.332 OA
ATOM     28  C   UNL     1      55.231   3.016  83.866  1.00  0.00     0.180 C 
ATOM     29  C   UNL     1      52.742   3.040  83.625  1.00  0.00     0.179 C 
ATOM     30  C   UNL     1      54.013   2.106  83.693  1.00  0.00     0.177 C 
BRANCH  26  31
ATOM     31  O   UNL     1      56.356   4.869  82.839  1.00  0.00    -0.384 OA
ATOM     32  H   UNL     1      57.252   4.487  82.614  1.00  0.00     0.211 HD
ENDBRANCH  26  31
BRANCH  28  33
ATOM     33  O   UNL     1      56.410   2.285  84.072  1.00  0.00    -0.387 OA
ATOM     34  H   UNL     1      56.195   1.342  83.832  1.00  0.00     0.211 HD
ENDBRANCH  28  33
BRANCH  29  35
ATOM     35  C   UNL     1      51.520   2.450  82.899  1.00  0.00     0.191 C 
BRANCH  35  36
ATOM     36  O   UNL     1      51.806   2.298  81.528  1.00  0.00    -0.394 OA
ATOM     37  H   UNL     1      50.999   2.608  81.036  1.00  0.00     0.210 HD
ENDBRANCH  35  36
ENDBRANCH  29  35
BRANCH  30  38
ATOM     38  O   UNL     1      54.196   1.247  82.582  1.00  0.00    -0.387 OA
ATOM     39  H   UNL     1      54.302   0.312  82.891  1.00  0.00     0.211 HD
ENDBRANCH  30  38
ENDBRANCH   1  25
TORSDOF 11
ENDMDL
MODEL 5
REMARK VINA RESULT:    -6.493      2.497      4.396
REMARK INTER + INTRA:         -10.506
REMARK INTER:                  -8.916
REMARK INTRA:                  -1.590
REMARK UNBOUND:                -1.167
REMARK SMILES O=c1c(O[C@@H]2O[C@@H](CO)[C@@H](O)[C@@H](O)[C@@H]2O)c(-c2ccc(O)cc2)oc2cc(O)cc(O)c12
REMARK SMILES IDX 4 1 3 2 16 3 24 4 2 5 25 6 1 7 32 8 26 9 30 10 27 11 29 12
REMARK SMILES IDX 17 13 18 14 19 15 20 16 23 17 22 18 21 19 31 21 28 23 5 25
REMARK SMILES IDX 14 26 6 27 12 28 7 29 10 30 15 31 13 33 8 35 9 36 11 38
REMARK H PARENT 21 20 31 22 28 24 15 32 13 34 9 37 11 39
REMARK Flexibility Score: inf
ROOT
ATOM      1  O   UNL     1      55.147   4.449  79.976  1.00  0.00    -0.454 OA
ENDROOT
BRANCH   1   2
ATOM      2  C   UNL     1      56.077   5.278  80.621  1.00  0.00     0.214 A 
ATOM      3  C   UNL     1      56.356   6.524  80.010  1.00  0.00     0.180 A 
ATOM      4  O   UNL     1      57.183   7.380  80.593  1.00  0.00    -0.452 OA
ATOM      5  C   UNL     1      56.713   4.977  81.841  1.00  0.00     0.239 A 
ATOM      6  C   UNL     1      57.833   7.119  81.711  1.00  0.00     0.146 A 
ATOM      7  O   UNL     1      56.482   3.888  82.430  1.00  0.00    -0.285 OA
ATOM      8  C   UNL     1      57.638   5.890  82.383  1.00  0.00     0.111 A 
ATOM      9  C   UNL     1      58.761   8.056  82.187  1.00  0.00     0.094 A 
ATOM     10  C   UNL     1      58.478   5.581  83.484  1.00  0.00     0.134 A 
ATOM     11  C   UNL     1      59.595   7.738  83.261  1.00  0.00     0.123 A 
ATOM     12  C   UNL     1      59.453   6.510  83.903  1.00  0.00     0.093 A 
BRANCH   3  13
ATOM     13  C   UNL     1      55.720   6.933  78.740  1.00  0.00     0.021 A 
ATOM     14  C   UNL     1      54.566   7.736  78.782  1.00  0.00     0.016 A 
ATOM     15  C   UNL     1      53.907   8.097  77.604  1.00  0.00     0.047 A 
ATOM     16  C   UNL     1      54.383   7.644  76.363  1.00  0.00     0.115 A 
ATOM     17  C   UNL     1      56.236   6.546  77.487  1.00  0.00     0.016 A 
ATOM     18  C   UNL     1      55.560   6.888  76.311  1.00  0.00     0.047 A 
BRANCH  16  19
ATOM     19  O   UNL     1      53.702   7.937  75.176  1.00  0.00    -0.508 OA
ATOM     20  H   UNL     1      53.122   7.259  74.701  1.00  0.00     0.293 HD
ENDBRANCH  16  19
ENDBRANCH   3  13
BRANCH  10  21
ATOM     21  O   UNL     1      58.419   4.345  84.125  1.00  0.00    -0.507 OA
ATOM     22  H   UNL     1      57.527   4.091  84.547  1.00  0.00     0.293 HD
ENDBRANCH  10  21
BRANCH  11  23
ATOM     23  O   UNL     1      60.564   8.652  83.675  1.00  0.00    -0.508 OA
ATOM     24  H   UNL     1      60.976   8.591  84.612  1.00  0.00     0.293 HD
ENDBRANCH  11  23
ENDBRANCH   1   2
BRANCH   1  25
ATOM     25  C   UNL     1      53.766   4.201  80.257  1.00  0.00     0.339 C 
ATOM     26  C   UNL     1      52.866   4.412  79.003  1.00  0.00     0.214 C 
ATOM     27  O   UNL     1      53.590   2.933  80.880  1.00  0.00    -0.332 OA
ATOM     28  C   UNL     1      51.717   3.389  78.994  1.00  0.00     0.180 C 
ATOM     29  C   UNL     1      52.244   2.718  81.345  1.00  0.00     0.179 C 
ATOM     30  C   UNL     1      51.123   3.309  80.402  1.00  0.00     0.177 C 
BRANCH  26  31
ATOM     31  O   UNL     1      53.562   4.324  77.780  1.00  0.00    -0.384 OA
ATOM     32  H   UNL     1      53.036   3.736  77.166  1.00  0.00     0.211 HD
ENDBRANCH  26  31
BRANCH  28  33
ATOM     33  O   UNL     1      50.765   3.777  78.041  1.00  0.00    -0.387 OA
ATOM     34  H   UNL     1      50.337   4.603  78.400  1.00  0.00     0.211 HD
ENDBRANCH  28  33
BRANCH  29  35
ATOM     35  C   UNL     1      52.113   3.071  82.838  1.00  0.00     0.191 C 
BRANCH  35  36
ATOM     36  O   UNL     1      50.820   2.743  83.293  1.00  0.00    -0.394 OA
ATOM     37  H   UNL     1      50.527   1.954  82.763  1.00  0.00     0.210 HD
ENDBRANCH  35  36
ENDBRANCH  29  35
BRANCH  30  38
ATOM     38  O   UNL     1      50.607   4.570  80.789  1.00  0.00    -0.387 OA
ATOM     39  H   UNL     1      49.762   4.751  80.305  1.00  0.00     0.211 HD
ENDBRANCH  30  38
ENDBRANCH   1  25
TORSDOF 11
ENDMDL
MODEL 6
REMARK VINA RESULT:    -6.388      9.043     12.656
REMARK INTER + INTRA:         -10.355
REMARK INTER:                  -9.351
REMARK INTRA:                  -1.003
REMARK UNBOUND:                -1.167
REMARK SMILES O=c1c(O[C@@H]2O[C@@H](CO)[C@@H](O)[C@@H](O)[C@@H]2O)c(-c2ccc(O)cc2)oc2cc(O)cc(O)c12
REMARK SMILES IDX 4 1 3 2 16 3 24 4 2 5 25 6 1 7 32 8 26 9 30 10 27 11 29 12
REMARK SMILES IDX 17 13 18 14 19 15 20 16 23 17 22 18 21 19 31 21 28 23 5 25
REMARK SMILES IDX 14 26 6 27 12 28 7 29 10 30 15 31 13 33 8 35 9 36 11 38
REMARK H PARENT 21 20 31 22 28 24 15 32 13 34 9 37 11 39
REMARK Flexibility Score: inf
ROOT
ATOM      1  O   UNL     1      51.739  -5.283  80.345  1.00  0.00    -0.454 OA
ENDROOT
BRANCH   1   2
ATOM      2  C   UNL     1      52.622  -6.094  81.073  1.00  0.00     0.214 A 
ATOM      3  C   UNL     1      53.223  -5.519  82.218  1.00  0.00     0.180 A 
ATOM      4  O   UNL     1      54.026  -6.245  82.984  1.00  0.00    -0.452 OA
ATOM      5  C   UNL     1      52.917  -7.438  80.770  1.00  0.00     0.239 A 
ATOM      6  C   UNL     1      54.364  -7.491  82.711  1.00  0.00     0.146 A 
ATOM      7  O   UNL     1      52.392  -7.997  79.772  1.00  0.00    -0.285 OA
ATOM      8  C   UNL     1      53.833  -8.144  81.574  1.00  0.00     0.111 A 
ATOM      9  C   UNL     1      55.299  -8.132  83.533  1.00  0.00     0.094 A 
ATOM     10  C   UNL     1      54.348  -9.419  81.225  1.00  0.00     0.134 A 
ATOM     11  C   UNL     1      55.815  -9.380  83.174  1.00  0.00     0.123 A 
ATOM     12  C   UNL     1      55.341 -10.016  82.029  1.00  0.00     0.093 A 
BRANCH   3  13
ATOM     13  C   UNL     1      52.957  -4.123  82.625  1.00  0.00     0.021 A 
ATOM     14  C   UNL     1      51.632  -3.729  82.888  1.00  0.00     0.016 A 
ATOM     15  C   UNL     1      51.336  -2.405  83.221  1.00  0.00     0.047 A 
ATOM     16  C   UNL     1      52.360  -1.447  83.279  1.00  0.00     0.115 A 
ATOM     17  C   UNL     1      53.990  -3.173  82.759  1.00  0.00     0.016 A 
ATOM     18  C   UNL     1      53.687  -1.843  83.068  1.00  0.00     0.047 A 
BRANCH  16  19
ATOM     19  O   UNL     1      52.080  -0.102  83.544  1.00  0.00    -0.508 OA
ATOM     20  H   UNL     1      52.695   0.648  83.262  1.00  0.00     0.293 HD
ENDBRANCH  16  19
ENDBRANCH   3  13
BRANCH  10  21
ATOM     21  O   UNL     1      53.954 -10.073  80.060  1.00  0.00    -0.507 OA
ATOM     22  H   UNL     1      53.790  -9.489  79.241  1.00  0.00     0.293 HD
ENDBRANCH  10  21
BRANCH  11  23
ATOM     23  O   UNL     1      56.801  -9.971  83.964  1.00  0.00    -0.508 OA
ATOM     24  H   UNL     1      56.828  -9.810  84.976  1.00  0.00     0.293 HD
ENDBRANCH  11  23
ENDBRANCH   1   2
BRANCH   1  25
ATOM     25  C   UNL     1      50.308  -5.261  80.310  1.00  0.00     0.339 C 
ATOM     26  C   UNL     1      49.749  -5.719  78.930  1.00  0.00     0.214 C 
ATOM     27  O   UNL     1      49.758  -5.972  81.414  1.00  0.00    -0.332 OA
ATOM     28  C   UNL     1      48.447  -6.517  79.121  1.00  0.00     0.180 C 
ATOM     29  C   UNL     1      48.330  -5.824  81.521  1.00  0.00     0.179 C 
ATOM     30  C   UNL     1      47.570  -5.783  80.137  1.00  0.00     0.177 C 
BRANCH  26  31
ATOM     31  O   UNL     1      50.653  -6.499  78.179  1.00  0.00    -0.384 OA
ATOM     32  H   UNL     1      51.570  -6.124  78.314  1.00  0.00     0.211 HD
ENDBRANCH  26  31
BRANCH  28  33
ATOM     33  O   UNL     1      47.811  -6.660  77.880  1.00  0.00    -0.387 OA
ATOM     34  H   UNL     1      47.735  -5.740  77.502  1.00  0.00     0.211 HD
ENDBRANCH  28  33
BRANCH  29  35
ATOM     35  C   UNL     1      47.963  -4.707  82.516  1.00  0.00     0.191 C 
BRANCH  35  36
ATOM     36  O   UNL     1      48.094  -3.451  81.891  1.00  0.00    -0.394 OA
ATOM     37  H   UNL     1      47.263  -2.945  82.101  1.00  0.00     0.210 HD
ENDBRANCH  35  36
ENDBRANCH  29  35
BRANCH  30  38
ATOM     38  O   UNL     1      47.245  -4.489  79.661  1.00  0.00    -0.387 OA
ATOM     39  H   UNL     1      47.306  -4.468  78.673  1.00  0.00     0.211 HD
ENDBRANCH  30  38
ENDBRANCH   1  25
TORSDOF 11
ENDMDL
MODEL 7
REMARK VINA RESULT:    -6.360      1.720      2.237
REMARK INTER + INTRA:         -10.315
REMARK INTER:                  -9.006
REMARK INTRA:                  -1.309
REMARK UNBOUND:                -1.167
REMARK SMILES O=c1c(O[C@@H]2O[C@@H](CO)[C@@H](O)[C@@H](O)[C@@H]2O)c(-c2ccc(O)cc2)oc2cc(O)cc(O)c12
REMARK SMILES IDX 4 1 3 2 16 3 24 4 2 5 25 6 1 7 32 8 26 9 30 10 27 11 29 12
REMARK SMILES IDX 17 13 18 14 19 15 20 16 23 17 22 18 21 19 31 21 28 23 5 25
REMARK SMILES IDX 14 26 6 27 12 28 7 29 10 30 15 31 13 33 8 35 9 36 11 38
REMARK H PARENT 21 20 31 22 28 24 15 32 13 34 9 37 11 39
REMARK Flexibility Score: inf
ROOT
ATOM      1  O   UNL     1      54.951   4.433  80.051  1.00  0.00    -0.454 OA
ENDROOT
BRANCH   1   2
ATOM      2  C   UNL     1      54.867   5.466  79.106  1.00  0.00     0.214 A 
ATOM      3  C   UNL     1      53.713   5.493  78.288  1.00  0.00     0.180 A 
ATOM      4  O   UNL     1      53.541   6.471  77.411  1.00  0.00    -0.452 OA
ATOM      5  C   UNL     1      55.820   6.490  78.946  1.00  0.00     0.239 A 
ATOM      6  C   UNL     1      54.430   7.423  77.197  1.00  0.00     0.146 A 
ATOM      7  O   UNL     1      56.855   6.518  79.664  1.00  0.00    -0.285 OA
ATOM      8  C   UNL     1      55.627   7.467  77.950  1.00  0.00     0.111 A 
ATOM      9  C   UNL     1      54.193   8.352  76.175  1.00  0.00     0.094 A 
ATOM     10  C   UNL     1      56.626   8.402  77.576  1.00  0.00     0.134 A 
ATOM     11  C   UNL     1      55.188   9.257  75.801  1.00  0.00     0.123 A 
ATOM     12  C   UNL     1      56.394   9.281  76.498  1.00  0.00     0.093 A 
BRANCH   3  13
ATOM     13  C   UNL     1      52.650   4.471  78.399  1.00  0.00     0.021 A 
ATOM     14  C   UNL     1      52.814   3.241  77.738  1.00  0.00     0.016 A 
ATOM     15  C   UNL     1      51.806   2.273  77.775  1.00  0.00     0.047 A 
ATOM     16  C   UNL     1      50.610   2.527  78.463  1.00  0.00     0.115 A 
ATOM     17  C   UNL     1      51.478   4.690  79.151  1.00  0.00     0.016 A 
ATOM     18  C   UNL     1      50.462   3.729  79.167  1.00  0.00     0.047 A 
BRANCH  16  19
ATOM     19  O   UNL     1      49.561   1.600  78.460  1.00  0.00    -0.508 OA
ATOM     20  H   UNL     1      48.593   1.875  78.543  1.00  0.00     0.293 HD
ENDBRANCH  16  19
ENDBRANCH   3  13
BRANCH  10  21
ATOM     21  O   UNL     1      57.872   8.429  78.199  1.00  0.00    -0.507 OA
ATOM     22  H   UNL     1      58.620   7.905  77.747  1.00  0.00     0.293 HD
ENDBRANCH  10  21
BRANCH  11  23
ATOM     23  O   UNL     1      54.964  10.125  74.732  1.00  0.00    -0.508 OA
ATOM     24  H   UNL     1      54.443  10.998  74.865  1.00  0.00     0.293 HD
ENDBRANCH  11  23
ENDBRANCH   1   2
BRANCH   1  25
ATOM     25  C   UNL     1      54.530   4.383  81.418  1.00  0.00     0.339 C 
ATOM     26  C   UNL     1      53.607   3.161  81.702  1.00  0.00     0.214 C 
ATOM     27  O   UNL     1      55.644   4.476  82.300  1.00  0.00    -0.332 OA
ATOM     28  C   UNL     1      53.880   2.604  83.110  1.00  0.00     0.180 C 
ATOM     29  C   UNL     1      55.257   4.612  83.680  1.00  0.00     0.179 C 
ATOM     30  C   UNL     1      53.980   3.776  84.088  1.00  0.00     0.177 C 
BRANCH  26  31
ATOM     31  O   UNL     1      53.742   2.115  80.766  1.00  0.00    -0.384 OA
ATOM     32  H   UNL     1      54.039   1.297  81.258  1.00  0.00     0.211 HD
ENDBRANCH  26  31
BRANCH  28  33
ATOM     33  O   UNL     1      52.854   1.714  83.458  1.00  0.00    -0.387 OA
ATOM     34  H   UNL     1      52.060   1.985  82.919  1.00  0.00     0.211 HD
ENDBRANCH  28  33
BRANCH  29  35
ATOM     35  C   UNL     1      55.249   6.091  84.108  1.00  0.00     0.191 C 
BRANCH  35  36
ATOM     36  O   UNL     1      56.452   6.708  83.714  1.00  0.00    -0.394 OA
ATOM     37  H   UNL     1      56.235   7.664  83.541  1.00  0.00     0.210 HD
ENDBRANCH  35  36
ENDBRANCH  29  35
BRANCH  30  38
ATOM     38  O   UNL     1      52.763   4.501  84.113  1.00  0.00    -0.387 OA
ATOM     39  H   UNL     1      52.158   4.169  83.402  1.00  0.00     0.211 HD
ENDBRANCH  30  38
ENDBRANCH   1  25
TORSDOF 11
ENDMDL
MODEL 8
REMARK VINA RESULT:    -6.343      2.079      4.777
REMARK INTER + INTRA:         -10.291
REMARK INTER:                  -9.111
REMARK INTRA:                  -1.180
REMARK UNBOUND:                -1.167
REMARK SMILES O=c1c(O[C@@H]2O[C@@H](CO)[C@@H](O)[C@@H](O)[C@@H]2O)c(-c2ccc(O)cc2)oc2cc(O)cc(O)c12
REMARK SMILES IDX 4 1 3 2 16 3 24 4 2 5 25 6 1 7 32 8 26 9 30 10 27 11 29 12
REMARK SMILES IDX 17 13 18 14 19 15 20 16 23 17 22 18 21 19 31 21 28 23 5 25
REMARK SMILES IDX 14 26 6 27 12 28 7 29 10 30 15 31 13 33 8 35 9 36 11 38
REMARK H PARENT 21 20 31 22 28 24 15 32 13 34 9 37 11 39
REMARK Flexibility Score: inf
ROOT
ATOM      1  O   UNL     1      56.176   4.117  79.594  1.00  0.00    -0.454 OA
ENDROOT
BRANCH   1   2
ATOM      2  C   UNL     1      56.986   5.047  80.261  1.00  0.00     0.214 A 
ATOM      3  C   UNL     1      56.705   5.276  81.630  1.00  0.00     0.180 A 
ATOM      4  O   UNL     1      57.465   6.101  82.336  1.00  0.00    -0.452 OA
ATOM      5  C   UNL     1      58.074   5.729  79.682  1.00  0.00     0.239 A 
ATOM      6  C   UNL     1      58.464   6.793  81.822  1.00  0.00     0.146 A 
ATOM      7  O   UNL     1      58.373   5.543  78.473  1.00  0.00    -0.285 OA
ATOM      8  C   UNL     1      58.806   6.649  80.457  1.00  0.00     0.111 A 
ATOM      9  C   UNL     1      59.138   7.713  82.636  1.00  0.00     0.094 A 
ATOM     10  C   UNL     1      59.772   7.531  79.906  1.00  0.00     0.134 A 
ATOM     11  C   UNL     1      60.075   8.589  82.083  1.00  0.00     0.123 A 
ATOM     12  C   UNL     1      60.388   8.496  80.729  1.00  0.00     0.093 A 
BRANCH   3  13
ATOM     13  C   UNL     1      55.596   4.590  82.327  1.00  0.00     0.021 A 
ATOM     14  C   UNL     1      55.854   3.379  82.993  1.00  0.00     0.016 A 
ATOM     15  C   UNL     1      54.820   2.675  83.615  1.00  0.00     0.047 A 
ATOM     16  C   UNL     1      53.506   3.164  83.566  1.00  0.00     0.115 A 
ATOM     17  C   UNL     1      54.288   5.114  82.347  1.00  0.00     0.016 A 
ATOM     18  C   UNL     1      53.250   4.395  82.950  1.00  0.00     0.047 A 
BRANCH  16  19
ATOM     19  O   UNL     1      52.443   2.443  84.125  1.00  0.00    -0.508 OA
ATOM     20  H   UNL     1      52.360   2.280  85.118  1.00  0.00     0.293 HD
ENDBRANCH  16  19
ENDBRANCH   3  13
BRANCH  10  21
ATOM     21  O   UNL     1      60.080   7.523  78.547  1.00  0.00    -0.507 OA
ATOM     22  H   UNL     1      60.640   8.300  78.201  1.00  0.00     0.293 HD
ENDBRANCH  10  21
BRANCH  11  23
ATOM     23  O   UNL     1      60.682   9.549  82.893  1.00  0.00    -0.508 OA
ATOM     24  H   UNL     1      60.776  10.519  82.575  1.00  0.00     0.293 HD
ENDBRANCH  11  23
ENDBRANCH   1   2
BRANCH   1  25
ATOM     25  C   UNL     1      54.944   4.291  78.887  1.00  0.00     0.339 C 
ATOM     26  C   UNL     1      53.987   3.075  79.067  1.00  0.00     0.214 C 
ATOM     27  O   UNL     1      54.344   5.543  79.206  1.00  0.00    -0.332 OA
ATOM     28  C   UNL     1      52.526   3.552  79.132  1.00  0.00     0.180 C 
ATOM     29  C   UNL     1      53.199   5.842  78.385  1.00  0.00     0.179 C 
ATOM     30  C   UNL     1      52.302   4.591  78.031  1.00  0.00     0.177 C 
BRANCH  26  31
ATOM     31  O   UNL     1      54.263   2.299  80.211  1.00  0.00    -0.384 OA
ATOM     32  H   UNL     1      55.032   2.718  80.691  1.00  0.00     0.211 HD
ENDBRANCH  26  31
BRANCH  28  33
ATOM     33  O   UNL     1      51.676   2.445  78.993  1.00  0.00    -0.387 OA
ATOM     34  H   UNL     1      52.135   1.687  79.451  1.00  0.00     0.211 HD
ENDBRANCH  28  33
BRANCH  29  35
ATOM     35  C   UNL     1      53.592   6.737  77.195  1.00  0.00     0.191 C 
BRANCH  35  36
ATOM     36  O   UNL     1      54.675   6.162  76.502  1.00  0.00    -0.394 OA
ATOM     37  H   UNL     1      54.341   5.306  76.119  1.00  0.00     0.210 HD
ENDBRANCH  35  36
ENDBRANCH  29  35
BRANCH  30  38
ATOM     38  O   UNL     1      52.537   4.016  76.758  1.00  0.00    -0.387 OA
ATOM     39  H   UNL     1      53.192   4.563  76.256  1.00  0.00     0.211 HD
ENDBRANCH  30  38
ENDBRANCH   1  25
TORSDOF 11
ENDMDL
MODEL 9
REMARK VINA RESULT:    -6.306      2.147      6.418
REMARK INTER + INTRA:         -10.237
REMARK INTER:                  -9.162
REMARK INTRA:                  -1.075
REMARK UNBOUND:                -1.167
REMARK SMILES O=c1c(O[C@@H]2O[C@@H](CO)[C@@H](O)[C@@H](O)[C@@H]2O)c(-c2ccc(O)cc2)oc2cc(O)cc(O)c12
REMARK SMILES IDX 4 1 3 2 16 3 24 4 2 5 25 6 1 7 32 8 26 9 30 10 27 11 29 12
REMARK SMILES IDX 17 13 18 14 19 15 20 16 23 17 22 18 21 19 31 21 28 23 5 25
REMARK SMILES IDX 14 26 6 27 12 28 7 29 10 30 15 31 13 33 8 35 9 36 11 38
REMARK H PARENT 21 20 31 22 28 24 15 32 13 34 9 37 11 39
REMARK Flexibility Score: inf
ROOT
ATOM      1  O   UNL     1      54.840   6.145  81.277  1.00  0.00    -0.454 OA
ENDROOT
BRANCH   1   2
ATOM      2  C   UNL     1      54.054   5.408  80.379  1.00  0.00     0.214 A 
ATOM      3  C   UNL     1      54.575   5.220  79.076  1.00  0.00     0.180 A 
ATOM      4  O   UNL     1      53.911   4.488  78.193  1.00  0.00    -0.452 OA
ATOM      5  C   UNL     1      52.817   4.813  80.693  1.00  0.00     0.239 A 
ATOM      6  C   UNL     1      52.729   3.952  78.432  1.00  0.00     0.146 A 
ATOM      7  O   UNL     1      52.323   4.937  81.845  1.00  0.00    -0.285 OA
ATOM      8  C   UNL     1      52.116   4.105  79.698  1.00  0.00     0.111 A 
ATOM      9  C   UNL     1      52.069   3.281  77.393  1.00  0.00     0.094 A 
ATOM     10  C   UNL     1      50.779   3.659  79.859  1.00  0.00     0.134 A 
ATOM     11  C   UNL     1      50.747   2.861  77.554  1.00  0.00     0.123 A 
ATOM     12  C   UNL     1      50.109   3.049  78.778  1.00  0.00     0.093 A 
BRANCH   3  13
ATOM     13  C   UNL     1      55.875   5.790  78.663  1.00  0.00     0.021 A 
ATOM     14  C   UNL     1      57.049   5.051  78.896  1.00  0.00     0.016 A 
ATOM     15  C   UNL     1      58.300   5.581  78.569  1.00  0.00     0.047 A 
ATOM     16  C   UNL     1      58.398   6.868  78.019  1.00  0.00     0.115 A 
ATOM     17  C   UNL     1      55.975   7.051  78.041  1.00  0.00     0.016 A 
ATOM     18  C   UNL     1      57.230   7.588  77.737  1.00  0.00     0.047 A 
BRANCH  16  19
ATOM     19  O   UNL     1      59.643   7.447  77.746  1.00  0.00    -0.508 OA
ATOM     20  H   UNL     1      59.997   7.555  76.806  1.00  0.00     0.293 HD
ENDBRANCH  16  19
ENDBRANCH   3  13
BRANCH  10  21
ATOM     21  O   UNL     1      50.073   3.875  81.041  1.00  0.00    -0.507 OA
ATOM     22  H   UNL     1      50.626   4.068  81.875  1.00  0.00     0.293 HD
ENDBRANCH  10  21
BRANCH  11  23
ATOM     23  O   UNL     1      50.080   2.261  76.486  1.00  0.00    -0.508 OA
ATOM     24  H   UNL     1      50.602   1.882  75.689  1.00  0.00     0.293 HD
ENDBRANCH  11  23
ENDBRANCH   1   2
BRANCH   1  25
ATOM     25  C   UNL     1      55.922   5.738  82.121  1.00  0.00     0.339 C 
ATOM     26  C   UNL     1      56.917   6.903  82.402  1.00  0.00     0.214 C 
ATOM     27  O   UNL     1      55.438   5.102  83.300  1.00  0.00    -0.332 OA
ATOM     28  C   UNL     1      57.457   6.806  83.840  1.00  0.00     0.180 C 
ATOM     29  C   UNL     1      56.488   4.515  84.092  1.00  0.00     0.179 C 
ATOM     30  C   UNL     1      57.828   5.350  84.125  1.00  0.00     0.177 C 
BRANCH  26  31
ATOM     31  O   UNL     1      56.361   8.185  82.211  1.00  0.00    -0.384 OA
ATOM     32  H   UNL     1      55.368   8.086  82.156  1.00  0.00     0.211 HD
ENDBRANCH  26  31
BRANCH  28  33
ATOM     33  O   UNL     1      58.556   7.667  83.975  1.00  0.00    -0.387 OA
ATOM     34  H   UNL     1      58.397   8.418  83.338  1.00  0.00     0.211 HD
ENDBRANCH  28  33
BRANCH  29  35
ATOM     35  C   UNL     1      56.645   3.016  83.777  1.00  0.00     0.191 C 
BRANCH  35  36
ATOM     36  O   UNL     1      55.381   2.394  83.775  1.00  0.00    -0.394 OA
ATOM     37  H   UNL     1      55.227   2.068  84.703  1.00  0.00     0.210 HD
ENDBRANCH  35  36
ENDBRANCH  29  35
BRANCH  30  38
ATOM     38  O   UNL     1      58.836   4.916  83.229  1.00  0.00    -0.387 OA
ATOM     39  H   UNL     1      59.073   3.973  83.419  1.00  0.00     0.211 HD
ENDBRANCH  30  38
ENDBRANCH   1  25
TORSDOF 11
ENDMDL
