MODEL 1
REMARK VINA RESULT:    -5.645      0.000      0.000
REMARK INTER + INTRA:          -5.645
REMARK INTER:                  -5.645
REMARK INTRA:                   0.000
REMARK UNBOUND:                 0.000
REMARK SMILES O=c1ccc2ccccc2o1
REMARK SMILES IDX 7 1 8 2 9 3 10 4 5 5 6 6 4 7 3 8 2 9 1 10 11 11
REMARK H PARENT
REMARK Flexibility Score: inf
ROOT
ATOM      1  C   UNL     1       7.948   1.128  10.896  1.00  0.00     0.001 A 
ATOM      2  C   UNL     1       6.890   1.127   9.982  1.00  0.00     0.004 A 
ATOM      3  C   UNL     1       6.265   2.328   9.627  1.00  0.00     0.048 A 
ATOM      4  C   UNL     1       6.698   3.534  10.187  1.00  0.00     0.138 A 
ATOM      5  C   UNL     1       7.768   3.536  11.110  1.00  0.00     0.018 A 
ATOM      6  C   UNL     1       8.390   2.329  11.461  1.00  0.00     0.012 A 
ATOM      7  C   UNL     1       8.179   4.757  11.652  1.00  0.00     0.019 A 
ATOM      8  C   UNL     1       7.527   5.928  11.270  1.00  0.00     0.094 A 
ATOM      9  C   UNL     1       6.475   5.852  10.350  1.00  0.00     0.336 A 
ATOM     10  O   UNL     1       5.875   6.899   9.994  1.00  0.00    -0.246 OA
ATOM     11  O   UNL     1       6.103   4.676   9.849  1.00  0.00    -0.423 OA
ENDROOT
TORSDOF 0
ENDMDL
MODEL 2
REMARK VINA RESULT:    -5.567      1.943      4.356
REMARK INTER + INTRA:          -5.567
REMARK INTER:                  -5.567
REMARK INTRA:                   0.000
REMARK UNBOUND:                 0.000
REMARK SMILES O=c1ccc2ccccc2o1
REMARK SMILES IDX 7 1 8 2 9 3 10 4 5 5 6 6 4 7 3 8 2 9 1 10 11 11
REMARK H PARENT
REMARK Flexibility Score: inf
ROOT
ATOM      1  C   UNL     1       6.303   6.192  10.270  1.00  0.00     0.001 A 
ATOM      2  C   UNL     1       7.369   6.372  11.157  1.00  0.00     0.004 A 
ATOM      3  C   UNL     1       8.124   5.272  11.581  1.00  0.00     0.048 A 
ATOM      4  C   UNL     1       7.814   3.989  11.119  1.00  0.00     0.138 A 
ATOM      5  C   UNL     1       6.737   3.807  10.223  1.00  0.00     0.018 A 
ATOM      6  C   UNL     1       5.984   4.913   9.801  1.00  0.00     0.012 A 
ATOM      7  C   UNL     1       6.451   2.514   9.777  1.00  0.00     0.019 A 
ATOM      8  C   UNL     1       7.229   1.448  10.226  1.00  0.00     0.094 A 
ATOM      9  C   UNL     1       8.281   1.702  11.114  1.00  0.00     0.336 A 
ATOM     10  O   UNL     1       8.995   0.753  11.530  1.00  0.00    -0.246 OA
ATOM     11  O   UNL     1       8.532   2.943  11.523  1.00  0.00    -0.423 OA
ENDROOT
TORSDOF 0
ENDMDL
MODEL 3
REMARK VINA RESULT:    -5.475      1.507      3.801
REMARK INTER + INTRA:          -5.475
REMARK INTER:                  -5.475
REMARK INTRA:                   0.000
REMARK UNBOUND:                 0.000
REMARK SMILES O=c1ccc2ccccc2o1
REMARK SMILES IDX 7 1 8 2 9 3 10 4 5 5 6 6 4 7 3 8 2 9 1 10 11 11
REMARK H PARENT
REMARK Flexibility Score: inf
ROOT
ATOM      1  C   UNL     1       7.400   6.362  11.129  1.00  0.00     0.001 A 
ATOM      2  C   UNL     1       6.310   6.271  10.256  1.00  0.00     0.004 A 
ATOM      3  C   UNL     1       5.914   5.026   9.754  1.00  0.00     0.048 A 
ATOM      4  C   UNL     1       6.607   3.868  10.123  1.00  0.00     0.138 A 
ATOM      5  C   UNL     1       7.707   3.960  11.005  1.00  0.00     0.018 A 
ATOM      6  C   UNL     1       8.100   5.211  11.505  1.00  0.00     0.012 A 
ATOM      7  C   UNL     1       8.380   2.786  11.356  1.00  0.00     0.019 A 
ATOM      8  C   UNL     1       7.949   1.569  10.831  1.00  0.00     0.094 A 
ATOM      9  C   UNL     1       6.851   1.553   9.964  1.00  0.00     0.336 A 
ATOM     10  O   UNL     1       6.449   0.463   9.480  1.00  0.00    -0.246 OA
ATOM     11  O   UNL     1       6.229   2.685   9.645  1.00  0.00    -0.423 OA
ENDROOT
TORSDOF 0
ENDMDL
MODEL 4
REMARK VINA RESULT:    -5.233      1.162      2.113
REMARK INTER + INTRA:          -5.233
REMARK INTER:                  -5.233
REMARK INTRA:                   0.000
REMARK UNBOUND:                 0.000
REMARK SMILES O=c1ccc2ccccc2o1
REMARK SMILES IDX 7 1 8 2 9 3 10 4 5 5 6 6 4 7 3 8 2 9 1 10 11 11
REMARK H PARENT
REMARK Flexibility Score: inf
ROOT
ATOM      1  C   UNL     1       6.994   1.080  10.031  1.00  0.00     0.001 A 
ATOM      2  C   UNL     1       8.061   1.211  10.926  1.00  0.00     0.004 A 
ATOM      3  C   UNL     1       8.427   2.474  11.405  1.00  0.00     0.048 A 
ATOM      4  C   UNL     1       7.726   3.611  10.990  1.00  0.00     0.138 A 
ATOM      5  C   UNL     1       6.647   3.479  10.087  1.00  0.00     0.018 A 
ATOM      6  C   UNL     1       6.285   2.210   9.610  1.00  0.00     0.012 A 
ATOM      7  C   UNL     1       5.964   4.633   9.690  1.00  0.00     0.019 A 
ATOM      8  C   UNL     1       6.364   5.870  10.193  1.00  0.00     0.094 A 
ATOM      9  C   UNL     1       7.442   5.925  11.085  1.00  0.00     0.336 A 
ATOM     10  O   UNL     1       7.817   7.033  11.549  1.00  0.00    -0.246 OA
ATOM     11  O   UNL     1       8.074   4.812  11.446  1.00  0.00    -0.423 OA
ENDROOT
TORSDOF 0
ENDMDL
MODEL 5
REMARK VINA RESULT:    -4.939     11.074     12.499
REMARK INTER + INTRA:          -4.939
REMARK INTER:                  -4.939
REMARK INTRA:                   0.000
REMARK UNBOUND:                 0.000
REMARK SMILES O=c1ccc2ccccc2o1
REMARK SMILES IDX 7 1 8 2 9 3 10 4 5 5 6 6 4 7 3 8 2 9 1 10 11 11
REMARK H PARENT
REMARK Flexibility Score: inf
ROOT
ATOM      1  C   UNL     1       8.461  -6.762  19.575  1.00  0.00     0.001 A 
ATOM      2  C   UNL     1       9.725  -6.994  20.125  1.00  0.00     0.004 A 
ATOM      3  C   UNL     1      10.695  -5.984  20.112  1.00  0.00     0.048 A 
ATOM      4  C   UNL     1      10.401  -4.739  19.548  1.00  0.00     0.138 A 
ATOM      5  C   UNL     1       9.123  -4.503  18.992  1.00  0.00     0.018 A 
ATOM      6  C   UNL     1       8.156  -5.519  19.009  1.00  0.00     0.012 A 
ATOM      7  C   UNL     1       8.858  -3.249  18.437  1.00  0.00     0.019 A 
ATOM      8  C   UNL     1       9.854  -2.273  18.445  1.00  0.00     0.094 A 
ATOM      9  C   UNL     1      11.097  -2.576  19.013  1.00  0.00     0.336 A 
ATOM     10  O   UNL     1      12.008  -1.709  19.030  1.00  0.00    -0.246 OA
ATOM     11  O   UNL     1      11.323  -3.779  19.535  1.00  0.00    -0.423 OA
ENDROOT
TORSDOF 0
ENDMDL
MODEL 6
REMARK VINA RESULT:    -4.856     10.897     12.265
REMARK INTER + INTRA:          -4.856
REMARK INTER:                  -4.856
REMARK INTRA:                   0.000
REMARK UNBOUND:                 0.000
REMARK SMILES O=c1ccc2ccccc2o1
REMARK SMILES IDX 7 1 8 2 9 3 10 4 5 5 6 6 4 7 3 8 2 9 1 10 11 11
REMARK H PARENT
REMARK Flexibility Score: inf
ROOT
ATOM      1  C   UNL     1       9.526  -7.124  20.125  1.00  0.00     0.001 A 
ATOM      2  C   UNL     1       8.293  -6.771  19.568  1.00  0.00     0.004 A 
ATOM      3  C   UNL     1       8.112  -5.501  19.007  1.00  0.00     0.048 A 
ATOM      4  C   UNL     1       9.165  -4.581  19.002  1.00  0.00     0.138 A 
ATOM      5  C   UNL     1      10.411  -4.938  19.564  1.00  0.00     0.018 A 
ATOM      6  C   UNL     1      10.586  -6.212  20.125  1.00  0.00     0.012 A 
ATOM      7  C   UNL     1      11.446  -3.998  19.544  1.00  0.00     0.019 A 
ATOM      8  C   UNL     1      11.220  -2.745  18.975  1.00  0.00     0.094 A 
ATOM      9  C   UNL     1       9.960  -2.461  18.436  1.00  0.00     0.336 A 
ATOM     10  O   UNL     1       9.737  -1.336  17.919  1.00  0.00    -0.246 OA
ATOM     11  O   UNL     1       8.992  -3.374  18.469  1.00  0.00    -0.423 OA
ENDROOT
TORSDOF 0
ENDMDL
MODEL 7
REMARK VINA RESULT:    -4.699     12.139     13.087
REMARK INTER + INTRA:          -4.699
REMARK INTER:                  -4.699
REMARK INTRA:                   0.000
REMARK UNBOUND:                 0.000
REMARK SMILES O=c1ccc2ccccc2o1
REMARK SMILES IDX 7 1 8 2 9 3 10 4 5 5 6 6 4 7 3 8 2 9 1 10 11 11
REMARK H PARENT
REMARK Flexibility Score: inf
ROOT
ATOM      1  C   UNL     1       8.462  -7.033  19.864  1.00  0.00     0.001 A 
ATOM      2  C   UNL     1       7.747  -5.941  19.364  1.00  0.00     0.004 A 
ATOM      3  C   UNL     1       8.399  -4.727  19.114  1.00  0.00     0.048 A 
ATOM      4  C   UNL     1       9.769  -4.604  19.363  1.00  0.00     0.138 A 
ATOM      5  C   UNL     1      10.493  -5.708  19.868  1.00  0.00     0.018 A 
ATOM      6  C   UNL     1       9.834  -6.921  20.116  1.00  0.00     0.012 A 
ATOM      7  C   UNL     1      11.862  -5.556  20.106  1.00  0.00     0.019 A 
ATOM      8  C   UNL     1      12.469  -4.329  19.842  1.00  0.00     0.094 A 
ATOM      9  C   UNL     1      11.690  -3.279  19.343  1.00  0.00     0.336 A 
ATOM     10  O   UNL     1      12.221  -2.164  19.099  1.00  0.00    -0.246 OA
ATOM     11  O   UNL     1      10.389  -3.450  19.125  1.00  0.00    -0.423 OA
ENDROOT
TORSDOF 0
ENDMDL
MODEL 8
REMARK VINA RESULT:    -4.603     11.137     12.802
REMARK INTER + INTRA:          -4.603
REMARK INTER:                  -4.603
REMARK INTRA:                   0.000
REMARK UNBOUND:                 0.000
REMARK SMILES O=c1ccc2ccccc2o1
REMARK SMILES IDX 7 1 8 2 9 3 10 4 5 5 6 6 4 7 3 8 2 9 1 10 11 11
REMARK H PARENT
REMARK Flexibility Score: inf
ROOT
ATOM      1  C   UNL     1      11.091  -2.232  18.718  1.00  0.00     0.001 A 
ATOM      2  C   UNL     1       9.825  -2.010  18.167  1.00  0.00     0.004 A 
ATOM      3  C   UNL     1       8.839  -3.001  18.249  1.00  0.00     0.048 A 
ATOM      4  C   UNL     1       9.118  -4.216  18.883  1.00  0.00     0.138 A 
ATOM      5  C   UNL     1      10.397  -4.440  19.440  1.00  0.00     0.018 A 
ATOM      6  C   UNL     1      11.381  -3.443  19.355  1.00  0.00     0.012 A 
ATOM      7  C   UNL     1      10.647  -5.664  20.067  1.00  0.00     0.019 A 
ATOM      8  C   UNL     1       9.635  -6.621  20.125  1.00  0.00     0.094 A 
ATOM      9  C   UNL     1       8.392  -6.331  19.551  1.00  0.00     0.336 A 
ATOM     10  O   UNL     1       7.466  -7.182  19.594  1.00  0.00    -0.246 OA
ATOM     11  O   UNL     1       8.180  -5.158  18.960  1.00  0.00    -0.423 OA
ENDROOT
TORSDOF 0
ENDMDL
MODEL 9
REMARK VINA RESULT:    -4.541     10.679     12.264
REMARK INTER + INTRA:          -4.541
REMARK INTER:                  -4.541
REMARK INTRA:                   0.000
REMARK UNBOUND:                 0.000
REMARK SMILES O=c1ccc2ccccc2o1
REMARK SMILES IDX 7 1 8 2 9 3 10 4 5 5 6 6 4 7 3 8 2 9 1 10 11 11
REMARK H PARENT
REMARK Flexibility Score: inf
ROOT
ATOM      1  C   UNL     1      11.543  -1.212  17.796  1.00  0.00     0.001 A 
ATOM      2  C   UNL     1      12.571  -1.915  18.433  1.00  0.00     0.004 A 
ATOM      3  C   UNL     1      12.309  -3.151  19.034  1.00  0.00     0.048 A 
ATOM      4  C   UNL     1      11.018  -3.688  18.999  1.00  0.00     0.138 A 
ATOM      5  C   UNL     1       9.980  -2.979  18.355  1.00  0.00     0.018 A 
ATOM      6  C   UNL     1      10.248  -1.740  17.754  1.00  0.00     0.012 A 
ATOM      7  C   UNL     1       8.700  -3.540  18.336  1.00  0.00     0.019 A 
ATOM      8  C   UNL     1       8.486  -4.775  18.948  1.00  0.00     0.094 A 
ATOM      9  C   UNL     1       9.562  -5.421  19.567  1.00  0.00     0.336 A 
ATOM     10  O   UNL     1       9.388  -6.536  20.125  1.00  0.00    -0.246 OA
ATOM     11  O   UNL     1      10.771  -4.864  19.572  1.00  0.00    -0.423 OA
ENDROOT
TORSDOF 0
ENDMDL
