MODEL 1
REMARK VINA RESULT:    -4.386      0.000      0.000
REMARK INTER + INTRA:          -4.777
REMARK INTER:                  -5.412
REMARK INTRA:                   0.635
REMARK UNBOUND:                 0.635
REMARK SMILES C=C1[C@H]2CC[C@@H]3[C@H]2C(C)(C)CCC[C@]13C
REMARK SMILES IDX 14 1 6 2 7 3 3 4 2 5 1 6 4 7 5 8 15 9 8 10 9 11 10 12 11 13
REMARK SMILES IDX 13 15 12 16
REMARK H PARENT
REMARK Flexibility Score: 80.00
ROOT
ATOM      1  C   UNL     1     -44.065 -48.152  27.735  1.00  0.00    -0.008 C 
ATOM      2  C   UNL     1     -42.792 -47.647  28.524  1.00  0.00     0.003 C 
ATOM      3  C   UNL     1     -41.917 -48.906  28.698  1.00  0.00     0.006 C 
ATOM      4  C   UNL     1     -41.950 -49.256  27.209  1.00  0.00     0.019 C 
ATOM      5  C   UNL     1     -43.424 -49.245  26.917  1.00  0.00    -0.068 C 
ATOM      6  C   UNL     1     -44.035 -50.020  26.012  1.00  0.00     0.009 C 
ATOM      7  C   UNL     1     -41.369 -47.961  26.591  1.00  0.00     0.008 C 
ATOM      8  C   UNL     1     -41.864 -46.858  27.559  1.00  0.00     0.005 C 
ATOM      9  C   UNL     1     -44.690 -47.071  26.811  1.00  0.00     0.016 C 
ENDROOT
BRANCH   3  10
ATOM     10  C   UNL     1     -42.312 -50.002  29.778  1.00  0.00    -0.032 C 
ATOM     11  C   UNL     1     -42.117 -51.438  29.227  1.00  0.00     0.011 C 
ATOM     12  C   UNL     1     -41.335 -49.863  30.978  1.00  0.00     0.011 C 
BRANCH  10  13
ATOM     13  C   UNL     1     -43.735 -49.839  30.387  1.00  0.00     0.007 CG0
ATOM     14  G   UNL     1     -44.898 -49.973  29.408  1.00  0.00     0.000 G0
ENDBRANCH  10  13
ENDBRANCH   3  10
BRANCH   1  15
ATOM     15  C   UNL     1     -45.189 -48.665  28.674  1.00  0.00     0.011 C 
BRANCH  15  16
ATOM     16  C   UNL     1     -44.899 -49.969  29.412  1.00  0.00     0.001 CG0
ATOM     17  G   UNL     1     -43.728 -49.841  30.382  1.00  0.00     0.000 G0
ENDBRANCH  15  16
ENDBRANCH   1  15
TORSDOF 0
ENDMDL
MODEL 2
REMARK VINA RESULT:    -4.246      8.801     11.197
REMARK INTER + INTRA:          -4.604
REMARK INTER:                  -5.242
REMARK INTRA:                   0.637
REMARK UNBOUND:                 0.635
REMARK SMILES C=C1[C@H]2CC[C@@H]3[C@H]2C(C)(C)CCC[C@]13C
REMARK SMILES IDX 14 1 6 2 7 3 3 4 2 5 1 6 4 7 5 8 15 9 8 10 9 11 10 12 11 13
REMARK SMILES IDX 13 15 12 16
REMARK H PARENT
REMARK Flexibility Score: 80.00
ROOT
ATOM      1  C   UNL     1     -49.989 -48.008  22.086  1.00  0.00    -0.008 C 
ATOM      2  C   UNL     1     -51.313 -47.520  21.374  1.00  0.00     0.003 C 
ATOM      3  C   UNL     1     -52.121 -48.811  21.125  1.00  0.00     0.006 C 
ATOM      4  C   UNL     1     -52.020 -49.272  22.580  1.00  0.00     0.019 C 
ATOM      5  C   UNL     1     -50.540 -49.197  22.832  1.00  0.00    -0.068 C 
ATOM      6  C   UNL     1     -49.858 -50.002  23.657  1.00  0.00     0.009 C 
ATOM      7  C   UNL     1     -52.654 -48.066  23.314  1.00  0.00     0.008 C 
ATOM      8  C   UNL     1     -52.253 -46.864  22.423  1.00  0.00     0.005 C 
ATOM      9  C   UNL     1     -49.398 -46.967  23.075  1.00  0.00     0.016 C 
ENDROOT
BRANCH   3  10
ATOM     10  C   UNL     1     -51.698 -49.796  19.952  1.00  0.00    -0.032 C 
ATOM     11  C   UNL     1     -51.792 -51.279  20.394  1.00  0.00     0.011 C 
ATOM     12  C   UNL     1     -52.720 -49.625  18.795  1.00  0.00     0.011 C 
BRANCH  10  13
ATOM     13  C   UNL     1     -50.308 -49.503  19.318  1.00  0.00     0.007 CG0
ATOM     14  G   UNL     1     -49.108 -49.639  20.251  1.00  0.00     0.000 G0
ENDBRANCH  10  13
ENDBRANCH   3  10
BRANCH   1  15
ATOM     15  C   UNL     1     -48.868 -48.380  21.079  1.00  0.00     0.011 C 
BRANCH  15  16
ATOM     16  C   UNL     1     -49.109 -49.636  20.246  1.00  0.00     0.001 CG0
ATOM     17  G   UNL     1     -50.319 -49.501  19.325  1.00  0.00     0.000 G0
ENDBRANCH  15  16
ENDBRANCH   1  15
TORSDOF 0
ENDMDL
MODEL 3
REMARK VINA RESULT:    -4.221      1.268      3.174
REMARK INTER + INTRA:          -4.573
REMARK INTER:                  -5.208
REMARK INTRA:                   0.635
REMARK UNBOUND:                 0.635
REMARK SMILES C=C1[C@H]2CC[C@@H]3[C@H]2C(C)(C)CCC[C@]13C
REMARK SMILES IDX 14 1 6 2 7 3 3 4 2 5 1 6 4 7 5 8 15 9 8 10 9 11 10 12 11 13
REMARK SMILES IDX 13 15 12 16
REMARK H PARENT
REMARK Flexibility Score: 80.00
ROOT
ATOM      1  C   UNL     1     -42.802 -48.830  26.959  1.00  0.00    -0.008 C 
ATOM      2  C   UNL     1     -43.788 -50.061  27.056  1.00  0.00     0.003 C 
ATOM      3  C   UNL     1     -44.694 -49.740  28.264  1.00  0.00     0.006 C 
ATOM      4  C   UNL     1     -45.066 -48.351  27.742  1.00  0.00     0.019 C 
ATOM      5  C   UNL     1     -43.717 -47.746  27.471  1.00  0.00    -0.068 C 
ATOM      6  C   UNL     1     -43.421 -46.445  27.581  1.00  0.00     0.009 C 
ATOM      7  C   UNL     1     -45.673 -48.710  26.364  1.00  0.00     0.008 C 
ATOM      8  C   UNL     1     -44.859 -49.956  25.936  1.00  0.00     0.005 C 
ATOM      9  C   UNL     1     -42.341 -48.519  25.508  1.00  0.00     0.016 C 
ENDROOT
BRANCH   3  10
ATOM     10  C   UNL     1     -44.132 -49.906  29.741  1.00  0.00    -0.032 C 
ATOM     11  C   UNL     1     -44.579 -48.735  30.653  1.00  0.00     0.011 C 
ATOM     12  C   UNL     1     -44.761 -51.191  30.348  1.00  0.00     0.011 C 
BRANCH  10  13
ATOM     13  C   UNL     1     -42.593 -50.117  29.838  1.00  0.00     0.007 CG0
ATOM     14  G   UNL     1     -41.730 -48.962  29.338  1.00  0.00     0.000 G0
ENDBRANCH  10  13
ENDBRANCH   3  10
BRANCH   1  15
ATOM     15  C   UNL     1     -41.525 -49.014  27.821  1.00  0.00     0.011 C 
BRANCH  15  16
ATOM     16  C   UNL     1     -41.728 -48.967  29.333  1.00  0.00     0.001 CG0
ATOM     17  G   UNL     1     -42.591 -50.118  29.841  1.00  0.00     0.000 G0
ENDBRANCH  15  16
ENDBRANCH   1  15
TORSDOF 0
ENDMDL
MODEL 4
REMARK VINA RESULT:    -4.174      8.418     10.648
REMARK INTER + INTRA:          -4.515
REMARK INTER:                  -5.150
REMARK INTRA:                   0.635
REMARK UNBOUND:                 0.635
REMARK SMILES C=C1[C@H]2CC[C@@H]3[C@H]2C(C)(C)CCC[C@]13C
REMARK SMILES IDX 14 1 6 2 7 3 3 4 2 5 1 6 4 7 5 8 15 9 8 10 9 11 10 12 11 13
REMARK SMILES IDX 13 15 12 16
REMARK H PARENT
REMARK Flexibility Score: 80.00
ROOT
ATOM      1  C   UNL     1     -51.195 -48.825  22.877  1.00  0.00    -0.008 C 
ATOM      2  C   UNL     1     -50.177 -50.001  22.599  1.00  0.00     0.003 C 
ATOM      3  C   UNL     1     -49.345 -49.520  21.392  1.00  0.00     0.006 C 
ATOM      4  C   UNL     1     -48.990 -48.182  22.043  1.00  0.00     0.019 C 
ATOM      5  C   UNL     1     -50.342 -47.659  22.442  1.00  0.00    -0.068 C 
ATOM      6  C   UNL     1     -50.684 -46.366  22.487  1.00  0.00     0.009 C 
ATOM      7  C   UNL     1     -48.302 -48.663  23.343  1.00  0.00     0.008 C 
ATOM      8  C   UNL     1     -49.053 -49.977  23.671  1.00  0.00     0.005 C 
ATOM      9  C   UNL     1     -51.589 -48.687  24.373  1.00  0.00     0.016 C 
ENDROOT
BRANCH   3  10
ATOM     10  C   UNL     1     -49.977 -49.548  19.934  1.00  0.00    -0.032 C 
ATOM     11  C   UNL     1     -49.614 -48.271  19.133  1.00  0.00     0.011 C 
ATOM     12  C   UNL     1     -49.341 -50.737  19.162  1.00  0.00     0.011 C 
BRANCH  10  13
ATOM     13  C   UNL     1     -51.511 -49.803  19.888  1.00  0.00     0.007 CG0
ATOM     14  G   UNL     1     -52.383 -48.742  20.554  1.00  0.00     0.000 G0
ENDBRANCH  10  13
ENDBRANCH   3  10
BRANCH   1  15
ATOM     15  C   UNL     1     -52.508 -48.962  22.062  1.00  0.00     0.011 C 
BRANCH  15  16
ATOM     16  C   UNL     1     -52.385 -48.748  20.556  1.00  0.00     0.001 CG0
ATOM     17  G   UNL     1     -51.503 -49.799  19.888  1.00  0.00     0.000 G0
ENDBRANCH  15  16
ENDBRANCH   1  15
TORSDOF 0
ENDMDL
MODEL 5
REMARK VINA RESULT:    -4.149      1.678      2.602
REMARK INTER + INTRA:          -4.484
REMARK INTER:                  -5.110
REMARK INTRA:                   0.627
REMARK UNBOUND:                 0.635
REMARK SMILES C=C1[C@H]2CC[C@@H]3[C@H]2C(C)(C)CCC[C@]13C
REMARK SMILES IDX 14 1 6 2 7 3 3 4 2 5 1 6 4 7 5 8 15 9 8 10 9 11 10 12 11 13
REMARK SMILES IDX 13 15 12 16
REMARK H PARENT
REMARK Flexibility Score: 80.00
ROOT
ATOM      1  C   UNL     1     -42.062 -47.084  26.980  1.00  0.00    -0.008 C 
ATOM      2  C   UNL     1     -41.620 -47.396  28.465  1.00  0.00     0.003 C 
ATOM      3  C   UNL     1     -42.305 -48.738  28.801  1.00  0.00     0.006 C 
ATOM      4  C   UNL     1     -41.765 -49.439  27.554  1.00  0.00     0.019 C 
ATOM      5  C   UNL     1     -42.174 -48.495  26.459  1.00  0.00    -0.068 C 
ATOM      6  C   UNL     1     -42.493 -48.856  25.210  1.00  0.00     0.009 C 
ATOM      7  C   UNL     1     -40.241 -49.253  27.751  1.00  0.00     0.008 C 
ATOM      8  C   UNL     1     -40.146 -47.887  28.475  1.00  0.00     0.005 C 
ATOM      9  C   UNL     1     -41.001 -46.285  26.174  1.00  0.00     0.016 C 
ENDROOT
BRANCH   3  10
ATOM     10  C   UNL     1     -43.862 -48.774  29.118  1.00  0.00    -0.032 C 
ATOM     11  C   UNL     1     -44.547 -49.998  28.458  1.00  0.00     0.011 C 
ATOM     12  C   UNL     1     -44.032 -48.960  30.651  1.00  0.00     0.011 C 
BRANCH  10  13
ATOM     13  C   UNL     1     -44.632 -47.467  28.775  1.00  0.00     0.007 CG0
ATOM     14  G   UNL     1     -44.643 -47.067  27.302  1.00  0.00     0.000 G0
ENDBRANCH  10  13
ENDBRANCH   3  10
BRANCH   1  15
ATOM     15  C   UNL     1     -43.394 -46.292  26.904  1.00  0.00     0.011 C 
BRANCH  15  16
ATOM     16  C   UNL     1     -44.651 -47.061  27.302  1.00  0.00     0.001 CG0
ATOM     17  G   UNL     1     -44.646 -47.462  28.775  1.00  0.00     0.000 G0
ENDBRANCH  15  16
ENDBRANCH   1  15
TORSDOF 0
ENDMDL
MODEL 6
REMARK VINA RESULT:    -4.118      8.159     10.319
REMARK INTER + INTRA:          -4.446
REMARK INTER:                  -5.084
REMARK INTRA:                   0.638
REMARK UNBOUND:                 0.635
REMARK SMILES C=C1[C@H]2CC[C@@H]3[C@H]2C(C)(C)CCC[C@]13C
REMARK SMILES IDX 14 1 6 2 7 3 3 4 2 5 1 6 4 7 5 8 15 9 8 10 9 11 10 12 11 13
REMARK SMILES IDX 13 15 12 16
REMARK H PARENT
REMARK Flexibility Score: 80.00
ROOT
ATOM      1  C   UNL     1     -51.278 -47.044  23.679  1.00  0.00    -0.008 C 
ATOM      2  C   UNL     1     -51.765 -46.781  22.199  1.00  0.00     0.003 C 
ATOM      3  C   UNL     1     -51.293 -48.019  21.408  1.00  0.00     0.006 C 
ATOM      4  C   UNL     1     -51.932 -49.009  22.383  1.00  0.00     0.019 C 
ATOM      5  C   UNL     1     -51.381 -48.549  23.704  1.00  0.00    -0.068 C 
ATOM      6  C   UNL     1     -51.119 -49.345  24.748  1.00  0.00     0.009 C 
ATOM      7  C   UNL     1     -53.410 -48.551  22.338  1.00  0.00     0.008 C 
ATOM      8  C   UNL     1     -53.297 -47.024  22.106  1.00  0.00     0.005 C 
ATOM      9  C   UNL     1     -52.204 -46.414  24.757  1.00  0.00     0.016 C 
ENDROOT
BRANCH   3  10
ATOM     10  C   UNL     1     -49.761 -48.171  21.017  1.00  0.00    -0.032 C 
ATOM     11  C   UNL     1     -49.265 -49.627  21.216  1.00  0.00     0.011 C 
ATOM     12  C   UNL     1     -49.625 -47.874  19.497  1.00  0.00     0.011 C 
BRANCH  10  13
ATOM     13  C   UNL     1     -48.801 -47.167  21.718  1.00  0.00     0.007 CG0
ATOM     14  G   UNL     1     -48.715 -47.278  23.237  1.00  0.00     0.000 G0
ENDBRANCH  10  13
ENDBRANCH   3  10
BRANCH   1  15
ATOM     15  C   UNL     1     -49.841 -46.522  23.941  1.00  0.00     0.011 C 
BRANCH  15  16
ATOM     16  C   UNL     1     -48.718 -47.277  23.234  1.00  0.00     0.001 CG0
ATOM     17  G   UNL     1     -48.809 -47.167  21.715  1.00  0.00     0.000 G0
ENDBRANCH  15  16
ENDBRANCH   1  15
TORSDOF 0
ENDMDL
MODEL 7
REMARK VINA RESULT:    -4.103      2.605      4.137
REMARK INTER + INTRA:          -4.427
REMARK INTER:                  -5.053
REMARK INTRA:                   0.626
REMARK UNBOUND:                 0.635
REMARK SMILES C=C1[C@H]2CC[C@@H]3[C@H]2C(C)(C)CCC[C@]13C
REMARK SMILES IDX 14 1 6 2 7 3 3 4 2 5 1 6 4 7 5 8 15 9 8 10 9 11 10 12 11 13
REMARK SMILES IDX 13 15 12 16
REMARK H PARENT
REMARK Flexibility Score: 80.00
ROOT
ATOM      1  C   UNL     1     -44.103 -47.754  24.867  1.00  0.00    -0.008 C 
ATOM      2  C   UNL     1     -43.231 -49.068  24.968  1.00  0.00     0.003 C 
ATOM      3  C   UNL     1     -42.967 -49.246  26.478  1.00  0.00     0.006 C 
ATOM      4  C   UNL     1     -44.447 -49.138  26.850  1.00  0.00     0.019 C 
ATOM      5  C   UNL     1     -44.849 -47.857  26.174  1.00  0.00    -0.068 C 
ATOM      6  C   UNL     1     -45.781 -47.009  26.624  1.00  0.00     0.009 C 
ATOM      7  C   UNL     1     -45.045 -50.289  26.006  1.00  0.00     0.008 C 
ATOM      8  C   UNL     1     -44.139 -50.310  24.750  1.00  0.00     0.005 C 
ATOM      9  C   UNL     1     -45.092 -47.758  23.669  1.00  0.00     0.016 C 
ENDROOT
BRANCH   3  10
ATOM     10  C   UNL     1     -41.898 -48.324  27.208  1.00  0.00    -0.032 C 
ATOM     11  C   UNL     1     -42.401 -47.866  28.601  1.00  0.00     0.011 C 
ATOM     12  C   UNL     1     -40.629 -49.181  27.468  1.00  0.00     0.011 C 
BRANCH  10  13
ATOM     13  C   UNL     1     -41.406 -47.104  26.377  1.00  0.00     0.007 CG0
ATOM     14  G   UNL     1     -42.472 -46.077  26.007  1.00  0.00     0.000 G0
ENDBRANCH  10  13
ENDBRANCH   3  10
BRANCH   1  15
ATOM     15  C   UNL     1     -43.241 -46.469  24.751  1.00  0.00     0.011 C 
BRANCH  15  16
ATOM     16  C   UNL     1     -42.463 -46.072  26.003  1.00  0.00     0.001 CG0
ATOM     17  G   UNL     1     -41.403 -47.102  26.381  1.00  0.00     0.000 G0
ENDBRANCH  15  16
ENDBRANCH   1  15
TORSDOF 0
ENDMDL
MODEL 8
REMARK VINA RESULT:    -4.068      1.808      4.060
REMARK INTER + INTRA:          -4.385
REMARK INTER:                  -5.025
REMARK INTRA:                   0.640
REMARK UNBOUND:                 0.635
REMARK SMILES C=C1[C@H]2CC[C@@H]3[C@H]2C(C)(C)CCC[C@]13C
REMARK SMILES IDX 14 1 6 2 7 3 3 4 2 5 1 6 4 7 5 8 15 9 8 10 9 11 10 12 11 13
REMARK SMILES IDX 13 15 12 16
REMARK H PARENT
REMARK Flexibility Score: 80.00
ROOT
ATOM      1  C   UNL     1     -42.642 -48.761  27.802  1.00  0.00    -0.008 C 
ATOM      2  C   UNL     1     -42.082 -48.290  26.401  1.00  0.00     0.003 C 
ATOM      3  C   UNL     1     -43.228 -47.461  25.783  1.00  0.00     0.006 C 
ATOM      4  C   UNL     1     -43.382 -46.570  27.016  1.00  0.00     0.019 C 
ATOM      5  C   UNL     1     -43.527 -47.581  28.118  1.00  0.00    -0.068 C 
ATOM      6  C   UNL     1     -44.250 -47.407  29.232  1.00  0.00     0.009 C 
ATOM      7  C   UNL     1     -41.953 -45.987  27.136  1.00  0.00     0.008 C 
ATOM      8  C   UNL     1     -41.060 -47.139  26.613  1.00  0.00     0.005 C 
ATOM      9  C   UNL     1     -41.541 -48.926  28.885  1.00  0.00     0.016 C 
ENDROOT
BRANCH   3  10
ATOM     10  C   UNL     1     -44.498 -48.197  25.174  1.00  0.00    -0.032 C 
ATOM     11  C   UNL     1     -45.812 -47.465  25.549  1.00  0.00     0.011 C 
ATOM     12  C   UNL     1     -44.392 -48.129  23.625  1.00  0.00     0.011 C 
BRANCH  10  13
ATOM     13  C   UNL     1     -44.603 -49.713  25.512  1.00  0.00     0.007 CG0
ATOM     14  G   UNL     1     -44.754 -50.057  26.990  1.00  0.00     0.000 G0
ENDBRANCH  10  13
ENDBRANCH   3  10
BRANCH   1  15
ATOM     15  C   UNL     1     -43.416 -50.103  27.719  1.00  0.00     0.011 C 
BRANCH  15  16
ATOM     16  C   UNL     1     -44.754 -50.058  26.986  1.00  0.00     0.001 CG0
ATOM     17  G   UNL     1     -44.597 -49.709  25.509  1.00  0.00     0.000 G0
ENDBRANCH  15  16
ENDBRANCH   1  15
TORSDOF 0
ENDMDL
MODEL 9
REMARK VINA RESULT:    -4.012      7.981     10.115
REMARK INTER + INTRA:          -4.315
REMARK INTER:                  -4.952
REMARK INTRA:                   0.637
REMARK UNBOUND:                 0.635
REMARK SMILES C=C1[C@H]2CC[C@@H]3[C@H]2C(C)(C)CCC[C@]13C
REMARK SMILES IDX 14 1 6 2 7 3 3 4 2 5 1 6 4 7 5 8 15 9 8 10 9 11 10 12 11 13
REMARK SMILES IDX 13 15 12 16
REMARK H PARENT
REMARK Flexibility Score: 80.00
ROOT
ATOM      1  C   UNL     1     -50.574 -47.763  24.098  1.00  0.00    -0.008 C 
ATOM      2  C   UNL     1     -50.890 -49.299  23.901  1.00  0.00     0.003 C 
ATOM      3  C   UNL     1     -50.393 -49.619  22.476  1.00  0.00     0.006 C 
ATOM      4  C   UNL     1     -49.003 -49.030  22.722  1.00  0.00     0.019 C 
ATOM      5  C   UNL     1     -49.331 -47.661  23.250  1.00  0.00    -0.068 C 
ATOM      6  C   UNL     1     -48.584 -46.565  23.065  1.00  0.00     0.009 C 
ATOM      7  C   UNL     1     -48.538 -49.870  23.936  1.00  0.00     0.008 C 
ATOM      8  C   UNL     1     -49.859 -50.146  24.697  1.00  0.00     0.005 C 
ATOM      9  C   UNL     1     -50.265 -47.378  25.571  1.00  0.00     0.016 C 
ENDROOT
BRANCH   3  10
ATOM     10  C   UNL     1     -51.240 -49.150  21.217  1.00  0.00    -0.032 C 
ATOM     11  C   UNL     1     -50.328 -48.599  20.092  1.00  0.00     0.011 C 
ATOM     12  C   UNL     1     -51.947 -50.401  20.625  1.00  0.00     0.011 C 
BRANCH  10  13
ATOM     13  C   UNL     1     -52.384 -48.144  21.534  1.00  0.00     0.007 CG0
ATOM     14  G   UNL     1     -51.948 -46.798  22.107  1.00  0.00     0.000 G0
ENDBRANCH  10  13
ENDBRANCH   3  10
BRANCH   1  15
ATOM     15  C   UNL     1     -51.727 -46.845  23.611  1.00  0.00     0.011 C 
BRANCH  15  16
ATOM     16  C   UNL     1     -51.953 -46.801  22.102  1.00  0.00     0.001 CG0
ATOM     17  G   UNL     1     -52.397 -48.148  21.540  1.00  0.00     0.000 G0
ENDBRANCH  15  16
ENDBRANCH   1  15
TORSDOF 0
ENDMDL
