MODEL 1
REMARK VINA RESULT:    -7.377      0.000      0.000
REMARK INTER + INTRA:          -8.174
REMARK INTER:                  -8.240
REMARK INTRA:                   0.066
REMARK UNBOUND:                 0.066
REMARK SMILES C=C(C)[C@@H]1CC[C@]2(C(=O)[O-])CC[C@@]3(C)[C@H](CC[C@@H]4[C@@]5(C)CCC(=O)C(C)(C)[C@H]5CC[C@]43C)[C@@H]12
REMARK SMILES IDX 7 1 6 2 33 3 11 4 5 5 15 6 4 7 12 8 16 9 13 10 17 11 31 12
REMARK SMILES IDX 14 13 18 14 30 15 32 16 19 17 29 18 21 19 20 20 28 21 22 22
REMARK SMILES IDX 25 23 23 24 26 25 27 26 24 27 8 28 9 29 10 30 2 31 3 32 1 33
REMARK H PARENT
REMARK Flexibility Score: inf
ROOT
ATOM      1  C   UNL     1      22.996  31.123  31.994  1.00  0.00     0.014 C 
ATOM      2  C   UNL     1      23.989  29.981  32.262  1.00  0.00     0.014 C 
ATOM      3  C   UNL     1      22.269  30.599  30.760  1.00  0.00     0.012 C 
ATOM      4  C   UNL     1      21.941  31.329  33.123  1.00  0.00     0.014 C 
ATOM      5  C   UNL     1      24.482  29.563  30.870  1.00  0.00     0.009 C 
ATOM      6  C   UNL     1      21.228  31.592  30.122  1.00  0.00     0.000 C 
ATOM      7  C   UNL     1      23.375  29.980  29.873  1.00  0.00     0.018 C 
ATOM      8  C   UNL     1      20.502  31.680  32.613  1.00  0.00     0.008 C 
ATOM      9  C   UNL     1      20.374  30.711  29.153  1.00  0.00     0.005 C 
ATOM     10  C   UNL     1      20.417  32.451  31.235  1.00  0.00    -0.024 C 
ATOM     11  C   UNL     1      18.996  31.214  28.805  1.00  0.00     0.005 C 
ATOM     12  C   UNL     1      18.879  32.792  30.775  1.00  0.00    -0.024 C 
ATOM     13  C   UNL     1      21.135  33.830  31.493  1.00  0.00     0.012 C 
ATOM     14  C   UNL     1      18.213  31.545  30.087  1.00  0.00     0.002 C 
ATOM     15  C   UNL     1      17.996  33.175  32.004  1.00  0.00     0.008 C 
ATOM     16  C   UNL     1      18.896  34.015  29.792  1.00  0.00     0.012 C 
ATOM     17  C   UNL     1      16.622  31.515  29.870  1.00  0.00    -0.025 C 
ATOM     18  C   UNL     1      16.515  33.370  31.684  1.00  0.00     0.006 C 
ATOM     19  C   UNL     1      16.204  30.022  29.605  1.00  0.00     0.015 C 
ATOM     20  C   UNL     1      16.174  32.316  28.599  1.00  0.00     0.012 C 
ATOM     21  C   UNL     1      15.825  32.105  31.112  1.00  0.00     0.008 C 
ATOM     22  C   UNL     1      14.755  29.722  29.976  1.00  0.00     0.077 C 
ATOM     23  C   UNL     1      15.248  31.066  32.177  1.00  0.00     0.027 C 
ATOM     24  C   UNL     1      14.587  29.899  31.450  1.00  0.00     0.138 C 
ATOM     25  C   UNL     1      14.153  31.741  33.047  1.00  0.00     0.020 C 
ATOM     26  C   UNL     1      16.317  30.482  33.125  1.00  0.00     0.020 C 
ATOM     27  O   UNL     1      13.911  29.088  32.068  1.00  0.00    -0.299 OA
ENDROOT
BRANCH   1  28
ATOM     28  C   UNL     1      23.840  32.376  31.759  1.00  0.00     0.048 C 
ATOM     29  O   UNL     1      24.315  33.004  32.744  1.00  0.00    -0.550 OA
ATOM     30  O   UNL     1      24.150  32.818  30.478  1.00  0.00    -0.550 OA
ENDBRANCH   1  28
BRANCH   7  31
ATOM     31  C   UNL     1      22.910  28.791  29.034  1.00  0.00    -0.077 C 
ATOM     32  C   UNL     1      21.774  27.905  29.481  1.00  0.00     0.039 C 
ATOM     33  C   UNL     1      23.540  28.494  27.886  1.00  0.00     0.008 C 
ENDBRANCH   7  31
TORSDOF 2
ENDMDL
MODEL 2
REMARK VINA RESULT:    -4.511      3.506      8.084
REMARK INTER + INTRA:          -4.973
REMARK INTER:                  -4.901
REMARK INTRA:                  -0.072
REMARK UNBOUND:                 0.066
REMARK SMILES C=C(C)[C@@H]1CC[C@]2(C(=O)[O-])CC[C@@]3(C)[C@H](CC[C@@H]4[C@@]5(C)CCC(=O)C(C)(C)[C@H]5CC[C@]43C)[C@@H]12
REMARK SMILES IDX 7 1 6 2 33 3 11 4 5 5 15 6 4 7 12 8 16 9 13 10 17 11 31 12
REMARK SMILES IDX 14 13 18 14 30 15 32 16 19 17 29 18 21 19 20 20 28 21 22 22
REMARK SMILES IDX 25 23 23 24 26 25 27 26 24 27 8 28 9 29 10 30 2 31 3 32 1 33
REMARK H PARENT
REMARK Flexibility Score: inf
ROOT
ATOM      1  C   UNL     1      16.053  25.122  28.918  1.00  0.00     0.014 C 
ATOM      2  C   UNL     1      15.617  23.760  29.480  1.00  0.00     0.014 C 
ATOM      3  C   UNL     1      15.937  26.003  30.157  1.00  0.00     0.012 C 
ATOM      4  C   UNL     1      17.534  25.167  28.432  1.00  0.00     0.014 C 
ATOM      5  C   UNL     1      14.442  24.085  30.412  1.00  0.00     0.009 C 
ATOM      6  C   UNL     1      16.206  27.536  29.920  1.00  0.00     0.000 C 
ATOM      7  C   UNL     1      14.627  25.557  30.849  1.00  0.00     0.018 C 
ATOM      8  C   UNL     1      18.284  26.504  28.756  1.00  0.00     0.008 C 
ATOM      9  C   UNL     1      16.405  28.136  31.349  1.00  0.00     0.005 C 
ATOM     10  C   UNL     1      17.391  27.806  28.843  1.00  0.00    -0.024 C 
ATOM     11  C   UNL     1      17.185  29.423  31.450  1.00  0.00     0.005 C 
ATOM     12  C   UNL     1      18.251  29.163  29.174  1.00  0.00    -0.024 C 
ATOM     13  C   UNL     1      16.787  27.984  27.398  1.00  0.00     0.012 C 
ATOM     14  C   UNL     1      18.529  29.285  30.716  1.00  0.00     0.002 C 
ATOM     15  C   UNL     1      19.633  29.145  28.449  1.00  0.00     0.008 C 
ATOM     16  C   UNL     1      17.452  30.415  28.662  1.00  0.00     0.012 C 
ATOM     17  C   UNL     1      19.635  30.325  31.242  1.00  0.00    -0.025 C 
ATOM     18  C   UNL     1      20.556  30.305  28.814  1.00  0.00     0.006 C 
ATOM     19  C   UNL     1      20.018  29.913  32.711  1.00  0.00     0.015 C 
ATOM     20  C   UNL     1      19.084  31.789  31.339  1.00  0.00     0.012 C 
ATOM     21  C   UNL     1      20.928  30.361  30.318  1.00  0.00     0.008 C 
ATOM     22  C   UNL     1      21.414  30.368  33.125  1.00  0.00     0.077 C 
ATOM     23  C   UNL     1      22.183  29.487  30.774  1.00  0.00     0.027 C 
ATOM     24  C   UNL     1      22.422  29.673  32.268  1.00  0.00     0.138 C 
ATOM     25  C   UNL     1      23.466  29.968  30.043  1.00  0.00     0.020 C 
ATOM     26  C   UNL     1      22.022  27.976  30.510  1.00  0.00     0.020 C 
ATOM     27  O   UNL     1      23.446  29.251  32.789  1.00  0.00    -0.299 OA
ENDROOT
BRANCH   1  28
ATOM     28  C   UNL     1      15.068  25.457  27.797  1.00  0.00     0.048 C 
ATOM     29  O   UNL     1      15.208  24.926  26.663  1.00  0.00    -0.550 OA
ATOM     30  O   UNL     1      13.980  26.296  28.008  1.00  0.00    -0.550 OA
ENDBRANCH   1  28
BRANCH   7  31
ATOM     31  C   UNL     1      14.649  25.685  32.371  1.00  0.00    -0.077 C 
ATOM     32  C   UNL     1      13.901  26.787  33.080  1.00  0.00     0.039 C 
ATOM     33  C   UNL     1      15.374  24.827  33.105  1.00  0.00     0.008 C 
ENDBRANCH   7  31
TORSDOF 2
ENDMDL
