MODEL 1
REMARK VINA RESULT:    32.509      0.000      0.000
REMARK INTER + INTRA:          40.125
REMARK INTER:                  40.111
REMARK INTRA:                   0.014
REMARK UNBOUND:                 0.014
REMARK SMILES O=c1c(O)c(-c2cc(O)c(O)c(O)c2)oc2cc(O)cc(O)c12
REMARK SMILES IDX 5 1 3 2 2 3 1 4 23 5 21 6 20 7 18 8 17 9 16 10 15 11 6 12
REMARK SMILES IDX 7 13 8 14 14 15 10 16 12 17 9 18 11 20 13 22 4 24 22 26
REMARK SMILES IDX 19 28
REMARK H PARENT 9 19 11 21 13 23 4 25 22 27 19 29
REMARK Flexibility Score: inf
ROOT
ATOM      1  C   UNL     1      -2.269  -0.571   2.515  1.00  0.00     0.180 A 
ATOM      2  C   UNL     1      -3.128   0.066   3.428  1.00  0.00     0.208 A 
ATOM      3  C   UNL     1      -4.515  -0.012   3.225  1.00  0.00     0.238 A 
ATOM      4  O   UNL     1      -5.280   0.514   4.075  1.00  0.00    -0.285 OA
ATOM      5  C   UNL     1      -5.026  -0.712   2.105  1.00  0.00     0.111 A 
ATOM      6  C   UNL     1      -6.411  -0.821   1.781  1.00  0.00     0.134 A 
ATOM      7  C   UNL     1      -6.809  -1.646   0.722  1.00  0.00     0.093 A 
ATOM      8  C   UNL     1      -5.868  -2.316  -0.063  1.00  0.00     0.123 A 
ATOM      9  C   UNL     1      -4.509  -2.168   0.209  1.00  0.00     0.094 A 
ATOM     10  C   UNL     1      -4.083  -1.380   1.280  1.00  0.00     0.146 A 
ATOM     11  O   UNL     1      -2.780  -1.275   1.512  1.00  0.00    -0.452 OA
ENDROOT
BRANCH   1  12
ATOM     12  C   UNL     1      -0.795  -0.512   2.649  1.00  0.00     0.029 A 
ATOM     13  C   UNL     1       0.025  -0.187   1.558  1.00  0.00     0.062 A 
ATOM     14  C   UNL     1       1.415  -0.159   1.696  1.00  0.00     0.162 A 
ATOM     15  C   UNL     1      -0.200  -0.846   3.873  1.00  0.00     0.062 A 
ATOM     16  C   UNL     1       2.012  -0.470   2.931  1.00  0.00     0.200 A 
ATOM     17  C   UNL     1       1.191  -0.823   4.029  1.00  0.00     0.162 A 
BRANCH  14  18
ATOM     18  O   UNL     1       2.191   0.177   0.585  1.00  0.00    -0.504 OA
ATOM     19  H   UNL     1       2.199   1.111   0.194  1.00  0.00     0.293 HD
ENDBRANCH  14  18
BRANCH  16  20
ATOM     20  O   UNL     1       3.405  -0.422   3.027  1.00  0.00    -0.502 OA
ATOM     21  H   UNL     1       4.032  -0.999   2.485  1.00  0.00     0.293 HD
ENDBRANCH  16  20
BRANCH  17  22
ATOM     22  O   UNL     1       1.709  -1.155   5.283  1.00  0.00    -0.504 OA
ATOM     23  H   UNL     1       1.260  -0.934   6.159  1.00  0.00     0.293 HD
ENDBRANCH  17  22
ENDBRANCH   1  12
BRANCH   2  24
ATOM     24  O   UNL     1      -2.604   0.732   4.539  1.00  0.00    -0.502 OA
ATOM     25  H   UNL     1      -1.924   1.479   4.455  1.00  0.00     0.293 HD
ENDBRANCH   2  24
BRANCH   6  26
ATOM     26  O   UNL     1      -7.425  -0.122   2.443  1.00  0.00    -0.507 OA
ATOM     27  H   UNL     1      -8.383  -0.070   2.135  1.00  0.00     0.293 HD
ENDBRANCH   6  26
BRANCH   8  28
ATOM     28  O   UNL     1      -6.271  -3.123  -1.125  1.00  0.00    -0.508 OA
ATOM     29  H   UNL     1      -5.641  -3.353  -1.885  1.00  0.00     0.293 HD
ENDBRANCH   8  28
TORSDOF 7
ENDMDL
