MODEL 1
REMARK VINA RESULT:    -5.266      0.000      0.000
REMARK INTER + INTRA:          -9.737
REMARK INTER:                  -8.960
REMARK INTRA:                  -0.777
REMARK UNBOUND:                -0.777
REMARK SMILES CCCCCCCCCCCCCC(=O)[O-]
REMARK SMILES IDX 8 1 9 2 10 3 11 4 12 5 13 6 14 7 15 8 16 9 7 10 6 11 5 12
REMARK SMILES IDX 4 13 3 14 2 15 1 16
REMARK H PARENT
REMARK Flexibility Score: inf
ROOT
ATOM      1  C   UNL     1      22.724  12.370  10.366  1.00  0.00     0.000 C 
ENDROOT
BRANCH   1   2
ATOM      2  C   UNL     1      21.454  11.531  10.610  1.00  0.00     0.000 C 
BRANCH   2   3
ATOM      3  C   UNL     1      21.709  10.088  11.079  1.00  0.00     0.000 C 
BRANCH   3   4
ATOM      4  C   UNL     1      22.688  10.010  12.260  1.00  0.00     0.000 C 
BRANCH   4   5
ATOM      5  C   UNL     1      22.052   9.287  13.454  1.00  0.00     0.006 C 
BRANCH   5   6
ATOM      6  C   UNL     1      20.795   8.524  13.027  1.00  0.00     0.053 C 
BRANCH   6   7
ATOM      7  C   UNL     1      19.601   9.013  13.784  1.00  0.00     0.041 C 
ATOM      8  O   UNL     1      19.050  10.099  13.465  1.00  0.00    -0.550 OA
ATOM      9  O   UNL     1      19.127   8.295  14.874  1.00  0.00    -0.550 OA
ENDBRANCH   6   7
ENDBRANCH   5   6
ENDBRANCH   4   5
ENDBRANCH   3   4
ENDBRANCH   2   3
ENDBRANCH   1   2
BRANCH   1  10
ATOM     10  C   UNL     1      22.798  13.066   8.993  1.00  0.00     0.000 C 
BRANCH  10  11
ATOM     11  C   UNL     1      24.220  13.355   8.481  1.00  0.00    -0.000 C 
BRANCH  11  12
ATOM     12  C   UNL     1      25.289  13.216   9.578  1.00  0.00    -0.000 C 
BRANCH  12  13
ATOM     13  C   UNL     1      26.694  13.598   9.085  1.00  0.00    -0.000 C 
BRANCH  13  14
ATOM     14  C   UNL     1      26.727  13.928   7.586  1.00  0.00    -0.000 C 
BRANCH  14  15
ATOM     15  C   UNL     1      27.417  15.275   7.336  1.00  0.00    -0.003 C 
ATOM     16  C   UNL     1      26.865  16.358   8.257  1.00  0.00     0.004 C 
ENDBRANCH  14  15
ENDBRANCH  13  14
ENDBRANCH  12  13
ENDBRANCH  11  12
ENDBRANCH  10  11
ENDBRANCH   1  10
TORSDOF 12
ENDMDL
MODEL 2
REMARK VINA RESULT:    -5.262      2.791      6.993
REMARK INTER + INTRA:          -9.731
REMARK INTER:                  -9.021
REMARK INTRA:                  -0.710
REMARK UNBOUND:                -0.777
REMARK SMILES CCCCCCCCCCCCCC(=O)[O-]
REMARK SMILES IDX 8 1 9 2 10 3 11 4 12 5 13 6 14 7 15 8 16 9 7 10 6 11 5 12
REMARK SMILES IDX 4 13 3 14 2 15 1 16
REMARK H PARENT
REMARK Flexibility Score: inf
ROOT
ATOM      1  C   UNL     1      22.585  13.701   9.043  1.00  0.00     0.000 C 
ENDROOT
BRANCH   1   2
ATOM      2  C   UNL     1      23.844  13.096   8.390  1.00  0.00     0.000 C 
BRANCH   2   3
ATOM      3  C   UNL     1      25.087  14.005   8.413  1.00  0.00     0.000 C 
BRANCH   3   4
ATOM      4  C   UNL     1      26.180  13.495   9.364  1.00  0.00     0.000 C 
BRANCH   4   5
ATOM      5  C   UNL     1      25.565  12.759  10.561  1.00  0.00     0.006 C 
BRANCH   5   6
ATOM      6  C   UNL     1      26.654  12.203  11.482  1.00  0.00     0.053 C 
BRANCH   6   7
ATOM      7  C   UNL     1      26.076  11.826  12.810  1.00  0.00     0.041 C 
ATOM      8  O   UNL     1      26.760  11.164  13.633  1.00  0.00    -0.550 OA
ATOM      9  O   UNL     1      24.764  12.164  13.117  1.00  0.00    -0.550 OA
ENDBRANCH   6   7
ENDBRANCH   5   6
ENDBRANCH   4   5
ENDBRANCH   3   4
ENDBRANCH   2   3
ENDBRANCH   1   2
BRANCH   1  10
ATOM     10  C   UNL     1      22.083  12.968  10.303  1.00  0.00     0.000 C 
BRANCH  10  11
ATOM     11  C   UNL     1      21.955  11.440  10.163  1.00  0.00    -0.000 C 
BRANCH  11  12
ATOM     12  C   UNL     1      21.168  10.800  11.319  1.00  0.00    -0.000 C 
BRANCH  12  13
ATOM     13  C   UNL     1      22.033   9.856  12.170  1.00  0.00    -0.000 C 
BRANCH  13  14
ATOM     14  C   UNL     1      21.196   8.863  12.990  1.00  0.00    -0.000 C 
BRANCH  14  15
ATOM     15  C   UNL     1      19.785   9.409  13.240  1.00  0.00    -0.003 C 
ATOM     16  C   UNL     1      19.093   8.657  14.372  1.00  0.00     0.004 C 
ENDBRANCH  14  15
ENDBRANCH  13  14
ENDBRANCH  12  13
ENDBRANCH  11  12
ENDBRANCH  10  11
ENDBRANCH   1  10
TORSDOF 12
ENDMDL
MODEL 3
REMARK VINA RESULT:    -5.194      4.232      8.724
REMARK INTER + INTRA:          -9.614
REMARK INTER:                  -8.982
REMARK INTRA:                  -0.632
REMARK UNBOUND:                -0.777
REMARK SMILES CCCCCCCCCCCCCC(=O)[O-]
REMARK SMILES IDX 8 1 9 2 10 3 11 4 12 5 13 6 14 7 15 8 16 9 7 10 6 11 5 12
REMARK SMILES IDX 4 13 3 14 2 15 1 16
REMARK H PARENT
REMARK Flexibility Score: inf
ROOT
ATOM      1  C   UNL     1      22.628  13.208   9.557  1.00  0.00     0.000 C 
ENDROOT
BRANCH   1   2
ATOM      2  C   UNL     1      23.983  13.392   8.845  1.00  0.00     0.000 C 
BRANCH   2   3
ATOM      3  C   UNL     1      25.219  13.142   9.728  1.00  0.00     0.000 C 
BRANCH   3   4
ATOM      4  C   UNL     1      26.536  13.500   9.022  1.00  0.00     0.000 C 
BRANCH   4   5
ATOM      5  C   UNL     1      26.277  14.360   7.780  1.00  0.00     0.006 C 
BRANCH   5   6
ATOM      6  C   UNL     1      27.232  15.555   7.730  1.00  0.00     0.053 C 
BRANCH   6   7
ATOM      7  C   UNL     1      26.474  16.838   7.863  1.00  0.00     0.041 C 
ATOM      8  O   UNL     1      25.236  16.868   7.639  1.00  0.00    -0.550 OA
ATOM      9  O   UNL     1      27.144  18.011   8.185  1.00  0.00    -0.550 OA
ENDBRANCH   6   7
ENDBRANCH   5   6
ENDBRANCH   4   5
ENDBRANCH   3   4
ENDBRANCH   2   3
ENDBRANCH   1   2
BRANCH   1  10
ATOM     10  C   UNL     1      22.626  12.186  10.710  1.00  0.00     0.000 C 
BRANCH  10  11
ATOM     11  C   UNL     1      21.423  11.226  10.731  1.00  0.00    -0.000 C 
BRANCH  11  12
ATOM     12  C   UNL     1      21.803   9.802  11.171  1.00  0.00    -0.000 C 
BRANCH  12  13
ATOM     13  C   UNL     1      21.594   9.574  12.677  1.00  0.00    -0.000 C 
BRANCH  13  14
ATOM     14  C   UNL     1      21.004   8.191  12.991  1.00  0.00    -0.000 C 
BRANCH  14  15
ATOM     15  C   UNL     1      19.768   8.314  13.891  1.00  0.00    -0.003 C 
ATOM     16  C   UNL     1      19.068   9.654  13.690  1.00  0.00     0.004 C 
ENDBRANCH  14  15
ENDBRANCH  13  14
ENDBRANCH  12  13
ENDBRANCH  11  12
ENDBRANCH  10  11
ENDBRANCH   1  10
TORSDOF 12
ENDMDL
MODEL 4
REMARK VINA RESULT:    -5.184      2.649      7.288
REMARK INTER + INTRA:          -9.597
REMARK INTER:                  -8.772
REMARK INTRA:                  -0.825
REMARK UNBOUND:                -0.777
REMARK SMILES CCCCCCCCCCCCCC(=O)[O-]
REMARK SMILES IDX 8 1 9 2 10 3 11 4 12 5 13 6 14 7 15 8 16 9 7 10 6 11 5 12
REMARK SMILES IDX 4 13 3 14 2 15 1 16
REMARK H PARENT
REMARK Flexibility Score: inf
ROOT
ATOM      1  C   UNL     1      24.945  12.011  11.902  1.00  0.00     0.000 C 
ENDROOT
BRANCH   1   2
ATOM      2  C   UNL     1      26.284  12.269  11.184  1.00  0.00     0.000 C 
BRANCH   2   3
ATOM      3  C   UNL     1      26.331  13.556  10.340  1.00  0.00     0.000 C 
BRANCH   3   4
ATOM      4  C   UNL     1      25.938  13.321   8.874  1.00  0.00     0.000 C 
BRANCH   4   5
ATOM      5  C   UNL     1      24.674  14.110   8.512  1.00  0.00     0.006 C 
BRANCH   5   6
ATOM      6  C   UNL     1      23.528  13.168   8.132  1.00  0.00     0.053 C 
BRANCH   6   7
ATOM      7  C   UNL     1      22.581  13.005   9.279  1.00  0.00     0.041 C 
ATOM      8  O   UNL     1      22.136  11.866   9.576  1.00  0.00    -0.550 OA
ATOM      9  O   UNL     1      22.151  14.120   9.988  1.00  0.00    -0.550 OA
ENDBRANCH   6   7
ENDBRANCH   5   6
ENDBRANCH   4   5
ENDBRANCH   3   4
ENDBRANCH   2   3
ENDBRANCH   1   2
BRANCH   1  10
ATOM     10  C   UNL     1      25.042  11.174  13.193  1.00  0.00     0.000 C 
BRANCH  10  11
ATOM     11  C   UNL     1      23.905  10.159  13.402  1.00  0.00    -0.000 C 
BRANCH  11  12
ATOM     12  C   UNL     1      22.678  10.447  12.520  1.00  0.00    -0.000 C 
BRANCH  12  13
ATOM     13  C   UNL     1      22.088   9.172  11.895  1.00  0.00    -0.000 C 
BRANCH  13  14
ATOM     14  C   UNL     1      21.145   8.425  12.850  1.00  0.00    -0.000 C 
BRANCH  14  15
ATOM     15  C   UNL     1      19.995   9.332  13.306  1.00  0.00    -0.003 C 
ATOM     16  C   UNL     1      19.176   8.672  14.410  1.00  0.00     0.004 C 
ENDBRANCH  14  15
ENDBRANCH  13  14
ENDBRANCH  12  13
ENDBRANCH  11  12
ENDBRANCH  10  11
ENDBRANCH   1  10
TORSDOF 12
ENDMDL
MODEL 5
REMARK VINA RESULT:    -5.156      1.350      2.807
REMARK INTER + INTRA:          -9.550
REMARK INTER:                  -8.454
REMARK INTRA:                  -1.096
REMARK UNBOUND:                -0.777
REMARK SMILES CCCCCCCCCCCCCC(=O)[O-]
REMARK SMILES IDX 8 1 9 2 10 3 11 4 12 5 13 6 14 7 15 8 16 9 7 10 6 11 5 12
REMARK SMILES IDX 4 13 3 14 2 15 1 16
REMARK H PARENT
REMARK Flexibility Score: inf
ROOT
ATOM      1  C   UNL     1      25.045  12.071  11.865  1.00  0.00     0.000 C 
ENDROOT
BRANCH   1   2
ATOM      2  C   UNL     1      24.797  11.217  13.124  1.00  0.00     0.000 C 
BRANCH   2   3
ATOM      3  C   UNL     1      23.622  10.229  13.018  1.00  0.00     0.000 C 
BRANCH   3   4
ATOM      4  C   UNL     1      22.568  10.667  11.989  1.00  0.00     0.000 C 
BRANCH   4   5
ATOM      5  C   UNL     1      21.566   9.538  11.717  1.00  0.00     0.006 C 
BRANCH   5   6
ATOM      6  C   UNL     1      21.311   8.713  12.981  1.00  0.00     0.053 C 
BRANCH   6   7
ATOM      7  C   UNL     1      19.976   9.049  13.567  1.00  0.00     0.041 C 
ATOM      8  O   UNL     1      19.374  10.095  13.212  1.00  0.00    -0.550 OA
ATOM      9  O   UNL     1      19.420   8.231  14.542  1.00  0.00    -0.550 OA
ENDBRANCH   6   7
ENDBRANCH   5   6
ENDBRANCH   4   5
ENDBRANCH   3   4
ENDBRANCH   2   3
ENDBRANCH   1   2
BRANCH   1  10
ATOM     10  C   UNL     1      26.520  12.429  11.594  1.00  0.00     0.000 C 
BRANCH  10  11
ATOM     11  C   UNL     1      26.873  12.674  10.117  1.00  0.00    -0.000 C 
BRANCH  11  12
ATOM     12  C   UNL     1      27.024  14.166   9.778  1.00  0.00    -0.000 C 
BRANCH  12  13
ATOM     13  C   UNL     1      26.025  14.632   8.707  1.00  0.00    -0.000 C 
BRANCH  13  14
ATOM     14  C   UNL     1      25.055  13.522   8.277  1.00  0.00    -0.000 C 
BRANCH  14  15
ATOM     15  C   UNL     1      23.601  13.933   8.537  1.00  0.00    -0.003 C 
ATOM     16  C   UNL     1      22.749  12.732   8.936  1.00  0.00     0.004 C 
ENDBRANCH  14  15
ENDBRANCH  13  14
ENDBRANCH  12  13
ENDBRANCH  11  12
ENDBRANCH  10  11
ENDBRANCH   1  10
TORSDOF 12
ENDMDL
MODEL 6
REMARK VINA RESULT:    -5.147      2.946      3.770
REMARK INTER + INTRA:          -9.534
REMARK INTER:                  -8.429
REMARK INTRA:                  -1.105
REMARK UNBOUND:                -0.777
REMARK SMILES CCCCCCCCCCCCCC(=O)[O-]
REMARK SMILES IDX 8 1 9 2 10 3 11 4 12 5 13 6 14 7 15 8 16 9 7 10 6 11 5 12
REMARK SMILES IDX 4 13 3 14 2 15 1 16
REMARK H PARENT
REMARK Flexibility Score: inf
ROOT
ATOM      1  C   UNL     1      21.397  10.565  10.663  1.00  0.00     0.000 C 
ENDROOT
BRANCH   1   2
ATOM      2  C   UNL     1      20.809  10.255  12.055  1.00  0.00     0.000 C 
BRANCH   2   3
ATOM      3  C   UNL     1      21.365   8.987  12.727  1.00  0.00     0.000 C 
BRANCH   3   4
ATOM      4  C   UNL     1      22.891   8.863  12.593  1.00  0.00     0.000 C 
BRANCH   4   5
ATOM      5  C   UNL     1      23.606   9.719  13.645  1.00  0.00     0.006 C 
BRANCH   5   6
ATOM      6  C   UNL     1      24.296  10.922  12.996  1.00  0.00     0.053 C 
BRANCH   6   7
ATOM      7  C   UNL     1      25.728  10.998  13.424  1.00  0.00     0.041 C 
ATOM      8  O   UNL     1      26.218  10.102  14.158  1.00  0.00    -0.550 OA
ATOM      9  O   UNL     1      26.507  12.086  13.051  1.00  0.00    -0.550 OA
ENDBRANCH   6   7
ENDBRANCH   5   6
ENDBRANCH   4   5
ENDBRANCH   3   4
ENDBRANCH   2   3
ENDBRANCH   1   2
BRANCH   1  10
ATOM     10  C   UNL     1      21.817  12.031  10.439  1.00  0.00     0.000 C 
BRANCH  10  11
ATOM     11  C   UNL     1      22.519  12.313   9.099  1.00  0.00    -0.000 C 
BRANCH  11  12
ATOM     12  C   UNL     1      23.556  13.443   9.195  1.00  0.00    -0.000 C 
BRANCH  12  13
ATOM     13  C   UNL     1      24.761  13.066  10.072  1.00  0.00    -0.000 C 
BRANCH  13  14
ATOM     14  C   UNL     1      26.105  13.437   9.427  1.00  0.00    -0.000 C 
BRANCH  14  15
ATOM     15  C   UNL     1      25.899  13.986   8.010  1.00  0.00    -0.003 C 
ATOM     16  C   UNL     1      26.538  15.363   7.853  1.00  0.00     0.004 C 
ENDBRANCH  14  15
ENDBRANCH  13  14
ENDBRANCH  12  13
ENDBRANCH  11  12
ENDBRANCH  10  11
ENDBRANCH   1  10
TORSDOF 12
ENDMDL
MODEL 7
REMARK VINA RESULT:    -4.980     10.571     12.919
REMARK INTER + INTRA:          -9.250
REMARK INTER:                  -7.483
REMARK INTRA:                  -1.767
REMARK UNBOUND:                -0.777
REMARK SMILES CCCCCCCCCCCCCC(=O)[O-]
REMARK SMILES IDX 8 1 9 2 10 3 11 4 12 5 13 6 14 7 15 8 16 9 7 10 6 11 5 12
REMARK SMILES IDX 4 13 3 14 2 15 1 16
REMARK H PARENT
REMARK Flexibility Score: inf
ROOT
ATOM      1  C   UNL     1      27.711  22.646   5.507  1.00  0.00     0.000 C 
ENDROOT
BRANCH   1   2
ATOM      2  C   UNL     1      27.032  21.388   4.930  1.00  0.00     0.000 C 
BRANCH   2   3
ATOM      3  C   UNL     1      25.533  21.253   5.253  1.00  0.00     0.000 C 
BRANCH   3   4
ATOM      4  C   UNL     1      24.636  21.497   4.030  1.00  0.00     0.000 C 
BRANCH   4   5
ATOM      5  C   UNL     1      23.199  21.815   4.459  1.00  0.00     0.006 C 
BRANCH   5   6
ATOM      6  C   UNL     1      23.015  21.601   5.964  1.00  0.00     0.053 C 
BRANCH   6   7
ATOM      7  C   UNL     1      22.084  20.458   6.221  1.00  0.00     0.041 C 
ATOM      8  O   UNL     1      21.933  19.557   5.356  1.00  0.00    -0.550 OA
ATOM      9  O   UNL     1      21.346  20.414   7.397  1.00  0.00    -0.550 OA
ENDBRANCH   6   7
ENDBRANCH   5   6
ENDBRANCH   4   5
ENDBRANCH   3   4
ENDBRANCH   2   3
ENDBRANCH   1   2
BRANCH   1  10
ATOM     10  C   UNL     1      27.374  23.965   4.784  1.00  0.00     0.000 C 
BRANCH  10  11
ATOM     11  C   UNL     1      26.577  24.983   5.618  1.00  0.00    -0.000 C 
BRANCH  11  12
ATOM     12  C   UNL     1      25.091  25.043   5.226  1.00  0.00    -0.000 C 
BRANCH  12  13
ATOM     13  C   UNL     1      24.165  25.204   6.442  1.00  0.00    -0.000 C 
BRANCH  13  14
ATOM     14  C   UNL     1      24.689  24.472   7.687  1.00  0.00    -0.000 C 
BRANCH  14  15
ATOM     15  C   UNL     1      24.608  25.372   8.926  1.00  0.00    -0.003 C 
ATOM     16  C   UNL     1      25.486  26.610   8.769  1.00  0.00     0.004 C 
ENDBRANCH  14  15
ENDBRANCH  13  14
ENDBRANCH  12  13
ENDBRANCH  11  12
ENDBRANCH  10  11
ENDBRANCH   1  10
TORSDOF 12
ENDMDL
MODEL 8
REMARK VINA RESULT:    -4.942      1.787      3.003
REMARK INTER + INTRA:          -9.185
REMARK INTER:                  -8.447
REMARK INTRA:                  -0.738
REMARK UNBOUND:                -0.777
REMARK SMILES CCCCCCCCCCCCCC(=O)[O-]
REMARK SMILES IDX 8 1 9 2 10 3 11 4 12 5 13 6 14 7 15 8 16 9 7 10 6 11 5 12
REMARK SMILES IDX 4 13 3 14 2 15 1 16
REMARK H PARENT
REMARK Flexibility Score: inf
ROOT
ATOM      1  C   UNL     1      23.719  14.428   8.486  1.00  0.00     0.000 C 
ENDROOT
BRANCH   1   2
ATOM      2  C   UNL     1      22.503  13.845   9.233  1.00  0.00     0.000 C 
BRANCH   2   3
ATOM      3  C   UNL     1      22.496  12.311   9.365  1.00  0.00     0.000 C 
BRANCH   3   4
ATOM      4  C   UNL     1      22.124  11.837  10.778  1.00  0.00     0.000 C 
BRANCH   4   5
ATOM      5  C   UNL     1      21.289  10.552  10.723  1.00  0.00     0.006 C 
BRANCH   5   6
ATOM      6  C   UNL     1      20.785  10.164  12.116  1.00  0.00     0.053 C 
BRANCH   6   7
ATOM      7  C   UNL     1      21.508   8.955  12.618  1.00  0.00     0.041 C 
ATOM      8  O   UNL     1      20.901   8.092  13.304  1.00  0.00    -0.550 OA
ATOM      9  O   UNL     1      22.867   8.805  12.369  1.00  0.00    -0.550 OA
ENDBRANCH   6   7
ENDBRANCH   5   6
ENDBRANCH   4   5
ENDBRANCH   3   4
ENDBRANCH   2   3
ENDBRANCH   1   2
BRANCH   1  10
ATOM     10  C   UNL     1      24.927  13.479   8.358  1.00  0.00     0.000 C 
BRANCH  10  11
ATOM     11  C   UNL     1      26.223  14.136   7.850  1.00  0.00    -0.000 C 
BRANCH  11  12
ATOM     12  C   UNL     1      26.670  15.323   8.718  1.00  0.00    -0.000 C 
BRANCH  12  13
ATOM     13  C   UNL     1      27.153  16.518   7.880  1.00  0.00    -0.000 C 
BRANCH  13  14
ATOM     14  C   UNL     1      26.661  17.866   8.429  1.00  0.00    -0.000 C 
BRANCH  14  15
ATOM     15  C   UNL     1      25.810  18.604   7.389  1.00  0.00    -0.003 C 
ATOM     16  C   UNL     1      24.450  17.934   7.211  1.00  0.00     0.004 C 
ENDBRANCH  14  15
ENDBRANCH  13  14
ENDBRANCH  12  13
ENDBRANCH  11  12
ENDBRANCH  10  11
ENDBRANCH   1  10
TORSDOF 12
ENDMDL
MODEL 9
REMARK VINA RESULT:    -4.857      4.208      7.368
REMARK INTER + INTRA:          -9.042
REMARK INTER:                  -8.110
REMARK INTRA:                  -0.932
REMARK UNBOUND:                -0.777
REMARK SMILES CCCCCCCCCCCCCC(=O)[O-]
REMARK SMILES IDX 8 1 9 2 10 3 11 4 12 5 13 6 14 7 15 8 16 9 7 10 6 11 5 12
REMARK SMILES IDX 4 13 3 14 2 15 1 16
REMARK H PARENT
REMARK Flexibility Score: inf
ROOT
ATOM      1  C   UNL     1      21.232  10.502  10.855  1.00  0.00     0.000 C 
ENDROOT
BRANCH   1   2
ATOM      2  C   UNL     1      21.740  11.953  10.741  1.00  0.00     0.000 C 
BRANCH   2   3
ATOM      3  C   UNL     1      22.535  12.264   9.460  1.00  0.00     0.000 C 
BRANCH   3   4
ATOM      4  C   UNL     1      23.770  13.138   9.724  1.00  0.00     0.000 C 
BRANCH   4   5
ATOM      5  C   UNL     1      24.456  13.530   8.409  1.00  0.00     0.006 C 
BRANCH   5   6
ATOM      6  C   UNL     1      25.969  13.667   8.598  1.00  0.00     0.053 C 
BRANCH   6   7
ATOM      7  C   UNL     1      26.420  15.046   8.235  1.00  0.00     0.041 C 
ATOM      8  O   UNL     1      27.628  15.372   8.365  1.00  0.00    -0.550 OA
ATOM      9  O   UNL     1      25.495  15.987   7.800  1.00  0.00    -0.550 OA
ENDBRANCH   6   7
ENDBRANCH   5   6
ENDBRANCH   4   5
ENDBRANCH   3   4
ENDBRANCH   2   3
ENDBRANCH   1   2
BRANCH   1  10
ATOM     10  C   UNL     1      20.619  10.126  12.219  1.00  0.00     0.000 C 
BRANCH  10  11
ATOM     11  C   UNL     1      21.391   9.056  13.011  1.00  0.00    -0.000 C 
BRANCH  11  12
ATOM     12  C   UNL     1      22.883   9.001  12.643  1.00  0.00    -0.000 C 
BRANCH  12  13
ATOM     13  C   UNL     1      23.764   9.778  13.634  1.00  0.00    -0.000 C 
BRANCH  13  14
ATOM     14  C   UNL     1      24.397  11.031  13.010  1.00  0.00    -0.000 C 
BRANCH  14  15
ATOM     15  C   UNL     1      25.867  11.167  13.425  1.00  0.00    -0.003 C 
ATOM     16  C   UNL     1      26.330   9.953  14.225  1.00  0.00     0.004 C 
ENDBRANCH  14  15
ENDBRANCH  13  14
ENDBRANCH  12  13
ENDBRANCH  11  12
ENDBRANCH  10  11
ENDBRANCH   1  10
TORSDOF 12
ENDMDL
