MODEL 1
REMARK VINA RESULT:    -5.071      0.000      0.000
REMARK INTER + INTRA:         -10.858
REMARK INTER:                  -8.925
REMARK INTRA:                  -1.933
REMARK UNBOUND:                -1.933
REMARK SMILES CCCCCCC=CCCCCCCCC(=O)[O-]
REMARK SMILES IDX 10 1 11 2 12 3 13 4 14 5 15 6 16 7 17 8 18 9 9 10 8 11 7 12
REMARK SMILES IDX 6 13 5 14 4 15 3 16 2 17 1 18
REMARK H PARENT
REMARK Flexibility Score: inf
ROOT
ATOM      1  C   UNL     1     -12.177 -27.119 -35.138  1.00  0.00     0.004 C 
ENDROOT
BRANCH   1   2
ATOM      2  C   UNL     1     -11.773 -25.666 -35.433  1.00  0.00     0.000 C 
BRANCH   2   3
ATOM      3  C   UNL     1     -12.943 -24.818 -35.962  1.00  0.00     0.000 C 
BRANCH   3   4
ATOM      4  C   UNL     1     -12.659 -23.305 -35.855  1.00  0.00     0.000 C 
BRANCH   4   5
ATOM      5  C   UNL     1     -12.723 -22.767 -34.415  1.00  0.00     0.006 C 
BRANCH   5   6
ATOM      6  C   UNL     1     -12.440 -21.264 -34.326  1.00  0.00     0.053 C 
BRANCH   6   7
ATOM      7  C   UNL     1     -13.499 -20.490 -35.046  1.00  0.00     0.041 C 
ATOM      8  O   UNL     1     -14.685 -20.492 -34.621  1.00  0.00    -0.550 OA
ATOM      9  O   UNL     1     -13.168 -19.723 -36.155  1.00  0.00    -0.550 OA
ENDBRANCH   6   7
ENDBRANCH   5   6
ENDBRANCH   4   5
ENDBRANCH   3   4
ENDBRANCH   2   3
ENDBRANCH   1   2
BRANCH   1  10
ATOM     10  C   UNL     1     -13.652 -27.249 -34.728  1.00  0.00     0.027 C 
BRANCH  10  11
ATOM     11  C   UNL     1     -13.775 -27.647 -33.283  1.00  0.00    -0.031 C 
ATOM     12  C   UNL     1     -12.801 -28.324 -32.655  1.00  0.00    -0.031 C 
BRANCH  12  13
ATOM     13  C   UNL     1     -12.926 -28.731 -31.211  1.00  0.00     0.027 C 
BRANCH  13  14
ATOM     14  C   UNL     1     -11.927 -27.990 -30.308  1.00  0.00     0.004 C 
BRANCH  14  15
ATOM     15  C   UNL     1     -10.674 -27.538 -31.079  1.00  0.00     0.000 C 
BRANCH  15  16
ATOM     16  C   UNL     1     -10.360 -26.048 -30.875  1.00  0.00    -0.000 C 
BRANCH  16  17
ATOM     17  C   UNL     1     -11.012 -25.153 -31.939  1.00  0.00    -0.003 C 
ATOM     18  C   UNL     1     -12.390 -24.676 -31.487  1.00  0.00     0.004 C 
ENDBRANCH  16  17
ENDBRANCH  15  16
ENDBRANCH  14  15
ENDBRANCH  13  14
ENDBRANCH  12  13
ENDBRANCH  10  11
ENDBRANCH   1  10
TORSDOF 13
ENDMDL
MODEL 2
REMARK VINA RESULT:    -4.715      1.836      4.247
REMARK INTER + INTRA:         -10.231
REMARK INTER:                  -8.317
REMARK INTRA:                  -1.914
REMARK UNBOUND:                -1.933
REMARK SMILES CCCCCCC=CCCCCCCCC(=O)[O-]
REMARK SMILES IDX 10 1 11 2 12 3 13 4 14 5 15 6 16 7 17 8 18 9 9 10 8 11 7 12
REMARK SMILES IDX 6 13 5 14 4 15 3 16 2 17 1 18
REMARK H PARENT
REMARK Flexibility Score: inf
ROOT
ATOM      1  C   UNL     1     -10.748 -27.654 -30.884  1.00  0.00     0.004 C 
ENDROOT
BRANCH   1   2
ATOM      2  C   UNL     1     -10.642 -26.321 -30.127  1.00  0.00     0.000 C 
BRANCH   2   3
ATOM      3  C   UNL     1     -10.019 -25.202 -30.980  1.00  0.00     0.000 C 
BRANCH   3   4
ATOM      4  C   UNL     1     -10.887 -24.854 -32.208  1.00  0.00     0.000 C 
BRANCH   4   5
ATOM      5  C   UNL     1     -12.046 -23.893 -31.889  1.00  0.00     0.006 C 
BRANCH   5   6
ATOM      6  C   UNL     1     -11.609 -22.689 -31.048  1.00  0.00     0.053 C 
BRANCH   6   7
ATOM      7  C   UNL     1     -11.084 -21.599 -31.929  1.00  0.00     0.041 C 
ATOM      8  O   UNL     1     -10.144 -20.860 -31.531  1.00  0.00    -0.550 OA
ATOM      9  O   UNL     1     -11.596 -21.431 -33.208  1.00  0.00    -0.550 OA
ENDBRANCH   6   7
ENDBRANCH   5   6
ENDBRANCH   4   5
ENDBRANCH   3   4
ENDBRANCH   2   3
ENDBRANCH   1   2
BRANCH   1  10
ATOM     10  C   UNL     1     -11.996 -28.458 -30.490  1.00  0.00     0.027 C 
BRANCH  10  11
ATOM     11  C   UNL     1     -12.989 -28.497 -31.619  1.00  0.00    -0.031 C 
ATOM     12  C   UNL     1     -12.956 -27.599 -32.615  1.00  0.00    -0.031 C 
BRANCH  12  13
ATOM     13  C   UNL     1     -13.954 -27.632 -33.741  1.00  0.00     0.027 C 
BRANCH  13  14
ATOM     14  C   UNL     1     -13.276 -27.689 -35.119  1.00  0.00     0.004 C 
BRANCH  14  15
ATOM     15  C   UNL     1     -11.772 -27.372 -35.038  1.00  0.00     0.000 C 
BRANCH  15  16
ATOM     16  C   UNL     1     -11.433 -25.973 -35.575  1.00  0.00    -0.000 C 
BRANCH  16  17
ATOM     17  C   UNL     1     -12.659 -25.241 -36.138  1.00  0.00    -0.003 C 
ATOM     18  C   UNL     1     -12.711 -23.797 -35.647  1.00  0.00     0.004 C 
ENDBRANCH  16  17
ENDBRANCH  15  16
ENDBRANCH  14  15
ENDBRANCH  13  14
ENDBRANCH  12  13
ENDBRANCH  10  11
ENDBRANCH   1  10
TORSDOF 13
ENDMDL
MODEL 3
REMARK VINA RESULT:    -4.632      2.465      6.164
REMARK INTER + INTRA:         -10.086
REMARK INTER:                  -9.006
REMARK INTRA:                  -1.080
REMARK UNBOUND:                -1.933
REMARK SMILES CCCCCCC=CCCCCCCCC(=O)[O-]
REMARK SMILES IDX 10 1 11 2 12 3 13 4 14 5 15 6 16 7 17 8 18 9 9 10 8 11 7 12
REMARK SMILES IDX 6 13 5 14 4 15 3 16 2 17 1 18
REMARK H PARENT
REMARK Flexibility Score: inf
ROOT
ATOM      1  C   UNL     1     -11.447 -26.756 -30.462  1.00  0.00     0.004 C 
ENDROOT
BRANCH   1   2
ATOM      2  C   UNL     1     -11.631 -28.279 -30.553  1.00  0.00     0.000 C 
BRANCH   2   3
ATOM      3  C   UNL     1     -12.948 -28.679 -31.241  1.00  0.00     0.000 C 
BRANCH   3   4
ATOM      4  C   UNL     1     -13.142 -27.955 -32.591  1.00  0.00     0.000 C 
BRANCH   4   5
ATOM      5  C   UNL     1     -12.327 -28.572 -33.742  1.00  0.00     0.006 C 
BRANCH   5   6
ATOM      6  C   UNL     1     -12.097 -27.596 -34.900  1.00  0.00     0.053 C 
BRANCH   6   7
ATOM      7  C   UNL     1     -13.401 -27.207 -35.522  1.00  0.00     0.041 C 
ATOM      8  O   UNL     1     -14.345 -28.038 -35.588  1.00  0.00    -0.550 OA
ATOM      9  O   UNL     1     -13.592 -25.911 -35.984  1.00  0.00    -0.550 OA
ENDBRANCH   6   7
ENDBRANCH   5   6
ENDBRANCH   4   5
ENDBRANCH   3   4
ENDBRANCH   2   3
ENDBRANCH   1   2
BRANCH   1  10
ATOM     10  C   UNL     1     -10.395 -26.229 -31.449  1.00  0.00     0.027 C 
BRANCH  10  11
ATOM     11  C   UNL     1     -10.704 -24.817 -31.862  1.00  0.00    -0.031 C 
ATOM     12  C   UNL     1     -11.824 -24.511 -32.535  1.00  0.00    -0.031 C 
BRANCH  12  13
ATOM     13  C   UNL     1     -12.131 -23.099 -32.957  1.00  0.00     0.027 C 
BRANCH  13  14
ATOM     14  C   UNL     1     -12.622 -23.019 -34.411  1.00  0.00     0.004 C 
BRANCH  14  15
ATOM     15  C   UNL     1     -12.929 -21.573 -34.840  1.00  0.00     0.000 C 
BRANCH  15  16
ATOM     16  C   UNL     1     -11.929 -21.039 -35.877  1.00  0.00    -0.000 C 
BRANCH  16  17
ATOM     17  C   UNL     1     -12.183 -19.570 -36.243  1.00  0.00    -0.003 C 
ATOM     18  C   UNL     1     -13.588 -19.137 -35.836  1.00  0.00     0.004 C 
ENDBRANCH  16  17
ENDBRANCH  15  16
ENDBRANCH  14  15
ENDBRANCH  13  14
ENDBRANCH  12  13
ENDBRANCH  10  11
ENDBRANCH   1  10
TORSDOF 13
ENDMDL
MODEL 4
REMARK VINA RESULT:    -4.574      2.599      5.828
REMARK INTER + INTRA:          -9.984
REMARK INTER:                  -8.606
REMARK INTRA:                  -1.378
REMARK UNBOUND:                -1.933
REMARK SMILES CCCCCCC=CCCCCCCCC(=O)[O-]
REMARK SMILES IDX 10 1 11 2 12 3 13 4 14 5 15 6 16 7 17 8 18 9 9 10 8 11 7 12
REMARK SMILES IDX 6 13 5 14 4 15 3 16 2 17 1 18
REMARK H PARENT
REMARK Flexibility Score: inf
ROOT
ATOM      1  C   UNL     1     -12.169 -27.830 -35.091  1.00  0.00     0.004 C 
ENDROOT
BRANCH   1   2
ATOM      2  C   UNL     1     -12.047 -28.469 -33.699  1.00  0.00     0.000 C 
BRANCH   2   3
ATOM      3  C   UNL     1     -13.224 -28.112 -32.775  1.00  0.00     0.000 C 
BRANCH   3   4
ATOM      4  C   UNL     1     -12.850 -28.233 -31.283  1.00  0.00     0.000 C 
BRANCH   4   5
ATOM      5  C   UNL     1     -12.501 -26.886 -30.625  1.00  0.00     0.006 C 
BRANCH   5   6
ATOM      6  C   UNL     1     -12.380 -25.742 -31.636  1.00  0.00     0.053 C 
BRANCH   6   7
ATOM      7  C   UNL     1     -10.968 -25.252 -31.706  1.00  0.00     0.041 C 
ATOM      8  O   UNL     1     -10.729 -24.022 -31.828  1.00  0.00    -0.550 OA
ATOM      9  O   UNL     1      -9.915 -26.148 -31.584  1.00  0.00    -0.550 OA
ENDBRANCH   6   7
ENDBRANCH   5   6
ENDBRANCH   4   5
ENDBRANCH   3   4
ENDBRANCH   2   3
ENDBRANCH   1   2
BRANCH   1  10
ATOM     10  C   UNL     1     -13.598 -27.359 -35.400  1.00  0.00     0.027 C 
BRANCH  10  11
ATOM     11  C   UNL     1     -13.618 -25.897 -35.752  1.00  0.00    -0.031 C 
ATOM     12  C   UNL     1     -12.593 -25.087 -35.448  1.00  0.00    -0.031 C 
BRANCH  12  13
ATOM     13  C   UNL     1     -12.615 -23.622 -35.792  1.00  0.00     0.027 C 
BRANCH  13  14
ATOM     14  C   UNL     1     -12.680 -22.730 -34.542  1.00  0.00     0.004 C 
BRANCH  14  15
ATOM     15  C   UNL     1     -13.553 -21.483 -34.765  1.00  0.00     0.000 C 
BRANCH  15  16
ATOM     16  C   UNL     1     -12.736 -20.181 -34.755  1.00  0.00    -0.000 C 
BRANCH  16  17
ATOM     17  C   UNL     1     -12.012 -19.925 -36.084  1.00  0.00    -0.003 C 
ATOM     18  C   UNL     1     -10.497 -19.928 -35.895  1.00  0.00     0.004 C 
ENDBRANCH  16  17
ENDBRANCH  15  16
ENDBRANCH  14  15
ENDBRANCH  13  14
ENDBRANCH  12  13
ENDBRANCH  10  11
ENDBRANCH   1  10
TORSDOF 13
ENDMDL
MODEL 5
REMARK VINA RESULT:    -4.469      3.781      7.357
REMARK INTER + INTRA:          -9.799
REMARK INTER:                  -8.963
REMARK INTRA:                  -0.836
REMARK UNBOUND:                -1.933
REMARK SMILES CCCCCCC=CCCCCCCCC(=O)[O-]
REMARK SMILES IDX 10 1 11 2 12 3 13 4 14 5 15 6 16 7 17 8 18 9 9 10 8 11 7 12
REMARK SMILES IDX 6 13 5 14 4 15 3 16 2 17 1 18
REMARK H PARENT
REMARK Flexibility Score: inf
ROOT
ATOM      1  C   UNL     1     -12.258 -24.492 -35.860  1.00  0.00     0.004 C 
ENDROOT
BRANCH   1   2
ATOM      2  C   UNL     1     -13.365 -25.497 -36.215  1.00  0.00     0.000 C 
BRANCH   2   3
ATOM      3  C   UNL     1     -13.407 -26.698 -35.255  1.00  0.00     0.000 C 
BRANCH   3   4
ATOM      4  C   UNL     1     -12.032 -27.386 -35.123  1.00  0.00     0.000 C 
BRANCH   4   5
ATOM      5  C   UNL     1     -11.950 -28.376 -33.948  1.00  0.00     0.006 C 
BRANCH   5   6
ATOM      6  C   UNL     1     -12.821 -27.963 -32.757  1.00  0.00     0.053 C 
BRANCH   6   7
ATOM      7  C   UNL     1     -11.965 -27.546 -31.603  1.00  0.00     0.041 C 
ATOM      8  O   UNL     1     -11.703 -28.363 -30.681  1.00  0.00    -0.550 OA
ATOM      9  O   UNL     1     -11.414 -26.272 -31.570  1.00  0.00    -0.550 OA
ENDBRANCH   6   7
ENDBRANCH   5   6
ENDBRANCH   4   5
ENDBRANCH   3   4
ENDBRANCH   2   3
ENDBRANCH   1   2
BRANCH   1  10
ATOM     10  C   UNL     1     -12.518 -23.773 -34.528  1.00  0.00     0.027 C 
BRANCH  10  11
ATOM     11  C   UNL     1     -12.988 -22.363 -34.760  1.00  0.00    -0.031 C 
ATOM     12  C   UNL     1     -12.410 -21.572 -35.677  1.00  0.00    -0.031 C 
BRANCH  12  13
ATOM     13  C   UNL     1     -12.873 -20.158 -35.905  1.00  0.00     0.027 C 
BRANCH  13  14
ATOM     14  C   UNL     1     -11.790 -19.126 -35.552  1.00  0.00     0.004 C 
BRANCH  14  15
ATOM     15  C   UNL     1     -10.811 -18.893 -36.717  1.00  0.00     0.000 C 
BRANCH  15  16
ATOM     16  C   UNL     1      -9.385 -19.365 -36.393  1.00  0.00    -0.000 C 
BRANCH  16  17
ATOM     17  C   UNL     1      -8.400 -19.106 -37.541  1.00  0.00    -0.003 C 
ATOM     18  C   UNL     1      -7.016 -19.662 -37.214  1.00  0.00     0.004 C 
ENDBRANCH  16  17
ENDBRANCH  15  16
ENDBRANCH  14  15
ENDBRANCH  13  14
ENDBRANCH  12  13
ENDBRANCH  10  11
ENDBRANCH   1  10
TORSDOF 13
ENDMDL
MODEL 6
REMARK VINA RESULT:    -4.468      2.824      6.334
REMARK INTER + INTRA:          -9.797
REMARK INTER:                  -8.108
REMARK INTRA:                  -1.689
REMARK UNBOUND:                -1.933
REMARK SMILES CCCCCCC=CCCCCCCCC(=O)[O-]
REMARK SMILES IDX 10 1 11 2 12 3 13 4 14 5 15 6 16 7 17 8 18 9 9 10 8 11 7 12
REMARK SMILES IDX 6 13 5 14 4 15 3 16 2 17 1 18
REMARK H PARENT
REMARK Flexibility Score: inf
ROOT
ATOM      1  C   UNL     1     -10.035 -25.570 -30.868  1.00  0.00     0.004 C 
ENDROOT
BRANCH   1   2
ATOM      2  C   UNL     1     -10.383 -26.991 -31.337  1.00  0.00     0.000 C 
BRANCH   2   3
ATOM      3  C   UNL     1     -11.284 -27.742 -30.341  1.00  0.00     0.000 C 
BRANCH   3   4
ATOM      4  C   UNL     1     -12.734 -27.874 -30.854  1.00  0.00     0.000 C 
BRANCH   4   5
ATOM      5  C   UNL     1     -12.843 -28.592 -32.211  1.00  0.00     0.006 C 
BRANCH   5   6
ATOM      6  C   UNL     1     -13.522 -27.736 -33.285  1.00  0.00     0.053 C 
BRANCH   6   7
ATOM      7  C   UNL     1     -12.816 -27.885 -34.596  1.00  0.00     0.041 C 
ATOM      8  O   UNL     1     -13.451 -27.760 -35.676  1.00  0.00    -0.550 OA
ATOM      9  O   UNL     1     -11.446 -28.111 -34.626  1.00  0.00    -0.550 OA
ENDBRANCH   6   7
ENDBRANCH   5   6
ENDBRANCH   4   5
ENDBRANCH   3   4
ENDBRANCH   2   3
ENDBRANCH   1   2
BRANCH   1  10
ATOM     10  C   UNL     1     -11.022 -24.517 -31.394  1.00  0.00     0.027 C 
BRANCH  10  11
ATOM     11  C   UNL     1     -11.468 -24.849 -32.791  1.00  0.00    -0.031 C 
ATOM     12  C   UNL     1     -12.239 -24.010 -33.501  1.00  0.00    -0.031 C 
BRANCH  12  13
ATOM     13  C   UNL     1     -12.693 -24.344 -34.896  1.00  0.00     0.027 C 
BRANCH  13  14
ATOM     14  C   UNL     1     -12.597 -23.139 -35.845  1.00  0.00     0.004 C 
BRANCH  14  15
ATOM     15  C   UNL     1     -12.976 -21.821 -35.146  1.00  0.00     0.000 C 
BRANCH  15  16
ATOM     16  C   UNL     1     -12.333 -20.594 -35.811  1.00  0.00    -0.000 C 
BRANCH  16  17
ATOM     17  C   UNL     1     -11.034 -20.158 -35.119  1.00  0.00    -0.003 C 
ATOM     18  C   UNL     1     -11.112 -20.383 -33.611  1.00  0.00     0.004 C 
ENDBRANCH  16  17
ENDBRANCH  15  16
ENDBRANCH  14  15
ENDBRANCH  13  14
ENDBRANCH  12  13
ENDBRANCH  10  11
ENDBRANCH   1  10
TORSDOF 13
ENDMDL
MODEL 7
REMARK VINA RESULT:    -4.420      2.279      5.514
REMARK INTER + INTRA:          -9.712
REMARK INTER:                  -8.213
REMARK INTRA:                  -1.500
REMARK UNBOUND:                -1.933
REMARK SMILES CCCCCCC=CCCCCCCCC(=O)[O-]
REMARK SMILES IDX 10 1 11 2 12 3 13 4 14 5 15 6 16 7 17 8 18 9 9 10 8 11 7 12
REMARK SMILES IDX 6 13 5 14 4 15 3 16 2 17 1 18
REMARK H PARENT
REMARK Flexibility Score: inf
ROOT
ATOM      1  C   UNL     1     -12.390 -27.219 -30.346  1.00  0.00     0.004 C 
ENDROOT
BRANCH   1   2
ATOM      2  C   UNL     1     -13.006 -28.452 -31.025  1.00  0.00     0.000 C 
BRANCH   2   3
ATOM      3  C   UNL     1     -13.014 -28.344 -32.559  1.00  0.00     0.000 C 
BRANCH   3   4
ATOM      4  C   UNL     1     -11.691 -27.772 -33.109  1.00  0.00     0.000 C 
BRANCH   4   5
ATOM      5  C   UNL     1     -11.665 -27.645 -34.643  1.00  0.00     0.006 C 
BRANCH   5   6
ATOM      6  C   UNL     1     -11.850 -26.203 -35.125  1.00  0.00     0.053 C 
BRANCH   6   7
ATOM      7  C   UNL     1     -13.169 -26.046 -35.813  1.00  0.00     0.041 C 
ATOM      8  O   UNL     1     -14.102 -26.863 -35.590  1.00  0.00    -0.550 OA
ATOM      9  O   UNL     1     -13.388 -24.969 -36.662  1.00  0.00    -0.550 OA
ENDBRANCH   6   7
ENDBRANCH   5   6
ENDBRANCH   4   5
ENDBRANCH   3   4
ENDBRANCH   2   3
ENDBRANCH   1   2
BRANCH   1  10
ATOM     10  C   UNL     1     -13.304 -25.987 -30.419  1.00  0.00     0.027 C 
BRANCH  10  11
ATOM     11  C   UNL     1     -12.499 -24.729 -30.599  1.00  0.00    -0.031 C 
ATOM     12  C   UNL     1     -12.092 -24.323 -31.811  1.00  0.00    -0.031 C 
BRANCH  12  13
ATOM     13  C   UNL     1     -11.279 -23.069 -31.993  1.00  0.00     0.027 C 
BRANCH  13  14
ATOM     14  C   UNL     1     -11.985 -22.042 -32.891  1.00  0.00     0.004 C 
BRANCH  14  15
ATOM     15  C   UNL     1     -12.653 -22.701 -34.111  1.00  0.00     0.000 C 
BRANCH  15  16
ATOM     16  C   UNL     1     -13.033 -21.683 -35.198  1.00  0.00    -0.000 C 
BRANCH  16  17
ATOM     17  C   UNL     1     -11.807 -21.058 -35.879  1.00  0.00    -0.003 C 
ATOM     18  C   UNL     1     -11.822 -19.537 -35.749  1.00  0.00     0.004 C 
ENDBRANCH  16  17
ENDBRANCH  15  16
ENDBRANCH  14  15
ENDBRANCH  13  14
ENDBRANCH  12  13
ENDBRANCH  10  11
ENDBRANCH   1  10
TORSDOF 13
ENDMDL
MODEL 8
REMARK VINA RESULT:    -4.415      1.367      3.177
REMARK INTER + INTRA:          -9.703
REMARK INTER:                  -8.317
REMARK INTRA:                  -1.386
REMARK UNBOUND:                -1.933
REMARK SMILES CCCCCCC=CCCCCCCCC(=O)[O-]
REMARK SMILES IDX 10 1 11 2 12 3 13 4 14 5 15 6 16 7 17 8 18 9 9 10 8 11 7 12
REMARK SMILES IDX 6 13 5 14 4 15 3 16 2 17 1 18
REMARK H PARENT
REMARK Flexibility Score: inf
ROOT
ATOM      1  C   UNL     1     -12.250 -23.678 -32.990  1.00  0.00     0.004 C 
ENDROOT
BRANCH   1   2
ATOM      2  C   UNL     1     -12.269 -24.435 -34.328  1.00  0.00     0.000 C 
BRANCH   2   3
ATOM      3  C   UNL     1     -12.678 -23.540 -35.511  1.00  0.00     0.000 C 
BRANCH   3   4
ATOM      4  C   UNL     1     -13.054 -22.114 -35.059  1.00  0.00     0.000 C 
BRANCH   4   5
ATOM      5  C   UNL     1     -12.300 -21.008 -35.819  1.00  0.00     0.006 C 
BRANCH   5   6
ATOM      6  C   UNL     1     -13.068 -19.683 -35.863  1.00  0.00     0.053 C 
BRANCH   6   7
ATOM      7  C   UNL     1     -13.363 -19.204 -34.476  1.00  0.00     0.041 C 
ATOM      8  O   UNL     1     -14.554 -19.086 -34.086  1.00  0.00    -0.550 OA
ATOM      9  O   UNL     1     -12.322 -18.937 -33.597  1.00  0.00    -0.550 OA
ENDBRANCH   6   7
ENDBRANCH   5   6
ENDBRANCH   4   5
ENDBRANCH   3   4
ENDBRANCH   2   3
ENDBRANCH   1   2
BRANCH   1  10
ATOM     10  C   UNL     1     -11.118 -24.146 -32.064  1.00  0.00     0.027 C 
BRANCH  10  11
ATOM     11  C   UNL     1     -11.067 -25.647 -31.992  1.00  0.00    -0.031 C 
ATOM     12  C   UNL     1     -11.924 -26.344 -31.230  1.00  0.00    -0.031 C 
BRANCH  12  13
ATOM     13  C   UNL     1     -11.869 -27.846 -31.151  1.00  0.00     0.027 C 
BRANCH  13  14
ATOM     14  C   UNL     1     -12.753 -28.518 -32.213  1.00  0.00     0.004 C 
BRANCH  14  15
ATOM     15  C   UNL     1     -12.002 -28.736 -33.538  1.00  0.00     0.000 C 
BRANCH  15  16
ATOM     16  C   UNL     1     -12.617 -27.945 -34.703  1.00  0.00    -0.000 C 
BRANCH  16  17
ATOM     17  C   UNL     1     -14.077 -27.547 -34.443  1.00  0.00    -0.003 C 
ATOM     18  C   UNL     1     -14.867 -27.472 -35.746  1.00  0.00     0.004 C 
ENDBRANCH  16  17
ENDBRANCH  15  16
ENDBRANCH  14  15
ENDBRANCH  13  14
ENDBRANCH  12  13
ENDBRANCH  10  11
ENDBRANCH   1  10
TORSDOF 13
ENDMDL
MODEL 9
REMARK VINA RESULT:    -4.337      1.523      2.481
REMARK INTER + INTRA:          -9.566
REMARK INTER:                  -7.947
REMARK INTRA:                  -1.619
REMARK UNBOUND:                -1.933
REMARK SMILES CCCCCCC=CCCCCCCCC(=O)[O-]
REMARK SMILES IDX 10 1 11 2 12 3 13 4 14 5 15 6 16 7 17 8 18 9 9 10 8 11 7 12
REMARK SMILES IDX 6 13 5 14 4 15 3 16 2 17 1 18
REMARK H PARENT
REMARK Flexibility Score: inf
ROOT
ATOM      1  C   UNL     1     -12.036 -27.596 -34.548  1.00  0.00     0.004 C 
ENDROOT
BRANCH   1   2
ATOM      2  C   UNL     1     -13.192 -27.512 -35.557  1.00  0.00     0.000 C 
BRANCH   2   3
ATOM      3  C   UNL     1     -13.524 -26.065 -35.961  1.00  0.00     0.000 C 
BRANCH   3   4
ATOM      4  C   UNL     1     -12.607 -25.040 -35.262  1.00  0.00     0.000 C 
BRANCH   4   5
ATOM      5  C   UNL     1     -12.653 -23.639 -35.897  1.00  0.00     0.006 C 
BRANCH   5   6
ATOM      6  C   UNL     1     -12.810 -22.520 -34.862  1.00  0.00     0.053 C 
BRANCH   6   7
ATOM      7  C   UNL     1     -12.650 -21.181 -35.511  1.00  0.00     0.041 C 
ATOM      8  O   UNL     1     -13.655 -20.450 -35.713  1.00  0.00    -0.550 OA
ATOM      9  O   UNL     1     -11.385 -20.718 -35.846  1.00  0.00    -0.550 OA
ENDBRANCH   6   7
ENDBRANCH   5   6
ENDBRANCH   4   5
ENDBRANCH   3   4
ENDBRANCH   2   3
ENDBRANCH   1   2
BRANCH   1  10
ATOM     10  C   UNL     1     -12.293 -28.629 -33.441  1.00  0.00     0.027 C 
BRANCH  10  11
ATOM     11  C   UNL     1     -12.577 -27.953 -32.129  1.00  0.00    -0.031 C 
ATOM     12  C   UNL     1     -12.873 -26.646 -32.061  1.00  0.00    -0.031 C 
BRANCH  12  13
ATOM     13  C   UNL     1     -13.150 -25.965 -30.748  1.00  0.00     0.027 C 
BRANCH  13  14
ATOM     14  C   UNL     1     -12.724 -24.489 -30.755  1.00  0.00     0.004 C 
BRANCH  14  15
ATOM     15  C   UNL     1     -11.613 -24.212 -31.783  1.00  0.00     0.000 C 
BRANCH  15  16
ATOM     16  C   UNL     1     -10.741 -23.006 -31.401  1.00  0.00    -0.000 C 
BRANCH  16  17
ATOM     17  C   UNL     1     -11.516 -21.681 -31.431  1.00  0.00    -0.003 C 
ATOM     18  C   UNL     1     -10.798 -20.643 -32.290  1.00  0.00     0.004 C 
ENDBRANCH  16  17
ENDBRANCH  15  16
ENDBRANCH  14  15
ENDBRANCH  13  14
ENDBRANCH  12  13
ENDBRANCH  10  11
ENDBRANCH   1  10
TORSDOF 13
ENDMDL
