MODEL 1
REMARK VINA RESULT:    -4.217      0.000      0.000
REMARK INTER + INTRA:          -7.182
REMARK INTER:                  -6.682
REMARK INTRA:                  -0.500
REMARK UNBOUND:                -0.500
REMARK SMILES CCCCCCCCCCCC(=O)[O-]
REMARK SMILES IDX 7 1 8 2 9 3 10 4 11 5 12 6 13 7 14 8 6 9 5 10 4 11 3 12 2 13
REMARK SMILES IDX 1 14
REMARK H PARENT
REMARK Flexibility Score: inf
ROOT
ATOM      1  C   UNL     1      -7.412  -9.932  -0.242  1.00  0.00     0.000 C 
ENDROOT
BRANCH   1   2
ATOM      2  C   UNL     1      -7.195  -8.415  -0.376  1.00  0.00     0.000 C 
BRANCH   2   3
ATOM      3  C   UNL     1      -8.202  -7.601   0.455  1.00  0.00     0.000 C 
BRANCH   3   4
ATOM      4  C   UNL     1      -9.655  -8.048   0.224  1.00  0.00     0.006 C 
BRANCH   4   5
ATOM      5  C   UNL     1     -10.639  -6.872   0.197  1.00  0.00     0.053 C 
BRANCH   5   6
ATOM      6  C   UNL     1     -10.628  -6.154   1.510  1.00  0.00     0.041 C 
ATOM      7  O   UNL     1     -10.167  -4.985   1.589  1.00  0.00    -0.550 OA
ATOM      8  O   UNL     1     -11.082  -6.794   2.656  1.00  0.00    -0.550 OA
ENDBRANCH   5   6
ENDBRANCH   4   5
ENDBRANCH   3   4
ENDBRANCH   2   3
ENDBRANCH   1   2
BRANCH   1   9
ATOM      9  C   UNL     1      -6.255 -10.634   0.491  1.00  0.00     0.000 C 
BRANCH   9  10
ATOM     10  C   UNL     1      -5.568 -11.699  -0.379  1.00  0.00    -0.000 C 
BRANCH  10  11
ATOM     11  C   UNL     1      -5.496 -13.069   0.314  1.00  0.00    -0.000 C 
BRANCH  11  12
ATOM     12  C   UNL     1      -6.240 -13.098   1.661  1.00  0.00    -0.000 C 
BRANCH  12  13
ATOM     13  C   UNL     1      -6.905 -14.445   2.002  1.00  0.00    -0.003 C 
ATOM     14  C   UNL     1      -6.910 -15.422   0.827  1.00  0.00     0.004 C 
ENDBRANCH  12  13
ENDBRANCH  11  12
ENDBRANCH  10  11
ENDBRANCH   9  10
ENDBRANCH   1   9
TORSDOF 10
ENDMDL
MODEL 2
REMARK VINA RESULT:    -4.204      1.473      2.067
REMARK INTER + INTRA:          -7.161
REMARK INTER:                  -6.364
REMARK INTRA:                  -0.798
REMARK UNBOUND:                -0.500
REMARK SMILES CCCCCCCCCCCC(=O)[O-]
REMARK SMILES IDX 7 1 8 2 9 3 10 4 11 5 12 6 13 7 14 8 6 9 5 10 4 11 3 12 2 13
REMARK SMILES IDX 1 14
REMARK H PARENT
REMARK Flexibility Score: inf
ROOT
ATOM      1  C   UNL     1      -7.936  -8.534  -0.315  1.00  0.00     0.000 C 
ENDROOT
BRANCH   1   2
ATOM      2  C   UNL     1      -7.050  -7.305  -0.054  1.00  0.00     0.000 C 
BRANCH   2   3
ATOM      3  C   UNL     1      -7.579  -6.431   1.096  1.00  0.00     0.000 C 
BRANCH   3   4
ATOM      4  C   UNL     1      -8.993  -6.838   1.543  1.00  0.00     0.006 C 
BRANCH   4   5
ATOM      5  C   UNL     1     -10.005  -5.690   1.427  1.00  0.00     0.053 C 
BRANCH   5   6
ATOM      6  C   UNL     1     -10.956  -5.946   0.301  1.00  0.00     0.041 C 
ATOM      7  O   UNL     1     -11.638  -5.003  -0.180  1.00  0.00    -0.550 OA
ATOM      8  O   UNL     1     -11.128  -7.236  -0.184  1.00  0.00    -0.550 OA
ENDBRANCH   5   6
ENDBRANCH   4   5
ENDBRANCH   3   4
ENDBRANCH   2   3
ENDBRANCH   1   2
BRANCH   1   9
ATOM      9  C   UNL     1      -7.141  -9.852  -0.299  1.00  0.00     0.000 C 
BRANCH   9  10
ATOM     10  C   UNL     1      -6.409 -10.080   1.033  1.00  0.00    -0.000 C 
BRANCH  10  11
ATOM     11  C   UNL     1      -5.108 -10.881   0.860  1.00  0.00    -0.000 C 
BRANCH  11  12
ATOM     12  C   UNL     1      -5.122 -11.785  -0.386  1.00  0.00    -0.000 C 
BRANCH  12  13
ATOM     13  C   UNL     1      -4.988 -13.290  -0.092  1.00  0.00    -0.003 C 
ATOM     14  C   UNL     1      -6.288 -13.920   0.408  1.00  0.00     0.004 C 
ENDBRANCH  12  13
ENDBRANCH  11  12
ENDBRANCH  10  11
ENDBRANCH   9  10
ENDBRANCH   1   9
TORSDOF 10
ENDMDL
MODEL 3
REMARK VINA RESULT:    -4.180      3.486      6.791
REMARK INTER + INTRA:          -7.124
REMARK INTER:                  -5.882
REMARK INTRA:                  -1.242
REMARK UNBOUND:                -0.500
REMARK SMILES CCCCCCCCCCCC(=O)[O-]
REMARK SMILES IDX 7 1 8 2 9 3 10 4 11 5 12 6 13 7 14 8 6 9 5 10 4 11 3 12 2 13
REMARK SMILES IDX 1 14
REMARK H PARENT
REMARK Flexibility Score: inf
ROOT
ATOM      1  C   UNL     1      -9.612  -8.226   0.093  1.00  0.00     0.000 C 
ENDROOT
BRANCH   1   2
ATOM      2  C   UNL     1      -8.402  -9.112  -0.247  1.00  0.00     0.000 C 
BRANCH   2   3
ATOM      3  C   UNL     1      -7.606  -9.528   1.002  1.00  0.00     0.000 C 
BRANCH   3   4
ATOM      4  C   UNL     1      -6.155  -9.915   0.673  1.00  0.00     0.006 C 
BRANCH   4   5
ATOM      5  C   UNL     1      -6.061 -11.177  -0.195  1.00  0.00     0.053 C 
BRANCH   5   6
ATOM      6  C   UNL     1      -6.023 -12.400   0.666  1.00  0.00     0.041 C 
ATOM      7  O   UNL     1      -5.642 -12.320   1.863  1.00  0.00    -0.550 OA
ATOM      8  O   UNL     1      -6.362 -13.636   0.132  1.00  0.00    -0.550 OA
ENDBRANCH   5   6
ENDBRANCH   4   5
ENDBRANCH   3   4
ENDBRANCH   2   3
ENDBRANCH   1   2
BRANCH   1   9
ATOM      9  C   UNL     1      -9.501  -7.580   1.486  1.00  0.00     0.000 C 
BRANCH   9  10
ATOM     10  C   UNL     1      -9.747  -6.064   1.451  1.00  0.00    -0.000 C 
BRANCH  10  11
ATOM     11  C   UNL     1      -8.612  -5.267   2.115  1.00  0.00    -0.000 C 
BRANCH  11  12
ATOM     12  C   UNL     1      -7.268  -6.016   2.102  1.00  0.00    -0.000 C 
BRANCH  12  13
ATOM     13  C   UNL     1      -6.231  -5.463   1.107  1.00  0.00    -0.003 C 
ATOM     14  C   UNL     1      -6.105  -6.313  -0.157  1.00  0.00     0.004 C 
ENDBRANCH  12  13
ENDBRANCH  11  12
ENDBRANCH  10  11
ENDBRANCH   9  10
ENDBRANCH   1   9
TORSDOF 10
ENDMDL
MODEL 4
REMARK VINA RESULT:    -4.179      2.053      3.634
REMARK INTER + INTRA:          -7.123
REMARK INTER:                  -6.239
REMARK INTRA:                  -0.883
REMARK UNBOUND:                -0.500
REMARK SMILES CCCCCCCCCCCC(=O)[O-]
REMARK SMILES IDX 7 1 8 2 9 3 10 4 11 5 12 6 13 7 14 8 6 9 5 10 4 11 3 12 2 13
REMARK SMILES IDX 1 14
REMARK H PARENT
REMARK Flexibility Score: inf
ROOT
ATOM      1  C   UNL     1      -9.720  -8.003   0.823  1.00  0.00     0.000 C 
ENDROOT
BRANCH   1   2
ATOM      2  C   UNL     1     -10.634  -7.008   0.089  1.00  0.00     0.000 C 
BRANCH   2   3
ATOM      3  C   UNL     1     -10.747  -5.661   0.823  1.00  0.00     0.000 C 
BRANCH   3   4
ATOM      4  C   UNL     1     -10.038  -5.671   2.187  1.00  0.00     0.006 C 
BRANCH   4   5
ATOM      5  C   UNL     1      -9.036  -4.520   2.342  1.00  0.00     0.053 C 
BRANCH   5   6
ATOM      6  C   UNL     1      -7.634  -5.032   2.235  1.00  0.00     0.041 C 
ATOM      7  O   UNL     1      -7.346  -6.184   2.653  1.00  0.00    -0.550 OA
ATOM      8  O   UNL     1      -6.634  -4.218   1.718  1.00  0.00    -0.550 OA
ENDBRANCH   5   6
ENDBRANCH   4   5
ENDBRANCH   3   4
ENDBRANCH   2   3
ENDBRANCH   1   2
BRANCH   1   9
ATOM      9  C   UNL     1      -8.820  -8.801  -0.136  1.00  0.00     0.000 C 
BRANCH   9  10
ATOM     10  C   UNL     1      -7.404  -8.213  -0.241  1.00  0.00    -0.000 C 
BRANCH  10  11
ATOM     11  C   UNL     1      -6.322  -9.189   0.249  1.00  0.00    -0.000 C 
BRANCH  11  12
ATOM     12  C   UNL     1      -6.385 -10.554  -0.458  1.00  0.00    -0.000 C 
BRANCH  12  13
ATOM     13  C   UNL     1      -6.208 -11.770   0.470  1.00  0.00    -0.003 C 
ATOM     14  C   UNL     1      -6.609 -11.480   1.916  1.00  0.00     0.004 C 
ENDBRANCH  12  13
ENDBRANCH  11  12
ENDBRANCH  10  11
ENDBRANCH   9  10
ENDBRANCH   1   9
TORSDOF 10
ENDMDL
MODEL 5
REMARK VINA RESULT:    -4.083     18.730     20.388
REMARK INTER + INTRA:          -6.970
REMARK INTER:                  -5.682
REMARK INTRA:                  -1.288
REMARK UNBOUND:                -0.500
REMARK SMILES CCCCCCCCCCCC(=O)[O-]
REMARK SMILES IDX 7 1 8 2 9 3 10 4 11 5 12 6 13 7 14 8 6 9 5 10 4 11 3 12 2 13
REMARK SMILES IDX 1 14
REMARK H PARENT
REMARK Flexibility Score: inf
ROOT
ATOM      1  C   UNL     1     -23.098  -5.821 -15.566  1.00  0.00     0.000 C 
ENDROOT
BRANCH   1   2
ATOM      2  C   UNL     1     -22.637  -4.526 -14.876  1.00  0.00     0.000 C 
BRANCH   2   3
ATOM      3  C   UNL     1     -23.363  -4.280 -13.541  1.00  0.00     0.000 C 
BRANCH   3   4
ATOM      4  C   UNL     1     -22.389  -4.004 -12.384  1.00  0.00     0.006 C 
BRANCH   4   5
ATOM      5  C   UNL     1     -21.085  -3.345 -12.852  1.00  0.00     0.053 C 
BRANCH   5   6
ATOM      6  C   UNL     1     -21.080  -1.891 -12.498  1.00  0.00     0.041 C 
ATOM      7  O   UNL     1     -20.940  -1.531 -11.299  1.00  0.00    -0.550 OA
ATOM      8  O   UNL     1     -21.281  -0.934 -13.484  1.00  0.00    -0.550 OA
ENDBRANCH   5   6
ENDBRANCH   4   5
ENDBRANCH   3   4
ENDBRANCH   2   3
ENDBRANCH   1   2
BRANCH   1   9
ATOM      9  C   UNL     1     -21.991  -6.889 -15.622  1.00  0.00     0.000 C 
BRANCH   9  10
ATOM     10  C   UNL     1     -20.582  -6.280 -15.559  1.00  0.00    -0.000 C 
BRANCH  10  11
ATOM     11  C   UNL     1     -19.710  -6.924 -14.468  1.00  0.00    -0.000 C 
BRANCH  11  12
ATOM     12  C   UNL     1     -20.392  -6.939 -13.089  1.00  0.00    -0.000 C 
BRANCH  12  13
ATOM     13  C   UNL     1     -20.648  -8.343 -12.512  1.00  0.00    -0.003 C 
ATOM     14  C   UNL     1     -20.250  -9.465 -13.471  1.00  0.00     0.004 C 
ENDBRANCH  12  13
ENDBRANCH  11  12
ENDBRANCH  10  11
ENDBRANCH   9  10
ENDBRANCH   1   9
TORSDOF 10
ENDMDL
MODEL 6
REMARK VINA RESULT:    -4.071      1.432      2.176
REMARK INTER + INTRA:          -6.951
REMARK INTER:                  -6.316
REMARK INTRA:                  -0.635
REMARK UNBOUND:                -0.500
REMARK SMILES CCCCCCCCCCCC(=O)[O-]
REMARK SMILES IDX 7 1 8 2 9 3 10 4 11 5 12 6 13 7 14 8 6 9 5 10 4 11 3 12 2 13
REMARK SMILES IDX 1 14
REMARK H PARENT
REMARK Flexibility Score: inf
ROOT
ATOM      1  C   UNL     1      -7.730  -8.183  -0.286  1.00  0.00     0.000 C 
ENDROOT
BRANCH   1   2
ATOM      2  C   UNL     1      -9.128  -8.662   0.138  1.00  0.00     0.000 C 
BRANCH   2   3
ATOM      3  C   UNL     1     -10.160  -7.522   0.161  1.00  0.00     0.000 C 
BRANCH   3   4
ATOM      4  C   UNL     1     -10.349  -6.927   1.566  1.00  0.00     0.006 C 
BRANCH   4   5
ATOM      5  C   UNL     1      -9.825  -5.489   1.675  1.00  0.00     0.053 C 
BRANCH   5   6
ATOM      6  C   UNL     1      -8.452  -5.479   2.269  1.00  0.00     0.041 C 
ATOM      7  O   UNL     1      -8.005  -6.503   2.850  1.00  0.00    -0.550 OA
ATOM      8  O   UNL     1      -7.683  -4.323   2.224  1.00  0.00    -0.550 OA
ENDBRANCH   5   6
ENDBRANCH   4   5
ENDBRANCH   3   4
ENDBRANCH   2   3
ENDBRANCH   1   2
BRANCH   1   9
ATOM      9  C   UNL     1      -6.611  -9.133   0.177  1.00  0.00     0.000 C 
BRANCH   9  10
ATOM     10  C   UNL     1      -6.908 -10.601  -0.163  1.00  0.00    -0.000 C 
BRANCH  10  11
ATOM     11  C   UNL     1      -5.631 -11.417  -0.422  1.00  0.00    -0.000 C 
BRANCH  11  12
ATOM     12  C   UNL     1      -5.229 -12.294   0.777  1.00  0.00    -0.000 C 
BRANCH  12  13
ATOM     13  C   UNL     1      -6.352 -13.194   1.324  1.00  0.00    -0.003 C 
ATOM     14  C   UNL     1      -6.450 -14.535   0.596  1.00  0.00     0.004 C 
ENDBRANCH  12  13
ENDBRANCH  11  12
ENDBRANCH  10  11
ENDBRANCH   9  10
ENDBRANCH   1   9
TORSDOF 10
ENDMDL
MODEL 7
REMARK VINA RESULT:    -4.058      4.242      7.569
REMARK INTER + INTRA:          -6.930
REMARK INTER:                  -6.405
REMARK INTRA:                  -0.525
REMARK UNBOUND:                -0.500
REMARK SMILES CCCCCCCCCCCC(=O)[O-]
REMARK SMILES IDX 7 1 8 2 9 3 10 4 11 5 12 6 13 7 14 8 6 9 5 10 4 11 3 12 2 13
REMARK SMILES IDX 1 14
REMARK H PARENT
REMARK Flexibility Score: inf
ROOT
ATOM      1  C   UNL     1      -5.922 -10.436   0.977  1.00  0.00     0.000 C 
ENDROOT
BRANCH   1   2
ATOM      2  C   UNL     1      -5.992 -11.214  -0.347  1.00  0.00     0.000 C 
BRANCH   2   3
ATOM      3  C   UNL     1      -5.365 -12.615  -0.241  1.00  0.00     0.000 C 
BRANCH   3   4
ATOM      4  C   UNL     1      -5.981 -13.452   0.893  1.00  0.00     0.006 C 
BRANCH   4   5
ATOM      5  C   UNL     1      -6.684 -14.716   0.381  1.00  0.00     0.053 C 
BRANCH   5   6
ATOM      6  C   UNL     1      -6.283 -15.902   1.200  1.00  0.00     0.041 C 
ATOM      7  O   UNL     1      -6.266 -15.827   2.457  1.00  0.00    -0.550 OA
ATOM      8  O   UNL     1      -5.880 -17.075   0.575  1.00  0.00    -0.550 OA
ENDBRANCH   5   6
ENDBRANCH   4   5
ENDBRANCH   3   4
ENDBRANCH   2   3
ENDBRANCH   1   2
BRANCH   1   9
ATOM      9  C   UNL     1      -6.756  -9.143   0.950  1.00  0.00     0.000 C 
BRANCH   9  10
ATOM     10  C   UNL     1      -7.532  -8.971  -0.365  1.00  0.00    -0.000 C 
BRANCH  10  11
ATOM     11  C   UNL     1      -9.043  -8.799  -0.140  1.00  0.00    -0.000 C 
BRANCH  11  12
ATOM     12  C   UNL     1      -9.371  -8.013   1.142  1.00  0.00    -0.000 C 
BRANCH  12  13
ATOM     13  C   UNL     1      -9.913  -6.591   0.905  1.00  0.00    -0.003 C 
ATOM     14  C   UNL     1     -11.213  -6.574   0.101  1.00  0.00     0.004 C 
ENDBRANCH  12  13
ENDBRANCH  11  12
ENDBRANCH  10  11
ENDBRANCH   9  10
ENDBRANCH   1   9
TORSDOF 10
ENDMDL
MODEL 8
REMARK VINA RESULT:    -3.893      3.433      6.821
REMARK INTER + INTRA:          -6.669
REMARK INTER:                  -5.744
REMARK INTRA:                  -0.925
REMARK UNBOUND:                -0.500
REMARK SMILES CCCCCCCCCCCC(=O)[O-]
REMARK SMILES IDX 7 1 8 2 9 3 10 4 11 5 12 6 13 7 14 8 6 9 5 10 4 11 3 12 2 13
REMARK SMILES IDX 1 14
REMARK H PARENT
REMARK Flexibility Score: inf
ROOT
ATOM      1  C   UNL     1      -6.408  -7.940   0.472  1.00  0.00     0.000 C 
ENDROOT
BRANCH   1   2
ATOM      2  C   UNL     1      -7.333  -8.738  -0.462  1.00  0.00     0.000 C 
BRANCH   2   3
ATOM      3  C   UNL     1      -7.216 -10.257  -0.250  1.00  0.00     0.000 C 
BRANCH   3   4
ATOM      4  C   UNL     1      -5.987 -10.641   0.592  1.00  0.00     0.006 C 
BRANCH   4   5
ATOM      5  C   UNL     1      -5.378 -11.985   0.171  1.00  0.00     0.053 C 
BRANCH   5   6
ATOM      6  C   UNL     1      -6.118 -13.116   0.814  1.00  0.00     0.041 C 
ATOM      7  O   UNL     1      -6.553 -14.068   0.114  1.00  0.00    -0.550 OA
ATOM      8  O   UNL     1      -6.370 -13.095   2.179  1.00  0.00    -0.550 OA
ENDBRANCH   5   6
ENDBRANCH   4   5
ENDBRANCH   3   4
ENDBRANCH   2   3
ENDBRANCH   1   2
BRANCH   1   9
ATOM      9  C   UNL     1      -6.361  -6.442   0.122  1.00  0.00     0.000 C 
BRANCH   9  10
ATOM     10  C   UNL     1      -6.753  -5.549   1.309  1.00  0.00    -0.000 C 
BRANCH  10  11
ATOM     11  C   UNL     1      -7.824  -6.194   2.204  1.00  0.00    -0.000 C 
BRANCH  11  12
ATOM     12  C   UNL     1      -9.240  -5.665   1.917  1.00  0.00    -0.000 C 
BRANCH  12  13
ATOM     13  C   UNL     1     -10.295  -6.755   1.652  1.00  0.00    -0.003 C 
ATOM     14  C   UNL     1     -10.465  -7.073   0.167  1.00  0.00     0.004 C 
ENDBRANCH  12  13
ENDBRANCH  11  12
ENDBRANCH  10  11
ENDBRANCH   9  10
ENDBRANCH   1   9
TORSDOF 10
ENDMDL
MODEL 9
REMARK VINA RESULT:    -3.861     19.404     21.077
REMARK INTER + INTRA:          -6.619
REMARK INTER:                  -5.265
REMARK INTRA:                  -1.354
REMARK UNBOUND:                -0.500
REMARK SMILES CCCCCCCCCCCC(=O)[O-]
REMARK SMILES IDX 7 1 8 2 9 3 10 4 11 5 12 6 13 7 14 8 6 9 5 10 4 11 3 12 2 13
REMARK SMILES IDX 1 14
REMARK H PARENT
REMARK Flexibility Score: inf
ROOT
ATOM      1  C   UNL     1     -19.859  -4.473 -13.035  1.00  0.00     0.000 C 
ENDROOT
BRANCH   1   2
ATOM      2  C   UNL     1     -21.160  -3.715 -12.719  1.00  0.00     0.000 C 
BRANCH   2   3
ATOM      3  C   UNL     1     -22.386  -4.643 -12.673  1.00  0.00     0.000 C 
BRANCH   3   4
ATOM      4  C   UNL     1     -23.624  -4.016 -13.333  1.00  0.00     0.006 C 
BRANCH   4   5
ATOM      5  C   UNL     1     -23.843  -4.509 -14.770  1.00  0.00     0.053 C 
BRANCH   5   6
ATOM      6  C   UNL     1     -23.571  -3.408 -15.745  1.00  0.00     0.041 C 
ATOM      7  O   UNL     1     -22.386  -3.086 -16.024  1.00  0.00    -0.550 OA
ATOM      8  O   UNL     1     -24.626  -2.703 -16.310  1.00  0.00    -0.550 OA
ENDBRANCH   5   6
ENDBRANCH   4   5
ENDBRANCH   3   4
ENDBRANCH   2   3
ENDBRANCH   1   2
BRANCH   1   9
ATOM      9  C   UNL     1     -19.502  -4.440 -14.531  1.00  0.00     0.000 C 
BRANCH   9  10
ATOM     10  C   UNL     1     -19.464  -5.844 -15.157  1.00  0.00    -0.000 C 
BRANCH  10  11
ATOM     11  C   UNL     1     -20.860  -6.350 -15.555  1.00  0.00    -0.000 C 
BRANCH  11  12
ATOM     12  C   UNL     1     -21.260  -7.641 -14.818  1.00  0.00    -0.000 C 
BRANCH  12  13
ATOM     13  C   UNL     1     -20.450  -7.933 -13.542  1.00  0.00    -0.003 C 
ATOM     14  C   UNL     1     -20.045  -9.401 -13.415  1.00  0.00     0.004 C 
ENDBRANCH  12  13
ENDBRANCH  11  12
ENDBRANCH  10  11
ENDBRANCH   9  10
ENDBRANCH   1   9
TORSDOF 10
ENDMDL
