MODEL 1
REMARK VINA RESULT:    -4.185      0.000      0.000
REMARK INTER + INTRA:         -14.021
REMARK INTER:                  -9.568
REMARK INTRA:                  -4.453
REMARK UNBOUND:                -4.453
REMARK SMILES CCCCCCCCCCCCCCCCCCCCCCCC(=O)[O-]
REMARK SMILES IDX 13 1 14 2 15 3 16 4 17 5 18 6 19 7 20 8 21 9 22 10 23 11
REMARK SMILES IDX 24 12 25 13 26 14 12 15 11 16 10 17 9 18 8 19 7 20 6 21 5 22
REMARK SMILES IDX 4 23 3 24 2 25 1 26
REMARK H PARENT
REMARK Flexibility Score: inf
ROOT
ATOM      1  C   UNL     1      85.121 125.005 127.823  1.00  0.00     0.000 C 
ENDROOT
BRANCH   1   2
ATOM      2  C   UNL     1      85.924 123.694 127.922  1.00  0.00     0.000 C 
BRANCH   2   3
ATOM      3  C   UNL     1      85.044 122.465 128.196  1.00  0.00     0.000 C 
BRANCH   3   4
ATOM      4  C   UNL     1      83.557 122.808 128.024  1.00  0.00     0.000 C 
BRANCH   4   5
ATOM      5  C   UNL     1      82.627 121.734 128.627  1.00  0.00     0.000 C 
BRANCH   5   6
ATOM      6  C   UNL     1      83.286 120.351 128.767  1.00  0.00     0.000 C 
BRANCH   6   7
ATOM      7  C   UNL     1      82.830 119.358 127.685  1.00  0.00     0.000 C 
BRANCH   7   8
ATOM      8  C   UNL     1      83.525 119.596 126.335  1.00  0.00     0.000 C 
BRANCH   8   9
ATOM      9  C   UNL     1      82.523 119.854 125.197  1.00  0.00     0.000 C 
BRANCH   9  10
ATOM     10  C   UNL     1      82.402 121.344 124.839  1.00  0.00     0.006 C 
BRANCH  10  11
ATOM     11  C   UNL     1      83.458 121.800 123.822  1.00  0.00     0.053 C 
BRANCH  11  12
ATOM     12  C   UNL     1      84.421 122.756 124.453  1.00  0.00     0.041 C 
ATOM     13  O   UNL     1      85.596 122.389 124.718  1.00  0.00    -0.550 OA
ATOM     14  O   UNL     1      84.021 124.055 124.746  1.00  0.00    -0.550 OA
ENDBRANCH  11  12
ENDBRANCH  10  11
ENDBRANCH   9  10
ENDBRANCH   8   9
ENDBRANCH   7   8
ENDBRANCH   6   7
ENDBRANCH   5   6
ENDBRANCH   4   5
ENDBRANCH   3   4
ENDBRANCH   2   3
ENDBRANCH   1   2
BRANCH   1  15
ATOM     15  C   UNL     1      85.190 125.908 129.069  1.00  0.00     0.000 C 
BRANCH  15  16
ATOM     16  C   UNL     1      83.846 126.022 129.804  1.00  0.00     0.000 C 
BRANCH  16  17
ATOM     17  C   UNL     1      83.988 125.585 131.270  1.00  0.00     0.000 C 
BRANCH  17  18
ATOM     18  C   UNL     1      83.755 124.079 131.463  1.00  0.00    -0.000 C 
BRANCH  18  19
ATOM     19  C   UNL     1      85.057 123.308 131.749  1.00  0.00    -0.000 C 
BRANCH  19  20
ATOM     20  C   UNL     1      85.923 123.989 132.821  1.00  0.00    -0.000 C 
BRANCH  20  21
ATOM     21  C   UNL     1      87.279 124.461 132.277  1.00  0.00    -0.000 C 
BRANCH  21  22
ATOM     22  C   UNL     1      87.636 123.716 130.981  1.00  0.00    -0.000 C 
BRANCH  22  23
ATOM     23  C   UNL     1      88.373 122.393 131.241  1.00  0.00    -0.000 C 
BRANCH  23  24
ATOM     24  C   UNL     1      88.162 121.363 130.117  1.00  0.00    -0.000 C 
BRANCH  24  25
ATOM     25  C   UNL     1      87.169 120.259 130.508  1.00  0.00    -0.003 C 
ATOM     26  C   UNL     1      86.813 119.342 129.337  1.00  0.00     0.004 C 
ENDBRANCH  24  25
ENDBRANCH  23  24
ENDBRANCH  22  23
ENDBRANCH  21  22
ENDBRANCH  20  21
ENDBRANCH  19  20
ENDBRANCH  18  19
ENDBRANCH  17  18
ENDBRANCH  16  17
ENDBRANCH  15  16
ENDBRANCH   1  15
TORSDOF 22
ENDMDL
MODEL 2
REMARK VINA RESULT:    -4.145      2.196      6.458
REMARK INTER + INTRA:         -13.928
REMARK INTER:                  -9.718
REMARK INTRA:                  -4.210
REMARK UNBOUND:                -4.453
REMARK SMILES CCCCCCCCCCCCCCCCCCCCCCCC(=O)[O-]
REMARK SMILES IDX 13 1 14 2 15 3 16 4 17 5 18 6 19 7 20 8 21 9 22 10 23 11
REMARK SMILES IDX 24 12 25 13 26 14 12 15 11 16 10 17 9 18 8 19 7 20 6 21 5 22
REMARK SMILES IDX 4 23 3 24 2 25 1 26
REMARK H PARENT
REMARK Flexibility Score: inf
ROOT
ATOM      1  C   UNL     1      85.808 125.207 128.230  1.00  0.00     0.000 C 
ENDROOT
BRANCH   1   2
ATOM      2  C   UNL     1      85.007 126.135 129.162  1.00  0.00     0.000 C 
BRANCH   2   3
ATOM      3  C   UNL     1      83.575 125.643 129.421  1.00  0.00     0.000 C 
BRANCH   3   4
ATOM      4  C   UNL     1      83.233 125.717 130.916  1.00  0.00     0.000 C 
BRANCH   4   5
ATOM      5  C   UNL     1      83.314 124.340 131.611  1.00  0.00     0.000 C 
BRANCH   5   6
ATOM      6  C   UNL     1      84.302 124.298 132.789  1.00  0.00     0.000 C 
BRANCH   6   7
ATOM      7  C   UNL     1      85.294 125.474 132.782  1.00  0.00     0.000 C 
BRANCH   7   8
ATOM      8  C   UNL     1      86.759 125.009 132.800  1.00  0.00     0.000 C 
BRANCH   8   9
ATOM      9  C   UNL     1      86.975 123.719 131.990  1.00  0.00     0.000 C 
BRANCH   9  10
ATOM     10  C   UNL     1      88.224 123.782 131.097  1.00  0.00     0.006 C 
BRANCH  10  11
ATOM     11  C   UNL     1      88.118 122.878 129.861  1.00  0.00     0.053 C 
BRANCH  11  12
ATOM     12  C   UNL     1      88.584 121.492 130.180  1.00  0.00     0.041 C 
ATOM     13  O   UNL     1      88.207 120.518 129.475  1.00  0.00    -0.550 OA
ATOM     14  O   UNL     1      89.438 121.274 131.255  1.00  0.00    -0.550 OA
ENDBRANCH  11  12
ENDBRANCH  10  11
ENDBRANCH   9  10
ENDBRANCH   8   9
ENDBRANCH   7   8
ENDBRANCH   6   7
ENDBRANCH   5   6
ENDBRANCH   4   5
ENDBRANCH   3   4
ENDBRANCH   2   3
ENDBRANCH   1   2
BRANCH   1  15
ATOM     15  C   UNL     1      85.224 123.793 128.057  1.00  0.00     0.000 C 
BRANCH  15  16
ATOM     16  C   UNL     1      85.023 123.402 126.585  1.00  0.00     0.000 C 
BRANCH  16  17
ATOM     17  C   UNL     1      83.741 124.035 126.023  1.00  0.00     0.000 C 
BRANCH  17  18
ATOM     18  C   UNL     1      82.766 122.991 125.457  1.00  0.00    -0.000 C 
BRANCH  18  19
ATOM     19  C   UNL     1      83.451 121.996 124.502  1.00  0.00    -0.000 C 
BRANCH  19  20
ATOM     20  C   UNL     1      82.787 120.610 124.516  1.00  0.00    -0.000 C 
BRANCH  20  21
ATOM     21  C   UNL     1      82.523 120.093 125.938  1.00  0.00    -0.000 C 
BRANCH  21  22
ATOM     22  C   UNL     1      83.788 119.450 126.527  1.00  0.00    -0.000 C 
BRANCH  22  23
ATOM     23  C   UNL     1      84.175 120.041 127.892  1.00  0.00    -0.000 C 
BRANCH  23  24
ATOM     24  C   UNL     1      83.010 120.783 128.572  1.00  0.00    -0.000 C 
BRANCH  24  25
ATOM     25  C   UNL     1      83.359 121.249 129.994  1.00  0.00    -0.003 C 
ATOM     26  C   UNL     1      84.826 121.010 130.351  1.00  0.00     0.004 C 
ENDBRANCH  24  25
ENDBRANCH  23  24
ENDBRANCH  22  23
ENDBRANCH  21  22
ENDBRANCH  20  21
ENDBRANCH  19  20
ENDBRANCH  18  19
ENDBRANCH  17  18
ENDBRANCH  16  17
ENDBRANCH  15  16
ENDBRANCH   1  15
TORSDOF 22
ENDMDL
MODEL 3
REMARK VINA RESULT:    -4.083      2.385      5.559
REMARK INTER + INTRA:         -13.788
REMARK INTER:                  -9.187
REMARK INTRA:                  -4.601
REMARK UNBOUND:                -4.453
REMARK SMILES CCCCCCCCCCCCCCCCCCCCCCCC(=O)[O-]
REMARK SMILES IDX 13 1 14 2 15 3 16 4 17 5 18 6 19 7 20 8 21 9 22 10 23 11
REMARK SMILES IDX 24 12 25 13 26 14 12 15 11 16 10 17 9 18 8 19 7 20 6 21 5 22
REMARK SMILES IDX 4 23 3 24 2 25 1 26
REMARK H PARENT
REMARK Flexibility Score: inf
ROOT
ATOM      1  C   UNL     1      83.208 122.020 123.848  1.00  0.00     0.000 C 
ENDROOT
BRANCH   1   2
ATOM      2  C   UNL     1      82.285 120.958 124.475  1.00  0.00     0.000 C 
BRANCH   2   3
ATOM      3  C   UNL     1      83.051 119.849 125.209  1.00  0.00     0.000 C 
BRANCH   3   4
ATOM      4  C   UNL     1      82.421 119.565 126.581  1.00  0.00     0.000 C 
BRANCH   4   5
ATOM      5  C   UNL     1      83.478 119.325 127.680  1.00  0.00     0.000 C 
BRANCH   5   6
ATOM      6  C   UNL     1      84.835 119.989 127.392  1.00  0.00     0.000 C 
BRANCH   6   7
ATOM      7  C   UNL     1      85.776 119.983 128.608  1.00  0.00     0.000 C 
BRANCH   7   8
ATOM      8  C   UNL     1      85.026 120.185 129.934  1.00  0.00     0.000 C 
BRANCH   8   9
ATOM      9  C   UNL     1      85.325 121.551 130.575  1.00  0.00     0.000 C 
BRANCH   9  10
ATOM     10  C   UNL     1      86.070 121.428 131.914  1.00  0.00     0.006 C 
BRANCH  10  11
ATOM     11  C   UNL     1      87.476 120.832 131.761  1.00  0.00     0.053 C 
BRANCH  11  12
ATOM     12  C   UNL     1      88.332 121.712 130.905  1.00  0.00     0.041 C 
ATOM     13  O   UNL     1      88.855 121.259 129.853  1.00  0.00    -0.550 OA
ATOM     14  O   UNL     1      88.550 123.036 131.268  1.00  0.00    -0.550 OA
ENDBRANCH  11  12
ENDBRANCH  10  11
ENDBRANCH   9  10
ENDBRANCH   8   9
ENDBRANCH   7   8
ENDBRANCH   6   7
ENDBRANCH   5   6
ENDBRANCH   4   5
ENDBRANCH   3   4
ENDBRANCH   2   3
ENDBRANCH   1   2
BRANCH   1  15
ATOM     15  C   UNL     1      84.593 122.153 124.507  1.00  0.00     0.000 C 
BRANCH  15  16
ATOM     16  C   UNL     1      84.617 123.173 125.655  1.00  0.00     0.000 C 
BRANCH  16  17
ATOM     17  C   UNL     1      83.450 124.164 125.528  1.00  0.00     0.000 C 
BRANCH  17  18
ATOM     18  C   UNL     1      82.595 124.236 126.803  1.00  0.00    -0.000 C 
BRANCH  18  19
ATOM     19  C   UNL     1      82.706 122.964 127.665  1.00  0.00    -0.000 C 
BRANCH  19  20
ATOM     20  C   UNL     1      82.390 123.224 129.145  1.00  0.00    -0.000 C 
BRANCH  20  21
ATOM     21  C   UNL     1      82.606 124.689 129.551  1.00  0.00    -0.000 C 
BRANCH  21  22
ATOM     22  C   UNL     1      83.527 124.785 130.777  1.00  0.00    -0.000 C 
BRANCH  22  23
ATOM     23  C   UNL     1      84.864 125.473 130.464  1.00  0.00    -0.000 C 
BRANCH  23  24
ATOM     24  C   UNL     1      84.960 125.955 129.005  1.00  0.00    -0.000 C 
BRANCH  24  25
ATOM     25  C   UNL     1      86.296 125.581 128.347  1.00  0.00    -0.003 C 
ATOM     26  C   UNL     1      86.612 124.089 128.458  1.00  0.00     0.004 C 
ENDBRANCH  24  25
ENDBRANCH  23  24
ENDBRANCH  22  23
ENDBRANCH  21  22
ENDBRANCH  20  21
ENDBRANCH  19  20
ENDBRANCH  18  19
ENDBRANCH  17  18
ENDBRANCH  16  17
ENDBRANCH  15  16
ENDBRANCH   1  15
TORSDOF 22
ENDMDL
MODEL 4
REMARK VINA RESULT:    -3.950      2.203      6.582
REMARK INTER + INTRA:         -13.483
REMARK INTER:                  -9.124
REMARK INTRA:                  -4.359
REMARK UNBOUND:                -4.453
REMARK SMILES CCCCCCCCCCCCCCCCCCCCCCCC(=O)[O-]
REMARK SMILES IDX 13 1 14 2 15 3 16 4 17 5 18 6 19 7 20 8 21 9 22 10 23 11
REMARK SMILES IDX 24 12 25 13 26 14 12 15 11 16 10 17 9 18 8 19 7 20 6 21 5 22
REMARK SMILES IDX 4 23 3 24 2 25 1 26
REMARK H PARENT
REMARK Flexibility Score: inf
ROOT
ATOM      1  C   UNL     1      85.748 124.636 128.587  1.00  0.00     0.000 C 
ENDROOT
BRANCH   1   2
ATOM      2  C   UNL     1      85.110 125.911 129.170  1.00  0.00     0.000 C 
BRANCH   2   3
ATOM      3  C   UNL     1      83.661 125.704 129.633  1.00  0.00     0.000 C 
BRANCH   3   4
ATOM      4  C   UNL     1      83.494 126.109 131.105  1.00  0.00     0.000 C 
BRANCH   4   5
ATOM      5  C   UNL     1      82.594 125.131 131.890  1.00  0.00     0.000 C 
BRANCH   5   6
ATOM      6  C   UNL     1      82.671 123.679 131.390  1.00  0.00     0.000 C 
BRANCH   6   7
ATOM      7  C   UNL     1      83.130 122.694 132.478  1.00  0.00     0.000 C 
BRANCH   7   8
ATOM      8  C   UNL     1      84.601 122.278 132.314  1.00  0.00     0.000 C 
BRANCH   8   9
ATOM      9  C   UNL     1      85.575 123.414 132.671  1.00  0.00     0.000 C 
BRANCH   9  10
ATOM     10  C   UNL     1      86.884 123.347 131.869  1.00  0.00     0.006 C 
BRANCH  10  11
ATOM     11  C   UNL     1      87.413 121.915 131.711  1.00  0.00     0.053 C 
BRANCH  11  12
ATOM     12  C   UNL     1      88.621 121.893 130.828  1.00  0.00     0.041 C 
ATOM     13  O   UNL     1      89.640 121.233 131.165  1.00  0.00    -0.550 OA
ATOM     14  O   UNL     1      88.622 122.599 129.631  1.00  0.00    -0.550 OA
ENDBRANCH  11  12
ENDBRANCH  10  11
ENDBRANCH   9  10
ENDBRANCH   8   9
ENDBRANCH   7   8
ENDBRANCH   6   7
ENDBRANCH   5   6
ENDBRANCH   4   5
ENDBRANCH   3   4
ENDBRANCH   2   3
ENDBRANCH   1   2
BRANCH   1  15
ATOM     15  C   UNL     1      84.937 123.343 128.799  1.00  0.00     0.000 C 
BRANCH  15  16
ATOM     16  C   UNL     1      85.654 122.090 128.276  1.00  0.00     0.000 C 
BRANCH  16  17
ATOM     17  C   UNL     1      85.096 120.824 128.944  1.00  0.00     0.000 C 
BRANCH  17  18
ATOM     18  C   UNL     1      84.192 120.011 128.005  1.00  0.00    -0.000 C 
BRANCH  18  19
ATOM     19  C   UNL     1      82.745 120.538 127.970  1.00  0.00    -0.000 C 
BRANCH  19  20
ATOM     20  C   UNL     1      82.090 120.374 126.591  1.00  0.00    -0.000 C 
BRANCH  20  21
ATOM     21  C   UNL     1      83.103 120.036 125.488  1.00  0.00    -0.000 C 
BRANCH  21  22
ATOM     22  C   UNL     1      82.613 120.544 124.123  1.00  0.00    -0.000 C 
BRANCH  22  23
ATOM     23  C   UNL     1      83.305 121.846 123.690  1.00  0.00    -0.000 C 
BRANCH  23  24
ATOM     24  C   UNL     1      84.406 122.291 124.669  1.00  0.00    -0.000 C 
BRANCH  24  25
ATOM     25  C   UNL     1      84.215 123.735 125.156  1.00  0.00    -0.003 C 
ATOM     26  C   UNL     1      82.930 123.921 125.963  1.00  0.00     0.004 C 
ENDBRANCH  24  25
ENDBRANCH  23  24
ENDBRANCH  22  23
ENDBRANCH  21  22
ENDBRANCH  20  21
ENDBRANCH  19  20
ENDBRANCH  18  19
ENDBRANCH  17  18
ENDBRANCH  16  17
ENDBRANCH  15  16
ENDBRANCH   1  15
TORSDOF 22
ENDMDL
MODEL 5
REMARK VINA RESULT:    -3.875      3.761      7.360
REMARK INTER + INTRA:         -13.311
REMARK INTER:                 -10.356
REMARK INTRA:                  -2.956
REMARK UNBOUND:                -4.453
REMARK SMILES CCCCCCCCCCCCCCCCCCCCCCCC(=O)[O-]
REMARK SMILES IDX 13 1 14 2 15 3 16 4 17 5 18 6 19 7 20 8 21 9 22 10 23 11
REMARK SMILES IDX 24 12 25 13 26 14 12 15 11 16 10 17 9 18 8 19 7 20 6 21 5 22
REMARK SMILES IDX 4 23 3 24 2 25 1 26
REMARK H PARENT
REMARK Flexibility Score: inf
ROOT
ATOM      1  C   UNL     1      87.104 124.124 131.612  1.00  0.00     0.000 C 
ENDROOT
BRANCH   1   2
ATOM      2  C   UNL     1      85.693 124.472 131.104  1.00  0.00     0.000 C 
BRANCH   2   3
ATOM      3  C   UNL     1      85.702 125.268 129.791  1.00  0.00     0.000 C 
BRANCH   3   4
ATOM      4  C   UNL     1      84.273 125.634 129.364  1.00  0.00     0.000 C 
BRANCH   4   5
ATOM      5  C   UNL     1      83.204 124.778 130.077  1.00  0.00     0.000 C 
BRANCH   5   6
ATOM      6  C   UNL     1      81.976 125.578 130.541  1.00  0.00     0.000 C 
BRANCH   6   7
ATOM      7  C   UNL     1      82.217 127.098 130.542  1.00  0.00     0.000 C 
BRANCH   7   8
ATOM      8  C   UNL     1      82.831 127.596 131.860  1.00  0.00     0.000 C 
BRANCH   8   9
ATOM      9  C   UNL     1      81.881 128.527 132.634  1.00  0.00     0.000 C 
BRANCH   9  10
ATOM     10  C   UNL     1      82.413 129.966 132.736  1.00  0.00     0.006 C 
BRANCH  10  11
ATOM     11  C   UNL     1      82.413 130.697 131.386  1.00  0.00     0.053 C 
BRANCH  11  12
ATOM     12  C   UNL     1      83.422 131.802 131.384  1.00  0.00     0.041 C 
ATOM     13  O   UNL     1      84.538 131.642 131.945  1.00  0.00    -0.550 OA
ATOM     14  O   UNL     1      83.131 133.010 130.761  1.00  0.00    -0.550 OA
ENDBRANCH  11  12
ENDBRANCH  10  11
ENDBRANCH   9  10
ENDBRANCH   8   9
ENDBRANCH   7   8
ENDBRANCH   6   7
ENDBRANCH   5   6
ENDBRANCH   4   5
ENDBRANCH   3   4
ENDBRANCH   2   3
ENDBRANCH   1   2
BRANCH   1  15
ATOM     15  C   UNL     1      88.127 123.778 130.514  1.00  0.00     0.000 C 
BRANCH  15  16
ATOM     16  C   UNL     1      88.059 122.310 130.069  1.00  0.00     0.000 C 
BRANCH  16  17
ATOM     17  C   UNL     1      87.703 121.398 131.253  1.00  0.00     0.000 C 
BRANCH  17  18
ATOM     18  C   UNL     1      87.058 120.077 130.807  1.00  0.00    -0.000 C 
BRANCH  18  19
ATOM     19  C   UNL     1      86.066 120.263 129.644  1.00  0.00    -0.000 C 
BRANCH  19  20
ATOM     20  C   UNL     1      84.815 121.055 130.054  1.00  0.00    -0.000 C 
BRANCH  20  21
ATOM     21  C   UNL     1      83.963 121.484 128.851  1.00  0.00    -0.000 C 
BRANCH  21  22
ATOM     22  C   UNL     1      84.786 121.434 127.555  1.00  0.00    -0.000 C 
BRANCH  22  23
ATOM     23  C   UNL     1      85.152 122.831 127.030  1.00  0.00    -0.000 C 
BRANCH  23  24
ATOM     24  C   UNL     1      83.976 123.532 126.327  1.00  0.00    -0.000 C 
BRANCH  24  25
ATOM     25  C   UNL     1      84.182 123.653 124.810  1.00  0.00    -0.003 C 
ATOM     26  C   UNL     1      83.854 122.359 124.064  1.00  0.00     0.004 C 
ENDBRANCH  24  25
ENDBRANCH  23  24
ENDBRANCH  22  23
ENDBRANCH  21  22
ENDBRANCH  20  21
ENDBRANCH  19  20
ENDBRANCH  18  19
ENDBRANCH  17  18
ENDBRANCH  16  17
ENDBRANCH  15  16
ENDBRANCH   1  15
TORSDOF 22
ENDMDL
MODEL 6
REMARK VINA RESULT:    -3.794      2.349      5.828
REMARK INTER + INTRA:         -13.126
REMARK INTER:                  -8.946
REMARK INTRA:                  -4.181
REMARK UNBOUND:                -4.453
REMARK SMILES CCCCCCCCCCCCCCCCCCCCCCCC(=O)[O-]
REMARK SMILES IDX 13 1 14 2 15 3 16 4 17 5 18 6 19 7 20 8 21 9 22 10 23 11
REMARK SMILES IDX 24 12 25 13 26 14 12 15 11 16 10 17 9 18 8 19 7 20 6 21 5 22
REMARK SMILES IDX 4 23 3 24 2 25 1 26
REMARK H PARENT
REMARK Flexibility Score: inf
ROOT
ATOM      1  C   UNL     1      83.245 125.596 132.432  1.00  0.00     0.000 C 
ENDROOT
BRANCH   1   2
ATOM      2  C   UNL     1      82.939 126.737 131.445  1.00  0.00     0.000 C 
BRANCH   2   3
ATOM      3  C   UNL     1      81.901 126.353 130.379  1.00  0.00     0.000 C 
BRANCH   3   4
ATOM      4  C   UNL     1      82.048 124.877 129.982  1.00  0.00     0.000 C 
BRANCH   4   5
ATOM      5  C   UNL     1      82.865 124.691 128.686  1.00  0.00     0.000 C 
BRANCH   5   6
ATOM      6  C   UNL     1      84.370 124.483 128.926  1.00  0.00     0.000 C 
BRANCH   6   7
ATOM      7  C   UNL     1      85.228 125.635 128.377  1.00  0.00     0.000 C 
BRANCH   7   8
ATOM      8  C   UNL     1      86.734 125.388 128.563  1.00  0.00     0.000 C 
BRANCH   8   9
ATOM      9  C   UNL     1      87.038 124.514 129.792  1.00  0.00     0.000 C 
BRANCH   9  10
ATOM     10  C   UNL     1      87.870 123.270 129.445  1.00  0.00     0.006 C 
BRANCH  10  11
ATOM     11  C   UNL     1      88.333 122.497 130.688  1.00  0.00     0.053 C 
BRANCH  11  12
ATOM     12  C   UNL     1      87.858 121.079 130.636  1.00  0.00     0.041 C 
ATOM     13  O   UNL     1      87.966 120.414 129.572  1.00  0.00    -0.550 OA
ATOM     14  O   UNL     1      87.297 120.490 131.763  1.00  0.00    -0.550 OA
ENDBRANCH  11  12
ENDBRANCH  10  11
ENDBRANCH   9  10
ENDBRANCH   8   9
ENDBRANCH   7   8
ENDBRANCH   6   7
ENDBRANCH   5   6
ENDBRANCH   4   5
ENDBRANCH   3   4
ENDBRANCH   2   3
ENDBRANCH   1   2
BRANCH   1  15
ATOM     15  C   UNL     1      84.723 125.165 132.495  1.00  0.00     0.000 C 
BRANCH  15  16
ATOM     16  C   UNL     1      84.904 123.641 132.532  1.00  0.00     0.000 C 
BRANCH  16  17
ATOM     17  C   UNL     1      83.568 122.940 132.826  1.00  0.00     0.000 C 
BRANCH  17  18
ATOM     18  C   UNL     1      83.251 121.826 131.817  1.00  0.00    -0.000 C 
BRANCH  18  19
ATOM     19  C   UNL     1      84.259 121.774 130.654  1.00  0.00    -0.000 C 
BRANCH  19  20
ATOM     20  C   UNL     1      83.997 120.602 129.696  1.00  0.00    -0.000 C 
BRANCH  20  21
ATOM     21  C   UNL     1      83.294 121.037 128.402  1.00  0.00    -0.000 C 
BRANCH  21  22
ATOM     22  C   UNL     1      84.081 120.567 127.170  1.00  0.00    -0.000 C 
BRANCH  22  23
ATOM     23  C   UNL     1      85.071 121.624 126.658  1.00  0.00    -0.000 C 
BRANCH  23  24
ATOM     24  C   UNL     1      84.404 122.680 125.757  1.00  0.00    -0.000 C 
BRANCH  24  25
ATOM     25  C   UNL     1      83.122 122.160 125.091  1.00  0.00    -0.003 C 
ATOM     26  C   UNL     1      83.338 121.749 123.634  1.00  0.00     0.004 C 
ENDBRANCH  24  25
ENDBRANCH  23  24
ENDBRANCH  22  23
ENDBRANCH  21  22
ENDBRANCH  20  21
ENDBRANCH  19  20
ENDBRANCH  18  19
ENDBRANCH  17  18
ENDBRANCH  16  17
ENDBRANCH  15  16
ENDBRANCH   1  15
TORSDOF 22
ENDMDL
MODEL 7
REMARK VINA RESULT:    -3.766      2.190      4.509
REMARK INTER + INTRA:         -13.063
REMARK INTER:                  -9.108
REMARK INTRA:                  -3.955
REMARK UNBOUND:                -4.453
REMARK SMILES CCCCCCCCCCCCCCCCCCCCCCCC(=O)[O-]
REMARK SMILES IDX 13 1 14 2 15 3 16 4 17 5 18 6 19 7 20 8 21 9 22 10 23 11
REMARK SMILES IDX 24 12 25 13 26 14 12 15 11 16 10 17 9 18 8 19 7 20 6 21 5 22
REMARK SMILES IDX 4 23 3 24 2 25 1 26
REMARK H PARENT
REMARK Flexibility Score: inf
ROOT
ATOM      1  C   UNL     1      86.185 124.877 129.739  1.00  0.00     0.000 C 
ENDROOT
BRANCH   1   2
ATOM      2  C   UNL     1      85.461 125.670 128.634  1.00  0.00     0.000 C 
BRANCH   2   3
ATOM      3  C   UNL     1      84.342 124.870 127.951  1.00  0.00     0.000 C 
BRANCH   3   4
ATOM      4  C   UNL     1      84.895 124.049 126.777  1.00  0.00     0.000 C 
BRANCH   4   5
ATOM      5  C   UNL     1      83.990 124.116 125.528  1.00  0.00     0.000 C 
BRANCH   5   6
ATOM      6  C   UNL     1      84.026 122.843 124.667  1.00  0.00     0.000 C 
BRANCH   6   7
ATOM      7  C   UNL     1      82.838 121.904 124.935  1.00  0.00     0.000 C 
BRANCH   7   8
ATOM      8  C   UNL     1      83.272 120.571 125.566  1.00  0.00     0.000 C 
BRANCH   8   9
ATOM      9  C   UNL     1      82.686 120.371 126.975  1.00  0.00     0.000 C 
BRANCH   9  10
ATOM     10  C   UNL     1      83.611 120.899 128.083  1.00  0.00     0.006 C 
BRANCH  10  11
ATOM     11  C   UNL     1      85.092 120.595 127.815  1.00  0.00     0.053 C 
BRANCH  11  12
ATOM     12  C   UNL     1      85.593 119.544 128.755  1.00  0.00     0.041 C 
ATOM     13  O   UNL     1      86.771 119.109 128.651  1.00  0.00    -0.550 OA
ATOM     14  O   UNL     1      84.759 119.044 129.749  1.00  0.00    -0.550 OA
ENDBRANCH  11  12
ENDBRANCH  10  11
ENDBRANCH   9  10
ENDBRANCH   8   9
ENDBRANCH   7   8
ENDBRANCH   6   7
ENDBRANCH   5   6
ENDBRANCH   4   5
ENDBRANCH   3   4
ENDBRANCH   2   3
ENDBRANCH   1   2
BRANCH   1  15
ATOM     15  C   UNL     1      87.492 124.190 129.301  1.00  0.00     0.000 C 
BRANCH  15  16
ATOM     16  C   UNL     1      87.517 122.687 129.616  1.00  0.00     0.000 C 
BRANCH  16  17
ATOM     17  C   UNL     1      88.634 122.360 130.620  1.00  0.00     0.000 C 
BRANCH  17  18
ATOM     18  C   UNL     1      88.233 121.253 131.608  1.00  0.00    -0.000 C 
BRANCH  18  19
ATOM     19  C   UNL     1      86.707 121.115 131.758  1.00  0.00    -0.000 C 
BRANCH  19  20
ATOM     20  C   UNL     1      86.171 121.813 133.017  1.00  0.00    -0.000 C 
BRANCH  20  21
ATOM     21  C   UNL     1      85.041 122.807 132.710  1.00  0.00    -0.000 C 
BRANCH  21  22
ATOM     22  C   UNL     1      84.286 122.398 131.436  1.00  0.00    -0.000 C 
BRANCH  22  23
ATOM     23  C   UNL     1      82.823 122.016 131.709  1.00  0.00    -0.000 C 
BRANCH  23  24
ATOM     24  C   UNL     1      81.875 123.229 131.681  1.00  0.00    -0.000 C 
BRANCH  24  25
ATOM     25  C   UNL     1      82.360 124.335 130.733  1.00  0.00    -0.003 C 
ATOM     26  C   UNL     1      82.421 125.706 131.406  1.00  0.00     0.004 C 
ENDBRANCH  24  25
ENDBRANCH  23  24
ENDBRANCH  22  23
ENDBRANCH  21  22
ENDBRANCH  20  21
ENDBRANCH  19  20
ENDBRANCH  18  19
ENDBRANCH  17  18
ENDBRANCH  16  17
ENDBRANCH  15  16
ENDBRANCH   1  15
TORSDOF 22
ENDMDL
MODEL 8
REMARK VINA RESULT:    -3.752      2.011      3.137
REMARK INTER + INTRA:         -13.032
REMARK INTER:                  -9.147
REMARK INTRA:                  -3.884
REMARK UNBOUND:                -4.453
REMARK SMILES CCCCCCCCCCCCCCCCCCCCCCCC(=O)[O-]
REMARK SMILES IDX 13 1 14 2 15 3 16 4 17 5 18 6 19 7 20 8 21 9 22 10 23 11
REMARK SMILES IDX 24 12 25 13 26 14 12 15 11 16 10 17 9 18 8 19 7 20 6 21 5 22
REMARK SMILES IDX 4 23 3 24 2 25 1 26
REMARK H PARENT
REMARK Flexibility Score: inf
ROOT
ATOM      1  C   UNL     1      84.833 125.975 129.038  1.00  0.00     0.000 C 
ENDROOT
BRANCH   1   2
ATOM      2  C   UNL     1      85.257 125.115 127.832  1.00  0.00     0.000 C 
BRANCH   2   3
ATOM      3  C   UNL     1      84.236 124.023 127.480  1.00  0.00     0.000 C 
BRANCH   3   4
ATOM      4  C   UNL     1      83.814 124.125 126.007  1.00  0.00     0.000 C 
BRANCH   4   5
ATOM      5  C   UNL     1      84.791 123.396 125.060  1.00  0.00     0.000 C 
BRANCH   5   6
ATOM      6  C   UNL     1      84.104 122.415 124.096  1.00  0.00     0.000 C 
BRANCH   6   7
ATOM      7  C   UNL     1      82.704 121.989 124.571  1.00  0.00     0.000 C 
BRANCH   7   8
ATOM      8  C   UNL     1      82.603 120.477 124.825  1.00  0.00     0.000 C 
BRANCH   8   9
ATOM      9  C   UNL     1      83.366 120.042 126.088  1.00  0.00     0.000 C 
BRANCH   9  10
ATOM     10  C   UNL     1      82.613 120.386 127.384  1.00  0.00     0.006 C 
BRANCH  10  11
ATOM     11  C   UNL     1      83.556 120.662 128.564  1.00  0.00     0.053 C 
BRANCH  11  12
ATOM     12  C   UNL     1      82.788 121.170 129.744  1.00  0.00     0.041 C 
ATOM     13  O   UNL     1      82.034 122.172 129.626  1.00  0.00    -0.550 OA
ATOM     14  O   UNL     1      82.904 120.536 130.975  1.00  0.00    -0.550 OA
ENDBRANCH  11  12
ENDBRANCH  10  11
ENDBRANCH   9  10
ENDBRANCH   8   9
ENDBRANCH   7   8
ENDBRANCH   6   7
ENDBRANCH   5   6
ENDBRANCH   4   5
ENDBRANCH   3   4
ENDBRANCH   2   3
ENDBRANCH   1   2
BRANCH   1  15
ATOM     15  C   UNL     1      83.645 125.425 129.848  1.00  0.00     0.000 C 
BRANCH  15  16
ATOM     16  C   UNL     1      83.429 126.164 131.177  1.00  0.00     0.000 C 
BRANCH  16  17
ATOM     17  C   UNL     1      83.841 125.281 132.365  1.00  0.00     0.000 C 
BRANCH  17  18
ATOM     18  C   UNL     1      84.039 123.811 131.967  1.00  0.00    -0.000 C 
BRANCH  18  19
ATOM     19  C   UNL     1      85.335 123.209 132.542  1.00  0.00    -0.000 C 
BRANCH  19  20
ATOM     20  C   UNL     1      86.428 124.265 132.766  1.00  0.00    -0.000 C 
BRANCH  20  21
ATOM     21  C   UNL     1      87.242 124.556 131.497  1.00  0.00    -0.000 C 
BRANCH  21  22
ATOM     22  C   UNL     1      88.166 123.375 131.160  1.00  0.00    -0.000 C 
BRANCH  22  23
ATOM     23  C   UNL     1      88.106 122.978 129.677  1.00  0.00    -0.000 C 
BRANCH  23  24
ATOM     24  C   UNL     1      86.880 122.109 129.342  1.00  0.00    -0.000 C 
BRANCH  24  25
ATOM     25  C   UNL     1      87.172 120.606 129.464  1.00  0.00    -0.003 C 
ATOM     26  C   UNL     1      86.829 120.048 130.845  1.00  0.00     0.004 C 
ENDBRANCH  24  25
ENDBRANCH  23  24
ENDBRANCH  22  23
ENDBRANCH  21  22
ENDBRANCH  20  21
ENDBRANCH  19  20
ENDBRANCH  18  19
ENDBRANCH  17  18
ENDBRANCH  16  17
ENDBRANCH  15  16
ENDBRANCH   1  15
TORSDOF 22
ENDMDL
MODEL 9
REMARK VINA RESULT:    -3.581      2.730      5.990
REMARK INTER + INTRA:         -12.640
REMARK INTER:                  -9.183
REMARK INTRA:                  -3.458
REMARK UNBOUND:                -4.453
REMARK SMILES CCCCCCCCCCCCCCCCCCCCCCCC(=O)[O-]
REMARK SMILES IDX 13 1 14 2 15 3 16 4 17 5 18 6 19 7 20 8 21 9 22 10 23 11
REMARK SMILES IDX 24 12 25 13 26 14 12 15 11 16 10 17 9 18 8 19 7 20 6 21 5 22
REMARK SMILES IDX 4 23 3 24 2 25 1 26
REMARK H PARENT
REMARK Flexibility Score: inf
ROOT
ATOM      1  C   UNL     1      87.986 122.906 129.925  1.00  0.00     0.000 C 
ENDROOT
BRANCH   1   2
ATOM      2  C   UNL     1      87.578 122.893 131.410  1.00  0.00     0.000 C 
BRANCH   2   3
ATOM      3  C   UNL     1      87.171 121.500 131.912  1.00  0.00     0.000 C 
BRANCH   3   4
ATOM      4  C   UNL     1      85.949 121.589 132.838  1.00  0.00     0.000 C 
BRANCH   4   5
ATOM      5  C   UNL     1      85.392 123.024 132.946  1.00  0.00     0.000 C 
BRANCH   5   6
ATOM      6  C   UNL     1      84.042 123.220 132.236  1.00  0.00     0.000 C 
BRANCH   6   7
ATOM      7  C   UNL     1      83.473 121.913 131.658  1.00  0.00     0.000 C 
BRANCH   7   8
ATOM      8  C   UNL     1      83.211 122.002 130.146  1.00  0.00     0.000 C 
BRANCH   8   9
ATOM      9  C   UNL     1      84.427 121.562 129.313  1.00  0.00     0.000 C 
BRANCH   9  10
ATOM     10  C   UNL     1      84.490 122.256 127.943  1.00  0.00     0.006 C 
BRANCH  10  11
ATOM     11  C   UNL     1      83.162 122.920 127.551  1.00  0.00     0.053 C 
BRANCH  11  12
ATOM     12  C   UNL     1      83.113 123.171 126.076  1.00  0.00     0.041 C 
ATOM     13  O   UNL     1      82.474 122.391 125.322  1.00  0.00    -0.550 OA
ATOM     14  O   UNL     1      83.771 124.269 125.535  1.00  0.00    -0.550 OA
ENDBRANCH  11  12
ENDBRANCH  10  11
ENDBRANCH   9  10
ENDBRANCH   8   9
ENDBRANCH   7   8
ENDBRANCH   6   7
ENDBRANCH   5   6
ENDBRANCH   4   5
ENDBRANCH   3   4
ENDBRANCH   2   3
ENDBRANCH   1   2
BRANCH   1  15
ATOM     15  C   UNL     1      87.372 124.044 129.088  1.00  0.00     0.000 C 
BRANCH  15  16
ATOM     16  C   UNL     1      86.349 124.881 129.871  1.00  0.00     0.000 C 
BRANCH  16  17
ATOM     17  C   UNL     1      85.484 125.717 128.915  1.00  0.00     0.000 C 
BRANCH  17  18
ATOM     18  C   UNL     1      84.006 125.752 129.334  1.00  0.00    -0.000 C 
BRANCH  18  19
ATOM     19  C   UNL     1      83.801 126.351 130.738  1.00  0.00    -0.000 C 
BRANCH  19  20
ATOM     20  C   UNL     1      82.368 126.859 130.960  1.00  0.00    -0.000 C 
BRANCH  20  21
ATOM     21  C   UNL     1      82.046 127.099 132.442  1.00  0.00    -0.000 C 
BRANCH  21  22
ATOM     22  C   UNL     1      82.907 128.238 133.009  1.00  0.00    -0.000 C 
BRANCH  22  23
ATOM     23  C   UNL     1      82.231 129.613 132.883  1.00  0.00    -0.000 C 
BRANCH  23  24
ATOM     24  C   UNL     1      83.220 130.781 133.050  1.00  0.00    -0.000 C 
BRANCH  24  25
ATOM     25  C   UNL     1      83.757 131.295 131.706  1.00  0.00    -0.003 C 
ATOM     26  C   UNL     1      83.013 132.535 131.208  1.00  0.00     0.004 C 
ENDBRANCH  24  25
ENDBRANCH  23  24
ENDBRANCH  22  23
ENDBRANCH  21  22
ENDBRANCH  20  21
ENDBRANCH  19  20
ENDBRANCH  18  19
ENDBRANCH  17  18
ENDBRANCH  16  17
ENDBRANCH  15  16
ENDBRANCH   1  15
TORSDOF 22
ENDMDL
