MODEL 1
REMARK VINA RESULT:    -5.209      0.000      0.000
REMARK INTER + INTRA:          -9.693
REMARK INTER:                  -9.168
REMARK INTRA:                  -0.525
REMARK UNBOUND:                -0.525
REMARK SMILES CCCCCCC=CCCCCCCCC(=O)[O-]
REMARK SMILES IDX 10 1 11 2 12 3 13 4 14 5 15 6 16 7 17 8 18 9 9 10 8 11 7 12
REMARK SMILES IDX 6 13 5 14 4 15 3 16 2 17 1 18
REMARK H PARENT
REMARK Flexibility Score: inf
ROOT
ATOM      1  C   UNL     1       2.360  20.098  32.393  1.00  0.00     0.004 C 
ENDROOT
BRANCH   1   2
ATOM      2  C   UNL     1       3.434  19.203  33.035  1.00  0.00     0.000 C 
BRANCH   2   3
ATOM      3  C   UNL     1       2.907  18.412  34.247  1.00  0.00     0.000 C 
BRANCH   3   4
ATOM      4  C   UNL     1       3.838  17.292  34.753  1.00  0.00     0.000 C 
BRANCH   4   5
ATOM      5  C   UNL     1       5.295  17.719  35.003  1.00  0.00     0.006 C 
BRANCH   5   6
ATOM      6  C   UNL     1       6.313  16.697  34.482  1.00  0.00     0.053 C 
BRANCH   6   7
ATOM      7  C   UNL     1       6.652  16.981  33.053  1.00  0.00     0.041 C 
ATOM      8  O   UNL     1       6.616  18.160  32.615  1.00  0.00    -0.550 OA
ATOM      9  O   UNL     1       6.964  15.936  32.192  1.00  0.00    -0.550 OA
ENDBRANCH   6   7
ENDBRANCH   5   6
ENDBRANCH   4   5
ENDBRANCH   3   4
ENDBRANCH   2   3
ENDBRANCH   1   2
BRANCH   1  10
ATOM     10  C   UNL     1       1.180  20.352  33.344  1.00  0.00     0.027 C 
BRANCH  10  11
ATOM     11  C   UNL     1       0.293  21.473  32.864  1.00  0.00    -0.031 C 
ATOM     12  C   UNL     1      -0.508  21.414  31.784  1.00  0.00    -0.031 C 
BRANCH  12  13
ATOM     13  C   UNL     1      -0.694  20.200  30.904  1.00  0.00     0.027 C 
BRANCH  13  14
ATOM     14  C   UNL     1      -1.506  20.540  29.647  1.00  0.00     0.004 C 
BRANCH  14  15
ATOM     15  C   UNL     1      -1.662  19.325  28.716  1.00  0.00     0.000 C 
BRANCH  15  16
ATOM     16  C   UNL     1      -2.894  19.434  27.804  1.00  0.00    -0.000 C 
BRANCH  16  17
ATOM     17  C   UNL     1      -2.832  20.649  26.867  1.00  0.00    -0.003 C 
ATOM     18  C   UNL     1      -1.464  20.756  26.197  1.00  0.00     0.004 C 
ENDBRANCH  16  17
ENDBRANCH  15  16
ENDBRANCH  14  15
ENDBRANCH  13  14
ENDBRANCH  12  13
ENDBRANCH  10  11
ENDBRANCH   1  10
TORSDOF 13
ENDMDL
MODEL 2
REMARK VINA RESULT:    -4.935     15.512     18.754
REMARK INTER + INTRA:          -9.211
REMARK INTER:                  -8.416
REMARK INTRA:                  -0.795
REMARK UNBOUND:                -0.525
REMARK SMILES CCCCCCC=CCCCCCCCC(=O)[O-]
REMARK SMILES IDX 10 1 11 2 12 3 13 4 14 5 15 6 16 7 17 8 18 9 9 10 8 11 7 12
REMARK SMILES IDX 6 13 5 14 4 15 3 16 2 17 1 18
REMARK H PARENT
REMARK Flexibility Score: inf
ROOT
ATOM      1  C   UNL     1       2.534   8.879  15.212  1.00  0.00     0.004 C 
ENDROOT
BRANCH   1   2
ATOM      2  C   UNL     1       1.664   9.363  16.384  1.00  0.00     0.000 C 
BRANCH   2   3
ATOM      3  C   UNL     1       0.252   8.748  16.375  1.00  0.00     0.000 C 
BRANCH   3   4
ATOM      4  C   UNL     1      -0.584   9.009  17.644  1.00  0.00     0.000 C 
BRANCH   4   5
ATOM      5  C   UNL     1      -0.429  10.415  18.250  1.00  0.00     0.006 C 
BRANCH   5   6
ATOM      6  C   UNL     1      -1.713  10.919  18.921  1.00  0.00     0.053 C 
BRANCH   6   7
ATOM      7  C   UNL     1      -2.092  10.025  20.058  1.00  0.00     0.041 C 
ATOM      8  O   UNL     1      -1.273   9.796  20.985  1.00  0.00    -0.550 OA
ATOM      9  O   UNL     1      -3.337   9.407  20.070  1.00  0.00    -0.550 OA
ENDBRANCH   6   7
ENDBRANCH   5   6
ENDBRANCH   4   5
ENDBRANCH   3   4
ENDBRANCH   2   3
ENDBRANCH   1   2
BRANCH   1  10
ATOM     10  C   UNL     1       3.792   9.742  15.035  1.00  0.00     0.027 C 
BRANCH  10  11
ATOM     11  C   UNL     1       4.682   9.709  16.252  1.00  0.00    -0.031 C 
ATOM     12  C   UNL     1       5.869  10.336  16.358  1.00  0.00    -0.031 C 
BRANCH  12  13
ATOM     13  C   UNL     1       6.482  11.221  15.298  1.00  0.00     0.027 C 
BRANCH  13  14
ATOM     14  C   UNL     1       7.913  11.629  15.670  1.00  0.00     0.004 C 
BRANCH  14  15
ATOM     15  C   UNL     1       8.602  10.575  16.554  1.00  0.00     0.000 C 
BRANCH  15  16
ATOM     16  C   UNL     1       9.088  11.153  17.893  1.00  0.00    -0.000 C 
BRANCH  16  17
ATOM     17  C   UNL     1       8.583  12.583  18.139  1.00  0.00    -0.003 C 
ATOM     18  C   UNL     1       9.554  13.363  19.020  1.00  0.00     0.004 C 
ENDBRANCH  16  17
ENDBRANCH  15  16
ENDBRANCH  14  15
ENDBRANCH  13  14
ENDBRANCH  12  13
ENDBRANCH  10  11
ENDBRANCH   1  10
TORSDOF 13
ENDMDL
MODEL 3
REMARK VINA RESULT:    -4.911      1.536      2.794
REMARK INTER + INTRA:          -9.169
REMARK INTER:                  -8.253
REMARK INTRA:                  -0.916
REMARK UNBOUND:                -0.525
REMARK SMILES CCCCCCC=CCCCCCCCC(=O)[O-]
REMARK SMILES IDX 10 1 11 2 12 3 13 4 14 5 15 6 16 7 17 8 18 9 9 10 8 11 7 12
REMARK SMILES IDX 6 13 5 14 4 15 3 16 2 17 1 18
REMARK H PARENT
REMARK Flexibility Score: inf
ROOT
ATOM      1  C   UNL     1      -0.119  22.874  33.519  1.00  0.00     0.004 C 
ENDROOT
BRANCH   1   2
ATOM      2  C   UNL     1       0.191  22.029  34.766  1.00  0.00     0.000 C 
BRANCH   2   3
ATOM      3  C   UNL     1       1.621  21.460  34.763  1.00  0.00     0.000 C 
BRANCH   3   4
ATOM      4  C   UNL     1       1.731  19.962  35.112  1.00  0.00     0.000 C 
BRANCH   4   5
ATOM      5  C   UNL     1       1.983  19.030  33.913  1.00  0.00     0.006 C 
BRANCH   5   6
ATOM      6  C   UNL     1       3.227  19.421  33.106  1.00  0.00     0.053 C 
BRANCH   6   7
ATOM      7  C   UNL     1       4.340  18.455  33.364  1.00  0.00     0.041 C 
ATOM      8  O   UNL     1       5.362  18.456  32.629  1.00  0.00    -0.550 OA
ATOM      9  O   UNL     1       4.228  17.523  34.388  1.00  0.00    -0.550 OA
ENDBRANCH   6   7
ENDBRANCH   5   6
ENDBRANCH   4   5
ENDBRANCH   3   4
ENDBRANCH   2   3
ENDBRANCH   1   2
BRANCH   1  10
ATOM     10  C   UNL     1      -0.865  22.065  32.447  1.00  0.00     0.027 C 
BRANCH  10  11
ATOM     11  C   UNL     1       0.001  20.990  31.839  1.00  0.00    -0.031 C 
ATOM     12  C   UNL     1      -0.330  20.249  30.765  1.00  0.00    -0.031 C 
BRANCH  12  13
ATOM     13  C   UNL     1      -1.597  20.405  29.958  1.00  0.00     0.027 C 
BRANCH  13  14
ATOM     14  C   UNL     1      -1.648  19.403  28.798  1.00  0.00     0.004 C 
BRANCH  14  15
ATOM     15  C   UNL     1      -2.954  19.518  27.993  1.00  0.00     0.000 C 
BRANCH  15  16
ATOM     16  C   UNL     1      -2.794  20.378  26.728  1.00  0.00    -0.000 C 
BRANCH  16  17
ATOM     17  C   UNL     1      -1.324  20.597  26.342  1.00  0.00    -0.003 C 
ATOM     18  C   UNL     1      -1.171  21.808  25.426  1.00  0.00     0.004 C 
ENDBRANCH  16  17
ENDBRANCH  15  16
ENDBRANCH  14  15
ENDBRANCH  13  14
ENDBRANCH  12  13
ENDBRANCH  10  11
ENDBRANCH   1  10
TORSDOF 13
ENDMDL
MODEL 4
REMARK VINA RESULT:    -4.828      3.968      8.646
REMARK INTER + INTRA:          -9.022
REMARK INTER:                  -8.320
REMARK INTRA:                  -0.701
REMARK UNBOUND:                -0.525
REMARK SMILES CCCCCCC=CCCCCCCCC(=O)[O-]
REMARK SMILES IDX 10 1 11 2 12 3 13 4 14 5 15 6 16 7 17 8 18 9 9 10 8 11 7 12
REMARK SMILES IDX 6 13 5 14 4 15 3 16 2 17 1 18
REMARK H PARENT
REMARK Flexibility Score: inf
ROOT
ATOM      1  C   UNL     1       1.665  19.902  32.171  1.00  0.00     0.004 C 
ENDROOT
BRANCH   1   2
ATOM      2  C   UNL     1       0.699  21.031  32.567  1.00  0.00     0.000 C 
BRANCH   2   3
ATOM      3  C   UNL     1      -0.550  21.092  31.669  1.00  0.00     0.000 C 
BRANCH   3   4
ATOM      4  C   UNL     1      -0.532  20.140  30.457  1.00  0.00     0.000 C 
BRANCH   4   5
ATOM      5  C   UNL     1      -1.685  20.335  29.456  1.00  0.00     0.006 C 
BRANCH   5   6
ATOM      6  C   UNL     1      -1.964  19.082  28.617  1.00  0.00     0.053 C 
BRANCH   6   7
ATOM      7  C   UNL     1      -2.706  19.444  27.370  1.00  0.00     0.041 C 
ATOM      8  O   UNL     1      -2.709  20.632  26.956  1.00  0.00    -0.550 OA
ATOM      9  O   UNL     1      -3.433  18.476  26.689  1.00  0.00    -0.550 OA
ENDBRANCH   6   7
ENDBRANCH   5   6
ENDBRANCH   4   5
ENDBRANCH   3   4
ENDBRANCH   2   3
ENDBRANCH   1   2
BRANCH   1  10
ATOM     10  C   UNL     1       2.614  19.528  33.320  1.00  0.00     0.027 C 
BRANCH  10  11
ATOM     11  C   UNL     1       2.085  18.380  34.144  1.00  0.00    -0.031 C 
ATOM     12  C   UNL     1       2.842  17.545  34.879  1.00  0.00    -0.031 C 
BRANCH  12  13
ATOM     13  C   UNL     1       4.340  17.648  35.044  1.00  0.00     0.027 C 
BRANCH  13  14
ATOM     14  C   UNL     1       5.078  17.037  33.846  1.00  0.00     0.004 C 
BRANCH  14  15
ATOM     15  C   UNL     1       6.007  18.055  33.162  1.00  0.00     0.000 C 
BRANCH  15  16
ATOM     16  C   UNL     1       7.168  17.383  32.410  1.00  0.00    -0.000 C 
BRANCH  16  17
ATOM     17  C   UNL     1       6.863  15.927  32.029  1.00  0.00    -0.003 C 
ATOM     18  C   UNL     1       8.051  15.286  31.317  1.00  0.00     0.004 C 
ENDBRANCH  16  17
ENDBRANCH  15  16
ENDBRANCH  14  15
ENDBRANCH  13  14
ENDBRANCH  12  13
ENDBRANCH  10  11
ENDBRANCH   1  10
TORSDOF 13
ENDMDL
MODEL 5
REMARK VINA RESULT:    -4.812      4.028      8.438
REMARK INTER + INTRA:          -8.994
REMARK INTER:                  -8.153
REMARK INTRA:                  -0.841
REMARK UNBOUND:                -0.525
REMARK SMILES CCCCCCC=CCCCCCCCC(=O)[O-]
REMARK SMILES IDX 10 1 11 2 12 3 13 4 14 5 15 6 16 7 17 8 18 9 9 10 8 11 7 12
REMARK SMILES IDX 6 13 5 14 4 15 3 16 2 17 1 18
REMARK H PARENT
REMARK Flexibility Score: inf
ROOT
ATOM      1  C   UNL     1       0.337  21.966  33.414  1.00  0.00     0.004 C 
ENDROOT
BRANCH   1   2
ATOM      2  C   UNL     1      -0.509  22.032  32.131  1.00  0.00     0.000 C 
BRANCH   2   3
ATOM      3  C   UNL     1      -0.496  20.713  31.338  1.00  0.00     0.000 C 
BRANCH   3   4
ATOM      4  C   UNL     1      -1.494  20.643  30.165  1.00  0.00     0.000 C 
BRANCH   4   5
ATOM      5  C   UNL     1      -1.265  19.483  29.180  1.00  0.00     0.006 C 
BRANCH   5   6
ATOM      6  C   UNL     1      -1.536  19.877  27.723  1.00  0.00     0.053 C 
BRANCH   6   7
ATOM      7  C   UNL     1      -2.975  19.653  27.381  1.00  0.00     0.041 C 
ATOM      8  O   UNL     1      -3.832  20.540  27.633  1.00  0.00    -0.550 OA
ATOM      9  O   UNL     1      -3.377  18.444  26.827  1.00  0.00    -0.550 OA
ENDBRANCH   6   7
ENDBRANCH   5   6
ENDBRANCH   4   5
ENDBRANCH   3   4
ENDBRANCH   2   3
ENDBRANCH   1   2
BRANCH   1  10
ATOM     10  C   UNL     1       0.471  20.530  33.941  1.00  0.00     0.027 C 
BRANCH  10  11
ATOM     11  C   UNL     1       1.669  20.363  34.843  1.00  0.00    -0.031 C 
ATOM     12  C   UNL     1       2.898  19.997  34.434  1.00  0.00    -0.031 C 
BRANCH  12  13
ATOM     13  C   UNL     1       3.296  19.743  32.999  1.00  0.00     0.027 C 
BRANCH  13  14
ATOM     14  C   UNL     1       4.567  18.888  32.915  1.00  0.00     0.004 C 
BRANCH  14  15
ATOM     15  C   UNL     1       4.794  18.065  34.194  1.00  0.00     0.000 C 
BRANCH  15  16
ATOM     16  C   UNL     1       5.777  16.902  33.982  1.00  0.00    -0.000 C 
BRANCH  16  17
ATOM     17  C   UNL     1       5.870  16.466  32.512  1.00  0.00    -0.003 C 
ATOM     18  C   UNL     1       7.301  16.083  32.143  1.00  0.00     0.004 C 
ENDBRANCH  16  17
ENDBRANCH  15  16
ENDBRANCH  14  15
ENDBRANCH  13  14
ENDBRANCH  12  13
ENDBRANCH  10  11
ENDBRANCH   1  10
TORSDOF 13
ENDMDL
MODEL 6
REMARK VINA RESULT:    -4.746     15.364     17.933
REMARK INTER + INTRA:          -8.877
REMARK INTER:                  -8.721
REMARK INTRA:                  -0.157
REMARK UNBOUND:                -0.525
REMARK SMILES CCCCCCC=CCCCCCCCC(=O)[O-]
REMARK SMILES IDX 10 1 11 2 12 3 13 4 14 5 15 6 16 7 17 8 18 9 9 10 8 11 7 12
REMARK SMILES IDX 6 13 5 14 4 15 3 16 2 17 1 18
REMARK H PARENT
REMARK Flexibility Score: inf
ROOT
ATOM      1  C   UNL     1       4.462   9.728  15.965  1.00  0.00     0.004 C 
ENDROOT
BRANCH   1   2
ATOM      2  C   UNL     1       4.721  10.782  14.875  1.00  0.00     0.000 C 
BRANCH   2   3
ATOM      3  C   UNL     1       6.148  11.357  14.927  1.00  0.00     0.000 C 
BRANCH   3   4
ATOM      4  C   UNL     1       7.245  10.353  15.335  1.00  0.00     0.000 C 
BRANCH   4   5
ATOM      5  C   UNL     1       7.944  10.659  16.672  1.00  0.00     0.006 C 
BRANCH   5   6
ATOM      6  C   UNL     1       8.123  12.161  16.921  1.00  0.00     0.053 C 
BRANCH   6   7
ATOM      7  C   UNL     1       8.851  12.394  18.207  1.00  0.00     0.041 C 
ATOM      8  O   UNL     1       9.567  11.485  18.703  1.00  0.00    -0.550 OA
ATOM      9  O   UNL     1       8.701  13.599  18.882  1.00  0.00    -0.550 OA
ENDBRANCH   6   7
ENDBRANCH   5   6
ENDBRANCH   4   5
ENDBRANCH   3   4
ENDBRANCH   2   3
ENDBRANCH   1   2
BRANCH   1  10
ATOM     10  C   UNL     1       2.964   9.439  16.141  1.00  0.00     0.027 C 
BRANCH  10  11
ATOM     11  C   UNL     1       2.387   8.685  14.970  1.00  0.00    -0.031 C 
ATOM     12  C   UNL     1       1.212   8.028  14.978  1.00  0.00    -0.031 C 
BRANCH  12  13
ATOM     13  C   UNL     1       0.251   7.981  16.142  1.00  0.00     0.027 C 
BRANCH  13  14
ATOM     14  C   UNL     1       0.060   9.370  16.766  1.00  0.00     0.004 C 
BRANCH  14  15
ATOM     15  C   UNL     1      -0.986   9.357  17.893  1.00  0.00     0.000 C 
BRANCH  15  16
ATOM     16  C   UNL     1      -0.880  10.585  18.812  1.00  0.00    -0.000 C 
BRANCH  16  17
ATOM     17  C   UNL     1      -1.885  10.545  19.973  1.00  0.00    -0.003 C 
ATOM     18  C   UNL     1      -3.133   9.752  19.591  1.00  0.00     0.004 C 
ENDBRANCH  16  17
ENDBRANCH  15  16
ENDBRANCH  14  15
ENDBRANCH  13  14
ENDBRANCH  12  13
ENDBRANCH  10  11
ENDBRANCH   1  10
TORSDOF 13
ENDMDL
MODEL 7
REMARK VINA RESULT:    -4.559      1.415      3.250
REMARK INTER + INTRA:          -8.549
REMARK INTER:                  -7.449
REMARK INTRA:                  -1.100
REMARK UNBOUND:                -0.525
REMARK SMILES CCCCCCC=CCCCCCCCC(=O)[O-]
REMARK SMILES IDX 10 1 11 2 12 3 13 4 14 5 15 6 16 7 17 8 18 9 9 10 8 11 7 12
REMARK SMILES IDX 6 13 5 14 4 15 3 16 2 17 1 18
REMARK H PARENT
REMARK Flexibility Score: inf
ROOT
ATOM      1  C   UNL     1      -0.577  21.228  31.027  1.00  0.00     0.004 C 
ENDROOT
BRANCH   1   2
ATOM      2  C   UNL     1      -0.151  20.700  32.407  1.00  0.00     0.000 C 
BRANCH   2   3
ATOM      3  C   UNL     1       1.368  20.473  32.517  1.00  0.00     0.000 C 
BRANCH   3   4
ATOM      4  C   UNL     1       1.970  20.732  33.913  1.00  0.00     0.000 C 
BRANCH   4   5
ATOM      5  C   UNL     1       3.219  19.898  34.250  1.00  0.00     0.006 C 
BRANCH   5   6
ATOM      6  C   UNL     1       4.038  19.523  33.009  1.00  0.00     0.053 C 
BRANCH   6   7
ATOM      7  C   UNL     1       4.813  18.268  33.256  1.00  0.00     0.041 C 
ATOM      8  O   UNL     1       5.821  17.997  32.551  1.00  0.00    -0.550 OA
ATOM      9  O   UNL     1       4.396  17.375  34.234  1.00  0.00    -0.550 OA
ENDBRANCH   6   7
ENDBRANCH   5   6
ENDBRANCH   4   5
ENDBRANCH   3   4
ENDBRANCH   2   3
ENDBRANCH   1   2
BRANCH   1  10
ATOM     10  C   UNL     1      -1.401  20.192  30.246  1.00  0.00     0.027 C 
BRANCH  10  11
ATOM     11  C   UNL     1      -0.551  19.389  29.294  1.00  0.00    -0.031 C 
ATOM     12  C   UNL     1      -0.995  18.369  28.536  1.00  0.00    -0.031 C 
BRANCH  12  13
ATOM     13  C   UNL     1      -2.428  17.894  28.470  1.00  0.00     0.027 C 
BRANCH  13  14
ATOM     14  C   UNL     1      -3.161  18.493  27.263  1.00  0.00     0.004 C 
BRANCH  14  15
ATOM     15  C   UNL     1      -3.837  19.832  27.605  1.00  0.00     0.000 C 
BRANCH  15  16
ATOM     16  C   UNL     1      -3.164  21.028  26.912  1.00  0.00    -0.000 C 
BRANCH  16  17
ATOM     17  C   UNL     1      -1.916  20.625  26.113  1.00  0.00    -0.003 C 
ATOM     18  C   UNL     1      -1.123  21.854  25.677  1.00  0.00     0.004 C 
ENDBRANCH  16  17
ENDBRANCH  15  16
ENDBRANCH  14  15
ENDBRANCH  13  14
ENDBRANCH  12  13
ENDBRANCH  10  11
ENDBRANCH   1  10
TORSDOF 13
ENDMDL
MODEL 8
REMARK VINA RESULT:    -4.342      3.709      8.353
REMARK INTER + INTRA:          -8.166
REMARK INTER:                  -7.144
REMARK INTRA:                  -1.023
REMARK UNBOUND:                -0.525
REMARK SMILES CCCCCCC=CCCCCCCCC(=O)[O-]
REMARK SMILES IDX 10 1 11 2 12 3 13 4 14 5 15 6 16 7 17 8 18 9 9 10 8 11 7 12
REMARK SMILES IDX 6 13 5 14 4 15 3 16 2 17 1 18
REMARK H PARENT
REMARK Flexibility Score: inf
ROOT
ATOM      1  C   UNL     1      -1.308  20.238  29.882  1.00  0.00     0.004 C 
ENDROOT
BRANCH   1   2
ATOM      2  C   UNL     1      -0.940  18.939  29.145  1.00  0.00     0.000 C 
BRANCH   2   3
ATOM      3  C   UNL     1      -2.147  18.282  28.452  1.00  0.00     0.000 C 
BRANCH   3   4
ATOM      4  C   UNL     1      -3.303  19.241  28.103  1.00  0.00     0.000 C 
BRANCH   4   5
ATOM      5  C   UNL     1      -3.300  19.767  26.656  1.00  0.00     0.006 C 
BRANCH   5   6
ATOM      6  C   UNL     1      -2.777  21.205  26.546  1.00  0.00     0.053 C 
BRANCH   6   7
ATOM      7  C   UNL     1      -1.398  21.215  25.966  1.00  0.00     0.041 C 
ATOM      8  O   UNL     1      -0.601  20.272  26.209  1.00  0.00    -0.550 OA
ATOM      9  O   UNL     1      -0.978  22.291  25.194  1.00  0.00    -0.550 OA
ENDBRANCH   6   7
ENDBRANCH   5   6
ENDBRANCH   4   5
ENDBRANCH   3   4
ENDBRANCH   2   3
ENDBRANCH   1   2
BRANCH   1  10
ATOM     10  C   UNL     1      -0.594  20.353  31.237  1.00  0.00     0.027 C 
BRANCH  10  11
ATOM     11  C   UNL     1      -0.529  21.777  31.729  1.00  0.00    -0.031 C 
ATOM     12  C   UNL     1      -0.218  22.146  32.985  1.00  0.00    -0.031 C 
BRANCH  12  13
ATOM     13  C   UNL     1       0.170  21.201  34.098  1.00  0.00     0.027 C 
BRANCH  13  14
ATOM     14  C   UNL     1       1.315  21.774  34.944  1.00  0.00     0.004 C 
BRANCH  14  15
ATOM     15  C   UNL     1       2.549  20.855  34.942  1.00  0.00     0.000 C 
BRANCH  15  16
ATOM     16  C   UNL     1       2.431  19.708  33.925  1.00  0.00    -0.000 C 
BRANCH  16  17
ATOM     17  C   UNL     1       3.466  19.810  32.795  1.00  0.00    -0.003 C 
ATOM     18  C   UNL     1       4.545  18.741  32.940  1.00  0.00     0.004 C 
ENDBRANCH  16  17
ENDBRANCH  15  16
ENDBRANCH  14  15
ENDBRANCH  13  14
ENDBRANCH  12  13
ENDBRANCH  10  11
ENDBRANCH   1  10
TORSDOF 13
ENDMDL
MODEL 9
REMARK VINA RESULT:    -4.170      4.281      8.520
REMARK INTER + INTRA:          -7.865
REMARK INTER:                  -7.501
REMARK INTRA:                  -0.364
REMARK UNBOUND:                -0.525
REMARK SMILES CCCCCCC=CCCCCCCCC(=O)[O-]
REMARK SMILES IDX 10 1 11 2 12 3 13 4 14 5 15 6 16 7 17 8 18 9 9 10 8 11 7 12
REMARK SMILES IDX 6 13 5 14 4 15 3 16 2 17 1 18
REMARK H PARENT
REMARK Flexibility Score: inf
ROOT
ATOM      1  C   UNL     1       0.057  20.770  32.079  1.00  0.00     0.004 C 
ENDROOT
BRANCH   1   2
ATOM      2  C   UNL     1      -0.863  20.729  30.847  1.00  0.00     0.000 C 
BRANCH   2   3
ATOM      3  C   UNL     1      -0.578  19.527  29.927  1.00  0.00     0.000 C 
BRANCH   3   4
ATOM      4  C   UNL     1      -1.630  19.281  28.827  1.00  0.00     0.000 C 
BRANCH   4   5
ATOM      5  C   UNL     1      -1.249  19.808  27.432  1.00  0.00     0.006 C 
BRANCH   5   6
ATOM      6  C   UNL     1      -2.346  20.677  26.804  1.00  0.00     0.053 C 
BRANCH   6   7
ATOM      7  C   UNL     1      -3.698  20.202  27.234  1.00  0.00     0.041 C 
ATOM      8  O   UNL     1      -4.442  20.947  27.923  1.00  0.00    -0.550 OA
ATOM      9  O   UNL     1      -4.117  18.918  26.911  1.00  0.00    -0.550 OA
ENDBRANCH   6   7
ENDBRANCH   5   6
ENDBRANCH   4   5
ENDBRANCH   3   4
ENDBRANCH   2   3
ENDBRANCH   1   2
BRANCH   1  10
ATOM     10  C   UNL     1       0.043  22.146  32.761  1.00  0.00     0.027 C 
BRANCH  10  11
ATOM     11  C   UNL     1      -0.177  22.041  34.250  1.00  0.00    -0.031 C 
ATOM     12  C   UNL     1       0.704  21.519  35.124  1.00  0.00    -0.031 C 
BRANCH  12  13
ATOM     13  C   UNL     1       2.077  21.001  34.770  1.00  0.00     0.027 C 
BRANCH  13  14
ATOM     14  C   UNL     1       2.090  19.470  34.675  1.00  0.00     0.004 C 
BRANCH  14  15
ATOM     15  C   UNL     1       3.389  18.941  34.044  1.00  0.00     0.000 C 
BRANCH  15  16
ATOM     16  C   UNL     1       3.792  17.561  34.588  1.00  0.00    -0.000 C 
BRANCH  16  17
ATOM     17  C   UNL     1       5.103  17.044  33.978  1.00  0.00    -0.003 C 
ATOM     18  C   UNL     1       5.482  17.842  32.733  1.00  0.00     0.004 C 
ENDBRANCH  16  17
ENDBRANCH  15  16
ENDBRANCH  14  15
ENDBRANCH  13  14
ENDBRANCH  12  13
ENDBRANCH  10  11
ENDBRANCH   1  10
TORSDOF 13
ENDMDL
