MODEL 1
REMARK VINA RESULT:    -5.874      0.000      0.000
REMARK INTER + INTRA:          -7.184
REMARK INTER:                  -6.905
REMARK INTRA:                  -0.280
REMARK UNBOUND:                -0.280
REMARK SMILES O=c1c(O)c(-c2ccc(O)cc2)oc2cc(O)cc(O)c12
REMARK SMILES IDX 5 1 3 2 2 3 1 4 21 5 19 6 18 7 16 8 15 9 14 10 13 11 6 12
REMARK SMILES IDX 7 13 8 14 9 15 12 16 11 17 10 18 4 20 20 22 17 24
REMARK H PARENT 10 19 4 21 20 23 17 25
REMARK Flexibility Score: inf
ROOT
ATOM      1  C   UNL     1       9.165  19.688  23.929  1.00  0.00     0.180 A 
ATOM      2  C   UNL     1      10.122  20.189  23.030  1.00  0.00     0.208 A 
ATOM      3  C   UNL     1      11.430  20.418  23.488  1.00  0.00     0.238 A 
ATOM      4  O   UNL     1      12.297  20.816  22.665  1.00  0.00    -0.285 OA
ATOM      5  C   UNL     1      11.760  20.159  24.840  1.00  0.00     0.111 A 
ATOM      6  C   UNL     1      13.043  20.393  25.421  1.00  0.00     0.134 A 
ATOM      7  C   UNL     1      13.292  19.977  26.735  1.00  0.00     0.093 A 
ATOM      8  C   UNL     1      12.285  19.396  27.509  1.00  0.00     0.123 A 
ATOM      9  C   UNL     1      11.012  19.218  26.970  1.00  0.00     0.094 A 
ATOM     10  C   UNL     1      10.744  19.589  25.651  1.00  0.00     0.146 A 
ATOM     11  O   UNL     1       9.521  19.393  25.173  1.00  0.00    -0.452 OA
ENDROOT
BRANCH   1  12
ATOM     12  C   UNL     1       7.760  19.445  23.528  1.00  0.00     0.021 A 
ATOM     13  C   UNL     1       7.373  18.243  22.906  1.00  0.00     0.016 A 
ATOM     14  C   UNL     1       6.046  18.045  22.514  1.00  0.00     0.047 A 
ATOM     15  C   UNL     1       5.093  19.050  22.723  1.00  0.00     0.115 A 
ATOM     16  C   UNL     1       6.802  20.455  23.714  1.00  0.00     0.016 A 
ATOM     17  C   UNL     1       5.476  20.255  23.321  1.00  0.00     0.047 A 
BRANCH  15  18
ATOM     18  O   UNL     1       3.767  18.865  22.337  1.00  0.00    -0.508 OA
ATOM     19  H   UNL     1       3.362  19.385  21.567  1.00  0.00     0.293 HD
ENDBRANCH  15  18
ENDBRANCH   1  12
BRANCH   2  20
ATOM     20  O   UNL     1       9.782  20.417  21.694  1.00  0.00    -0.502 OA
ATOM     21  H   UNL     1      10.459  20.359  20.942  1.00  0.00     0.293 HD
ENDBRANCH   2  20
BRANCH   6  22
ATOM     22  O   UNL     1      14.088  21.048  24.765  1.00  0.00    -0.507 OA
ATOM     23  H   UNL     1      14.481  20.762  23.880  1.00  0.00     0.293 HD
ENDBRANCH   6  22
BRANCH   8  24
ATOM     24  O   UNL     1      12.537  19.000  28.821  1.00  0.00    -0.508 OA
ATOM     25  H   UNL     1      12.538  19.665  29.585  1.00  0.00     0.293 HD
ENDBRANCH   8  24
TORSDOF 5
ENDMDL
MODEL 2
REMARK VINA RESULT:    -5.747      2.534      7.474
REMARK INTER + INTRA:          -7.035
REMARK INTER:                  -6.769
REMARK INTRA:                  -0.266
REMARK UNBOUND:                -0.280
REMARK SMILES O=c1c(O)c(-c2ccc(O)cc2)oc2cc(O)cc(O)c12
REMARK SMILES IDX 5 1 3 2 2 3 1 4 21 5 19 6 18 7 16 8 15 9 14 10 13 11 6 12
REMARK SMILES IDX 7 13 8 14 9 15 12 16 11 17 10 18 4 20 20 22 17 24
REMARK H PARENT 10 19 4 21 20 23 17 25
REMARK Flexibility Score: inf
ROOT
ATOM      1  C   UNL     1       6.991  20.140  24.726  1.00  0.00     0.180 A 
ATOM      2  C   UNL     1       6.207  21.260  25.050  1.00  0.00     0.208 A 
ATOM      3  C   UNL     1       5.111  21.584  24.234  1.00  0.00     0.238 A 
ATOM      4  O   UNL     1       4.381  22.557  24.559  1.00  0.00    -0.285 OA
ATOM      5  C   UNL     1       4.822  20.793  23.096  1.00  0.00     0.111 A 
ATOM      6  C   UNL     1       3.761  21.051  22.176  1.00  0.00     0.134 A 
ATOM      7  C   UNL     1       3.488  20.128  21.159  1.00  0.00     0.093 A 
ATOM      8  C   UNL     1       4.279  18.989  20.990  1.00  0.00     0.123 A 
ATOM      9  C   UNL     1       5.354  18.758  21.845  1.00  0.00     0.094 A 
ATOM     10  C   UNL     1       5.628  19.642  22.891  1.00  0.00     0.146 A 
ATOM     11  O   UNL     1       6.656  19.380  23.691  1.00  0.00    -0.452 OA
ENDROOT
BRANCH   1  12
ATOM     12  C   UNL     1       8.175  19.751  25.524  1.00  0.00     0.021 A 
ATOM     13  C   UNL     1       9.479  20.081  25.110  1.00  0.00     0.016 A 
ATOM     14  C   UNL     1      10.584  19.681  25.868  1.00  0.00     0.047 A 
ATOM     15  C   UNL     1      10.402  18.936  27.040  1.00  0.00     0.115 A 
ATOM     16  C   UNL     1       8.004  18.985  26.690  1.00  0.00     0.016 A 
ATOM     17  C   UNL     1       9.110  18.587  27.446  1.00  0.00     0.047 A 
BRANCH  15  18
ATOM     18  O   UNL     1      11.495  18.532  27.803  1.00  0.00    -0.508 OA
ATOM     19  H   UNL     1      11.389  17.894  28.584  1.00  0.00     0.293 HD
ENDBRANCH  15  18
ENDBRANCH   1  12
BRANCH   2  20
ATOM     20  O   UNL     1       6.495  22.015  26.191  1.00  0.00    -0.502 OA
ATOM     21  H   UNL     1       5.889  22.029  27.002  1.00  0.00     0.293 HD
ENDBRANCH   2  20
BRANCH   6  22
ATOM     22  O   UNL     1       2.971  22.204  22.201  1.00  0.00    -0.507 OA
ATOM     23  H   UNL     1       3.264  23.094  22.578  1.00  0.00     0.293 HD
ENDBRANCH   6  22
BRANCH   8  24
ATOM     24  O   UNL     1       4.010  18.084  19.965  1.00  0.00    -0.508 OA
ATOM     25  H   UNL     1       3.880  18.389  19.008  1.00  0.00     0.293 HD
ENDBRANCH   8  24
TORSDOF 5
ENDMDL
MODEL 3
REMARK VINA RESULT:    -5.417      1.323      2.956
REMARK INTER + INTRA:          -6.646
REMARK INTER:                  -6.447
REMARK INTRA:                  -0.199
REMARK UNBOUND:                -0.280
REMARK SMILES O=c1c(O)c(-c2ccc(O)cc2)oc2cc(O)cc(O)c12
REMARK SMILES IDX 5 1 3 2 2 3 1 4 21 5 19 6 18 7 16 8 15 9 14 10 13 11 6 12
REMARK SMILES IDX 7 13 8 14 9 15 12 16 11 17 10 18 4 20 20 22 17 24
REMARK H PARENT 10 19 4 21 20 23 17 25
REMARK Flexibility Score: inf
ROOT
ATOM      1  C   UNL     1       8.773  19.563  24.036  1.00  0.00     0.180 A 
ATOM      2  C   UNL     1       9.035  19.632  25.415  1.00  0.00     0.208 A 
ATOM      3  C   UNL     1      10.360  19.800  25.848  1.00  0.00     0.238 A 
ATOM      4  O   UNL     1      10.583  19.914  27.083  1.00  0.00    -0.285 OA
ATOM      5  C   UNL     1      11.407  19.884  24.899  1.00  0.00     0.111 A 
ATOM      6  C   UNL     1      12.791  20.015  25.227  1.00  0.00     0.134 A 
ATOM      7  C   UNL     1      13.726  20.219  24.204  1.00  0.00     0.093 A 
ATOM      8  C   UNL     1      13.336  20.231  22.863  1.00  0.00     0.123 A 
ATOM      9  C   UNL     1      11.996  20.044  22.530  1.00  0.00     0.094 A 
ATOM     10  C   UNL     1      11.035  19.875  23.529  1.00  0.00     0.146 A 
ATOM     11  O   UNL     1       9.768  19.711  23.169  1.00  0.00    -0.452 OA
ENDROOT
BRANCH   1  12
ATOM     12  C   UNL     1       7.406  19.362  23.504  1.00  0.00     0.021 A 
ATOM     13  C   UNL     1       7.026  18.150  22.898  1.00  0.00     0.016 A 
ATOM     14  C   UNL     1       5.737  17.991  22.381  1.00  0.00     0.047 A 
ATOM     15  C   UNL     1       4.817  19.045  22.449  1.00  0.00     0.115 A 
ATOM     16  C   UNL     1       6.483  20.420  23.549  1.00  0.00     0.016 A 
ATOM     17  C   UNL     1       5.195  20.260  23.031  1.00  0.00     0.047 A 
BRANCH  15  18
ATOM     18  O   UNL     1       3.529  18.899  21.938  1.00  0.00    -0.508 OA
ATOM     19  H   UNL     1       2.858  19.659  21.968  1.00  0.00     0.293 HD
ENDBRANCH  15  18
ENDBRANCH   1  12
BRANCH   2  20
ATOM     20  O   UNL     1       7.985  19.570  26.335  1.00  0.00    -0.502 OA
ATOM     21  H   UNL     1       8.110  19.233  27.282  1.00  0.00     0.293 HD
ENDBRANCH   2  20
BRANCH   6  22
ATOM     22  O   UNL     1      13.296  19.925  26.526  1.00  0.00    -0.507 OA
ATOM     23  H   UNL     1      14.090  19.362  26.798  1.00  0.00     0.293 HD
ENDBRANCH   6  22
BRANCH   8  24
ATOM     24  O   UNL     1      14.275  20.419  21.852  1.00  0.00    -0.508 OA
ATOM     25  H   UNL     1      14.827  19.650  21.490  1.00  0.00     0.293 HD
ENDBRANCH   8  24
TORSDOF 5
ENDMDL
MODEL 4
REMARK VINA RESULT:    -5.376      1.955      7.073
REMARK INTER + INTRA:          -6.598
REMARK INTER:                  -6.310
REMARK INTRA:                  -0.289
REMARK UNBOUND:                -0.280
REMARK SMILES O=c1c(O)c(-c2ccc(O)cc2)oc2cc(O)cc(O)c12
REMARK SMILES IDX 5 1 3 2 2 3 1 4 21 5 19 6 18 7 16 8 15 9 14 10 13 11 6 12
REMARK SMILES IDX 7 13 8 14 9 15 12 16 11 17 10 18 4 20 20 22 17 24
REMARK H PARENT 10 19 4 21 20 23 17 25
REMARK Flexibility Score: inf
ROOT
ATOM      1  C   UNL     1       8.677  20.307  25.551  1.00  0.00     0.180 A 
ATOM      2  C   UNL     1       7.857  21.352  26.012  1.00  0.00     0.208 A 
ATOM      3  C   UNL     1       6.605  21.551  25.408  1.00  0.00     0.238 A 
ATOM      4  O   UNL     1       5.853  22.454  25.860  1.00  0.00    -0.285 OA
ATOM      5  C   UNL     1       6.195  20.714  24.343  1.00  0.00     0.111 A 
ATOM      6  C   UNL     1       4.965  20.850  23.632  1.00  0.00     0.134 A 
ATOM      7  C   UNL     1       4.605  19.885  22.682  1.00  0.00     0.093 A 
ATOM      8  C   UNL     1       5.461  18.826  22.373  1.00  0.00     0.123 A 
ATOM      9  C   UNL     1       6.691  18.718  23.019  1.00  0.00     0.094 A 
ATOM     10  C   UNL     1       7.061  19.644  23.996  1.00  0.00     0.146 A 
ATOM     11  O   UNL     1       8.237  19.498  24.595  1.00  0.00    -0.452 OA
ENDROOT
BRANCH   1  12
ATOM     12  C   UNL     1      10.019  20.051  26.121  1.00  0.00     0.021 A 
ATOM     13  C   UNL     1      10.199  19.181  27.212  1.00  0.00     0.016 A 
ATOM     14  C   UNL     1      11.473  18.973  27.749  1.00  0.00     0.047 A 
ATOM     15  C   UNL     1      12.581  19.642  27.212  1.00  0.00     0.115 A 
ATOM     16  C   UNL     1      11.133  20.733  25.603  1.00  0.00     0.016 A 
ATOM     17  C   UNL     1      12.406  20.524  26.141  1.00  0.00     0.047 A 
BRANCH  15  18
ATOM     18  O   UNL     1      13.856  19.443  27.737  1.00  0.00    -0.508 OA
ATOM     19  H   UNL     1      13.993  19.013  28.645  1.00  0.00     0.293 HD
ENDBRANCH  15  18
ENDBRANCH   1  12
BRANCH   2  20
ATOM     20  O   UNL     1       8.271  22.153  27.080  1.00  0.00    -0.502 OA
ATOM     21  H   UNL     1       7.873  23.066  27.261  1.00  0.00     0.293 HD
ENDBRANCH   2  20
BRANCH   6  22
ATOM     22  O   UNL     1       4.082  21.921  23.799  1.00  0.00    -0.507 OA
ATOM     23  H   UNL     1       4.349  22.844  24.107  1.00  0.00     0.293 HD
ENDBRANCH   6  22
BRANCH   8  24
ATOM     24  O   UNL     1       5.102  17.879  21.416  1.00  0.00    -0.508 OA
ATOM     25  H   UNL     1       4.650  17.010  21.673  1.00  0.00     0.293 HD
ENDBRANCH   8  24
TORSDOF 5
ENDMDL
MODEL 5
REMARK VINA RESULT:    -5.231      1.612      6.659
REMARK INTER + INTRA:          -6.428
REMARK INTER:                  -6.230
REMARK INTRA:                  -0.199
REMARK UNBOUND:                -0.280
REMARK SMILES O=c1c(O)c(-c2ccc(O)cc2)oc2cc(O)cc(O)c12
REMARK SMILES IDX 5 1 3 2 2 3 1 4 21 5 19 6 18 7 16 8 15 9 14 10 13 11 6 12
REMARK SMILES IDX 7 13 8 14 9 15 12 16 11 17 10 18 4 20 20 22 17 24
REMARK H PARENT 10 19 4 21 20 23 17 25
REMARK Flexibility Score: inf
ROOT
ATOM      1  C   UNL     1       9.780  19.939  24.791  1.00  0.00     0.180 A 
ATOM      2  C   UNL     1       9.729  19.241  23.573  1.00  0.00     0.208 A 
ATOM      3  C   UNL     1       8.522  19.213  22.855  1.00  0.00     0.238 A 
ATOM      4  O   UNL     1       8.496  18.631  21.739  1.00  0.00    -0.285 OA
ATOM      5  C   UNL     1       7.380  19.871  23.371  1.00  0.00     0.111 A 
ATOM      6  C   UNL     1       6.095  19.874  22.748  1.00  0.00     0.134 A 
ATOM      7  C   UNL     1       5.071  20.666  23.281  1.00  0.00     0.093 A 
ATOM      8  C   UNL     1       5.266  21.403  24.451  1.00  0.00     0.123 A 
ATOM      9  C   UNL     1       6.498  21.359  25.100  1.00  0.00     0.094 A 
ATOM     10  C   UNL     1       7.550  20.607  24.572  1.00  0.00     0.146 A 
ATOM     11  O   UNL     1       8.711  20.601  25.216  1.00  0.00    -0.452 OA
ENDROOT
BRANCH   1  12
ATOM     12  C   UNL     1      11.009  19.993  25.616  1.00  0.00     0.021 A 
ATOM     13  C   UNL     1      12.127  20.749  25.218  1.00  0.00     0.016 A 
ATOM     14  C   UNL     1      13.285  20.764  26.002  1.00  0.00     0.047 A 
ATOM     15  C   UNL     1      13.346  20.015  27.183  1.00  0.00     0.115 A 
ATOM     16  C   UNL     1      11.087  19.227  26.792  1.00  0.00     0.016 A 
ATOM     17  C   UNL     1      12.246  19.244  27.573  1.00  0.00     0.047 A 
BRANCH  15  18
ATOM     18  O   UNL     1      14.494  20.023  27.972  1.00  0.00    -0.508 OA
ATOM     19  H   UNL     1      15.397  20.284  27.591  1.00  0.00     0.293 HD
ENDBRANCH  15  18
ENDBRANCH   1  12
BRANCH   2  20
ATOM     20  O   UNL     1      10.874  18.617  23.070  1.00  0.00    -0.502 OA
ATOM     21  H   UNL     1      11.243  17.758  23.462  1.00  0.00     0.293 HD
ENDBRANCH   2  20
BRANCH   6  22
ATOM     22  O   UNL     1       5.769  19.102  21.629  1.00  0.00    -0.507 OA
ATOM     23  H   UNL     1       4.915  18.575  21.523  1.00  0.00     0.293 HD
ENDBRANCH   6  22
BRANCH   8  24
ATOM     24  O   UNL     1       4.237  22.176  24.984  1.00  0.00    -0.508 OA
ATOM     25  H   UNL     1       4.414  23.087  25.392  1.00  0.00     0.293 HD
ENDBRANCH   8  24
TORSDOF 5
ENDMDL
MODEL 6
REMARK VINA RESULT:    -5.201      2.036      2.610
REMARK INTER + INTRA:          -6.392
REMARK INTER:                  -6.169
REMARK INTRA:                  -0.224
REMARK UNBOUND:                -0.280
REMARK SMILES O=c1c(O)c(-c2ccc(O)cc2)oc2cc(O)cc(O)c12
REMARK SMILES IDX 5 1 3 2 2 3 1 4 21 5 19 6 18 7 16 8 15 9 14 10 13 11 6 12
REMARK SMILES IDX 7 13 8 14 9 15 12 16 11 17 10 18 4 20 20 22 17 24
REMARK H PARENT 10 19 4 21 20 23 17 25
REMARK Flexibility Score: inf
ROOT
ATOM      1  C   UNL     1       7.160  20.073  23.349  1.00  0.00     0.180 A 
ATOM      2  C   UNL     1       8.269  19.467  22.735  1.00  0.00     0.208 A 
ATOM      3  C   UNL     1       9.488  19.417  23.430  1.00  0.00     0.238 A 
ATOM      4  O   UNL     1      10.464  18.826  22.897  1.00  0.00    -0.285 OA
ATOM      5  C   UNL     1       9.586  19.986  24.723  1.00  0.00     0.111 A 
ATOM      6  C   UNL     1      10.782  20.028  25.502  1.00  0.00     0.134 A 
ATOM      7  C   UNL     1      10.732  20.499  26.820  1.00  0.00     0.093 A 
ATOM      8  C   UNL     1       9.542  20.990  27.363  1.00  0.00     0.123 A 
ATOM      9  C   UNL     1       8.383  21.009  26.591  1.00  0.00     0.094 A 
ATOM     10  C   UNL     1       8.394  20.512  25.286  1.00  0.00     0.146 A 
ATOM     11  O   UNL     1       7.265  20.539  24.587  1.00  0.00    -0.452 OA
ENDROOT
BRANCH   1  12
ATOM     12  C   UNL     1       5.849  20.186  22.669  1.00  0.00     0.021 A 
ATOM     13  C   UNL     1       5.007  19.069  22.510  1.00  0.00     0.016 A 
ATOM     14  C   UNL     1       3.784  19.195  21.843  1.00  0.00     0.047 A 
ATOM     15  C   UNL     1       3.394  20.432  21.315  1.00  0.00     0.115 A 
ATOM     16  C   UNL     1       5.459  21.417  22.117  1.00  0.00     0.016 A 
ATOM     17  C   UNL     1       4.236  21.541  21.451  1.00  0.00     0.047 A 
BRANCH  15  18
ATOM     18  O   UNL     1       2.178  20.570  20.649  1.00  0.00    -0.508 OA
ATOM     19  H   UNL     1       1.629  19.762  20.377  1.00  0.00     0.293 HD
ENDBRANCH  15  18
ENDBRANCH   1  12
BRANCH   2  20
ATOM     20  O   UNL     1       8.145  18.891  21.467  1.00  0.00    -0.502 OA
ATOM     21  H   UNL     1       8.137  17.889  21.323  1.00  0.00     0.293 HD
ENDBRANCH   2  20
BRANCH   6  22
ATOM     22  O   UNL     1      12.038  19.648  25.022  1.00  0.00    -0.507 OA
ATOM     23  H   UNL     1      12.727  19.136  25.555  1.00  0.00     0.293 HD
ENDBRANCH   6  22
BRANCH   8  24
ATOM     24  O   UNL     1       9.505  21.471  28.670  1.00  0.00    -0.508 OA
ATOM     25  H   UNL     1       9.080  20.938  29.420  1.00  0.00     0.293 HD
ENDBRANCH   8  24
TORSDOF 5
ENDMDL
MODEL 7
REMARK VINA RESULT:    -5.189      2.527      7.414
REMARK INTER + INTRA:          -6.378
REMARK INTER:                  -6.096
REMARK INTRA:                  -0.283
REMARK UNBOUND:                -0.280
REMARK SMILES O=c1c(O)c(-c2ccc(O)cc2)oc2cc(O)cc(O)c12
REMARK SMILES IDX 5 1 3 2 2 3 1 4 21 5 19 6 18 7 16 8 15 9 14 10 13 11 6 12
REMARK SMILES IDX 7 13 8 14 9 15 12 16 11 17 10 18 4 20 20 22 17 24
REMARK H PARENT 10 19 4 21 20 23 17 25
REMARK Flexibility Score: inf
ROOT
ATOM      1  C   UNL     1       6.904  19.945  23.904  1.00  0.00     0.180 A 
ATOM      2  C   UNL     1       6.407  19.000  22.990  1.00  0.00     0.208 A 
ATOM      3  C   UNL     1       5.353  19.367  22.138  1.00  0.00     0.238 A 
ATOM      4  O   UNL     1       4.947  18.534  21.285  1.00  0.00    -0.285 OA
ATOM      5  C   UNL     1       4.801  20.668  22.220  1.00  0.00     0.111 A 
ATOM      6  C   UNL     1       3.704  21.134  21.433  1.00  0.00     0.134 A 
ATOM      7  C   UNL     1       3.326  22.481  21.505  1.00  0.00     0.093 A 
ATOM      8  C   UNL     1       3.961  23.360  22.385  1.00  0.00     0.123 A 
ATOM      9  C   UNL     1       4.992  22.900  23.201  1.00  0.00     0.094 A 
ATOM     10  C   UNL     1       5.417  21.572  23.124  1.00  0.00     0.146 A 
ATOM     11  O   UNL     1       6.410  21.177  23.912  1.00  0.00    -0.452 OA
ENDROOT
BRANCH   1  12
ATOM     12  C   UNL     1       7.996  19.625  24.851  1.00  0.00     0.021 A 
ATOM     13  C   UNL     1       7.727  19.226  26.173  1.00  0.00     0.016 A 
ATOM     14  C   UNL     1       8.775  18.952  27.057  1.00  0.00     0.047 A 
ATOM     15  C   UNL     1      10.104  19.087  26.637  1.00  0.00     0.115 A 
ATOM     16  C   UNL     1       9.333  19.778  24.444  1.00  0.00     0.016 A 
ATOM     17  C   UNL     1      10.379  19.504  25.330  1.00  0.00     0.047 A 
BRANCH  15  18
ATOM     18  O   UNL     1      11.157  18.817  27.507  1.00  0.00    -0.508 OA
ATOM     19  H   UNL     1      11.013  18.300  28.367  1.00  0.00     0.293 HD
ENDBRANCH  15  18
ENDBRANCH   1  12
BRANCH   2  20
ATOM     20  O   UNL     1       6.982  17.728  22.910  1.00  0.00    -0.502 OA
ATOM     21  H   UNL     1       6.629  16.938  23.436  1.00  0.00     0.293 HD
ENDBRANCH   2  20
BRANCH   6  22
ATOM     22  O   UNL     1       2.944  20.317  20.592  1.00  0.00    -0.507 OA
ATOM     23  H   UNL     1       2.993  20.324  19.584  1.00  0.00     0.293 HD
ENDBRANCH   6  22
BRANCH   8  24
ATOM     24  O   UNL     1       3.567  24.695  22.462  1.00  0.00    -0.508 OA
ATOM     25  H   UNL     1       3.759  25.258  23.283  1.00  0.00     0.293 HD
ENDBRANCH   8  24
TORSDOF 5
ENDMDL
MODEL 8
REMARK VINA RESULT:    -5.172      1.478      3.384
REMARK INTER + INTRA:          -6.359
REMARK INTER:                  -6.530
REMARK INTRA:                   0.171
REMARK UNBOUND:                -0.280
REMARK SMILES O=c1c(O)c(-c2ccc(O)cc2)oc2cc(O)cc(O)c12
REMARK SMILES IDX 5 1 3 2 2 3 1 4 21 5 19 6 18 7 16 8 15 9 14 10 13 11 6 12
REMARK SMILES IDX 7 13 8 14 9 15 12 16 11 17 10 18 4 20 20 22 17 24
REMARK H PARENT 10 19 4 21 20 23 17 25
REMARK Flexibility Score: inf
ROOT
ATOM      1  C   UNL     1      10.401  19.657  24.817  1.00  0.00     0.180 A 
ATOM      2  C   UNL     1      10.467  19.343  26.185  1.00  0.00     0.208 A 
ATOM      3  C   UNL     1      11.663  19.583  26.881  1.00  0.00     0.238 A 
ATOM      4  O   UNL     1      11.701  19.351  28.118  1.00  0.00    -0.285 OA
ATOM      5  C   UNL     1      12.781  20.120  26.197  1.00  0.00     0.111 A 
ATOM      6  C   UNL     1      14.055  20.367  26.793  1.00  0.00     0.134 A 
ATOM      7  C   UNL     1      15.048  21.021  26.054  1.00  0.00     0.093 A 
ATOM      8  C   UNL     1      14.836  21.377  24.721  1.00  0.00     0.123 A 
ATOM      9  C   UNL     1      13.617  21.087  24.111  1.00  0.00     0.094 A 
ATOM     10  C   UNL     1      12.594  20.469  24.834  1.00  0.00     0.146 A 
ATOM     11  O   UNL     1      11.444  20.219  24.219  1.00  0.00    -0.452 OA
ENDROOT
BRANCH   1  12
ATOM     12  C   UNL     1       9.184  19.409  24.011  1.00  0.00     0.021 A 
ATOM     13  C   UNL     1       7.900  19.675  24.521  1.00  0.00     0.016 A 
ATOM     14  C   UNL     1       6.763  19.409  23.751  1.00  0.00     0.047 A 
ATOM     15  C   UNL     1       6.894  18.862  22.468  1.00  0.00     0.115 A 
ATOM     16  C   UNL     1       9.304  18.840  22.732  1.00  0.00     0.016 A 
ATOM     17  C   UNL     1       8.167  18.575  21.963  1.00  0.00     0.047 A 
BRANCH  15  18
ATOM     18  O   UNL     1       5.770  18.594  21.691  1.00  0.00    -0.508 OA
ATOM     19  H   UNL     1       5.833  18.044  20.842  1.00  0.00     0.293 HD
ENDBRANCH  15  18
ENDBRANCH   1  12
BRANCH   2  20
ATOM     20  O   UNL     1       9.346  18.835  26.846  1.00  0.00    -0.502 OA
ATOM     21  H   UNL     1       9.166  17.842  26.929  1.00  0.00     0.293 HD
ENDBRANCH   2  20
BRANCH   6  22
ATOM     22  O   UNL     1      14.400  19.968  28.087  1.00  0.00    -0.507 OA
ATOM     23  H   UNL     1      14.856  19.097  28.319  1.00  0.00     0.293 HD
ENDBRANCH   6  22
BRANCH   8  24
ATOM     24  O   UNL     1      15.835  22.014  23.988  1.00  0.00    -0.508 OA
ATOM     25  H   UNL     1      16.704  22.307  24.419  1.00  0.00     0.293 HD
ENDBRANCH   8  24
TORSDOF 5
ENDMDL
MODEL 9
REMARK VINA RESULT:    -5.062      2.087      7.128
REMARK INTER + INTRA:          -6.230
REMARK INTER:                  -5.930
REMARK INTRA:                  -0.300
REMARK UNBOUND:                -0.280
REMARK SMILES O=c1c(O)c(-c2ccc(O)cc2)oc2cc(O)cc(O)c12
REMARK SMILES IDX 5 1 3 2 2 3 1 4 21 5 19 6 18 7 16 8 15 9 14 10 13 11 6 12
REMARK SMILES IDX 7 13 8 14 9 15 12 16 11 17 10 18 4 20 20 22 17 24
REMARK H PARENT 10 19 4 21 20 23 17 25
REMARK Flexibility Score: inf
ROOT
ATOM      1  C   UNL     1       7.974  19.885  23.144  1.00  0.00     0.180 A 
ATOM      2  C   UNL     1       7.313  18.775  22.591  1.00  0.00     0.208 A 
ATOM      3  C   UNL     1       5.911  18.787  22.514  1.00  0.00     0.238 A 
ATOM      4  O   UNL     1       5.327  17.813  21.969  1.00  0.00    -0.285 OA
ATOM      5  C   UNL     1       5.188  19.900  23.004  1.00  0.00     0.111 A 
ATOM      6  C   UNL     1       3.763  20.002  23.013  1.00  0.00     0.134 A 
ATOM      7  C   UNL     1       3.159  21.204  23.402  1.00  0.00     0.093 A 
ATOM      8  C   UNL     1       3.926  22.285  23.844  1.00  0.00     0.123 A 
ATOM      9  C   UNL     1       5.314  22.175  23.896  1.00  0.00     0.094 A 
ATOM     10  C   UNL     1       5.947  21.002  23.480  1.00  0.00     0.146 A 
ATOM     11  O   UNL     1       7.272  20.942  23.535  1.00  0.00    -0.452 OA
ENDROOT
BRANCH   1  12
ATOM     12  C   UNL     1       9.447  19.936  23.282  1.00  0.00     0.021 A 
ATOM     13  C   UNL     1      10.095  19.429  24.424  1.00  0.00     0.016 A 
ATOM     14  C   UNL     1      11.486  19.511  24.543  1.00  0.00     0.047 A 
ATOM     15  C   UNL     1      12.245  20.110  23.530  1.00  0.00     0.115 A 
ATOM     16  C   UNL     1      10.215  20.555  22.281  1.00  0.00     0.016 A 
ATOM     17  C   UNL     1      11.606  20.635  22.402  1.00  0.00     0.047 A 
BRANCH  15  18
ATOM     18  O   UNL     1      13.632  20.196  23.636  1.00  0.00    -0.508 OA
ATOM     19  H   UNL     1      14.111  21.088  23.596  1.00  0.00     0.293 HD
ENDBRANCH  15  18
ENDBRANCH   1  12
BRANCH   2  20
ATOM     20  O   UNL     1       8.048  17.695  22.092  1.00  0.00    -0.502 OA
ATOM     21  H   UNL     1       7.735  16.736  22.185  1.00  0.00     0.293 HD
ENDBRANCH   2  20
BRANCH   6  22
ATOM     22  O   UNL     1       2.905  18.952  22.679  1.00  0.00    -0.507 OA
ATOM     23  H   UNL     1       1.967  19.066  22.323  1.00  0.00     0.293 HD
ENDBRANCH   6  22
BRANCH   8  24
ATOM     24  O   UNL     1       3.316  23.472  24.244  1.00  0.00    -0.508 OA
ATOM     25  H   UNL     1       3.859  24.294  24.482  1.00  0.00     0.293 HD
ENDBRANCH   8  24
TORSDOF 5
ENDMDL
