MODEL 1
REMARK VINA RESULT:    -3.509      0.000      0.000
REMARK INTER + INTRA:          -6.155
REMARK INTER:                  -5.355
REMARK INTRA:                  -0.800
REMARK UNBOUND:                -0.800
REMARK SMILES CCCCCCCCCCC(=O)[O-]
REMARK SMILES IDX 7 1 8 2 9 3 10 4 11 5 12 6 13 7 6 8 5 9 4 10 3 11 2 12 1 13
REMARK H PARENT
REMARK Flexibility Score: inf
ROOT
ATOM      1  C   UNL     1      12.013 -10.235  16.567  1.00  0.00     0.000 C 
ENDROOT
BRANCH   1   2
ATOM      2  C   UNL     1      12.036 -10.984  15.223  1.00  0.00     0.000 C 
BRANCH   2   3
ATOM      3  C   UNL     1      10.810 -10.693  14.332  1.00  0.00     0.006 C 
BRANCH   3   4
ATOM      4  C   UNL     1      11.210 -10.199  12.936  1.00  0.00     0.053 C 
BRANCH   4   5
ATOM      5  C   UNL     1       9.994  -9.910  12.115  1.00  0.00     0.041 C 
ATOM      6  O   UNL     1       8.910 -10.504  12.356  1.00  0.00    -0.550 OA
ATOM      7  O   UNL     1      10.042  -8.946  11.115  1.00  0.00    -0.550 OA
ENDBRANCH   4   5
ENDBRANCH   3   4
ENDBRANCH   2   3
ENDBRANCH   1   2
BRANCH   1   8
ATOM      8  C   UNL     1      13.353 -10.316  17.316  1.00  0.00     0.000 C 
BRANCH   8   9
ATOM      9  C   UNL     1      13.246 -11.084  18.644  1.00  0.00    -0.000 C 
BRANCH   9  10
ATOM     10  C   UNL     1      13.796 -12.517  18.543  1.00  0.00    -0.000 C 
BRANCH  10  11
ATOM     11  C   UNL     1      12.780 -13.509  17.949  1.00  0.00    -0.000 C 
BRANCH  11  12
ATOM     12  C   UNL     1      13.268 -14.270  16.702  1.00  0.00    -0.003 C 
ATOM     13  C   UNL     1      14.547 -13.684  16.105  1.00  0.00     0.004 C 
ENDBRANCH  11  12
ENDBRANCH  10  11
ENDBRANCH   9  10
ENDBRANCH   8   9
ENDBRANCH   1   8
TORSDOF 9
ENDMDL
MODEL 2
REMARK VINA RESULT:    -3.318      5.293      7.211
REMARK INTER + INTRA:          -5.864
REMARK INTER:                  -4.894
REMARK INTRA:                  -0.970
REMARK UNBOUND:                -0.800
REMARK SMILES CCCCCCCCCCC(=O)[O-]
REMARK SMILES IDX 7 1 8 2 9 3 10 4 11 5 12 6 13 7 6 8 5 9 4 10 3 11 2 12 1 13
REMARK H PARENT
REMARK Flexibility Score: inf
ROOT
ATOM      1  C   UNL     1      10.526 -12.460  19.136  1.00  0.00     0.000 C 
ENDROOT
BRANCH   1   2
ATOM      2  C   UNL     1      11.696 -13.452  19.259  1.00  0.00     0.000 C 
BRANCH   2   3
ATOM      3  C   UNL     1      11.378 -14.675  20.145  1.00  0.00     0.006 C 
BRANCH   3   4
ATOM      4  C   UNL     1      10.284 -14.376  21.178  1.00  0.00     0.053 C 
BRANCH   4   5
ATOM      5  C   UNL     1      10.891 -14.005  22.493  1.00  0.00     0.041 C 
ATOM      6  O   UNL     1      11.945 -14.570  22.887  1.00  0.00    -0.550 OA
ATOM      7  O   UNL     1      10.322 -12.998  23.262  1.00  0.00    -0.550 OA
ENDBRANCH   4   5
ENDBRANCH   3   4
ENDBRANCH   2   3
ENDBRANCH   1   2
BRANCH   1   8
ATOM      8  C   UNL     1      10.567 -11.649  17.830  1.00  0.00     0.000 C 
BRANCH   8   9
ATOM      9  C   UNL     1      11.514 -12.258  16.783  1.00  0.00    -0.000 C 
BRANCH   9  10
ATOM     10  C   UNL     1      12.464 -11.215  16.169  1.00  0.00    -0.000 C 
BRANCH  10  11
ATOM     11  C   UNL     1      12.905 -10.139  17.177  1.00  0.00    -0.000 C 
BRANCH  11  12
ATOM     12  C   UNL     1      14.185 -10.472  17.965  1.00  0.00    -0.003 C 
ATOM     13  C   UNL     1      13.969 -10.488  19.478  1.00  0.00     0.004 C 
ENDBRANCH  11  12
ENDBRANCH  10  11
ENDBRANCH   9  10
ENDBRANCH   8   9
ENDBRANCH   1   8
TORSDOF 9
ENDMDL
MODEL 3
REMARK VINA RESULT:    -3.273      3.563      6.439
REMARK INTER + INTRA:          -5.794
REMARK INTER:                  -5.477
REMARK INTRA:                  -0.317
REMARK UNBOUND:                -0.800
REMARK SMILES CCCCCCCCCCC(=O)[O-]
REMARK SMILES IDX 7 1 8 2 9 3 10 4 11 5 12 6 13 7 6 8 5 9 4 10 3 11 2 12 1 13
REMARK H PARENT
REMARK Flexibility Score: inf
ROOT
ATOM      1  C   UNL     1      12.465 -11.311  16.084  1.00  0.00     0.000 C 
ENDROOT
BRANCH   1   2
ATOM      2  C   UNL     1      13.010 -10.265  17.072  1.00  0.00     0.000 C 
BRANCH   2   3
ATOM      3  C   UNL     1      13.944 -10.859  18.147  1.00  0.00     0.006 C 
BRANCH   3   4
ATOM      4  C   UNL     1      13.220 -11.853  19.063  1.00  0.00     0.053 C 
BRANCH   4   5
ATOM      5  C   UNL     1      13.375 -13.249  18.550  1.00  0.00     0.041 C 
ATOM      6  O   UNL     1      12.375 -14.010  18.470  1.00  0.00    -0.550 OA
ATOM      7  O   UNL     1      14.615 -13.695  18.111  1.00  0.00    -0.550 OA
ENDBRANCH   4   5
ENDBRANCH   3   4
ENDBRANCH   2   3
ENDBRANCH   1   2
BRANCH   1   8
ATOM      8  C   UNL     1      10.932 -11.278  15.968  1.00  0.00     0.000 C 
BRANCH   8   9
ATOM      9  C   UNL     1      10.450 -11.045  14.527  1.00  0.00    -0.000 C 
BRANCH   9  10
ATOM     10  C   UNL     1      11.459 -10.238  13.691  1.00  0.00    -0.000 C 
BRANCH  10  11
ATOM     11  C   UNL     1      11.101 -10.198  12.195  1.00  0.00    -0.000 C 
BRANCH  11  12
ATOM     12  C   UNL     1       9.989  -9.202  11.819  1.00  0.00    -0.003 C 
ATOM     13  C   UNL     1       8.694  -9.886  11.381  1.00  0.00     0.004 C 
ENDBRANCH  11  12
ENDBRANCH  10  11
ENDBRANCH   9  10
ENDBRANCH   8   9
ENDBRANCH   1   8
TORSDOF 9
ENDMDL
MODEL 4
REMARK VINA RESULT:    -3.189      3.609      5.569
REMARK INTER + INTRA:          -5.666
REMARK INTER:                  -4.280
REMARK INTRA:                  -1.386
REMARK UNBOUND:                -0.800
REMARK SMILES CCCCCCCCCCC(=O)[O-]
REMARK SMILES IDX 7 1 8 2 9 3 10 4 11 5 12 6 13 7 6 8 5 9 4 10 3 11 2 12 1 13
REMARK H PARENT
REMARK Flexibility Score: inf
ROOT
ATOM      1  C   UNL     1      10.395 -12.495  19.372  1.00  0.00     0.000 C 
ENDROOT
BRANCH   1   2
ATOM      2  C   UNL     1      11.649 -12.279  20.237  1.00  0.00     0.000 C 
BRANCH   2   3
ATOM      3  C   UNL     1      12.855 -13.137  19.803  1.00  0.00     0.006 C 
BRANCH   3   4
ATOM      4  C   UNL     1      12.446 -14.286  18.872  1.00  0.00     0.053 C 
BRANCH   4   5
ATOM      5  C   UNL     1      13.048 -14.101  17.516  1.00  0.00     0.041 C 
ATOM      6  O   UNL     1      12.319 -13.797  16.535  1.00  0.00    -0.550 OA
ATOM      7  O   UNL     1      14.422 -14.214  17.343  1.00  0.00    -0.550 OA
ENDBRANCH   4   5
ENDBRANCH   3   4
ENDBRANCH   2   3
ENDBRANCH   1   2
BRANCH   1   8
ATOM      8  C   UNL     1      10.115 -11.316  18.425  1.00  0.00     0.000 C 
BRANCH   8   9
ATOM      9  C   UNL     1      10.554  -9.965  19.012  1.00  0.00    -0.000 C 
BRANCH   9  10
ATOM     10  C   UNL     1      11.547  -9.221  18.102  1.00  0.00    -0.000 C 
BRANCH  10  11
ATOM     11  C   UNL     1      12.168 -10.128  17.026  1.00  0.00    -0.000 C 
BRANCH  11  12
ATOM     12  C   UNL     1      13.648 -10.487  17.252  1.00  0.00    -0.003 C 
ATOM     13  C   UNL     1      14.216  -9.897  18.543  1.00  0.00     0.004 C 
ENDBRANCH  11  12
ENDBRANCH  10  11
ENDBRANCH   9  10
ENDBRANCH   8   9
ENDBRANCH   1   8
TORSDOF 9
ENDMDL
MODEL 5
REMARK VINA RESULT:    -3.173      4.352      5.330
REMARK INTER + INTRA:          -5.642
REMARK INTER:                  -4.197
REMARK INTRA:                  -1.445
REMARK UNBOUND:                -0.800
REMARK SMILES CCCCCCCCCCC(=O)[O-]
REMARK SMILES IDX 7 1 8 2 9 3 10 4 11 5 12 6 13 7 6 8 5 9 4 10 3 11 2 12 1 13
REMARK H PARENT
REMARK Flexibility Score: inf
ROOT
ATOM      1  C   UNL     1      12.978 -10.230  17.124  1.00  0.00     0.000 C 
ENDROOT
BRANCH   1   2
ATOM      2  C   UNL     1      12.792 -11.432  16.180  1.00  0.00     0.000 C 
BRANCH   2   3
ATOM      3  C   UNL     1      13.729 -12.616  16.495  1.00  0.00     0.006 C 
BRANCH   3   4
ATOM      4  C   UNL     1      12.958 -13.915  16.757  1.00  0.00     0.053 C 
BRANCH   4   5
ATOM      5  C   UNL     1      13.585 -14.681  17.879  1.00  0.00     0.041 C 
ATOM      6  O   UNL     1      13.229 -15.866  18.115  1.00  0.00    -0.550 OA
ATOM      7  O   UNL     1      14.600 -14.105  18.632  1.00  0.00    -0.550 OA
ENDBRANCH   4   5
ENDBRANCH   3   4
ENDBRANCH   2   3
ENDBRANCH   1   2
BRANCH   1   8
ATOM      8  C   UNL     1      14.216 -10.366  18.024  1.00  0.00     0.000 C 
BRANCH   8   9
ATOM      9  C   UNL     1      13.858 -10.460  19.516  1.00  0.00    -0.000 C 
BRANCH   9  10
ATOM     10  C   UNL     1      12.358 -10.708  19.749  1.00  0.00    -0.000 C 
BRANCH  10  11
ATOM     11  C   UNL     1      12.048 -12.157  20.166  1.00  0.00    -0.000 C 
BRANCH  11  12
ATOM     12  C   UNL     1      10.783 -12.761  19.529  1.00  0.00    -0.003 C 
ATOM     13  C   UNL     1       9.979 -11.746  18.715  1.00  0.00     0.004 C 
ENDBRANCH  11  12
ENDBRANCH  10  11
ENDBRANCH   9  10
ENDBRANCH   8   9
ENDBRANCH   1   8
TORSDOF 9
ENDMDL
MODEL 6
REMARK VINA RESULT:    -3.161      2.897      3.765
REMARK INTER + INTRA:          -5.624
REMARK INTER:                  -4.192
REMARK INTRA:                  -1.432
REMARK UNBOUND:                -0.800
REMARK SMILES CCCCCCCCCCC(=O)[O-]
REMARK SMILES IDX 7 1 8 2 9 3 10 4 11 5 12 6 13 7 6 8 5 9 4 10 3 11 2 12 1 13
REMARK H PARENT
REMARK Flexibility Score: inf
ROOT
ATOM      1  C   UNL     1      13.681  -9.880  19.464  1.00  0.00     0.000 C 
ENDROOT
BRANCH   1   2
ATOM      2  C   UNL     1      14.352 -10.043  18.088  1.00  0.00     0.000 C 
BRANCH   2   3
ATOM      3  C   UNL     1      13.404 -10.585  16.999  1.00  0.00     0.006 C 
BRANCH   3   4
ATOM      4  C   UNL     1      11.965 -10.083  17.177  1.00  0.00     0.053 C 
BRANCH   4   5
ATOM      5  C   UNL     1      10.989 -11.184  16.908  1.00  0.00     0.041 C 
ATOM      6  O   UNL     1      10.864 -11.651  15.745  1.00  0.00    -0.550 OA
ATOM      7  O   UNL     1      10.253 -11.731  17.952  1.00  0.00    -0.550 OA
ENDBRANCH   4   5
ENDBRANCH   3   4
ENDBRANCH   2   3
ENDBRANCH   1   2
BRANCH   1   8
ATOM      8  C   UNL     1      13.956 -11.064  20.405  1.00  0.00     0.000 C 
BRANCH   8   9
ATOM      9  C   UNL     1      12.727 -11.968  20.596  1.00  0.00    -0.000 C 
BRANCH   9  10
ATOM     10  C   UNL     1      12.845 -13.295  19.825  1.00  0.00    -0.000 C 
BRANCH  10  11
ATOM     11  C   UNL     1      14.281 -13.590  19.357  1.00  0.00    -0.000 C 
BRANCH  11  12
ATOM     12  C   UNL     1      14.406 -14.053  17.894  1.00  0.00    -0.003 C 
ATOM     13  C   UNL     1      13.053 -14.278  17.219  1.00  0.00     0.004 C 
ENDBRANCH  11  12
ENDBRANCH  10  11
ENDBRANCH   9  10
ENDBRANCH   8   9
ENDBRANCH   1   8
TORSDOF 9
ENDMDL
MODEL 7
REMARK VINA RESULT:    -3.159      4.765      6.294
REMARK INTER + INTRA:          -5.621
REMARK INTER:                  -4.339
REMARK INTRA:                  -1.282
REMARK UNBOUND:                -0.800
REMARK SMILES CCCCCCCCCCC(=O)[O-]
REMARK SMILES IDX 7 1 8 2 9 3 10 4 11 5 12 6 13 7 6 8 5 9 4 10 3 11 2 12 1 13
REMARK H PARENT
REMARK Flexibility Score: inf
ROOT
ATOM      1  C   UNL     1      11.683 -12.420  16.961  1.00  0.00     0.000 C 
ENDROOT
BRANCH   1   2
ATOM      2  C   UNL     1      10.540 -11.626  17.618  1.00  0.00     0.000 C 
BRANCH   2   3
ATOM      3  C   UNL     1      10.164 -12.134  19.025  1.00  0.00     0.006 C 
BRANCH   3   4
ATOM      4  C   UNL     1      11.254 -13.027  19.632  1.00  0.00     0.053 C 
BRANCH   4   5
ATOM      5  C   UNL     1      10.670 -13.938  20.664  1.00  0.00     0.041 C 
ATOM      6  O   UNL     1      10.209 -13.468  21.738  1.00  0.00    -0.550 OA
ATOM      7  O   UNL     1      10.588 -15.304  20.420  1.00  0.00    -0.550 OA
ENDBRANCH   4   5
ENDBRANCH   3   4
ENDBRANCH   2   3
ENDBRANCH   1   2
BRANCH   1   8
ATOM      8  C   UNL     1      12.705 -11.516  16.252  1.00  0.00     0.000 C 
BRANCH   8   9
ATOM      9  C   UNL     1      13.057 -10.263  17.070  1.00  0.00    -0.000 C 
BRANCH   9  10
ATOM     10  C   UNL     1      14.234 -10.497  18.033  1.00  0.00    -0.000 C 
BRANCH  10  11
ATOM     11  C   UNL     1      13.916 -10.081  19.480  1.00  0.00    -0.000 C 
BRANCH  11  12
ATOM     12  C   UNL     1      12.641  -9.235  19.648  1.00  0.00    -0.003 C 
ATOM     13  C   UNL     1      11.923  -9.491  20.973  1.00  0.00     0.004 C 
ENDBRANCH  11  12
ENDBRANCH  10  11
ENDBRANCH   9  10
ENDBRANCH   8   9
ENDBRANCH   1   8
TORSDOF 9
ENDMDL
MODEL 8
REMARK VINA RESULT:    -3.144      4.929      6.467
REMARK INTER + INTRA:          -5.599
REMARK INTER:                  -4.453
REMARK INTRA:                  -1.146
REMARK UNBOUND:                -0.800
REMARK SMILES CCCCCCCCCCC(=O)[O-]
REMARK SMILES IDX 7 1 8 2 9 3 10 4 11 5 12 6 13 7 6 8 5 9 4 10 3 11 2 12 1 13
REMARK H PARENT
REMARK Flexibility Score: inf
ROOT
ATOM      1  C   UNL     1      10.064 -11.342  18.611  1.00  0.00     0.000 C 
ENDROOT
BRANCH   1   2
ATOM      2  C   UNL     1      10.485 -12.460  19.581  1.00  0.00     0.000 C 
BRANCH   2   3
ATOM      3  C   UNL     1      11.660 -13.316  19.065  1.00  0.00     0.006 C 
BRANCH   3   4
ATOM      4  C   UNL     1      12.203 -14.267  20.139  1.00  0.00     0.053 C 
BRANCH   4   5
ATOM      5  C   UNL     1      11.631 -15.638  19.963  1.00  0.00     0.041 C 
ATOM      6  O   UNL     1      10.451 -15.884  20.327  1.00  0.00    -0.550 OA
ATOM      7  O   UNL     1      12.383 -16.632  19.350  1.00  0.00    -0.550 OA
ENDBRANCH   4   5
ENDBRANCH   3   4
ENDBRANCH   2   3
ENDBRANCH   1   2
BRANCH   1   8
ATOM      8  C   UNL     1      10.800 -11.414  17.264  1.00  0.00     0.000 C 
BRANCH   8   9
ATOM      9  C   UNL     1      11.779 -10.247  17.058  1.00  0.00    -0.000 C 
BRANCH   9  10
ATOM     10  C   UNL     1      13.228 -10.721  16.852  1.00  0.00    -0.000 C 
BRANCH  10  11
ATOM     11  C   UNL     1      14.193 -10.182  17.923  1.00  0.00    -0.000 C 
BRANCH  11  12
ATOM     12  C   UNL     1      13.532  -9.789  19.256  1.00  0.00    -0.003 C 
ATOM     13  C   UNL     1      13.953 -10.685  20.421  1.00  0.00     0.004 C 
ENDBRANCH  11  12
ENDBRANCH  10  11
ENDBRANCH   9  10
ENDBRANCH   8   9
ENDBRANCH   1   8
TORSDOF 9
ENDMDL
MODEL 9
REMARK VINA RESULT:    -3.120      3.749      5.627
REMARK INTER + INTRA:          -5.561
REMARK INTER:                  -4.250
REMARK INTRA:                  -1.311
REMARK UNBOUND:                -0.800
REMARK SMILES CCCCCCCCCCC(=O)[O-]
REMARK SMILES IDX 7 1 8 2 9 3 10 4 11 5 12 6 13 7 6 8 5 9 4 10 3 11 2 12 1 13
REMARK H PARENT
REMARK Flexibility Score: inf
ROOT
ATOM      1  C   UNL     1      11.958 -13.684  18.882  1.00  0.00     0.000 C 
ENDROOT
BRANCH   1   2
ATOM      2  C   UNL     1      13.364 -13.571  19.497  1.00  0.00     0.000 C 
BRANCH   2   3
ATOM      3  C   UNL     1      14.493 -14.006  18.541  1.00  0.00     0.006 C 
BRANCH   3   4
ATOM      4  C   UNL     1      14.007 -15.005  17.483  1.00  0.00     0.053 C 
BRANCH   4   5
ATOM      5  C   UNL     1      14.466 -14.591  16.121  1.00  0.00     0.041 C 
ATOM      6  O   UNL     1      14.741 -13.385  15.884  1.00  0.00    -0.550 OA
ATOM      7  O   UNL     1      14.640 -15.545  15.126  1.00  0.00    -0.550 OA
ENDBRANCH   4   5
ENDBRANCH   3   4
ENDBRANCH   2   3
ENDBRANCH   1   2
BRANCH   1   8
ATOM      8  C   UNL     1      11.063 -12.479  19.218  1.00  0.00     0.000 C 
BRANCH   8   9
ATOM      9  C   UNL     1      10.495 -11.794  17.964  1.00  0.00    -0.000 C 
BRANCH   9  10
ATOM     10  C   UNL     1      11.528 -11.691  16.829  1.00  0.00    -0.000 C 
BRANCH  10  11
ATOM     11  C   UNL     1      12.296 -10.357  16.835  1.00  0.00    -0.000 C 
BRANCH  11  12
ATOM     12  C   UNL     1      13.715 -10.427  17.427  1.00  0.00    -0.003 C 
ATOM     13  C   UNL     1      13.798  -9.877  18.851  1.00  0.00     0.004 C 
ENDBRANCH  11  12
ENDBRANCH  10  11
ENDBRANCH   9  10
ENDBRANCH   8   9
ENDBRANCH   1   8
TORSDOF 9
ENDMDL
