MODEL 1
REMARK VINA RESULT:    -4.903      0.000      0.000
REMARK INTER + INTRA:          -4.903
REMARK INTER:                  -4.903
REMARK INTRA:                   0.000
REMARK UNBOUND:                 0.000
REMARK SMILES O=c1ccc2ccccc2o1
REMARK SMILES IDX 7 1 8 2 9 3 10 4 5 5 6 6 4 7 3 8 2 9 1 10 11 11
REMARK H PARENT
REMARK Flexibility Score: inf
ROOT
ATOM      1  C   UNL     1      -9.422  -7.903  30.249  1.00  0.00     0.001 A 
ATOM      2  C   UNL     1      -8.381  -8.025  31.177  1.00  0.00     0.004 A 
ATOM      3  C   UNL     1      -7.339  -8.931  30.950  1.00  0.00     0.048 A 
ATOM      4  C   UNL     1      -7.336  -9.719  29.793  1.00  0.00     0.138 A 
ATOM      5  C   UNL     1      -8.387  -9.596  28.857  1.00  0.00     0.018 A 
ATOM      6  C   UNL     1      -9.428  -8.686  29.090  1.00  0.00     0.012 A 
ATOM      7  C   UNL     1      -8.356 -10.396  27.711  1.00  0.00     0.019 A 
ATOM      8  C   UNL     1      -7.298 -11.286  27.525  1.00  0.00     0.094 A 
ATOM      9  C   UNL     1      -6.292 -11.353  28.496  1.00  0.00     0.336 A 
ATOM     10  O   UNL     1      -5.329 -12.150  28.346  1.00  0.00    -0.246 OA
ATOM     11  O   UNL     1      -6.345 -10.581  29.578  1.00  0.00    -0.423 OA
ENDROOT
TORSDOF 0
ENDMDL
MODEL 2
REMARK VINA RESULT:    -4.813      1.508      3.623
REMARK INTER + INTRA:          -4.813
REMARK INTER:                  -4.813
REMARK INTRA:                   0.000
REMARK UNBOUND:                 0.000
REMARK SMILES O=c1ccc2ccccc2o1
REMARK SMILES IDX 7 1 8 2 9 3 10 4 5 5 6 6 4 7 3 8 2 9 1 10 11 11
REMARK H PARENT
REMARK Flexibility Score: inf
ROOT
ATOM      1  C   UNL     1      -9.206  -9.960  27.365  1.00  0.00     0.001 A 
ATOM      2  C   UNL     1      -7.971 -10.606  27.496  1.00  0.00     0.004 A 
ATOM      3  C   UNL     1      -7.183 -10.394  28.633  1.00  0.00     0.048 A 
ATOM      4  C   UNL     1      -7.628  -9.536  29.644  1.00  0.00     0.138 A 
ATOM      5  C   UNL     1      -8.875  -8.884  29.513  1.00  0.00     0.018 A 
ATOM      6  C   UNL     1      -9.660  -9.100  28.371  1.00  0.00     0.012 A 
ATOM      7  C   UNL     1      -9.294  -8.032  30.539  1.00  0.00     0.019 A 
ATOM      8  C   UNL     1      -8.476  -7.851  31.654  1.00  0.00     0.094 A 
ATOM      9  C   UNL     1      -7.254  -8.530  31.716  1.00  0.00     0.336 A 
ATOM     10  O   UNL     1      -6.502  -8.379  32.714  1.00  0.00    -0.246 OA
ATOM     11  O   UNL     1      -6.879  -9.334  30.725  1.00  0.00    -0.423 OA
ENDROOT
TORSDOF 0
ENDMDL
MODEL 3
REMARK VINA RESULT:    -4.810      1.616      3.835
REMARK INTER + INTRA:          -4.810
REMARK INTER:                  -4.810
REMARK INTRA:                   0.000
REMARK UNBOUND:                 0.000
REMARK SMILES O=c1ccc2ccccc2o1
REMARK SMILES IDX 7 1 8 2 9 3 10 4 5 5 6 6 4 7 3 8 2 9 1 10 11 11
REMARK H PARENT
REMARK Flexibility Score: inf
ROOT
ATOM      1  C   UNL     1      -7.289 -11.155  27.474  1.00  0.00     0.001 A 
ATOM      2  C   UNL     1      -6.228 -11.257  28.381  1.00  0.00     0.004 A 
ATOM      3  C   UNL     1      -6.240 -10.509  29.565  1.00  0.00     0.048 A 
ATOM      4  C   UNL     1      -7.315  -9.657  29.844  1.00  0.00     0.138 A 
ATOM      5  C   UNL     1      -8.385  -9.554  28.927  1.00  0.00     0.018 A 
ATOM      6  C   UNL     1      -8.367 -10.305  27.744  1.00  0.00     0.012 A 
ATOM      7  C   UNL     1      -9.444  -8.694  29.233  1.00  0.00     0.019 A 
ATOM      8  C   UNL     1      -9.415  -7.968  30.424  1.00  0.00     0.094 A 
ATOM      9  C   UNL     1      -8.321  -8.121  31.283  1.00  0.00     0.336 A 
ATOM     10  O   UNL     1      -8.276  -7.475  32.363  1.00  0.00    -0.246 OA
ATOM     11  O   UNL     1      -7.326  -8.946  30.968  1.00  0.00    -0.423 OA
ENDROOT
TORSDOF 0
ENDMDL
MODEL 4
REMARK VINA RESULT:    -4.674      2.295      4.057
REMARK INTER + INTRA:          -4.674
REMARK INTER:                  -4.674
REMARK INTRA:                   0.000
REMARK UNBOUND:                 0.000
REMARK SMILES O=c1ccc2ccccc2o1
REMARK SMILES IDX 7 1 8 2 9 3 10 4 5 5 6 6 4 7 3 8 2 9 1 10 11 11
REMARK H PARENT
REMARK Flexibility Score: inf
ROOT
ATOM      1  C   UNL     1      -8.371 -10.382  27.360  1.00  0.00     0.001 A 
ATOM      2  C   UNL     1      -9.557  -9.658  27.530  1.00  0.00     0.004 A 
ATOM      3  C   UNL     1      -9.750  -8.883  28.679  1.00  0.00     0.048 A 
ATOM      4  C   UNL     1      -8.757  -8.830  29.663  1.00  0.00     0.138 A 
ATOM      5  C   UNL     1      -7.559  -9.561  29.492  1.00  0.00     0.018 A 
ATOM      6  C   UNL     1      -7.372 -10.335  28.338  1.00  0.00     0.012 A 
ATOM      7  C   UNL     1      -6.586  -9.488  30.492  1.00  0.00     0.019 A 
ATOM      8  C   UNL     1      -6.820  -8.703  31.621  1.00  0.00     0.094 A 
ATOM      9  C   UNL     1      -8.030  -8.007  31.722  1.00  0.00     0.336 A 
ATOM     10  O   UNL     1      -8.260  -7.293  32.733  1.00  0.00    -0.246 OA
ATOM     11  O   UNL     1      -8.941  -8.093  30.756  1.00  0.00    -0.423 OA
ENDROOT
TORSDOF 0
ENDMDL
MODEL 5
REMARK VINA RESULT:    -4.607      0.972      2.184
REMARK INTER + INTRA:          -4.607
REMARK INTER:                  -4.607
REMARK INTRA:                   0.000
REMARK UNBOUND:                 0.000
REMARK SMILES O=c1ccc2ccccc2o1
REMARK SMILES IDX 7 1 8 2 9 3 10 4 5 5 6 6 4 7 3 8 2 9 1 10 11 11
REMARK H PARENT
REMARK Flexibility Score: inf
ROOT
ATOM      1  C   UNL     1      -9.430  -8.008  29.866  1.00  0.00     0.001 A 
ATOM      2  C   UNL     1      -9.846  -8.678  28.709  1.00  0.00     0.004 A 
ATOM      3  C   UNL     1      -9.066  -9.709  28.174  1.00  0.00     0.048 A 
ATOM      4  C   UNL     1      -7.867 -10.076  28.796  1.00  0.00     0.138 A 
ATOM      5  C   UNL     1      -7.447  -9.400  29.964  1.00  0.00     0.018 A 
ATOM      6  C   UNL     1      -8.233  -8.367  30.494  1.00  0.00     0.012 A 
ATOM      7  C   UNL     1      -6.245  -9.787  30.563  1.00  0.00     0.019 A 
ATOM      8  C   UNL     1      -5.500 -10.821  29.995  1.00  0.00     0.094 A 
ATOM      9  C   UNL     1      -5.978 -11.444  28.838  1.00  0.00     0.336 A 
ATOM     10  O   UNL     1      -5.320 -12.379  28.311  1.00  0.00    -0.246 OA
ATOM     11  O   UNL     1      -7.125 -11.056  28.287  1.00  0.00    -0.423 OA
ENDROOT
TORSDOF 0
ENDMDL
MODEL 6
REMARK VINA RESULT:    -4.450     12.529     14.719
REMARK INTER + INTRA:          -4.450
REMARK INTER:                  -4.450
REMARK INTRA:                   0.000
REMARK UNBOUND:                 0.000
REMARK SMILES O=c1ccc2ccccc2o1
REMARK SMILES IDX 7 1 8 2 9 3 10 4 5 5 6 6 4 7 3 8 2 9 1 10 11 11
REMARK H PARENT
REMARK Flexibility Score: inf
ROOT
ATOM      1  C   UNL     1      -6.877 -13.374  12.875  1.00  0.00     0.001 A 
ATOM      2  C   UNL     1      -7.521 -14.614  12.960  1.00  0.00     0.004 A 
ATOM      3  C   UNL     1      -7.710 -15.224  14.205  1.00  0.00     0.048 A 
ATOM      4  C   UNL     1      -7.255 -14.596  15.370  1.00  0.00     0.138 A 
ATOM      5  C   UNL     1      -6.605 -13.344  15.284  1.00  0.00     0.018 A 
ATOM      6  C   UNL     1      -6.419 -12.738  14.033  1.00  0.00     0.012 A 
ATOM      7  C   UNL     1      -6.162 -12.741  16.464  1.00  0.00     0.019 A 
ATOM      8  C   UNL     1      -6.371 -13.385  17.683  1.00  0.00     0.094 A 
ATOM      9  C   UNL     1      -7.023 -14.624  17.692  1.00  0.00     0.336 A 
ATOM     10  O   UNL     1      -7.221 -15.221  18.782  1.00  0.00    -0.246 OA
ATOM     11  O   UNL     1      -7.434 -15.177  16.554  1.00  0.00    -0.423 OA
ENDROOT
TORSDOF 0
ENDMDL
MODEL 7
REMARK VINA RESULT:    -4.347      1.905      3.783
REMARK INTER + INTRA:          -4.347
REMARK INTER:                  -4.347
REMARK INTRA:                   0.000
REMARK UNBOUND:                 0.000
REMARK SMILES O=c1ccc2ccccc2o1
REMARK SMILES IDX 7 1 8 2 9 3 10 4 5 5 6 6 4 7 3 8 2 9 1 10 11 11
REMARK H PARENT
REMARK Flexibility Score: inf
ROOT
ATOM      1  C   UNL     1      -5.277  -9.555  31.689  1.00  0.00     0.001 A 
ATOM      2  C   UNL     1      -5.158 -10.424  30.598  1.00  0.00     0.004 A 
ATOM      3  C   UNL     1      -6.169 -10.484  29.633  1.00  0.00     0.048 A 
ATOM      4  C   UNL     1      -7.305  -9.676  29.756  1.00  0.00     0.138 A 
ATOM      5  C   UNL     1      -7.426  -8.799  30.858  1.00  0.00     0.018 A 
ATOM      6  C   UNL     1      -6.409  -8.743  31.821  1.00  0.00     0.012 A 
ATOM      7  C   UNL     1      -8.571  -8.004  30.954  1.00  0.00     0.019 A 
ATOM      8  C   UNL     1      -9.554  -8.097  29.969  1.00  0.00     0.094 A 
ATOM      9  C   UNL     1      -9.366  -8.988  28.907  1.00  0.00     0.336 A 
ATOM     10  O   UNL     1     -10.242  -9.087  28.008  1.00  0.00    -0.246 OA
ATOM     11  O   UNL     1      -8.267  -9.734  28.839  1.00  0.00    -0.423 OA
ENDROOT
TORSDOF 0
ENDMDL
MODEL 8
REMARK VINA RESULT:    -4.306     13.513     15.087
REMARK INTER + INTRA:          -4.306
REMARK INTER:                  -4.306
REMARK INTRA:                   0.000
REMARK UNBOUND:                 0.000
REMARK SMILES O=c1ccc2ccccc2o1
REMARK SMILES IDX 7 1 8 2 9 3 10 4 5 5 6 6 4 7 3 8 2 9 1 10 11 11
REMARK H PARENT
REMARK Flexibility Score: inf
ROOT
ATOM      1  C   UNL     1     -16.350 -17.386  18.377  1.00  0.00     0.001 A 
ATOM      2  C   UNL     1     -17.239 -18.460  18.497  1.00  0.00     0.004 A 
ATOM      3  C   UNL     1     -17.089 -19.385  19.536  1.00  0.00     0.048 A 
ATOM      4  C   UNL     1     -16.048 -19.239  20.460  1.00  0.00     0.138 A 
ATOM      5  C   UNL     1     -15.150 -18.154  20.339  1.00  0.00     0.018 A 
ATOM      6  C   UNL     1     -15.306 -17.231  19.296  1.00  0.00     0.012 A 
ATOM      7  C   UNL     1     -14.120 -18.034  21.276  1.00  0.00     0.019 A 
ATOM      8  C   UNL     1     -14.008 -18.980  22.295  1.00  0.00     0.094 A 
ATOM      9  C   UNL     1     -14.934 -20.027  22.352  1.00  0.00     0.336 A 
ATOM     10  O   UNL     1     -14.850 -20.890  23.265  1.00  0.00    -0.246 OA
ATOM     11  O   UNL     1     -15.905 -20.119  21.447  1.00  0.00    -0.423 OA
ENDROOT
TORSDOF 0
ENDMDL
MODEL 9
REMARK VINA RESULT:    -4.299     14.414     15.945
REMARK INTER + INTRA:          -4.299
REMARK INTER:                  -4.299
REMARK INTRA:                   0.000
REMARK UNBOUND:                 0.000
REMARK SMILES O=c1ccc2ccccc2o1
REMARK SMILES IDX 7 1 8 2 9 3 10 4 5 5 6 6 4 7 3 8 2 9 1 10 11 11
REMARK H PARENT
REMARK Flexibility Score: inf
ROOT
ATOM      1  C   UNL     1     -18.616 -18.763  17.748  1.00  0.00     0.001 A 
ATOM      2  C   UNL     1     -18.132 -17.455  17.632  1.00  0.00     0.004 A 
ATOM      3  C   UNL     1     -17.058 -17.029  18.423  1.00  0.00     0.048 A 
ATOM      4  C   UNL     1     -16.466 -17.912  19.333  1.00  0.00     0.138 A 
ATOM      5  C   UNL     1     -16.955 -19.233  19.450  1.00  0.00     0.018 A 
ATOM      6  C   UNL     1     -18.031 -19.652  18.655  1.00  0.00     0.012 A 
ATOM      7  C   UNL     1     -16.344 -20.091  20.368  1.00  0.00     0.019 A 
ATOM      8  C   UNL     1     -15.277 -19.625  21.136  1.00  0.00     0.094 A 
ATOM      9  C   UNL     1     -14.846 -18.304  20.966  1.00  0.00     0.336 A 
ATOM     10  O   UNL     1     -13.884 -17.865  21.649  1.00  0.00    -0.246 OA
ATOM     11  O   UNL     1     -15.446 -17.507  20.085  1.00  0.00    -0.423 OA
ENDROOT
TORSDOF 0
ENDMDL
