MODEL 1
REMARK VINA RESULT:    83.204      0.000      0.000
REMARK INTER + INTRA:          91.388
REMARK INTER:                  90.500
REMARK INTRA:                   0.888
REMARK UNBOUND:                 0.888
REMARK SMILES C[C@@H]1[C@H](C)CC[C@@]2(C(=O)[O-])CC[C@@]3(C)C(=CC[C@@H]4[C@]5(C)CC[C@H](O)C(C)(C)[C@@H]5CC[C@]43C)[C@H]12
REMARK SMILES IDX 7 1 6 2 11 3 33 4 5 5 12 6 15 7 2 8 3 9 13 10 16 11 1 12
REMARK SMILES IDX 4 13 14 14 31 15 17 16 18 17 30 18 32 19 19 20 29 21 28 22
REMARK SMILES IDX 21 23 20 24 25 25 22 26 23 27 26 28 27 29 8 30 9 31 10 32
REMARK SMILES IDX 24 33
REMARK H PARENT 24 34
REMARK Flexibility Score: inf
ROOT
ATOM      1  C   UNL     1      -1.282  67.764  -6.161  1.00  0.00     0.017 C 
ATOM      2  C   UNL     1       0.234  67.884  -5.753  1.00  0.00     0.014 C 
ATOM      3  C   UNL     1      -1.648  68.833  -7.222  1.00  0.00     0.014 C 
ATOM      4  C   UNL     1      -1.548  66.356  -6.794  1.00  0.00     0.030 C 
ATOM      5  C   UNL     1       1.159  66.859  -6.435  1.00  0.00     0.004 C 
ATOM      6  C   UNL     1      -3.102  68.687  -7.751  1.00  0.00     0.013 C 
ATOM      7  C   UNL     1      -2.998  66.217  -7.270  1.00  0.00    -0.063 C 
ATOM      8  C   UNL     1      -0.837  65.210  -6.010  1.00  0.00    -0.003 C 
ATOM      9  C   UNL     1       0.716  65.377  -6.209  1.00  0.00    -0.011 C 
ATOM     10  C   UNL     1      -3.483  67.263  -8.310  1.00  0.00    -0.006 C 
ATOM     11  C   UNL     1      -3.835  65.328  -6.688  1.00  0.00    -0.027 C 
ATOM     12  C   UNL     1      -1.239  65.109  -4.517  1.00  0.00     0.008 C 
ATOM     13  C   UNL     1       1.578  64.695  -5.132  1.00  0.00     0.008 C 
ATOM     14  C   UNL     1      -2.681  67.068  -9.637  1.00  0.00     0.017 C 
ATOM     15  C   UNL     1      -5.070  67.118  -8.615  1.00  0.00    -0.020 C 
ATOM     16  C   UNL     1      -5.331  65.409  -6.763  1.00  0.00     0.032 C 
ATOM     17  C   UNL     1      -5.829  66.774  -7.294  1.00  0.00     0.006 C 
ATOM     18  C   UNL     1      -5.652  68.456  -9.145  1.00  0.00     0.008 C 
ATOM     19  C   UNL     1      -5.320  65.988  -9.670  1.00  0.00     0.012 C 
ATOM     20  C   UNL     1      -7.433  66.962  -7.231  1.00  0.00    -0.025 C 
ATOM     21  C   UNL     1      -7.118  68.340  -9.508  1.00  0.00     0.005 C 
ATOM     22  C   UNL     1      -8.031  68.010  -8.294  1.00  0.00     0.003 C 
ATOM     23  C   UNL     1      -8.191  65.604  -7.355  1.00  0.00     0.010 C 
ATOM     24  C   UNL     1      -7.698  67.497  -5.780  1.00  0.00     0.012 C 
ATOM     25  C   UNL     1      -9.535  67.748  -8.779  1.00  0.00    -0.006 C 
ATOM     26  C   UNL     1      -9.730  65.688  -7.254  1.00  0.00     0.033 C 
ATOM     27  C   UNL     1     -10.350  67.036  -7.664  1.00  0.00     0.120 C 
ATOM     28  C   UNL     1     -10.218  69.112  -9.070  1.00  0.00     0.014 C 
ATOM     29  C   UNL     1      -9.629  66.903 -10.088  1.00  0.00     0.014 C 
ENDROOT
BRANCH   1  30
ATOM     30  C   UNL     1      -2.133  68.059  -4.921  1.00  0.00     0.048 C 
ATOM     31  O   UNL     1      -1.747  68.866  -4.035  1.00  0.00    -0.550 OA
ATOM     32  O   UNL     1      -3.308  67.346  -4.701  1.00  0.00    -0.550 OA
ENDBRANCH   1  30
BRANCH  27  33
ATOM     33  O   UNL     1     -11.681  66.806  -8.073  1.00  0.00    -0.393 OA
ATOM     34  H   UNL     1     -12.279  67.023  -7.309  1.00  0.00     0.210 HD
ENDBRANCH  27  33
TORSDOF 2
ENDMDL
