MODEL 1
REMARK VINA RESULT:    -3.812      0.000      0.000
REMARK INTER + INTRA:          -6.624
REMARK INTER:                  -5.817
REMARK INTRA:                  -0.807
REMARK UNBOUND:                -0.807
REMARK SMILES O=C([O-])CCCCCCCCC(=O)[O-]
REMARK SMILES IDX 7 1 6 2 5 3 4 4 2 5 1 6 3 7 8 8 9 9 10 10 11 11 12 12 13 13
REMARK SMILES IDX 14 14
REMARK H PARENT
REMARK Flexibility Score: inf
ROOT
ATOM      1  C   UNL     1      28.821 -22.903  25.685  1.00  0.00     0.000 C 
ENDROOT
BRANCH   1   2
ATOM      2  C   UNL     1      27.537 -22.252  26.228  1.00  0.00     0.000 C 
BRANCH   2   3
ATOM      3  C   UNL     1      27.119 -21.011  25.423  1.00  0.00     0.006 C 
BRANCH   3   4
ATOM      4  C   UNL     1      27.135 -19.728  26.264  1.00  0.00     0.053 C 
BRANCH   4   5
ATOM      5  C   UNL     1      28.541 -19.267  26.486  1.00  0.00     0.041 C 
ATOM      6  O   UNL     1      29.270 -18.960  25.506  1.00  0.00    -0.550 OA
ATOM      7  O   UNL     1      29.063 -19.225  27.772  1.00  0.00    -0.550 OA
ENDBRANCH   4   5
ENDBRANCH   3   4
ENDBRANCH   2   3
ENDBRANCH   1   2
BRANCH   1   8
ATOM      8  C   UNL     1      28.560 -23.838  24.490  1.00  0.00     0.000 C 
BRANCH   8   9
ATOM      9  C   UNL     1      29.450 -23.591  23.257  1.00  0.00     0.000 C 
BRANCH   9  10
ATOM     10  C   UNL     1      29.996 -22.156  23.189  1.00  0.00     0.006 C 
BRANCH  10  11
ATOM     11  C   UNL     1      29.088 -21.229  22.368  1.00  0.00     0.053 C 
BRANCH  11  12
ATOM     12  C   UNL     1      29.813 -19.998  21.914  1.00  0.00     0.041 C 
ATOM     13  O   UNL     1      29.272 -18.867  22.028  1.00  0.00    -0.550 OA
ATOM     14  O   UNL     1      31.096 -20.100  21.391  1.00  0.00    -0.550 OA
ENDBRANCH  11  12
ENDBRANCH  10  11
ENDBRANCH   9  10
ENDBRANCH   8   9
ENDBRANCH   1   8
TORSDOF 9
ENDMDL
MODEL 2
REMARK VINA RESULT:    -3.797      0.888      4.551
REMARK INTER + INTRA:          -6.602
REMARK INTER:                  -5.746
REMARK INTRA:                  -0.856
REMARK UNBOUND:                -0.807
REMARK SMILES O=C([O-])CCCCCCCCC(=O)[O-]
REMARK SMILES IDX 7 1 6 2 5 3 4 4 2 5 1 6 3 7 8 8 9 9 10 10 11 11 12 12 13 13
REMARK SMILES IDX 14 14
REMARK H PARENT
REMARK Flexibility Score: inf
ROOT
ATOM      1  C   UNL     1      28.389 -23.093  25.383  1.00  0.00     0.000 C 
ENDROOT
BRANCH   1   2
ATOM      2  C   UNL     1      29.377 -22.368  24.452  1.00  0.00     0.000 C 
BRANCH   2   3
ATOM      3  C   UNL     1      29.052 -22.584  22.965  1.00  0.00     0.006 C 
BRANCH   3   4
ATOM      4  C   UNL     1      28.541 -21.310  22.281  1.00  0.00     0.053 C 
BRANCH   4   5
ATOM      5  C   UNL     1      29.670 -20.357  22.041  1.00  0.00     0.041 C 
ATOM      6  O   UNL     1      29.508 -19.123  22.229  1.00  0.00    -0.550 OA
ATOM      7  O   UNL     1      30.885 -20.828  21.562  1.00  0.00    -0.550 OA
ENDBRANCH   4   5
ENDBRANCH   3   4
ENDBRANCH   2   3
ENDBRANCH   1   2
BRANCH   1   8
ATOM      8  C   UNL     1      27.626 -22.131  26.312  1.00  0.00     0.000 C 
BRANCH   8   9
ATOM      9  C   UNL     1      26.956 -20.934  25.611  1.00  0.00     0.000 C 
BRANCH   9  10
ATOM     10  C   UNL     1      27.230 -19.596  26.317  1.00  0.00     0.006 C 
BRANCH  10  11
ATOM     11  C   UNL     1      28.576 -18.987  25.903  1.00  0.00     0.053 C 
BRANCH  11  12
ATOM     12  C   UNL     1      29.545 -18.947  27.045  1.00  0.00     0.041 C 
ATOM     13  O   UNL     1      30.714 -18.513  26.871  1.00  0.00    -0.550 OA
ATOM     14  O   UNL     1      29.147 -19.365  28.309  1.00  0.00    -0.550 OA
ENDBRANCH  11  12
ENDBRANCH  10  11
ENDBRANCH   9  10
ENDBRANCH   8   9
ENDBRANCH   1   8
TORSDOF 9
ENDMDL
MODEL 3
REMARK VINA RESULT:    -3.751      1.334      4.881
REMARK INTER + INTRA:          -6.531
REMARK INTER:                  -5.719
REMARK INTRA:                  -0.812
REMARK UNBOUND:                -0.807
REMARK SMILES O=C([O-])CCCCCCCCC(=O)[O-]
REMARK SMILES IDX 7 1 6 2 5 3 4 4 2 5 1 6 3 7 8 8 9 9 10 10 11 11 12 12 13 13
REMARK SMILES IDX 14 14
REMARK H PARENT
REMARK Flexibility Score: inf
ROOT
ATOM      1  C   UNL     1      29.595 -22.905  23.286  1.00  0.00     0.000 C 
ENDROOT
BRANCH   1   2
ATOM      2  C   UNL     1      28.801 -21.873  22.466  1.00  0.00     0.000 C 
BRANCH   2   3
ATOM      3  C   UNL     1      29.702 -20.784  21.859  1.00  0.00     0.006 C 
BRANCH   3   4
ATOM      4  C   UNL     1      31.180 -20.970  22.222  1.00  0.00     0.053 C 
BRANCH   4   5
ATOM      5  C   UNL     1      31.987 -21.251  20.993  1.00  0.00     0.041 C 
ATOM      6  O   UNL     1      32.131 -20.361  20.113  1.00  0.00    -0.550 OA
ATOM      7  O   UNL     1      32.537 -22.510  20.796  1.00  0.00    -0.550 OA
ENDBRANCH   4   5
ENDBRANCH   3   4
ENDBRANCH   2   3
ENDBRANCH   1   2
BRANCH   1   8
ATOM      8  C   UNL     1      28.777 -23.506  24.444  1.00  0.00     0.000 C 
BRANCH   8   9
ATOM      9  C   UNL     1      28.821 -22.710  25.762  1.00  0.00     0.000 C 
BRANCH   9  10
ATOM     10  C   UNL     1      27.449 -22.151  26.172  1.00  0.00     0.006 C 
BRANCH  10  11
ATOM     11  C   UNL     1      27.187 -20.761  25.574  1.00  0.00     0.053 C 
BRANCH  11  12
ATOM     12  C   UNL     1      28.252 -19.780  25.958  1.00  0.00     0.041 C 
ATOM     13  O   UNL     1      28.372 -19.412  27.157  1.00  0.00    -0.550 OA
ATOM     14  O   UNL     1      29.129 -19.292  24.997  1.00  0.00    -0.550 OA
ENDBRANCH  11  12
ENDBRANCH  10  11
ENDBRANCH   9  10
ENDBRANCH   8   9
ENDBRANCH   1   8
TORSDOF 9
ENDMDL
MODEL 4
REMARK VINA RESULT:    -3.703      1.302      1.929
REMARK INTER + INTRA:          -6.458
REMARK INTER:                  -5.549
REMARK INTRA:                  -0.910
REMARK UNBOUND:                -0.807
REMARK SMILES O=C([O-])CCCCCCCCC(=O)[O-]
REMARK SMILES IDX 7 1 6 2 5 3 4 4 2 5 1 6 3 7 8 8 9 9 10 10 11 11 12 12 13 13
REMARK SMILES IDX 14 14
REMARK H PARENT
REMARK Flexibility Score: inf
ROOT
ATOM      1  C   UNL     1      28.706 -23.667  24.331  1.00  0.00     0.000 C 
ENDROOT
BRANCH   1   2
ATOM      2  C   UNL     1      28.584 -23.140  25.771  1.00  0.00     0.000 C 
BRANCH   2   3
ATOM      3  C   UNL     1      27.715 -21.875  25.864  1.00  0.00     0.006 C 
BRANCH   3   4
ATOM      4  C   UNL     1      28.470 -20.681  26.461  1.00  0.00     0.053 C 
BRANCH   4   5
ATOM      5  C   UNL     1      27.694 -19.418  26.258  1.00  0.00     0.041 C 
ATOM      6  O   UNL     1      26.441 -19.418  26.383  1.00  0.00    -0.550 OA
ATOM      7  O   UNL     1      28.349 -18.253  25.881  1.00  0.00    -0.550 OA
ENDBRANCH   4   5
ENDBRANCH   3   4
ENDBRANCH   2   3
ENDBRANCH   1   2
BRANCH   1   8
ATOM      8  C   UNL     1      29.495 -22.717  23.411  1.00  0.00     0.000 C 
BRANCH   8   9
ATOM      9  C   UNL     1      28.645 -21.931  22.395  1.00  0.00     0.000 C 
BRANCH   9  10
ATOM     10  C   UNL     1      28.777 -20.408  22.554  1.00  0.00     0.006 C 
BRANCH  10  11
ATOM     11  C   UNL     1      30.115 -20.005  23.187  1.00  0.00     0.053 C 
BRANCH  11  12
ATOM     12  C   UNL     1      31.087 -19.502  22.163  1.00  0.00     0.041 C 
ATOM     13  O   UNL     1      31.291 -20.157  21.107  1.00  0.00    -0.550 OA
ATOM     14  O   UNL     1      31.747 -18.296  22.364  1.00  0.00    -0.550 OA
ENDBRANCH  11  12
ENDBRANCH  10  11
ENDBRANCH   9  10
ENDBRANCH   8   9
ENDBRANCH   1   8
TORSDOF 9
ENDMDL
MODEL 5
REMARK VINA RESULT:    -3.632      1.390      1.943
REMARK INTER + INTRA:          -6.350
REMARK INTER:                  -5.507
REMARK INTRA:                  -0.843
REMARK UNBOUND:                -0.807
REMARK SMILES O=C([O-])CCCCCCCCC(=O)[O-]
REMARK SMILES IDX 7 1 6 2 5 3 4 4 2 5 1 6 3 7 8 8 9 9 10 10 11 11 12 12 13 13
REMARK SMILES IDX 14 14
REMARK H PARENT
REMARK Flexibility Score: inf
ROOT
ATOM      1  C   UNL     1      29.396 -23.033  24.490  1.00  0.00     0.000 C 
ENDROOT
BRANCH   1   2
ATOM      2  C   UNL     1      28.163 -23.258  25.382  1.00  0.00     0.000 C 
BRANCH   2   3
ATOM      3  C   UNL     1      27.647 -21.955  26.014  1.00  0.00     0.006 C 
BRANCH   3   4
ATOM      4  C   UNL     1      28.761 -20.924  26.236  1.00  0.00     0.053 C 
BRANCH   4   5
ATOM      5  C   UNL     1      28.183 -19.549  26.357  1.00  0.00     0.041 C 
ATOM      6  O   UNL     1      28.942 -18.551  26.472  1.00  0.00    -0.550 OA
ATOM      7  O   UNL     1      26.806 -19.376  26.394  1.00  0.00    -0.550 OA
ENDBRANCH   4   5
ENDBRANCH   3   4
ENDBRANCH   2   3
ENDBRANCH   1   2
BRANCH   1   8
ATOM      8  C   UNL     1      29.042 -22.939  22.994  1.00  0.00     0.000 C 
BRANCH   8   9
ATOM      9  C   UNL     1      28.675 -21.529  22.494  1.00  0.00     0.000 C 
BRANCH   9  10
ATOM     10  C   UNL     1      29.901 -20.710  22.057  1.00  0.00     0.006 C 
BRANCH  10  11
ATOM     11  C   UNL     1      30.328 -19.693  23.124  1.00  0.00     0.053 C 
BRANCH  11  12
ATOM     12  C   UNL     1      29.867 -18.307  22.789  1.00  0.00     0.041 C 
ATOM     13  O   UNL     1      29.184 -18.100  21.751  1.00  0.00    -0.550 OA
ATOM     14  O   UNL     1      30.169 -17.249  23.638  1.00  0.00    -0.550 OA
ENDBRANCH  11  12
ENDBRANCH  10  11
ENDBRANCH   9  10
ENDBRANCH   8   9
ENDBRANCH   1   8
TORSDOF 9
ENDMDL
MODEL 6
REMARK VINA RESULT:    -3.626      2.094      5.304
REMARK INTER + INTRA:          -6.342
REMARK INTER:                  -5.639
REMARK INTRA:                  -0.702
REMARK UNBOUND:                -0.807
REMARK SMILES O=C([O-])CCCCCCCCC(=O)[O-]
REMARK SMILES IDX 7 1 6 2 5 3 4 4 2 5 1 6 3 7 8 8 9 9 10 10 11 11 12 12 13 13
REMARK SMILES IDX 14 14
REMARK H PARENT
REMARK Flexibility Score: inf
ROOT
ATOM      1  C   UNL     1      28.525 -21.985  22.436  1.00  0.00     0.000 C 
ENDROOT
BRANCH   1   2
ATOM      2  C   UNL     1      29.430 -20.825  21.984  1.00  0.00     0.000 C 
BRANCH   2   3
ATOM      3  C   UNL     1      30.916 -21.091  22.272  1.00  0.00     0.006 C 
BRANCH   3   4
ATOM      4  C   UNL     1      31.738 -21.301  20.994  1.00  0.00     0.053 C 
BRANCH   4   5
ATOM      5  C   UNL     1      32.868 -22.247  21.250  1.00  0.00     0.041 C 
ATOM      6  O   UNL     1      32.858 -23.399  20.742  1.00  0.00    -0.550 OA
ATOM      7  O   UNL     1      33.909 -21.875  22.092  1.00  0.00    -0.550 OA
ENDBRANCH   4   5
ENDBRANCH   3   4
ENDBRANCH   2   3
ENDBRANCH   1   2
BRANCH   1   8
ATOM      8  C   UNL     1      29.315 -23.158  23.044  1.00  0.00     0.000 C 
BRANCH   8   9
ATOM      9  C   UNL     1      28.674 -23.807  24.286  1.00  0.00     0.000 C 
BRANCH   9  10
ATOM     10  C   UNL     1      28.853 -22.967  25.561  1.00  0.00     0.006 C 
BRANCH  10  11
ATOM     11  C   UNL     1      27.531 -22.350  26.039  1.00  0.00     0.053 C 
BRANCH  11  12
ATOM     12  C   UNL     1      27.509 -20.864  25.849  1.00  0.00     0.041 C 
ATOM     13  O   UNL     1      28.548 -20.257  25.478  1.00  0.00    -0.550 OA
ATOM     14  O   UNL     1      26.333 -20.154  26.057  1.00  0.00    -0.550 OA
ENDBRANCH  11  12
ENDBRANCH  10  11
ENDBRANCH   9  10
ENDBRANCH   8   9
ENDBRANCH   1   8
TORSDOF 9
ENDMDL
MODEL 7
REMARK VINA RESULT:    -3.537      1.144      4.217
REMARK INTER + INTRA:          -6.205
REMARK INTER:                  -5.300
REMARK INTRA:                  -0.905
REMARK UNBOUND:                -0.807
REMARK SMILES O=C([O-])CCCCCCCCC(=O)[O-]
REMARK SMILES IDX 7 1 6 2 5 3 4 4 2 5 1 6 3 7 8 8 9 9 10 10 11 11 12 12 13 13
REMARK SMILES IDX 14 14
REMARK H PARENT
REMARK Flexibility Score: inf
ROOT
ATOM      1  C   UNL     1      29.933 -24.268  23.372  1.00  0.00     0.000 C 
ENDROOT
BRANCH   1   2
ATOM      2  C   UNL     1      30.978 -23.414  22.633  1.00  0.00     0.000 C 
BRANCH   2   3
ATOM      3  C   UNL     1      31.021 -21.964  23.144  1.00  0.00     0.006 C 
BRANCH   3   4
ATOM      4  C   UNL     1      30.868 -20.935  22.017  1.00  0.00     0.053 C 
BRANCH   4   5
ATOM      5  C   UNL     1      29.565 -20.211  22.145  1.00  0.00     0.041 C 
ATOM      6  O   UNL     1      29.534 -19.039  22.605  1.00  0.00    -0.550 OA
ATOM      7  O   UNL     1      28.379 -20.849  21.805  1.00  0.00    -0.550 OA
ENDBRANCH   4   5
ENDBRANCH   3   4
ENDBRANCH   2   3
ENDBRANCH   1   2
BRANCH   1   8
ATOM      8  C   UNL     1      28.780 -23.432  23.957  1.00  0.00     0.000 C 
BRANCH   8   9
ATOM      9  C   UNL     1      28.701 -23.407  25.495  1.00  0.00     0.000 C 
BRANCH   9  10
ATOM     10  C   UNL     1      27.679 -22.388  26.026  1.00  0.00     0.006 C 
BRANCH  10  11
ATOM     11  C   UNL     1      27.705 -21.074  25.232  1.00  0.00     0.053 C 
BRANCH  11  12
ATOM     12  C   UNL     1      28.508 -20.018  25.928  1.00  0.00     0.041 C 
ATOM     13  O   UNL     1      27.932 -19.136  26.619  1.00  0.00    -0.550 OA
ATOM     14  O   UNL     1      29.894 -20.024  25.836  1.00  0.00    -0.550 OA
ENDBRANCH  11  12
ENDBRANCH  10  11
ENDBRANCH   9  10
ENDBRANCH   8   9
ENDBRANCH   1   8
TORSDOF 9
ENDMDL
MODEL 8
REMARK VINA RESULT:    -3.532      2.723      4.288
REMARK INTER + INTRA:          -6.198
REMARK INTER:                  -5.543
REMARK INTRA:                  -0.655
REMARK UNBOUND:                -0.807
REMARK SMILES O=C([O-])CCCCCCCCC(=O)[O-]
REMARK SMILES IDX 7 1 6 2 5 3 4 4 2 5 1 6 3 7 8 8 9 9 10 10 11 11 12 12 13 13
REMARK SMILES IDX 14 14
REMARK H PARENT
REMARK Flexibility Score: inf
ROOT
ATOM      1  C   UNL     1      30.222 -20.831  21.834  1.00  0.00     0.000 C 
ENDROOT
BRANCH   1   2
ATOM      2  C   UNL     1      28.778 -21.114  22.284  1.00  0.00     0.000 C 
BRANCH   2   3
ATOM      3  C   UNL     1      28.716 -21.857  23.629  1.00  0.00     0.006 C 
BRANCH   3   4
ATOM      4  C   UNL     1      28.625 -20.904  24.827  1.00  0.00     0.053 C 
BRANCH   4   5
ATOM      5  C   UNL     1      27.490 -21.295  25.720  1.00  0.00     0.041 C 
ATOM      6  O   UNL     1      27.464 -22.438  26.248  1.00  0.00    -0.550 OA
ATOM      7  O   UNL     1      26.436 -20.415  25.929  1.00  0.00    -0.550 OA
ENDBRANCH   4   5
ENDBRANCH   3   4
ENDBRANCH   2   3
ENDBRANCH   1   2
BRANCH   1   8
ATOM      8  C   UNL     1      30.509 -19.329  21.653  1.00  0.00     0.000 C 
BRANCH   8   9
ATOM      9  C   UNL     1      30.671 -18.530  22.959  1.00  0.00     0.000 C 
BRANCH   9  10
ATOM     10  C   UNL     1      29.534 -17.521  23.190  1.00  0.00     0.006 C 
BRANCH  10  11
ATOM     11  C   UNL     1      29.692 -16.262  22.327  1.00  0.00     0.053 C 
BRANCH  11  12
ATOM     12  C   UNL     1      28.437 -15.943  21.572  1.00  0.00     0.041 C 
ATOM     13  O   UNL     1      28.024 -16.721  20.672  1.00  0.00    -0.550 OA
ATOM     14  O   UNL     1      27.711 -14.800  21.881  1.00  0.00    -0.550 OA
ENDBRANCH  11  12
ENDBRANCH  10  11
ENDBRANCH   9  10
ENDBRANCH   8   9
ENDBRANCH   1   8
TORSDOF 9
ENDMDL
MODEL 9
REMARK VINA RESULT:    -3.487      1.884      2.926
REMARK INTER + INTRA:          -6.129
REMARK INTER:                  -5.163
REMARK INTRA:                  -0.966
REMARK UNBOUND:                -0.807
REMARK SMILES O=C([O-])CCCCCCCCC(=O)[O-]
REMARK SMILES IDX 7 1 6 2 5 3 4 4 2 5 1 6 3 7 8 8 9 9 10 10 11 11 12 12 13 13
REMARK SMILES IDX 14 14
REMARK H PARENT
REMARK Flexibility Score: inf
ROOT
ATOM      1  C   UNL     1      28.694 -22.646  22.960  1.00  0.00     0.000 C 
ENDROOT
BRANCH   1   2
ATOM      2  C   UNL     1      29.470 -22.737  24.286  1.00  0.00     0.000 C 
BRANCH   2   3
ATOM      3  C   UNL     1      28.542 -22.742  25.512  1.00  0.00     0.006 C 
BRANCH   3   4
ATOM      4  C   UNL     1      28.768 -21.534  26.430  1.00  0.00     0.053 C 
BRANCH   4   5
ATOM      5  C   UNL     1      27.821 -20.429  26.081  1.00  0.00     0.041 C 
ATOM      6  O   UNL     1      26.717 -20.690  25.534  1.00  0.00    -0.550 OA
ATOM      7  O   UNL     1      28.180 -19.108  26.313  1.00  0.00    -0.550 OA
ENDBRANCH   4   5
ENDBRANCH   3   4
ENDBRANCH   2   3
ENDBRANCH   1   2
BRANCH   1   8
ATOM      8  C   UNL     1      28.781 -21.253  22.309  1.00  0.00     0.000 C 
BRANCH   8   9
ATOM      9  C   UNL     1      29.787 -20.286  22.960  1.00  0.00     0.000 C 
BRANCH   9  10
ATOM     10  C   UNL     1      30.815 -19.728  21.962  1.00  0.00     0.006 C 
BRANCH  10  11
ATOM     11  C   UNL     1      31.312 -20.800  20.982  1.00  0.00     0.053 C 
BRANCH  11  12
ATOM     12  C   UNL     1      32.448 -21.593  21.552  1.00  0.00     0.041 C 
ATOM     13  O   UNL     1      32.246 -22.745  22.018  1.00  0.00    -0.550 OA
ATOM     14  O   UNL     1      33.735 -21.069  21.545  1.00  0.00    -0.550 OA
ENDBRANCH  11  12
ENDBRANCH  10  11
ENDBRANCH   9  10
ENDBRANCH   8   9
ENDBRANCH   1   8
TORSDOF 9
ENDMDL
