MODEL 1
REMARK VINA RESULT:    -4.963      0.000      0.000
REMARK INTER + INTRA:          -9.302
REMARK INTER:                  -7.864
REMARK INTRA:                  -1.438
REMARK UNBOUND:                -1.438
REMARK SMILES C=CCCCCCCCCCCC
REMARK SMILES IDX 7 1 8 2 9 3 10 4 11 5 12 6 13 7 6 8 5 9 4 10 3 11 2 12 1 13
REMARK H PARENT
REMARK Flexibility Score: inf
ROOT
ATOM      1  C   UNL     1     138.600 134.875 125.541  1.00  0.00     0.000 C 
ENDROOT
BRANCH   1   2
ATOM      2  C   UNL     1     137.226 135.560 125.657  1.00  0.00     0.000 C 
BRANCH   2   3
ATOM      3  C   UNL     1     136.309 135.245 124.464  1.00  0.00    -0.000 C 
BRANCH   3   4
ATOM      4  C   UNL     1     135.803 136.516 123.758  1.00  0.00    -0.000 C 
BRANCH   4   5
ATOM      5  C   UNL     1     136.078 137.791 124.571  1.00  0.00    -0.000 C 
BRANCH   5   6
ATOM      6  C   UNL     1     136.133 139.050 123.693  1.00  0.00    -0.003 C 
ATOM      7  C   UNL     1     135.239 140.151 124.254  1.00  0.00     0.004 C 
ENDBRANCH   5   6
ENDBRANCH   4   5
ENDBRANCH   3   4
ENDBRANCH   2   3
ENDBRANCH   1   2
BRANCH   1   8
ATOM      8  C   UNL     1     139.749 135.881 125.375  1.00  0.00     0.000 C 
BRANCH   8   9
ATOM      9  C   UNL     1     140.009 136.244 123.902  1.00  0.00     0.000 C 
BRANCH   9  10
ATOM     10  C   UNL     1     139.801 135.043 122.955  1.00  0.00     0.004 C 
BRANCH  10  11
ATOM     11  C   UNL     1     138.888 135.359 121.760  1.00  0.00     0.027 C 
BRANCH  11  12
ATOM     12  C   UNL     1     138.373 136.772 121.801  1.00  0.00    -0.035 C 
ATOM     13  C   UNL     1     138.040 137.435 120.690  1.00  0.00     0.004 C 
ENDBRANCH  11  12
ENDBRANCH  10  11
ENDBRANCH   9  10
ENDBRANCH   8   9
ENDBRANCH   1   8
TORSDOF 10
ENDMDL
MODEL 2
REMARK VINA RESULT:    -4.901      0.707      1.614
REMARK INTER + INTRA:          -9.203
REMARK INTER:                  -7.845
REMARK INTRA:                  -1.358
REMARK UNBOUND:                -1.438
REMARK SMILES C=CCCCCCCCCCCC
REMARK SMILES IDX 7 1 8 2 9 3 10 4 11 5 12 6 13 7 6 8 5 9 4 10 3 11 2 12 1 13
REMARK H PARENT
REMARK Flexibility Score: inf
ROOT
ATOM      1  C   UNL     1     137.221 135.785 125.446  1.00  0.00     0.000 C 
ENDROOT
BRANCH   1   2
ATOM      2  C   UNL     1     136.240 135.194 124.418  1.00  0.00     0.000 C 
BRANCH   2   3
ATOM      3  C   UNL     1     135.688 136.254 123.453  1.00  0.00    -0.000 C 
BRANCH   3   4
ATOM      4  C   UNL     1     136.315 137.642 123.680  1.00  0.00    -0.000 C 
BRANCH   4   5
ATOM      5  C   UNL     1     135.615 138.745 122.872  1.00  0.00    -0.000 C 
BRANCH   5   6
ATOM      6  C   UNL     1     134.877 139.752 123.766  1.00  0.00    -0.003 C 
ATOM      7  C   UNL     1     135.701 140.098 125.002  1.00  0.00     0.004 C 
ENDBRANCH   5   6
ENDBRANCH   4   5
ENDBRANCH   3   4
ENDBRANCH   2   3
ENDBRANCH   1   2
BRANCH   1   8
ATOM      8  C   UNL     1     138.491 134.937 125.607  1.00  0.00     0.000 C 
BRANCH   8   9
ATOM      9  C   UNL     1     139.778 135.777 125.527  1.00  0.00     0.000 C 
BRANCH   9  10
ATOM     10  C   UNL     1     140.109 136.208 124.083  1.00  0.00     0.004 C 
BRANCH  10  11
ATOM     11  C   UNL     1     140.159 135.035 123.092  1.00  0.00     0.027 C 
BRANCH  11  12
ATOM     12  C   UNL     1     139.015 135.072 122.116  1.00  0.00    -0.035 C 
ATOM     13  C   UNL     1     138.746 136.156 121.382  1.00  0.00     0.004 C 
ENDBRANCH  11  12
ENDBRANCH  10  11
ENDBRANCH   9  10
ENDBRANCH   8   9
ENDBRANCH   1   8
TORSDOF 10
ENDMDL
MODEL 3
REMARK VINA RESULT:    -4.752      0.675      4.301
REMARK INTER + INTRA:          -8.967
REMARK INTER:                  -8.010
REMARK INTRA:                  -0.957
REMARK UNBOUND:                -1.438
REMARK SMILES C=CCCCCCCCCCCC
REMARK SMILES IDX 7 1 8 2 9 3 10 4 11 5 12 6 13 7 6 8 5 9 4 10 3 11 2 12 1 13
REMARK H PARENT
REMARK Flexibility Score: inf
ROOT
ATOM      1  C   UNL     1     137.520 135.909 125.580  1.00  0.00     0.000 C 
ENDROOT
BRANCH   1   2
ATOM      2  C   UNL     1     138.964 135.390 125.452  1.00  0.00     0.000 C 
BRANCH   2   3
ATOM      3  C   UNL     1     139.778 136.167 124.405  1.00  0.00    -0.000 C 
BRANCH   3   4
ATOM      4  C   UNL     1     140.114 135.313 123.168  1.00  0.00    -0.000 C 
BRANCH   4   5
ATOM      5  C   UNL     1     138.952 135.247 122.165  1.00  0.00    -0.000 C 
BRANCH   5   6
ATOM      6  C   UNL     1     139.012 136.370 121.118  1.00  0.00    -0.003 C 
ATOM      7  C   UNL     1     137.942 137.424 121.382  1.00  0.00     0.004 C 
ENDBRANCH   5   6
ENDBRANCH   4   5
ENDBRANCH   3   4
ENDBRANCH   2   3
ENDBRANCH   1   2
BRANCH   1   8
ATOM      8  C   UNL     1     136.542 135.167 124.657  1.00  0.00     0.000 C 
BRANCH   8   9
ATOM      9  C   UNL     1     135.792 136.116 123.705  1.00  0.00     0.000 C 
BRANCH   9  10
ATOM     10  C   UNL     1     135.964 137.598 124.096  1.00  0.00     0.004 C 
BRANCH  10  11
ATOM     11  C   UNL     1     135.069 138.550 123.290  1.00  0.00     0.027 C 
BRANCH  11  12
ATOM     12  C   UNL     1     134.940 139.897 123.948  1.00  0.00    -0.035 C 
ATOM     13  C   UNL     1     135.760 140.285 124.929  1.00  0.00     0.004 C 
ENDBRANCH  11  12
ENDBRANCH  10  11
ENDBRANCH   9  10
ENDBRANCH   8   9
ENDBRANCH   1   8
TORSDOF 10
ENDMDL
MODEL 4
REMARK VINA RESULT:    -3.911     14.324     16.694
REMARK INTER + INTRA:          -7.636
REMARK INTER:                  -6.220
REMARK INTRA:                  -1.416
REMARK UNBOUND:                -1.438
REMARK SMILES C=CCCCCCCCCCCC
REMARK SMILES IDX 7 1 8 2 9 3 10 4 11 5 12 6 13 7 6 8 5 9 4 10 3 11 2 12 1 13
REMARK H PARENT
REMARK Flexibility Score: inf
ROOT
ATOM      1  C   UNL     1     136.146 151.081 125.251  1.00  0.00     0.000 C 
ENDROOT
BRANCH   1   2
ATOM      2  C   UNL     1     136.165 150.595 123.790  1.00  0.00     0.000 C 
BRANCH   2   3
ATOM      3  C   UNL     1     134.875 150.950 123.034  1.00  0.00    -0.000 C 
BRANCH   3   4
ATOM      4  C   UNL     1     135.107 152.003 121.936  1.00  0.00    -0.000 C 
BRANCH   4   5
ATOM      5  C   UNL     1     136.416 151.774 121.166  1.00  0.00    -0.000 C 
BRANCH   5   6
ATOM      6  C   UNL     1     137.298 153.031 121.115  1.00  0.00    -0.003 C 
ATOM      7  C   UNL     1     138.312 152.945 119.978  1.00  0.00     0.004 C 
ENDBRANCH   5   6
ENDBRANCH   4   5
ENDBRANCH   3   4
ENDBRANCH   2   3
ENDBRANCH   1   2
BRANCH   1   8
ATOM      8  C   UNL     1     135.032 152.105 125.518  1.00  0.00     0.000 C 
BRANCH   8   9
ATOM      9  C   UNL     1     135.567 153.543 125.641  1.00  0.00     0.000 C 
BRANCH   9  10
ATOM     10  C   UNL     1     135.311 154.375 124.368  1.00  0.00     0.004 C 
BRANCH  10  11
ATOM     11  C   UNL     1     136.580 155.033 123.803  1.00  0.00     0.027 C 
BRANCH  11  12
ATOM     12  C   UNL     1     137.791 154.736 124.643  1.00  0.00    -0.035 C 
ATOM     13  C   UNL     1     138.926 154.276 124.108  1.00  0.00     0.004 C 
ENDBRANCH  11  12
ENDBRANCH  10  11
ENDBRANCH   9  10
ENDBRANCH   8   9
ENDBRANCH   1   8
TORSDOF 10
ENDMDL
MODEL 5
REMARK VINA RESULT:    -3.692      0.970      3.091
REMARK INTER + INTRA:          -7.288
REMARK INTER:                  -7.249
REMARK INTRA:                  -0.039
REMARK UNBOUND:                -1.438
REMARK SMILES C=CCCCCCCCCCCC
REMARK SMILES IDX 7 1 8 2 9 3 10 4 11 5 12 6 13 7 6 8 5 9 4 10 3 11 2 12 1 13
REMARK H PARENT
REMARK Flexibility Score: inf
ROOT
ATOM      1  C   UNL     1     138.053 137.061 121.702  1.00  0.00     0.000 C 
ENDROOT
BRANCH   1   2
ATOM      2  C   UNL     1     137.384 137.553 122.998  1.00  0.00     0.000 C 
BRANCH   2   3
ATOM      3  C   UNL     1     136.066 136.820 123.296  1.00  0.00    -0.000 C 
BRANCH   3   4
ATOM      4  C   UNL     1     134.877 137.785 123.451  1.00  0.00    -0.000 C 
BRANCH   4   5
ATOM      5  C   UNL     1     135.208 139.209 122.977  1.00  0.00    -0.000 C 
BRANCH   5   6
ATOM      6  C   UNL     1     135.062 140.251 124.096  1.00  0.00    -0.003 C 
ATOM      7  C   UNL     1     135.975 139.924 125.274  1.00  0.00     0.004 C 
ENDBRANCH   5   6
ENDBRANCH   4   5
ENDBRANCH   3   4
ENDBRANCH   2   3
ENDBRANCH   1   2
BRANCH   1   8
ATOM      8  C   UNL     1     138.670 135.662 121.850  1.00  0.00     0.000 C 
BRANCH   8   9
ATOM      9  C   UNL     1     139.954 135.668 122.699  1.00  0.00     0.000 C 
BRANCH   9  10
ATOM     10  C   UNL     1     139.687 136.069 124.164  1.00  0.00     0.004 C 
BRANCH  10  11
ATOM     11  C   UNL     1     139.330 134.879 125.068  1.00  0.00     0.027 C 
BRANCH  11  12
ATOM     12  C   UNL     1     137.875 134.878 125.450  1.00  0.00    -0.035 C 
ATOM     13  C   UNL     1     137.282 135.953 125.976  1.00  0.00     0.004 C 
ENDBRANCH  11  12
ENDBRANCH  10  11
ENDBRANCH   9  10
ENDBRANCH   8   9
ENDBRANCH   1   8
TORSDOF 10
ENDMDL
MODEL 6
REMARK VINA RESULT:    -3.569     14.450     16.971
REMARK INTER + INTRA:          -7.094
REMARK INTER:                  -6.084
REMARK INTRA:                  -1.009
REMARK UNBOUND:                -1.438
REMARK SMILES C=CCCCCCCCCCCC
REMARK SMILES IDX 7 1 8 2 9 3 10 4 11 5 12 6 13 7 6 8 5 9 4 10 3 11 2 12 1 13
REMARK H PARENT
REMARK Flexibility Score: inf
ROOT
ATOM      1  C   UNL     1     136.412 151.631 121.607  1.00  0.00     0.000 C 
ENDROOT
BRANCH   1   2
ATOM      2  C   UNL     1     136.882 153.096 121.654  1.00  0.00     0.000 C 
BRANCH   2   3
ATOM      3  C   UNL     1     135.883 154.011 122.380  1.00  0.00    -0.000 C 
BRANCH   3   4
ATOM      4  C   UNL     1     136.581 155.099 123.217  1.00  0.00    -0.000 C 
BRANCH   4   5
ATOM      5  C   UNL     1     138.102 155.125 122.999  1.00  0.00    -0.000 C 
BRANCH   5   6
ATOM      6  C   UNL     1     138.851 154.188 123.958  1.00  0.00    -0.003 C 
ATOM      7  C   UNL     1     139.809 154.968 124.853  1.00  0.00     0.004 C 
ENDBRANCH   5   6
ENDBRANCH   4   5
ENDBRANCH   3   4
ENDBRANCH   2   3
ENDBRANCH   1   2
BRANCH   1   8
ATOM      8  C   UNL     1     134.967 151.457 122.097  1.00  0.00     0.000 C 
BRANCH   8   9
ATOM      9  C   UNL     1     134.875 150.618 123.384  1.00  0.00     0.000 C 
BRANCH   9  10
ATOM     10  C   UNL     1     136.143 150.738 124.254  1.00  0.00     0.004 C 
BRANCH  10  11
ATOM     11  C   UNL     1     135.882 151.369 125.630  1.00  0.00     0.027 C 
BRANCH  11  12
ATOM     12  C   UNL     1     135.195 152.702 125.519  1.00  0.00    -0.035 C 
ATOM     13  C   UNL     1     135.636 153.782 126.171  1.00  0.00     0.004 C 
ENDBRANCH  11  12
ENDBRANCH  10  11
ENDBRANCH   9  10
ENDBRANCH   8   9
ENDBRANCH   1   8
TORSDOF 10
ENDMDL
MODEL 7
REMARK VINA RESULT:    -3.420     13.656     16.952
REMARK INTER + INTRA:          -6.857
REMARK INTER:                  -5.730
REMARK INTRA:                  -1.127
REMARK UNBOUND:                -1.438
REMARK SMILES C=CCCCCCCCCCCC
REMARK SMILES IDX 7 1 8 2 9 3 10 4 11 5 12 6 13 7 6 8 5 9 4 10 3 11 2 12 1 13
REMARK H PARENT
REMARK Flexibility Score: inf
ROOT
ATOM      1  C   UNL     1     137.516 154.390 124.928  1.00  0.00     0.000 C 
ENDROOT
BRANCH   1   2
ATOM      2  C   UNL     1     138.689 154.958 124.110  1.00  0.00     0.000 C 
BRANCH   2   3
ATOM      3  C   UNL     1     138.644 154.524 122.636  1.00  0.00    -0.000 C 
BRANCH   3   4
ATOM      4  C   UNL     1     138.220 153.054 122.467  1.00  0.00    -0.000 C 
BRANCH   4   5
ATOM      5  C   UNL     1     137.389 152.822 121.196  1.00  0.00    -0.000 C 
BRANCH   5   6
ATOM      6  C   UNL     1     136.142 151.963 121.455  1.00  0.00    -0.003 C 
ATOM      7  C   UNL     1     134.888 152.827 121.544  1.00  0.00     0.004 C 
ENDBRANCH   5   6
ENDBRANCH   4   5
ENDBRANCH   3   4
ENDBRANCH   2   3
ENDBRANCH   1   2
BRANCH   1   8
ATOM      8  C   UNL     1     136.149 154.735 124.319  1.00  0.00     0.000 C 
BRANCH   8   9
ATOM      9  C   UNL     1     134.998 153.937 124.957  1.00  0.00     0.000 C 
BRANCH   9  10
ATOM     10  C   UNL     1     135.498 152.925 126.009  1.00  0.00     0.004 C 
BRANCH  10  11
ATOM     11  C   UNL     1     135.192 151.464 125.644  1.00  0.00     0.027 C 
BRANCH  11  12
ATOM     12  C   UNL     1     136.024 150.985 124.486  1.00  0.00    -0.035 C 
ATOM     13  C   UNL     1     136.853 149.943 124.594  1.00  0.00     0.004 C 
ENDBRANCH  11  12
ENDBRANCH  10  11
ENDBRANCH   9  10
ENDBRANCH   8   9
ENDBRANCH   1   8
TORSDOF 10
ENDMDL
MODEL 8
REMARK VINA RESULT:    -2.001      0.886      4.201
REMARK INTER + INTRA:          -4.609
REMARK INTER:                  -3.593
REMARK INTRA:                  -1.016
REMARK UNBOUND:                -1.438
REMARK SMILES C=CCCCCCCCCCCC
REMARK SMILES IDX 7 1 8 2 9 3 10 4 11 5 12 6 13 7 6 8 5 9 4 10 3 11 2 12 1 13
REMARK H PARENT
REMARK Flexibility Score: inf
ROOT
ATOM      1  C   UNL     1     139.117 135.072 122.142  1.00  0.00     0.000 C 
ENDROOT
BRANCH   1   2
ATOM      2  C   UNL     1     140.338 135.232 123.065  1.00  0.00     0.000 C 
BRANCH   2   3
ATOM      3  C   UNL     1     140.036 136.099 124.297  1.00  0.00    -0.000 C 
BRANCH   3   4
ATOM      4  C   UNL     1     139.286 135.323 125.395  1.00  0.00    -0.000 C 
BRANCH   4   5
ATOM      5  C   UNL     1     137.946 135.976 125.767  1.00  0.00    -0.000 C 
BRANCH   5   6
ATOM      6  C   UNL     1     136.756 135.019 125.597  1.00  0.00    -0.003 C 
ATOM      7  C   UNL     1     136.372 134.875 124.128  1.00  0.00     0.004 C 
ENDBRANCH   5   6
ENDBRANCH   4   5
ENDBRANCH   3   4
ENDBRANCH   2   3
ENDBRANCH   1   2
BRANCH   1   8
ATOM      8  C   UNL     1     138.745 136.378 121.423  1.00  0.00     0.000 C 
BRANCH   8   9
ATOM      9  C   UNL     1     137.353 136.898 121.824  1.00  0.00     0.000 C 
BRANCH   9  10
ATOM     10  C   UNL     1     137.424 138.230 122.599  1.00  0.00     0.004 C 
BRANCH  10  11
ATOM     11  C   UNL     1     136.385 138.337 123.726  1.00  0.00     0.027 C 
BRANCH  11  12
ATOM     12  C   UNL     1     135.297 139.322 123.400  1.00  0.00    -0.035 C 
ATOM     13  C   UNL     1     134.933 140.282 124.255  1.00  0.00     0.004 C 
ENDBRANCH  11  12
ENDBRANCH  10  11
ENDBRANCH   9  10
ENDBRANCH   8   9
ENDBRANCH   1   8
TORSDOF 10
ENDMDL
