MODEL 1
REMARK VINA RESULT:    -4.091      0.000      0.000
REMARK INTER + INTRA:          -4.941
REMARK INTER:                  -4.928
REMARK INTRA:                  -0.013
REMARK UNBOUND:                -0.013
REMARK SMILES OCC(O)CO
REMARK SMILES IDX 3 1 5 2 6 3 2 5 1 6 4 8
REMARK H PARENT 6 4 1 7 4 9
REMARK Flexibility Score: inf
ROOT
ATOM      1  C   UNL     1      59.347  28.632  11.333  1.00  0.00     0.165 C 
ENDROOT
BRANCH   1   2
ATOM      2  C   UNL     1      58.929  27.949  12.646  1.00  0.00     0.190 C 
BRANCH   2   3
ATOM      3  O   UNL     1      57.789  27.159  12.447  1.00  0.00    -0.394 OA
ATOM      4  H   UNL     1      58.108  26.275  12.126  1.00  0.00     0.210 HD
ENDBRANCH   2   3
ENDBRANCH   1   2
BRANCH   1   5
ATOM      5  C   UNL     1      60.771  28.222  10.923  1.00  0.00     0.190 C 
BRANCH   5   6
ATOM      6  O   UNL     1      60.732  27.323   9.848  1.00  0.00    -0.394 OA
ATOM      7  H   UNL     1      59.812  26.950   9.820  1.00  0.00     0.210 HD
ENDBRANCH   5   6
ENDBRANCH   1   5
BRANCH   1   8
ATOM      8  O   UNL     1      59.242  30.030  11.446  1.00  0.00    -0.388 OA
ATOM      9  H   UNL     1      60.091  30.363  11.841  1.00  0.00     0.211 HD
ENDBRANCH   1   8
TORSDOF 5
ENDMDL
MODEL 2
REMARK VINA RESULT:    -3.802     14.701     15.826
REMARK INTER + INTRA:          -4.593
REMARK INTER:                  -4.584
REMARK INTRA:                  -0.009
REMARK UNBOUND:                -0.013
REMARK SMILES OCC(O)CO
REMARK SMILES IDX 3 1 5 2 6 3 2 5 1 6 4 8
REMARK H PARENT 6 4 1 7 4 9
REMARK Flexibility Score: inf
ROOT
ATOM      1  C   UNL     1      60.944  27.033  27.110  1.00  0.00     0.165 C 
ENDROOT
BRANCH   1   2
ATOM      2  C   UNL     1      60.310  27.055  25.708  1.00  0.00     0.190 C 
BRANCH   2   3
ATOM      3  O   UNL     1      59.135  26.290  25.689  1.00  0.00    -0.394 OA
ATOM      4  H   UNL     1      58.599  26.613  24.917  1.00  0.00     0.210 HD
ENDBRANCH   2   3
ENDBRANCH   1   2
BRANCH   1   5
ATOM      5  C   UNL     1      61.271  28.455  27.593  1.00  0.00     0.190 C 
BRANCH   5   6
ATOM      6  O   UNL     1      60.310  28.892  28.516  1.00  0.00    -0.394 OA
ATOM      7  H   UNL     1      60.369  29.883  28.542  1.00  0.00     0.210 HD
ENDBRANCH   5   6
ENDBRANCH   1   5
BRANCH   1   8
ATOM      8  O   UNL     1      62.094  26.224  27.120  1.00  0.00    -0.388 OA
ATOM      9  H   UNL     1      62.809  26.725  27.596  1.00  0.00     0.211 HD
ENDBRANCH   1   8
TORSDOF 5
ENDMDL
MODEL 3
REMARK VINA RESULT:    -3.786      0.900      2.929
REMARK INTER + INTRA:          -4.574
REMARK INTER:                  -4.567
REMARK INTRA:                  -0.007
REMARK UNBOUND:                -0.013
REMARK SMILES OCC(O)CO
REMARK SMILES IDX 3 1 5 2 6 3 2 5 1 6 4 8
REMARK H PARENT 6 4 1 7 4 9
REMARK Flexibility Score: inf
ROOT
ATOM      1  C   UNL     1      59.368  28.626  11.408  1.00  0.00     0.165 C 
ENDROOT
BRANCH   1   2
ATOM      2  C   UNL     1      60.126  29.925  11.732  1.00  0.00     0.190 C 
BRANCH   2   3
ATOM      3  O   UNL     1      59.232  30.927  12.133  1.00  0.00    -0.394 OA
ATOM      4  H   UNL     1      58.958  30.709  13.062  1.00  0.00     0.210 HD
ENDBRANCH   2   3
ENDBRANCH   1   2
BRANCH   1   5
ATOM      5  C   UNL     1      58.895  27.925  12.692  1.00  0.00     0.190 C 
BRANCH   5   6
ATOM      6  O   UNL     1      57.764  27.137  12.432  1.00  0.00    -0.394 OA
ATOM      7  H   UNL     1      57.615  27.167  11.451  1.00  0.00     0.210 HD
ENDBRANCH   5   6
ENDBRANCH   1   5
BRANCH   1   8
ATOM      8  O   UNL     1      60.169  27.765  10.636  1.00  0.00    -0.388 OA
ATOM      9  H   UNL     1      59.903  26.833  10.852  1.00  0.00     0.211 HD
ENDBRANCH   1   8
TORSDOF 5
ENDMDL
MODEL 4
REMARK VINA RESULT:    -3.777      1.063      2.618
REMARK INTER + INTRA:          -4.563
REMARK INTER:                  -4.341
REMARK INTRA:                  -0.222
REMARK UNBOUND:                -0.013
REMARK SMILES OCC(O)CO
REMARK SMILES IDX 3 1 5 2 6 3 2 5 1 6 4 8
REMARK H PARENT 6 4 1 7 4 9
REMARK Flexibility Score: inf
ROOT
ATOM      1  C   UNL     1      59.601  28.824  12.534  1.00  0.00     0.165 C 
ENDROOT
BRANCH   1   2
ATOM      2  C   UNL     1      59.495  28.944  11.004  1.00  0.00     0.190 C 
BRANCH   2   3
ATOM      3  O   UNL     1      59.997  27.790  10.385  1.00  0.00    -0.394 OA
ATOM      4  H   UNL     1      59.222  27.185  10.243  1.00  0.00     0.210 HD
ENDBRANCH   2   3
ENDBRANCH   1   2
BRANCH   1   5
ATOM      5  C   UNL     1      58.949  27.526  13.035  1.00  0.00     0.190 C 
BRANCH   5   6
ATOM      6  O   UNL     1      57.779  27.254  12.311  1.00  0.00    -0.394 OA
ATOM      7  H   UNL     1      57.677  26.267  12.291  1.00  0.00     0.210 HD
ENDBRANCH   5   6
ENDBRANCH   1   5
BRANCH   1   8
ATOM      8  O   UNL     1      59.028  29.946  13.159  1.00  0.00    -0.388 OA
ATOM      9  H   UNL     1      58.747  30.577  12.445  1.00  0.00     0.211 HD
ENDBRANCH   1   8
TORSDOF 5
ENDMDL
MODEL 5
REMARK VINA RESULT:    -3.768     13.853     14.774
REMARK INTER + INTRA:          -4.551
REMARK INTER:                  -4.328
REMARK INTRA:                  -0.224
REMARK UNBOUND:                -0.013
REMARK SMILES OCC(O)CO
REMARK SMILES IDX 3 1 5 2 6 3 2 5 1 6 4 8
REMARK H PARENT 6 4 1 7 4 9
REMARK Flexibility Score: inf
ROOT
ATOM      1  C   UNL     1      61.411  27.181  25.571  1.00  0.00     0.165 C 
ENDROOT
BRANCH   1   2
ATOM      2  C   UNL     1      61.583  26.909  27.075  1.00  0.00     0.190 C 
BRANCH   2   3
ATOM      3  O   UNL     1      60.351  27.003  27.735  1.00  0.00    -0.394 OA
ATOM      4  H   UNL     1      59.808  26.226  27.436  1.00  0.00     0.210 HD
ENDBRANCH   2   3
ENDBRANCH   1   2
BRANCH   1   5
ATOM      5  C   UNL     1      59.936  27.434  25.218  1.00  0.00     0.190 C 
BRANCH   5   6
ATOM      6  O   UNL     1      59.238  26.220  25.135  1.00  0.00    -0.394 OA
ATOM      7  H   UNL     1      58.272  26.447  25.120  1.00  0.00     0.210 HD
ENDBRANCH   5   6
ENDBRANCH   1   5
BRANCH   1   8
ATOM      8  O   UNL     1      61.932  26.118  24.812  1.00  0.00    -0.388 OA
ATOM      9  H   UNL     1      61.404  25.305  25.033  1.00  0.00     0.211 HD
ENDBRANCH   1   8
TORSDOF 5
ENDMDL
MODEL 6
REMARK VINA RESULT:    -3.737      1.158      1.868
REMARK INTER + INTRA:          -4.514
REMARK INTER:                  -4.511
REMARK INTRA:                  -0.002
REMARK UNBOUND:                -0.013
REMARK SMILES OCC(O)CO
REMARK SMILES IDX 3 1 5 2 6 3 2 5 1 6 4 8
REMARK H PARENT 6 4 1 7 4 9
REMARK Flexibility Score: inf
ROOT
ATOM      1  C   UNL     1      59.644  28.407  11.743  1.00  0.00     0.165 C 
ENDROOT
BRANCH   1   2
ATOM      2  C   UNL     1      58.791  27.855  12.898  1.00  0.00     0.190 C 
BRANCH   2   3
ATOM      3  O   UNL     1      57.706  27.122  12.399  1.00  0.00    -0.394 OA
ATOM      4  H   UNL     1      57.117  26.922  13.174  1.00  0.00     0.210 HD
ENDBRANCH   2   3
ENDBRANCH   1   2
BRANCH   1   5
ATOM      5  C   UNL     1      59.861  29.922  11.888  1.00  0.00     0.190 C 
BRANCH   5   6
ATOM      6  O   UNL     1      60.050  30.513  10.630  1.00  0.00    -0.394 OA
ATOM      7  H   UNL     1      60.113  29.772   9.973  1.00  0.00     0.210 HD
ENDBRANCH   5   6
ENDBRANCH   1   5
BRANCH   1   8
ATOM      8  O   UNL     1      59.055  28.103  10.502  1.00  0.00    -0.388 OA
ATOM      9  H   UNL     1      59.650  27.458  10.037  1.00  0.00     0.211 HD
ENDBRANCH   1   8
TORSDOF 5
ENDMDL
MODEL 7
REMARK VINA RESULT:    -3.711     13.383     13.952
REMARK INTER + INTRA:          -4.483
REMARK INTER:                  -4.261
REMARK INTRA:                  -0.222
REMARK UNBOUND:                -0.013
REMARK SMILES OCC(O)CO
REMARK SMILES IDX 3 1 5 2 6 3 2 5 1 6 4 8
REMARK H PARENT 6 4 1 7 4 9
REMARK Flexibility Score: inf
ROOT
ATOM      1  C   UNL     1      63.153  26.437  25.013  1.00  0.00     0.165 C 
ENDROOT
BRANCH   1   2
ATOM      2  C   UNL     1      61.866  27.239  24.759  1.00  0.00     0.190 C 
BRANCH   2   3
ATOM      3  O   UNL     1      60.737  26.452  25.023  1.00  0.00    -0.394 OA
ATOM      4  H   UNL     1      60.518  26.582  25.983  1.00  0.00     0.210 HD
ENDBRANCH   2   3
ENDBRANCH   1   2
BRANCH   1   5
ATOM      5  C   UNL     1      63.473  25.510  23.829  1.00  0.00     0.190 C 
BRANCH   5   6
ATOM      6  O   UNL     1      62.563  24.444  23.783  1.00  0.00    -0.394 OA
ATOM      7  H   UNL     1      62.943  23.718  24.343  1.00  0.00     0.210 HD
ENDBRANCH   5   6
ENDBRANCH   1   5
BRANCH   1   8
ATOM      8  O   UNL     1      63.052  25.703  26.209  1.00  0.00    -0.388 OA
ATOM      9  H   UNL     1      63.748  26.044  26.831  1.00  0.00     0.211 HD
ENDBRANCH   1   8
TORSDOF 5
ENDMDL
MODEL 8
REMARK VINA RESULT:    -3.695      1.785      1.987
REMARK INTER + INTRA:          -4.464
REMARK INTER:                  -4.247
REMARK INTRA:                  -0.217
REMARK UNBOUND:                -0.013
REMARK SMILES OCC(O)CO
REMARK SMILES IDX 3 1 5 2 6 3 2 5 1 6 4 8
REMARK H PARENT 6 4 1 7 4 9
REMARK Flexibility Score: inf
ROOT
ATOM      1  C   UNL     1      59.651  29.275   9.445  1.00  0.00     0.165 C 
ENDROOT
BRANCH   1   2
ATOM      2  C   UNL     1      59.584  29.363  10.979  1.00  0.00     0.190 C 
BRANCH   2   3
ATOM      3  O   UNL     1      58.885  28.267  11.503  1.00  0.00    -0.394 OA
ATOM      4  H   UNL     1      59.388  27.967  12.306  1.00  0.00     0.210 HD
ENDBRANCH   2   3
ENDBRANCH   1   2
BRANCH   1   5
ATOM      5  C   UNL     1      60.874  28.463   8.989  1.00  0.00     0.190 C 
BRANCH   5   6
ATOM      6  O   UNL     1      60.774  27.136   9.432  1.00  0.00    -0.394 OA
ATOM      7  H   UNL     1      60.302  26.632   8.719  1.00  0.00     0.210 HD
ENDBRANCH   5   6
ENDBRANCH   1   5
BRANCH   1   8
ATOM      8  O   UNL     1      59.665  30.561   8.875  1.00  0.00    -0.388 OA
ATOM      9  H   UNL     1      59.361  30.475   7.933  1.00  0.00     0.211 HD
ENDBRANCH   1   8
TORSDOF 5
ENDMDL
MODEL 9
REMARK VINA RESULT:    -3.695     14.175     15.244
REMARK INTER + INTRA:          -4.464
REMARK INTER:                  -4.445
REMARK INTRA:                  -0.019
REMARK UNBOUND:                -0.013
REMARK SMILES OCC(O)CO
REMARK SMILES IDX 3 1 5 2 6 3 2 5 1 6 4 8
REMARK H PARENT 6 4 1 7 4 9
REMARK Flexibility Score: inf
ROOT
ATOM      1  C   UNL     1      60.915  27.020  26.825  1.00  0.00     0.165 C 
ENDROOT
BRANCH   1   2
ATOM      2  C   UNL     1      62.449  26.983  26.714  1.00  0.00     0.190 C 
BRANCH   2   3
ATOM      3  O   UNL     1      62.867  25.797  26.095  1.00  0.00    -0.394 OA
ATOM      4  H   UNL     1      62.060  25.392  25.681  1.00  0.00     0.210 HD
ENDBRANCH   2   3
ENDBRANCH   1   2
BRANCH   1   5
ATOM      5  C   UNL     1      60.262  27.141  25.439  1.00  0.00     0.190 C 
BRANCH   5   6
ATOM      6  O   UNL     1      59.164  26.274  25.337  1.00  0.00    -0.394 OA
ATOM      7  H   UNL     1      59.415  25.439  25.811  1.00  0.00     0.210 HD
ENDBRANCH   5   6
ENDBRANCH   1   5
BRANCH   1   8
ATOM      8  O   UNL     1      60.504  28.071  27.664  1.00  0.00    -0.388 OA
ATOM      9  H   UNL     1      60.479  27.720  28.594  1.00  0.00     0.211 HD
ENDBRANCH   1   8
TORSDOF 5
ENDMDL
