MODEL 1
REMARK VINA RESULT:    -3.638      0.000      0.000
REMARK INTER + INTRA:          -6.010
REMARK INTER:                  -5.551
REMARK INTRA:                  -0.458
REMARK UNBOUND:                -0.458
REMARK SMILES CCCCCCCCCCC(=O)[O-]
REMARK SMILES IDX 7 1 8 2 9 3 10 4 11 5 12 6 13 7 6 8 5 9 4 10 3 11 2 12 1 13
REMARK H PARENT
REMARK Flexibility Score: inf
ROOT
ATOM      1  C   UNL     1      24.109  41.657   3.926  1.00  0.00     0.000 C 
ENDROOT
BRANCH   1   2
ATOM      2  C   UNL     1      24.079  42.094   5.398  1.00  0.00     0.000 C 
BRANCH   2   3
ATOM      3  C   UNL     1      25.229  43.049   5.757  1.00  0.00     0.006 C 
BRANCH   3   4
ATOM      4  C   UNL     1      24.742  44.472   6.060  1.00  0.00     0.053 C 
BRANCH   4   5
ATOM      5  C   UNL     1      25.792  45.472   5.690  1.00  0.00     0.041 C 
ATOM      6  O   UNL     1      25.461  46.627   5.311  1.00  0.00    -0.550 OA
ATOM      7  O   UNL     1      27.133  45.114   5.715  1.00  0.00    -0.550 OA
ENDBRANCH   4   5
ENDBRANCH   3   4
ENDBRANCH   2   3
ENDBRANCH   1   2
BRANCH   1   8
ATOM      8  C   UNL     1      25.538  41.683   3.373  1.00  0.00     0.000 C 
BRANCH   8   9
ATOM      9  C   UNL     1      25.758  40.557   2.356  1.00  0.00    -0.000 C 
BRANCH   9  10
ATOM     10  C   UNL     1      24.477  40.286   1.552  1.00  0.00    -0.000 C 
BRANCH  10  11
ATOM     11  C   UNL     1      24.713  39.333   0.369  1.00  0.00    -0.000 C 
BRANCH  11  12
ATOM     12  C   UNL     1      26.070  39.561  -0.312  1.00  0.00    -0.003 C 
ATOM     13  C   UNL     1      25.892  40.161  -1.704  1.00  0.00     0.004 C 
ENDBRANCH  11  12
ENDBRANCH  10  11
ENDBRANCH   9  10
ENDBRANCH   8   9
ENDBRANCH   1   8
TORSDOF 9
ENDMDL
MODEL 2
REMARK VINA RESULT:    -3.588      3.880      6.222
REMARK INTER + INTRA:          -5.934
REMARK INTER:                  -4.955
REMARK INTRA:                  -0.978
REMARK UNBOUND:                -0.458
REMARK SMILES CCCCCCCCCCC(=O)[O-]
REMARK SMILES IDX 7 1 8 2 9 3 10 4 11 5 12 6 13 7 6 8 5 9 4 10 3 11 2 12 1 13
REMARK H PARENT
REMARK Flexibility Score: inf
ROOT
ATOM      1  C   UNL     1      24.582  39.642   3.185  1.00  0.00     0.000 C 
ENDROOT
BRANCH   1   2
ATOM      2  C   UNL     1      24.378  40.499   1.926  1.00  0.00     0.000 C 
BRANCH   2   3
ATOM      3  C   UNL     1      24.664  39.726   0.629  1.00  0.00     0.006 C 
BRANCH   3   4
ATOM      4  C   UNL     1      26.161  39.478   0.407  1.00  0.00     0.053 C 
BRANCH   4   5
ATOM      5  C   UNL     1      26.514  39.673  -1.034  1.00  0.00     0.041 C 
ATOM      6  O   UNL     1      27.602  39.225  -1.486  1.00  0.00    -0.550 OA
ATOM      7  O   UNL     1      25.666  40.390  -1.867  1.00  0.00    -0.550 OA
ENDBRANCH   4   5
ENDBRANCH   3   4
ENDBRANCH   2   3
ENDBRANCH   1   2
BRANCH   1   8
ATOM      8  C   UNL     1      24.192  40.418   4.448  1.00  0.00     0.000 C 
BRANCH   8   9
ATOM      9  C   UNL     1      24.065  41.918   4.157  1.00  0.00    -0.000 C 
BRANCH   9  10
ATOM     10  C   UNL     1      25.207  42.705   4.818  1.00  0.00    -0.000 C 
BRANCH  10  11
ATOM     11  C   UNL     1      26.288  43.135   3.814  1.00  0.00    -0.000 C 
BRANCH  11  12
ATOM     12  C   UNL     1      27.661  42.522   4.125  1.00  0.00    -0.003 C 
ATOM     13  C   UNL     1      27.844  41.190   3.402  1.00  0.00     0.004 C 
ENDBRANCH  11  12
ENDBRANCH  10  11
ENDBRANCH   9  10
ENDBRANCH   8   9
ENDBRANCH   1   8
TORSDOF 9
ENDMDL
MODEL 3
REMARK VINA RESULT:    -3.523      1.328      1.995
REMARK INTER + INTRA:          -5.835
REMARK INTER:                  -5.294
REMARK INTRA:                  -0.541
REMARK UNBOUND:                -0.458
REMARK SMILES CCCCCCCCCCC(=O)[O-]
REMARK SMILES IDX 7 1 8 2 9 3 10 4 11 5 12 6 13 7 6 8 5 9 4 10 3 11 2 12 1 13
REMARK H PARENT
REMARK Flexibility Score: inf
ROOT
ATOM      1  C   UNL     1      24.352  40.796   2.597  1.00  0.00     0.000 C 
ENDROOT
BRANCH   1   2
ATOM      2  C   UNL     1      25.569  41.584   3.104  1.00  0.00     0.000 C 
BRANCH   2   3
ATOM      3  C   UNL     1      25.224  42.518   4.275  1.00  0.00     0.006 C 
BRANCH   3   4
ATOM      4  C   UNL     1      26.195  43.700   4.393  1.00  0.00     0.053 C 
BRANCH   4   5
ATOM      5  C   UNL     1      25.782  44.606   5.510  1.00  0.00     0.041 C 
ATOM      6  O   UNL     1      25.307  44.124   6.573  1.00  0.00    -0.550 OA
ATOM      7  O   UNL     1      25.875  45.982   5.360  1.00  0.00    -0.550 OA
ENDBRANCH   4   5
ENDBRANCH   3   4
ENDBRANCH   2   3
ENDBRANCH   1   2
BRANCH   1   8
ATOM      8  C   UNL     1      24.561  39.287   2.774  1.00  0.00     0.000 C 
BRANCH   8   9
ATOM      9  C   UNL     1      24.918  38.619   1.442  1.00  0.00    -0.000 C 
BRANCH   9  10
ATOM     10  C   UNL     1      24.413  39.454   0.255  1.00  0.00    -0.000 C 
BRANCH  10  11
ATOM     11  C   UNL     1      25.548  39.906  -0.677  1.00  0.00    -0.000 C 
BRANCH  11  12
ATOM     12  C   UNL     1      26.911  39.328  -0.272  1.00  0.00    -0.003 C 
ATOM     13  C   UNL     1      27.853  39.248  -1.470  1.00  0.00     0.004 C 
ENDBRANCH  11  12
ENDBRANCH  10  11
ENDBRANCH   9  10
ENDBRANCH   8   9
ENDBRANCH   1   8
TORSDOF 9
ENDMDL
MODEL 4
REMARK VINA RESULT:    -3.503      3.712      6.844
REMARK INTER + INTRA:          -5.804
REMARK INTER:                  -5.307
REMARK INTRA:                  -0.497
REMARK UNBOUND:                -0.458
REMARK SMILES CCCCCCCCCCC(=O)[O-]
REMARK SMILES IDX 7 1 8 2 9 3 10 4 11 5 12 6 13 7 6 8 5 9 4 10 3 11 2 12 1 13
REMARK H PARENT
REMARK Flexibility Score: inf
ROOT
ATOM      1  C   UNL     1      24.949  40.681   2.256  1.00  0.00     0.000 C 
ENDROOT
BRANCH   1   2
ATOM      2  C   UNL     1      23.982  40.073   1.228  1.00  0.00     0.000 C 
BRANCH   2   3
ATOM      3  C   UNL     1      24.676  39.095   0.267  1.00  0.00     0.006 C 
BRANCH   3   4
ATOM      4  C   UNL     1      25.455  39.810  -0.843  1.00  0.00     0.053 C 
BRANCH   4   5
ATOM      5  C   UNL     1      26.871  39.328  -0.881  1.00  0.00     0.041 C 
ATOM      6  O   UNL     1      27.338  38.658   0.078  1.00  0.00    -0.550 OA
ATOM      7  O   UNL     1      27.690  39.659  -1.952  1.00  0.00    -0.550 OA
ENDBRANCH   4   5
ENDBRANCH   3   4
ENDBRANCH   2   3
ENDBRANCH   1   2
BRANCH   1   8
ATOM      8  C   UNL     1      24.225  41.004   3.568  1.00  0.00     0.000 C 
BRANCH   8   9
ATOM      9  C   UNL     1      24.837  42.233   4.248  1.00  0.00    -0.000 C 
BRANCH   9  10
ATOM     10  C   UNL     1      26.203  42.578   3.634  1.00  0.00    -0.000 C 
BRANCH  10  11
ATOM     11  C   UNL     1      26.898  43.745   4.354  1.00  0.00    -0.000 C 
BRANCH  11  12
ATOM     12  C   UNL     1      26.118  44.229   5.584  1.00  0.00    -0.003 C 
ATOM     13  C   UNL     1      25.838  45.727   5.502  1.00  0.00     0.004 C 
ENDBRANCH  11  12
ENDBRANCH  10  11
ENDBRANCH   9  10
ENDBRANCH   8   9
ENDBRANCH   1   8
TORSDOF 9
ENDMDL
MODEL 5
REMARK VINA RESULT:    -3.480      1.885      2.345
REMARK INTER + INTRA:          -5.769
REMARK INTER:                  -5.095
REMARK INTRA:                  -0.674
REMARK UNBOUND:                -0.458
REMARK SMILES CCCCCCCCCCC(=O)[O-]
REMARK SMILES IDX 7 1 8 2 9 3 10 4 11 5 12 6 13 7 6 8 5 9 4 10 3 11 2 12 1 13
REMARK H PARENT
REMARK Flexibility Score: inf
ROOT
ATOM      1  C   UNL     1      27.388  42.358   4.033  1.00  0.00     0.000 C 
ENDROOT
BRANCH   1   2
ATOM      2  C   UNL     1      26.561  43.652   3.991  1.00  0.00     0.000 C 
BRANCH   2   3
ATOM      3  C   UNL     1      26.477  44.347   5.359  1.00  0.00     0.006 C 
BRANCH   3   4
ATOM      4  C   UNL     1      25.055  44.346   5.935  1.00  0.00     0.053 C 
BRANCH   4   5
ATOM      5  C   UNL     1      24.952  43.371   7.066  1.00  0.00     0.041 C 
ATOM      6  O   UNL     1      24.719  43.780   8.235  1.00  0.00    -0.550 OA
ATOM      7  O   UNL     1      25.161  42.018   6.839  1.00  0.00    -0.550 OA
ENDBRANCH   4   5
ENDBRANCH   3   4
ENDBRANCH   2   3
ENDBRANCH   1   2
BRANCH   1   8
ATOM      8  C   UNL     1      26.673  41.224   3.289  1.00  0.00     0.000 C 
BRANCH   8   9
ATOM      9  C   UNL     1      25.162  41.473   3.224  1.00  0.00    -0.000 C 
BRANCH   9  10
ATOM     10  C   UNL     1      24.518  40.655   2.095  1.00  0.00    -0.000 C 
BRANCH  10  11
ATOM     11  C   UNL     1      25.557  39.965   1.198  1.00  0.00    -0.000 C 
BRANCH  11  12
ATOM     12  C   UNL     1      24.959  39.470  -0.127  1.00  0.00    -0.003 C 
ATOM     13  C   UNL     1      25.798  39.932  -1.315  1.00  0.00     0.004 C 
ENDBRANCH  11  12
ENDBRANCH  10  11
ENDBRANCH   9  10
ENDBRANCH   8   9
ENDBRANCH   1   8
TORSDOF 9
ENDMDL
MODEL 6
REMARK VINA RESULT:    -3.405     19.413     20.977
REMARK INTER + INTRA:          -5.655
REMARK INTER:                  -5.171
REMARK INTRA:                  -0.484
REMARK UNBOUND:                -0.458
REMARK SMILES CCCCCCCCCCC(=O)[O-]
REMARK SMILES IDX 7 1 8 2 9 3 10 4 11 5 12 6 13 7 6 8 5 9 4 10 3 11 2 12 1 13
REMARK H PARENT
REMARK Flexibility Score: inf
ROOT
ATOM      1  C   UNL     1      43.759  31.837   3.324  1.00  0.00     0.000 C 
ENDROOT
BRANCH   1   2
ATOM      2  C   UNL     1      42.503  30.960   3.432  1.00  0.00     0.000 C 
BRANCH   2   3
ATOM      3  C   UNL     1      42.222  30.502   4.872  1.00  0.00     0.006 C 
BRANCH   3   4
ATOM      4  C   UNL     1      41.578  29.111   4.934  1.00  0.00     0.053 C 
BRANCH   4   5
ATOM      5  C   UNL     1      42.313  28.238   5.901  1.00  0.00     0.041 C 
ATOM      6  O   UNL     1      41.814  27.142   6.271  1.00  0.00    -0.550 OA
ATOM      7  O   UNL     1      43.525  28.656   6.433  1.00  0.00    -0.550 OA
ENDBRANCH   4   5
ENDBRANCH   3   4
ENDBRANCH   2   3
ENDBRANCH   1   2
BRANCH   1   8
ATOM      8  C   UNL     1      43.906  32.416   1.912  1.00  0.00     0.000 C 
BRANCH   8   9
ATOM      9  C   UNL     1      42.995  33.634   1.718  1.00  0.00    -0.000 C 
BRANCH   9  10
ATOM     10  C   UNL     1      41.974  33.384   0.598  1.00  0.00    -0.000 C 
BRANCH  10  11
ATOM     11  C   UNL     1      42.503  32.429  -0.484  1.00  0.00    -0.000 C 
BRANCH  11  12
ATOM     12  C   UNL     1      41.590  32.367  -1.716  1.00  0.00    -0.003 C 
ATOM     13  C   UNL     1      40.567  33.500  -1.700  1.00  0.00     0.004 C 
ENDBRANCH  11  12
ENDBRANCH  10  11
ENDBRANCH   9  10
ENDBRANCH   8   9
ENDBRANCH   1   8
TORSDOF 9
ENDMDL
MODEL 7
REMARK VINA RESULT:    -3.382     18.092     19.991
REMARK INTER + INTRA:          -5.620
REMARK INTER:                  -4.580
REMARK INTRA:                  -1.040
REMARK UNBOUND:                -0.458
REMARK SMILES CCCCCCCCCCC(=O)[O-]
REMARK SMILES IDX 7 1 8 2 9 3 10 4 11 5 12 6 13 7 6 8 5 9 4 10 3 11 2 12 1 13
REMARK H PARENT
REMARK Flexibility Score: inf
ROOT
ATOM      1  C   UNL     1      43.679  33.479   0.338  1.00  0.00     0.000 C 
ENDROOT
BRANCH   1   2
ATOM      2  C   UNL     1      43.647  33.315   1.865  1.00  0.00     0.000 C 
BRANCH   2   3
ATOM      3  C   UNL     1      43.560  31.844   2.303  1.00  0.00     0.006 C 
BRANCH   3   4
ATOM      4  C   UNL     1      42.326  31.557   3.166  1.00  0.00     0.053 C 
BRANCH   4   5
ATOM      5  C   UNL     1      42.629  30.488   4.169  1.00  0.00     0.041 C 
ATOM      6  O   UNL     1      43.662  30.567   4.886  1.00  0.00    -0.550 OA
ATOM      7  O   UNL     1      41.798  29.381   4.278  1.00  0.00    -0.550 OA
ENDBRANCH   4   5
ENDBRANCH   3   4
ENDBRANCH   2   3
ENDBRANCH   1   2
BRANCH   1   8
ATOM      8  C   UNL     1      42.692  32.520  -0.339  1.00  0.00     0.000 C 
BRANCH   8   9
ATOM      9  C   UNL     1      41.722  33.281  -1.250  1.00  0.00    -0.000 C 
BRANCH   9  10
ATOM     10  C   UNL     1      40.297  33.258  -0.675  1.00  0.00    -0.000 C 
BRANCH  10  11
ATOM     11  C   UNL     1      39.905  34.587  -0.012  1.00  0.00    -0.000 C 
BRANCH  11  12
ATOM     12  C   UNL     1      40.170  34.594   1.500  1.00  0.00    -0.003 C 
ATOM     13  C   UNL     1      39.346  33.522   2.208  1.00  0.00     0.004 C 
ENDBRANCH  11  12
ENDBRANCH  10  11
ENDBRANCH   9  10
ENDBRANCH   8   9
ENDBRANCH   1   8
TORSDOF 9
ENDMDL
MODEL 8
REMARK VINA RESULT:    -3.340     18.061     19.742
REMARK INTER + INTRA:          -5.556
REMARK INTER:                  -4.693
REMARK INTRA:                  -0.863
REMARK UNBOUND:                -0.458
REMARK SMILES CCCCCCCCCCC(=O)[O-]
REMARK SMILES IDX 7 1 8 2 9 3 10 4 11 5 12 6 13 7 6 8 5 9 4 10 3 11 2 12 1 13
REMARK H PARENT
REMARK Flexibility Score: inf
ROOT
ATOM      1  C   UNL     1      40.582  32.576   2.749  1.00  0.00     0.000 C 
ENDROOT
BRANCH   1   2
ATOM      2  C   UNL     1      41.979  32.752   3.362  1.00  0.00     0.000 C 
BRANCH   2   3
ATOM      3  C   UNL     1      42.939  31.612   2.988  1.00  0.00     0.006 C 
BRANCH   3   4
ATOM      4  C   UNL     1      43.615  30.983   4.213  1.00  0.00     0.053 C 
BRANCH   4   5
ATOM      5  C   UNL     1      42.640  30.133   4.966  1.00  0.00     0.041 C 
ATOM      6  O   UNL     1      42.658  30.114   6.226  1.00  0.00    -0.550 OA
ATOM      7  O   UNL     1      41.746  29.323   4.279  1.00  0.00    -0.550 OA
ENDBRANCH   4   5
ENDBRANCH   3   4
ENDBRANCH   2   3
ENDBRANCH   1   2
BRANCH   1   8
ATOM      8  C   UNL     1      40.030  33.914   2.243  1.00  0.00     0.000 C 
BRANCH   8   9
ATOM      9  C   UNL     1      39.459  33.776   0.827  1.00  0.00    -0.000 C 
BRANCH   9  10
ATOM     10  C   UNL     1      40.526  34.100  -0.230  1.00  0.00    -0.000 C 
BRANCH  10  11
ATOM     11  C   UNL     1      40.601  33.040  -1.340  1.00  0.00    -0.000 C 
BRANCH  11  12
ATOM     12  C   UNL     1      42.026  32.512  -1.557  1.00  0.00    -0.003 C 
ATOM     13  C   UNL     1      42.951  32.943  -0.422  1.00  0.00     0.004 C 
ENDBRANCH  11  12
ENDBRANCH  10  11
ENDBRANCH   9  10
ENDBRANCH   8   9
ENDBRANCH   1   8
TORSDOF 9
ENDMDL
MODEL 9
REMARK VINA RESULT:    -3.265      4.157      6.012
REMARK INTER + INTRA:          -5.441
REMARK INTER:                  -4.122
REMARK INTRA:                  -1.319
REMARK UNBOUND:                -0.458
REMARK SMILES CCCCCCCCCCC(=O)[O-]
REMARK SMILES IDX 7 1 8 2 9 3 10 4 11 5 12 6 13 7 6 8 5 9 4 10 3 11 2 12 1 13
REMARK H PARENT
REMARK Flexibility Score: inf
ROOT
ATOM      1  C   UNL     1      24.183  40.663   2.365  1.00  0.00     0.000 C 
ENDROOT
BRANCH   1   2
ATOM      2  C   UNL     1      24.401  39.153   2.189  1.00  0.00     0.000 C 
BRANCH   2   3
ATOM      3  C   UNL     1      24.914  38.786   0.787  1.00  0.00     0.006 C 
BRANCH   3   4
ATOM      4  C   UNL     1      25.371  40.012  -0.014  1.00  0.00     0.053 C 
BRANCH   4   5
ATOM      5  C   UNL     1      26.355  39.610  -1.066  1.00  0.00     0.041 C 
ATOM      6  O   UNL     1      26.461  40.285  -2.125  1.00  0.00    -0.550 OA
ATOM      7  O   UNL     1      27.121  38.464  -0.901  1.00  0.00    -0.550 OA
ENDBRANCH   4   5
ENDBRANCH   3   4
ENDBRANCH   2   3
ENDBRANCH   1   2
BRANCH   1   8
ATOM      8  C   UNL     1      24.632  41.125   3.756  1.00  0.00     0.000 C 
BRANCH   8   9
ATOM      9  C   UNL     1      25.748  42.172   3.656  1.00  0.00    -0.000 C 
BRANCH   9  10
ATOM     10  C   UNL     1      27.123  41.500   3.522  1.00  0.00    -0.000 C 
BRANCH  10  11
ATOM     11  C   UNL     1      27.258  40.248   4.403  1.00  0.00    -0.000 C 
BRANCH  11  12
ATOM     12  C   UNL     1      27.783  39.032   3.627  1.00  0.00    -0.003 C 
ATOM     13  C   UNL     1      28.320  39.444   2.259  1.00  0.00     0.004 C 
ENDBRANCH  11  12
ENDBRANCH  10  11
ENDBRANCH   9  10
ENDBRANCH   8   9
ENDBRANCH   1   8
TORSDOF 9
ENDMDL
