MODEL 1
REMARK VINA RESULT:    -4.953      0.000      0.000
REMARK INTER + INTRA:          -7.060
REMARK INTER:                  -6.691
REMARK INTRA:                  -0.369
REMARK UNBOUND:                -0.369
REMARK SMILES CCCCCCC=CC(=O)[O-]
REMARK SMILES IDX 5 1 6 2 7 3 8 4 9 5 10 6 11 7 4 8 3 9 2 10 1 11
REMARK H PARENT
REMARK Flexibility Score: inf
ROOT
ATOM      1  C   UNL     1      19.136   0.870 -15.277  1.00  0.00     0.004 C 
ENDROOT
BRANCH   1   2
ATOM      2  C   UNL     1      19.458   1.689 -16.539  1.00  0.00     0.027 C 
BRANCH   2   3
ATOM      3  C   UNL     1      20.903   1.588 -16.942  1.00  0.00    -0.025 C 
ATOM      4  C   UNL     1      21.739   0.738 -16.335  1.00  0.00     0.020 C 
BRANCH   4   5
ATOM      5  C   UNL     1      23.155   0.620 -16.717  1.00  0.00     0.064 C 
ATOM      6  O   UNL     1      23.547   0.928 -17.875  1.00  0.00    -0.545 OA
ATOM      7  O   UNL     1      24.078   0.160 -15.786  1.00  0.00    -0.545 OA
ENDBRANCH   4   5
ENDBRANCH   2   3
ENDBRANCH   1   2
BRANCH   1   8
ATOM      8  C   UNL     1      17.670   0.403 -15.174  1.00  0.00     0.000 C 
BRANCH   8   9
ATOM      9  C   UNL     1      17.113  -0.274 -16.439  1.00  0.00    -0.000 C 
BRANCH   9  10
ATOM     10  C   UNL     1      15.852   0.415 -16.981  1.00  0.00    -0.003 C 
ATOM     11  C   UNL     1      14.988   0.952 -15.844  1.00  0.00     0.004 C 
ENDBRANCH   9  10
ENDBRANCH   8   9
ENDBRANCH   1   8
TORSDOF 6
ENDMDL
MODEL 2
REMARK VINA RESULT:    -4.909     10.896     11.542
REMARK INTER + INTRA:          -7.000
REMARK INTER:                  -6.334
REMARK INTRA:                  -0.666
REMARK UNBOUND:                -0.369
REMARK SMILES CCCCCCC=CC(=O)[O-]
REMARK SMILES IDX 5 1 6 2 7 3 8 4 9 5 10 6 11 7 4 8 3 9 2 10 1 11
REMARK H PARENT
REMARK Flexibility Score: inf
ROOT
ATOM      1  C   UNL     1      18.473  -3.391 -28.035  1.00  0.00     0.004 C 
ENDROOT
BRANCH   1   2
ATOM      2  C   UNL     1      19.778  -3.383 -28.849  1.00  0.00     0.027 C 
BRANCH   2   3
ATOM      3  C   UNL     1      20.990  -3.661 -28.003  1.00  0.00    -0.025 C 
ATOM      4  C   UNL     1      21.595  -2.691 -27.309  1.00  0.00     0.020 C 
BRANCH   4   5
ATOM      5  C   UNL     1      22.778  -2.943 -26.471  1.00  0.00     0.064 C 
ATOM      6  O   UNL     1      23.852  -2.310 -26.653  1.00  0.00    -0.545 OA
ATOM      7  O   UNL     1      22.710  -3.895 -25.462  1.00  0.00    -0.545 OA
ENDBRANCH   4   5
ENDBRANCH   2   3
ENDBRANCH   1   2
BRANCH   1   8
ATOM      8  C   UNL     1      17.982  -4.794 -27.626  1.00  0.00     0.000 C 
BRANCH   8   9
ATOM      9  C   UNL     1      17.598  -4.942 -26.143  1.00  0.00    -0.000 C 
BRANCH   9  10
ATOM     10  C   UNL     1      18.301  -3.919 -25.238  1.00  0.00    -0.003 C 
ATOM     11  C   UNL     1      19.492  -4.547 -24.520  1.00  0.00     0.004 C 
ENDBRANCH   9  10
ENDBRANCH   8   9
ENDBRANCH   1   8
TORSDOF 6
ENDMDL
MODEL 3
REMARK VINA RESULT:    -4.898     11.029     11.733
REMARK INTER + INTRA:          -6.985
REMARK INTER:                  -6.648
REMARK INTRA:                  -0.336
REMARK UNBOUND:                -0.369
REMARK SMILES CCCCCCC=CC(=O)[O-]
REMARK SMILES IDX 5 1 6 2 7 3 8 4 9 5 10 6 11 7 4 8 3 9 2 10 1 11
REMARK H PARENT
REMARK Flexibility Score: inf
ROOT
ATOM      1  C   UNL     1      20.004  -3.387 -28.719  1.00  0.00     0.004 C 
ENDROOT
BRANCH   1   2
ATOM      2  C   UNL     1      21.040  -3.614 -27.604  1.00  0.00     0.027 C 
BRANCH   2   3
ATOM      3  C   UNL     1      21.821  -2.371 -27.278  1.00  0.00    -0.025 C 
ATOM      4  C   UNL     1      23.128  -2.420 -26.998  1.00  0.00     0.020 C 
BRANCH   4   5
ATOM      5  C   UNL     1      23.911  -1.216 -26.681  1.00  0.00     0.064 C 
ATOM      6  O   UNL     1      24.478  -1.082 -25.564  1.00  0.00    -0.545 OA
ATOM      7  O   UNL     1      24.028  -0.208 -27.630  1.00  0.00    -0.545 OA
ENDBRANCH   4   5
ENDBRANCH   2   3
ENDBRANCH   1   2
BRANCH   1   8
ATOM      8  C   UNL     1      18.563  -3.789 -28.345  1.00  0.00     0.000 C 
BRANCH   8   9
ATOM      9  C   UNL     1      18.194  -3.581 -26.865  1.00  0.00    -0.000 C 
BRANCH   9  10
ATOM     10  C   UNL     1      17.733  -4.873 -26.176  1.00  0.00    -0.003 C 
ATOM     11  C   UNL     1      16.944  -5.758 -27.137  1.00  0.00     0.004 C 
ENDBRANCH   9  10
ENDBRANCH   8   9
ENDBRANCH   1   8
TORSDOF 6
ENDMDL
MODEL 4
REMARK VINA RESULT:    -4.829      3.878      6.466
REMARK INTER + INTRA:          -6.892
REMARK INTER:                  -6.693
REMARK INTRA:                  -0.199
REMARK UNBOUND:                -0.369
REMARK SMILES CCCCCCC=CC(=O)[O-]
REMARK SMILES IDX 5 1 6 2 7 3 8 4 9 5 10 6 11 7 4 8 3 9 2 10 1 11
REMARK H PARENT
REMARK Flexibility Score: inf
ROOT
ATOM      1  C   UNL     1      20.427   0.957 -16.532  1.00  0.00     0.004 C 
ENDROOT
BRANCH   1   2
ATOM      2  C   UNL     1      19.371   0.949 -15.413  1.00  0.00     0.027 C 
BRANCH   2   3
ATOM      3  C   UNL     1      17.984   1.225 -15.924  1.00  0.00    -0.025 C 
ATOM      4  C   UNL     1      16.950   0.444 -15.594  1.00  0.00     0.020 C 
BRANCH   4   5
ATOM      5  C   UNL     1      15.584   0.699 -16.079  1.00  0.00     0.064 C 
ATOM      6  O   UNL     1      15.279   0.524 -17.289  1.00  0.00    -0.545 OA
ATOM      7  O   UNL     1      14.614   1.141 -15.189  1.00  0.00    -0.545 OA
ENDBRANCH   4   5
ENDBRANCH   2   3
ENDBRANCH   1   2
BRANCH   1   8
ATOM      8  C   UNL     1      21.537   2.013 -16.357  1.00  0.00     0.000 C 
BRANCH   8   9
ATOM      9  C   UNL     1      22.899   1.456 -15.908  1.00  0.00    -0.000 C 
BRANCH   9  10
ATOM     10  C   UNL     1      23.300   0.178 -16.659  1.00  0.00    -0.003 C 
ATOM     11  C   UNL     1      24.511  -0.485 -16.009  1.00  0.00     0.004 C 
ENDBRANCH   9  10
ENDBRANCH   8   9
ENDBRANCH   1   8
TORSDOF 6
ENDMDL
MODEL 5
REMARK VINA RESULT:    -4.782     11.886     13.274
REMARK INTER + INTRA:          -6.828
REMARK INTER:                  -6.537
REMARK INTRA:                  -0.291
REMARK UNBOUND:                -0.369
REMARK SMILES CCCCCCC=CC(=O)[O-]
REMARK SMILES IDX 5 1 6 2 7 3 8 4 9 5 10 6 11 7 4 8 3 9 2 10 1 11
REMARK H PARENT
REMARK Flexibility Score: inf
ROOT
ATOM      1  C   UNL     1      20.748  -2.763 -27.968  1.00  0.00     0.004 C 
ENDROOT
BRANCH   1   2
ATOM      2  C   UNL     1      19.592  -3.319 -28.819  1.00  0.00     0.027 C 
BRANCH   2   3
ATOM      3  C   UNL     1      18.938  -4.519 -28.192  1.00  0.00    -0.025 C 
ATOM      4  C   UNL     1      17.756  -4.426 -27.573  1.00  0.00     0.020 C 
BRANCH   4   5
ATOM      5  C   UNL     1      17.096  -5.589 -26.958  1.00  0.00     0.064 C 
ATOM      6  O   UNL     1      16.721  -6.569 -27.654  1.00  0.00    -0.545 OA
ATOM      7  O   UNL     1      16.883  -5.606 -25.585  1.00  0.00    -0.545 OA
ENDBRANCH   4   5
ENDBRANCH   2   3
ENDBRANCH   1   2
BRANCH   1   8
ATOM      8  C   UNL     1      21.439  -3.807 -27.068  1.00  0.00     0.000 C 
BRANCH   8   9
ATOM      9  C   UNL     1      22.752  -3.337 -26.417  1.00  0.00    -0.000 C 
BRANCH   9  10
ATOM     10  C   UNL     1      22.991  -1.828 -26.576  1.00  0.00    -0.003 C 
ATOM     11  C   UNL     1      24.130  -1.552 -27.554  1.00  0.00     0.004 C 
ENDBRANCH   9  10
ENDBRANCH   8   9
ENDBRANCH   1   8
TORSDOF 6
ENDMDL
MODEL 6
REMARK VINA RESULT:    -4.723     10.706     11.320
REMARK INTER + INTRA:          -6.748
REMARK INTER:                  -6.238
REMARK INTRA:                  -0.511
REMARK UNBOUND:                -0.369
REMARK SMILES CCCCCCC=CC(=O)[O-]
REMARK SMILES IDX 5 1 6 2 7 3 8 4 9 5 10 6 11 7 4 8 3 9 2 10 1 11
REMARK H PARENT
REMARK Flexibility Score: inf
ROOT
ATOM      1  C   UNL     1      19.698  -3.467 -28.760  1.00  0.00     0.004 C 
ENDROOT
BRANCH   1   2
ATOM      2  C   UNL     1      20.975  -3.004 -28.037  1.00  0.00     0.027 C 
BRANCH   2   3
ATOM      3  C   UNL     1      21.165  -3.681 -26.708  1.00  0.00    -0.025 C 
ATOM      4  C   UNL     1      21.929  -3.142 -25.753  1.00  0.00     0.020 C 
BRANCH   4   5
ATOM      5  C   UNL     1      22.125  -3.786 -24.444  1.00  0.00     0.064 C 
ATOM      6  O   UNL     1      23.279  -4.039 -24.007  1.00  0.00    -0.545 OA
ATOM      7  O   UNL     1      21.017  -4.119 -23.675  1.00  0.00    -0.545 OA
ENDBRANCH   4   5
ENDBRANCH   2   3
ENDBRANCH   1   2
BRANCH   1   8
ATOM      8  C   UNL     1      18.450  -3.559 -27.859  1.00  0.00     0.000 C 
BRANCH   8   9
ATOM      9  C   UNL     1      17.678  -4.888 -27.951  1.00  0.00    -0.000 C 
BRANCH   9  10
ATOM     10  C   UNL     1      17.160  -5.375 -26.590  1.00  0.00    -0.003 C 
ATOM     11  C   UNL     1      17.964  -4.766 -25.446  1.00  0.00     0.004 C 
ENDBRANCH   9  10
ENDBRANCH   8   9
ENDBRANCH   1   8
TORSDOF 6
ENDMDL
MODEL 7
REMARK VINA RESULT:    -4.700      1.803      2.320
REMARK INTER + INTRA:          -6.718
REMARK INTER:                  -6.442
REMARK INTRA:                  -0.276
REMARK UNBOUND:                -0.369
REMARK SMILES CCCCCCC=CC(=O)[O-]
REMARK SMILES IDX 5 1 6 2 7 3 8 4 9 5 10 6 11 7 4 8 3 9 2 10 1 11
REMARK H PARENT
REMARK Flexibility Score: inf
ROOT
ATOM      1  C   UNL     1      18.725   1.449 -16.078  1.00  0.00     0.004 C 
ENDROOT
BRANCH   1   2
ATOM      2  C   UNL     1      20.214   1.102 -15.910  1.00  0.00     0.027 C 
BRANCH   2   3
ATOM      3  C   UNL     1      21.094   1.848 -16.874  1.00  0.00    -0.025 C 
ATOM      4  C   UNL     1      20.660   2.196 -18.090  1.00  0.00     0.020 C 
BRANCH   4   5
ATOM      5  C   UNL     1      21.503   2.931 -19.047  1.00  0.00     0.064 C 
ATOM      6  O   UNL     1      21.045   3.323 -20.153  1.00  0.00    -0.545 OA
ATOM      7  O   UNL     1      22.828   3.196 -18.725  1.00  0.00    -0.545 OA
ENDBRANCH   4   5
ENDBRANCH   2   3
ENDBRANCH   1   2
BRANCH   1   8
ATOM      8  C   UNL     1      17.757   0.464 -15.391  1.00  0.00     0.000 C 
BRANCH   8   9
ATOM      9  C   UNL     1      16.911  -0.392 -16.350  1.00  0.00    -0.000 C 
BRANCH   9  10
ATOM     10  C   UNL     1      15.677   0.349 -16.884  1.00  0.00    -0.003 C 
ATOM     11  C   UNL     1      14.906   1.019 -15.751  1.00  0.00     0.004 C 
ENDBRANCH   9  10
ENDBRANCH   8   9
ENDBRANCH   1   8
TORSDOF 6
ENDMDL
MODEL 8
REMARK VINA RESULT:    -4.653     11.828     12.949
REMARK INTER + INTRA:          -6.654
REMARK INTER:                  -6.091
REMARK INTRA:                  -0.562
REMARK UNBOUND:                -0.369
REMARK SMILES CCCCCCC=CC(=O)[O-]
REMARK SMILES IDX 5 1 6 2 7 3 8 4 9 5 10 6 11 7 4 8 3 9 2 10 1 11
REMARK H PARENT
REMARK Flexibility Score: inf
ROOT
ATOM      1  C   UNL     1      20.712  -3.402 -28.422  1.00  0.00     0.004 C 
ENDROOT
BRANCH   1   2
ATOM      2  C   UNL     1      19.214  -3.094 -28.251  1.00  0.00     0.027 C 
BRANCH   2   3
ATOM      3  C   UNL     1      18.360  -4.330 -28.298  1.00  0.00    -0.025 C 
ATOM      4  C   UNL     1      17.717  -4.777 -27.214  1.00  0.00     0.020 C 
BRANCH   4   5
ATOM      5  C   UNL     1      16.872  -5.981 -27.240  1.00  0.00     0.064 C 
ATOM      6  O   UNL     1      16.261  -6.372 -26.210  1.00  0.00    -0.545 OA
ATOM      7  O   UNL     1      16.745  -6.701 -28.422  1.00  0.00    -0.545 OA
ENDBRANCH   4   5
ENDBRANCH   2   3
ENDBRANCH   1   2
BRANCH   1   8
ATOM      8  C   UNL     1      21.632  -2.683 -27.414  1.00  0.00     0.000 C 
BRANCH   8   9
ATOM      9  C   UNL     1      21.930  -3.474 -26.128  1.00  0.00    -0.000 C 
BRANCH   9  10
ATOM     10  C   UNL     1      21.305  -2.840 -24.877  1.00  0.00    -0.003 C 
ATOM     11  C   UNL     1      19.941  -3.454 -24.573  1.00  0.00     0.004 C 
ENDBRANCH   9  10
ENDBRANCH   8   9
ENDBRANCH   1   8
TORSDOF 6
ENDMDL
MODEL 9
REMARK VINA RESULT:    -4.572      9.030     11.124
REMARK INTER + INTRA:          -6.544
REMARK INTER:                  -6.050
REMARK INTRA:                  -0.494
REMARK UNBOUND:                -0.369
REMARK SMILES CCCCCCC=CC(=O)[O-]
REMARK SMILES IDX 5 1 6 2 7 3 8 4 9 5 10 6 11 7 4 8 3 9 2 10 1 11
REMARK H PARENT
REMARK Flexibility Score: inf
ROOT
ATOM      1  C   UNL     1      29.373  -0.385 -14.932  1.00  0.00     0.004 C 
ENDROOT
BRANCH   1   2
ATOM      2  C   UNL     1      28.171  -1.041 -15.632  1.00  0.00     0.027 C 
BRANCH   2   3
ATOM      3  C   UNL     1      28.437  -1.339 -17.081  1.00  0.00    -0.025 C 
ATOM      4  C   UNL     1      27.532  -1.961 -17.844  1.00  0.00     0.020 C 
BRANCH   4   5
ATOM      5  C   UNL     1      27.770  -2.258 -19.266  1.00  0.00     0.064 C 
ATOM      6  O   UNL     1      27.035  -3.064 -19.896  1.00  0.00    -0.545 OA
ATOM      7  O   UNL     1      28.824  -1.639 -19.925  1.00  0.00    -0.545 OA
ENDBRANCH   4   5
ENDBRANCH   2   3
ENDBRANCH   1   2
BRANCH   1   8
ATOM      8  C   UNL     1      30.430   0.203 -15.890  1.00  0.00     0.000 C 
BRANCH   8   9
ATOM      9  C   UNL     1      31.848  -0.372 -15.725  1.00  0.00    -0.000 C 
BRANCH   9  10
ATOM     10  C   UNL     1      32.646  -0.380 -17.037  1.00  0.00    -0.003 C 
ATOM     11  C   UNL     1      31.730  -0.183 -18.240  1.00  0.00     0.004 C 
ENDBRANCH   9  10
ENDBRANCH   8   9
ENDBRANCH   1   8
TORSDOF 6
ENDMDL
