MODEL 1
REMARK VINA RESULT:    -3.444      0.000      0.000
REMARK INTER + INTRA:          -5.749
REMARK INTER:                  -5.256
REMARK INTRA:                  -0.493
REMARK UNBOUND:                -0.493
REMARK SMILES CCCCCCCCCCC(=O)[O-]
REMARK SMILES IDX 7 1 8 2 9 3 10 4 11 5 12 6 13 7 6 8 5 9 4 10 3 11 2 12 1 13
REMARK H PARENT
REMARK Flexibility Score: inf
ROOT
ATOM      1  C   UNL     1       1.239  -2.623   8.519  1.00  0.00     0.000 C 
ENDROOT
BRANCH   1   2
ATOM      2  C   UNL     1       0.715  -1.188   8.357  1.00  0.00     0.000 C 
BRANCH   2   3
ATOM      3  C   UNL     1       0.148  -0.965   6.950  1.00  0.00     0.006 C 
BRANCH   3   4
ATOM      4  C   UNL     1      -0.987   0.062   6.971  1.00  0.00     0.053 C 
BRANCH   4   5
ATOM      5  C   UNL     1      -0.583   1.305   6.241  1.00  0.00     0.041 C 
ATOM      6  O   UNL     1       0.467   1.318   5.547  1.00  0.00    -0.550 OA
ATOM      7  O   UNL     1      -1.391   2.432   6.289  1.00  0.00    -0.550 OA
ENDBRANCH   4   5
ENDBRANCH   3   4
ENDBRANCH   2   3
ENDBRANCH   1   2
BRANCH   1   8
ATOM      8  C   UNL     1       0.314  -3.677   7.883  1.00  0.00     0.000 C 
BRANCH   8   9
ATOM      9  C   UNL     1       1.011  -4.969   7.419  1.00  0.00    -0.000 C 
BRANCH   9  10
ATOM     10  C   UNL     1       2.461  -5.082   7.921  1.00  0.00    -0.000 C 
BRANCH  10  11
ATOM     11  C   UNL     1       3.291  -6.106   7.128  1.00  0.00    -0.000 C 
BRANCH  11  12
ATOM     12  C   UNL     1       2.503  -6.921   6.087  1.00  0.00    -0.003 C 
ATOM     13  C   UNL     1       3.281  -7.151   4.790  1.00  0.00     0.004 C 
ENDBRANCH  11  12
ENDBRANCH  10  11
ENDBRANCH   9  10
ENDBRANCH   8   9
ENDBRANCH   1   8
TORSDOF 9
ENDMDL
MODEL 2
REMARK VINA RESULT:    -3.414      1.103      2.209
REMARK INTER + INTRA:          -5.703
REMARK INTER:                  -5.035
REMARK INTRA:                  -0.669
REMARK UNBOUND:                -0.493
REMARK SMILES CCCCCCCCCCC(=O)[O-]
REMARK SMILES IDX 7 1 8 2 9 3 10 4 11 5 12 6 13 7 6 8 5 9 4 10 3 11 2 12 1 13
REMARK H PARENT
REMARK Flexibility Score: inf
ROOT
ATOM      1  C   UNL     1       0.747  -1.642   8.253  1.00  0.00     0.000 C 
ENDROOT
BRANCH   1   2
ATOM      2  C   UNL     1       0.264  -0.306   8.838  1.00  0.00     0.000 C 
BRANCH   2   3
ATOM      3  C   UNL     1       1.115   0.860   8.321  1.00  0.00     0.006 C 
BRANCH   3   4
ATOM      4  C   UNL     1       0.233   2.026   7.866  1.00  0.00     0.053 C 
BRANCH   4   5
ATOM      5  C   UNL     1      -0.280   1.786   6.481  1.00  0.00     0.041 C 
ATOM      6  O   UNL     1      -1.461   2.102   6.179  1.00  0.00    -0.550 OA
ATOM      7  O   UNL     1       0.562   1.259   5.510  1.00  0.00    -0.550 OA
ENDBRANCH   4   5
ENDBRANCH   3   4
ENDBRANCH   2   3
ENDBRANCH   1   2
BRANCH   1   8
ATOM      8  C   UNL     1      -0.053  -2.082   7.013  1.00  0.00     0.000 C 
BRANCH   8   9
ATOM      9  C   UNL     1      -0.945  -3.321   7.212  1.00  0.00    -0.000 C 
BRANCH   9  10
ATOM     10  C   UNL     1      -0.327  -4.360   8.163  1.00  0.00    -0.000 C 
BRANCH  10  11
ATOM     11  C   UNL     1       0.615  -5.342   7.445  1.00  0.00    -0.000 C 
BRANCH  11  12
ATOM     12  C   UNL     1       2.117  -5.088   7.666  1.00  0.00    -0.003 C 
ATOM     13  C   UNL     1       3.011  -6.006   6.831  1.00  0.00     0.004 C 
ENDBRANCH  11  12
ENDBRANCH  10  11
ENDBRANCH   9  10
ENDBRANCH   8   9
ENDBRANCH   1   8
TORSDOF 9
ENDMDL
MODEL 3
REMARK VINA RESULT:    -3.347      1.679      2.877
REMARK INTER + INTRA:          -5.601
REMARK INTER:                  -4.602
REMARK INTRA:                  -0.999
REMARK UNBOUND:                -0.493
REMARK SMILES CCCCCCCCCCC(=O)[O-]
REMARK SMILES IDX 7 1 8 2 9 3 10 4 11 5 12 6 13 7 6 8 5 9 4 10 3 11 2 12 1 13
REMARK H PARENT
REMARK Flexibility Score: inf
ROOT
ATOM      1  C   UNL     1       1.747  -2.130   9.322  1.00  0.00     0.000 C 
ENDROOT
BRANCH   1   2
ATOM      2  C   UNL     1       0.532  -1.242   9.010  1.00  0.00     0.000 C 
BRANCH   2   3
ATOM      3  C   UNL     1       0.743  -0.462   7.706  1.00  0.00     0.006 C 
BRANCH   3   4
ATOM      4  C   UNL     1      -0.585   0.079   7.169  1.00  0.00     0.053 C 
BRANCH   4   5
ATOM      5  C   UNL     1      -0.349   1.261   6.283  1.00  0.00     0.041 C 
ATOM      6  O   UNL     1       0.667   1.303   5.540  1.00  0.00    -0.550 OA
ATOM      7  O   UNL     1      -1.276   2.294   6.240  1.00  0.00    -0.550 OA
ENDBRANCH   4   5
ENDBRANCH   3   4
ENDBRANCH   2   3
ENDBRANCH   1   2
BRANCH   1   8
ATOM      8  C   UNL     1       1.402  -3.631   9.355  1.00  0.00     0.000 C 
BRANCH   8   9
ATOM      9  C   UNL     1       1.883  -4.442   8.138  1.00  0.00    -0.000 C 
BRANCH   9  10
ATOM     10  C   UNL     1       0.749  -5.220   7.449  1.00  0.00    -0.000 C 
BRANCH  10  11
ATOM     11  C   UNL     1      -0.637  -4.594   7.686  1.00  0.00    -0.000 C 
BRANCH  11  12
ATOM     12  C   UNL     1      -1.078  -3.565   6.630  1.00  0.00    -0.003 C 
ATOM     13  C   UNL     1      -2.533  -3.125   6.792  1.00  0.00     0.004 C 
ENDBRANCH  11  12
ENDBRANCH  10  11
ENDBRANCH   9  10
ENDBRANCH   8   9
ENDBRANCH   1   8
TORSDOF 9
ENDMDL
MODEL 4
REMARK VINA RESULT:    -3.317      1.230      2.186
REMARK INTER + INTRA:          -5.555
REMARK INTER:                  -4.824
REMARK INTRA:                  -0.731
REMARK UNBOUND:                -0.493
REMARK SMILES CCCCCCCCCCC(=O)[O-]
REMARK SMILES IDX 7 1 8 2 9 3 10 4 11 5 12 6 13 7 6 8 5 9 4 10 3 11 2 12 1 13
REMARK H PARENT
REMARK Flexibility Score: inf
ROOT
ATOM      1  C   UNL     1       0.044  -2.742   8.728  1.00  0.00     0.000 C 
ENDROOT
BRANCH   1   2
ATOM      2  C   UNL     1       0.497  -1.284   8.555  1.00  0.00     0.000 C 
BRANCH   2   3
ATOM      3  C   UNL     1       0.249  -0.799   7.122  1.00  0.00     0.006 C 
BRANCH   3   4
ATOM      4  C   UNL     1      -0.961   0.137   7.060  1.00  0.00     0.053 C 
BRANCH   4   5
ATOM      5  C   UNL     1      -0.640   1.356   6.255  1.00  0.00     0.041 C 
ATOM      6  O   UNL     1      -1.409   2.354   6.282  1.00  0.00    -0.550 OA
ATOM      7  O   UNL     1       0.532   1.411   5.513  1.00  0.00    -0.550 OA
ENDBRANCH   4   5
ENDBRANCH   3   4
ENDBRANCH   2   3
ENDBRANCH   1   2
BRANCH   1   8
ATOM      8  C   UNL     1       0.317  -3.609   7.484  1.00  0.00     0.000 C 
BRANCH   8   9
ATOM      9  C   UNL     1       0.067  -5.118   7.668  1.00  0.00    -0.000 C 
BRANCH   9  10
ATOM     10  C   UNL     1       1.279  -5.979   7.272  1.00  0.00    -0.000 C 
BRANCH  10  11
ATOM     11  C   UNL     1       2.624  -5.294   7.571  1.00  0.00    -0.000 C 
BRANCH  11  12
ATOM     12  C   UNL     1       3.070  -5.344   9.044  1.00  0.00    -0.003 C 
ATOM     13  C   UNL     1       3.431  -3.970   9.608  1.00  0.00     0.004 C 
ENDBRANCH  11  12
ENDBRANCH  10  11
ENDBRANCH   9  10
ENDBRANCH   8   9
ENDBRANCH   1   8
TORSDOF 9
ENDMDL
MODEL 5
REMARK VINA RESULT:    -3.255      2.602      4.552
REMARK INTER + INTRA:          -5.461
REMARK INTER:                  -4.235
REMARK INTRA:                  -1.226
REMARK UNBOUND:                -0.493
REMARK SMILES CCCCCCCCCCC(=O)[O-]
REMARK SMILES IDX 7 1 8 2 9 3 10 4 11 5 12 6 13 7 6 8 5 9 4 10 3 11 2 12 1 13
REMARK H PARENT
REMARK Flexibility Score: inf
ROOT
ATOM      1  C   UNL     1       0.746  -2.840   7.989  1.00  0.00     0.000 C 
ENDROOT
BRANCH   1   2
ATOM      2  C   UNL     1       0.292  -1.471   8.518  1.00  0.00     0.000 C 
BRANCH   2   3
ATOM      3  C   UNL     1       0.791  -0.339   7.613  1.00  0.00     0.006 C 
BRANCH   3   4
ATOM      4  C   UNL     1      -0.010   0.945   7.844  1.00  0.00     0.053 C 
BRANCH   4   5
ATOM      5  C   UNL     1      -0.320   1.612   6.542  1.00  0.00     0.041 C 
ATOM      6  O   UNL     1      -1.252   2.455   6.468  1.00  0.00    -0.550 OA
ATOM      7  O   UNL     1       0.452   1.339   5.420  1.00  0.00    -0.550 OA
ENDBRANCH   4   5
ENDBRANCH   3   4
ENDBRANCH   2   3
ENDBRANCH   1   2
BRANCH   1   8
ATOM      8  C   UNL     1      -0.369  -3.600   7.247  1.00  0.00     0.000 C 
BRANCH   8   9
ATOM      9  C   UNL     1      -1.575  -4.008   8.114  1.00  0.00    -0.000 C 
BRANCH   9  10
ATOM     10  C   UNL     1      -2.902  -3.413   7.614  1.00  0.00    -0.000 C 
BRANCH  10  11
ATOM     11  C   UNL     1      -2.719  -2.460   6.419  1.00  0.00    -0.000 C 
BRANCH  11  12
ATOM     12  C   UNL     1      -3.044  -0.983   6.706  1.00  0.00    -0.003 C 
ATOM     13  C   UNL     1      -3.368  -0.715   8.176  1.00  0.00     0.004 C 
ENDBRANCH  11  12
ENDBRANCH  10  11
ENDBRANCH   9  10
ENDBRANCH   8   9
ENDBRANCH   1   8
TORSDOF 9
ENDMDL
MODEL 6
REMARK VINA RESULT:    -3.212      2.212      3.400
REMARK INTER + INTRA:          -5.396
REMARK INTER:                  -4.443
REMARK INTRA:                  -0.953
REMARK UNBOUND:                -0.493
REMARK SMILES CCCCCCCCCCC(=O)[O-]
REMARK SMILES IDX 7 1 8 2 9 3 10 4 11 5 12 6 13 7 6 8 5 9 4 10 3 11 2 12 1 13
REMARK H PARENT
REMARK Flexibility Score: inf
ROOT
ATOM      1  C   UNL     1       0.988   0.421   8.214  1.00  0.00     0.000 C 
ENDROOT
BRANCH   1   2
ATOM      2  C   UNL     1       1.219   0.365   6.696  1.00  0.00     0.000 C 
BRANCH   2   3
ATOM      3  C   UNL     1       0.097   1.089   5.942  1.00  0.00     0.006 C 
BRANCH   3   4
ATOM      4  C   UNL     1      -0.652   2.054   6.866  1.00  0.00     0.053 C 
BRANCH   4   5
ATOM      5  C   UNL     1      -2.086   2.165   6.456  1.00  0.00     0.041 C 
ATOM      6  O   UNL     1      -2.560   3.277   6.102  1.00  0.00    -0.550 OA
ATOM      7  O   UNL     1      -2.888   1.032   6.419  1.00  0.00    -0.550 OA
ENDBRANCH   4   5
ENDBRANCH   3   4
ENDBRANCH   2   3
ENDBRANCH   1   2
BRANCH   1   8
ATOM      8  C   UNL     1       0.478  -0.911   8.796  1.00  0.00     0.000 C 
BRANCH   8   9
ATOM      9  C   UNL     1      -1.038  -1.148   8.664  1.00  0.00    -0.000 C 
BRANCH   9  10
ATOM     10  C   UNL     1      -1.379  -2.443   7.908  1.00  0.00    -0.000 C 
BRANCH  10  11
ATOM     11  C   UNL     1      -0.196  -2.989   7.090  1.00  0.00    -0.000 C 
BRANCH  11  12
ATOM     12  C   UNL     1       0.244  -4.419   7.451  1.00  0.00    -0.003 C 
ATOM     13  C   UNL     1       1.676  -4.490   7.983  1.00  0.00     0.004 C 
ENDBRANCH  11  12
ENDBRANCH  10  11
ENDBRANCH   9  10
ENDBRANCH   8   9
ENDBRANCH   1   8
TORSDOF 9
ENDMDL
MODEL 7
REMARK VINA RESULT:    -3.209      3.028      4.483
REMARK INTER + INTRA:          -5.390
REMARK INTER:                  -4.397
REMARK INTRA:                  -0.994
REMARK UNBOUND:                -0.493
REMARK SMILES CCCCCCCCCCC(=O)[O-]
REMARK SMILES IDX 7 1 8 2 9 3 10 4 11 5 12 6 13 7 6 8 5 9 4 10 3 11 2 12 1 13
REMARK H PARENT
REMARK Flexibility Score: inf
ROOT
ATOM      1  C   UNL     1       0.758  -0.566   9.329  1.00  0.00     0.000 C 
ENDROOT
BRANCH   1   2
ATOM      2  C   UNL     1      -0.686  -0.040   9.351  1.00  0.00     0.000 C 
BRANCH   2   3
ATOM      3  C   UNL     1      -0.737   1.441   8.962  1.00  0.00     0.006 C 
BRANCH   3   4
ATOM      4  C   UNL     1       0.347   1.777   7.933  1.00  0.00     0.053 C 
BRANCH   4   5
ATOM      5  C   UNL     1      -0.232   1.811   6.554  1.00  0.00     0.041 C 
ATOM      6  O   UNL     1      -1.345   2.361   6.347  1.00  0.00    -0.550 OA
ATOM      7  O   UNL     1       0.481   1.277   5.488  1.00  0.00    -0.550 OA
ENDBRANCH   4   5
ENDBRANCH   3   4
ENDBRANCH   2   3
ENDBRANCH   1   2
BRANCH   1   8
ATOM      8  C   UNL     1       0.925  -1.833   8.469  1.00  0.00     0.000 C 
BRANCH   8   9
ATOM      9  C   UNL     1       0.082  -1.867   7.181  1.00  0.00    -0.000 C 
BRANCH   9  10
ATOM     10  C   UNL     1      -0.815  -3.113   7.083  1.00  0.00    -0.000 C 
BRANCH  10  11
ATOM     11  C   UNL     1      -2.282  -2.771   6.767  1.00  0.00    -0.000 C 
BRANCH  11  12
ATOM     12  C   UNL     1      -2.598  -1.267   6.675  1.00  0.00    -0.003 C 
ATOM     13  C   UNL     1      -4.050  -0.981   6.293  1.00  0.00     0.004 C 
ENDBRANCH  11  12
ENDBRANCH  10  11
ENDBRANCH   9  10
ENDBRANCH   8   9
ENDBRANCH   1   8
TORSDOF 9
ENDMDL
MODEL 8
REMARK VINA RESULT:    -3.090      4.123      6.292
REMARK INTER + INTRA:          -5.210
REMARK INTER:                  -3.904
REMARK INTRA:                  -1.305
REMARK UNBOUND:                -0.493
REMARK SMILES CCCCCCCCCCC(=O)[O-]
REMARK SMILES IDX 7 1 8 2 9 3 10 4 11 5 12 6 13 7 6 8 5 9 4 10 3 11 2 12 1 13
REMARK H PARENT
REMARK Flexibility Score: inf
ROOT
ATOM      1  C   UNL     1       0.267  -1.353   8.172  1.00  0.00     0.000 C 
ENDROOT
BRANCH   1   2
ATOM      2  C   UNL     1      -0.950  -1.089   9.072  1.00  0.00     0.000 C 
BRANCH   2   3
ATOM      3  C   UNL     1      -2.240  -1.022   8.246  1.00  0.00     0.006 C 
BRANCH   3   4
ATOM      4  C   UNL     1      -2.054  -1.690   6.881  1.00  0.00     0.053 C 
BRANCH   4   5
ATOM      5  C   UNL     1      -3.376  -1.894   6.212  1.00  0.00     0.041 C 
ATOM      6  O   UNL     1      -4.218  -0.958   6.175  1.00  0.00    -0.550 OA
ATOM      7  O   UNL     1      -3.661  -3.101   5.588  1.00  0.00    -0.550 OA
ENDBRANCH   4   5
ENDBRANCH   3   4
ENDBRANCH   2   3
ENDBRANCH   1   2
BRANCH   1   8
ATOM      8  C   UNL     1       1.117  -0.092   7.924  1.00  0.00     0.000 C 
BRANCH   8   9
ATOM      9  C   UNL     1       1.139   0.409   6.469  1.00  0.00    -0.000 C 
BRANCH   9  10
ATOM     10  C   UNL     1      -0.041   1.337   6.135  1.00  0.00    -0.000 C 
BRANCH  10  11
ATOM     11  C   UNL     1      -0.404   2.285   7.293  1.00  0.00    -0.000 C 
BRANCH  11  12
ATOM     12  C   UNL     1      -1.909   2.558   7.466  1.00  0.00    -0.003 C 
ATOM     13  C   UNL     1      -2.727   2.222   6.219  1.00  0.00     0.004 C 
ENDBRANCH  11  12
ENDBRANCH  10  11
ENDBRANCH   9  10
ENDBRANCH   8   9
ENDBRANCH   1   8
TORSDOF 9
ENDMDL
MODEL 9
REMARK VINA RESULT:    -3.051      3.664      4.777
REMARK INTER + INTRA:          -5.150
REMARK INTER:                  -4.202
REMARK INTRA:                  -0.948
REMARK UNBOUND:                -0.493
REMARK SMILES CCCCCCCCCCC(=O)[O-]
REMARK SMILES IDX 7 1 8 2 9 3 10 4 11 5 12 6 13 7 6 8 5 9 4 10 3 11 2 12 1 13
REMARK H PARENT
REMARK Flexibility Score: inf
ROOT
ATOM      1  C   UNL     1       1.112   0.265   8.074  1.00  0.00     0.000 C 
ENDROOT
BRANCH   1   2
ATOM      2  C   UNL     1       1.060   0.482   6.554  1.00  0.00     0.000 C 
BRANCH   2   3
ATOM      3  C   UNL     1      -0.004   1.521   6.184  1.00  0.00     0.006 C 
BRANCH   3   4
ATOM      4  C   UNL     1      -0.504   2.263   7.426  1.00  0.00     0.053 C 
BRANCH   4   5
ATOM      5  C   UNL     1      -1.939   2.654   7.262  1.00  0.00     0.041 C 
ATOM      6  O   UNL     1      -2.741   2.537   8.225  1.00  0.00    -0.550 OA
ATOM      7  O   UNL     1      -2.379   3.193   6.060  1.00  0.00    -0.550 OA
ENDBRANCH   4   5
ENDBRANCH   3   4
ENDBRANCH   2   3
ENDBRANCH   1   2
BRANCH   1   8
ATOM      8  C   UNL     1       0.693  -1.156   8.495  1.00  0.00     0.000 C 
BRANCH   8   9
ATOM      9  C   UNL     1      -0.373  -1.818   7.602  1.00  0.00    -0.000 C 
BRANCH   9  10
ATOM     10  C   UNL     1      -1.808  -1.404   7.974  1.00  0.00    -0.000 C 
BRANCH  10  11
ATOM     11  C   UNL     1      -2.654  -1.012   6.750  1.00  0.00    -0.000 C 
BRANCH  11  12
ATOM     12  C   UNL     1      -3.892  -1.892   6.502  1.00  0.00    -0.003 C 
ATOM     13  C   UNL     1      -3.666  -2.957   5.429  1.00  0.00     0.004 C 
ENDBRANCH  11  12
ENDBRANCH  10  11
ENDBRANCH   9  10
ENDBRANCH   8   9
ENDBRANCH   1   8
TORSDOF 9
ENDMDL
