MODEL 1
REMARK VINA RESULT:    -5.602      0.000      0.000
REMARK INTER + INTRA:          -9.139
REMARK INTER:                  -8.549
REMARK INTRA:                  -0.590
REMARK UNBOUND:                -0.590
REMARK SMILES O=C([O-])CCCCCCCCC(=O)[O-]
REMARK SMILES IDX 7 1 6 2 5 3 4 4 2 5 1 6 3 7 8 8 9 9 10 10 11 11 12 12 13 13
REMARK SMILES IDX 14 14
REMARK H PARENT
REMARK Flexibility Score: inf
ROOT
ATOM      1  C   UNL     1      10.418 -18.541 -25.778  1.00  0.00     0.000 C 
ENDROOT
BRANCH   1   2
ATOM      2  C   UNL     1      11.919 -18.549 -25.444  1.00  0.00     0.000 C 
BRANCH   2   3
ATOM      3  C   UNL     1      12.775 -19.174 -26.561  1.00  0.00     0.006 C 
BRANCH   3   4
ATOM      4  C   UNL     1      12.227 -20.503 -27.105  1.00  0.00     0.053 C 
BRANCH   4   5
ATOM      5  C   UNL     1      11.840 -20.404 -28.548  1.00  0.00     0.041 C 
ATOM      6  O   UNL     1      11.419 -21.418 -29.163  1.00  0.00    -0.550 OA
ATOM      7  O   UNL     1      11.909 -19.181 -29.204  1.00  0.00    -0.550 OA
ENDBRANCH   4   5
ENDBRANCH   3   4
ENDBRANCH   2   3
ENDBRANCH   1   2
BRANCH   1   8
ATOM      8  C   UNL     1      10.033 -17.404 -26.736  1.00  0.00     0.000 C 
BRANCH   8   9
ATOM      9  C   UNL     1       8.529 -17.396 -27.067  1.00  0.00     0.000 C 
BRANCH   9  10
ATOM     10  C   UNL     1       8.240 -17.837 -28.510  1.00  0.00     0.006 C 
BRANCH  10  11
ATOM     11  C   UNL     1       9.149 -17.142 -29.533  1.00  0.00     0.053 C 
BRANCH  11  12
ATOM     12  C   UNL     1       8.348 -16.657 -30.699  1.00  0.00     0.041 C 
ATOM     13  O   UNL     1       7.449 -15.790 -30.534  1.00  0.00    -0.550 OA
ATOM     14  O   UNL     1       8.558 -17.199 -31.961  1.00  0.00    -0.550 OA
ENDBRANCH  11  12
ENDBRANCH  10  11
ENDBRANCH   9  10
ENDBRANCH   8   9
ENDBRANCH   1   8
TORSDOF 9
ENDMDL
MODEL 2
REMARK VINA RESULT:    -5.227      1.599      2.895
REMARK INTER + INTRA:          -8.567
REMARK INTER:                  -7.963
REMARK INTRA:                  -0.603
REMARK UNBOUND:                -0.590
REMARK SMILES O=C([O-])CCCCCCCCC(=O)[O-]
REMARK SMILES IDX 7 1 6 2 5 3 4 4 2 5 1 6 3 7 8 8 9 9 10 10 11 11 12 12 13 13
REMARK SMILES IDX 14 14
REMARK H PARENT
REMARK Flexibility Score: inf
ROOT
ATOM      1  C   UNL     1      12.864 -19.325 -26.716  1.00  0.00     0.000 C 
ENDROOT
BRANCH   1   2
ATOM      2  C   UNL     1      12.063 -20.447 -27.400  1.00  0.00     0.000 C 
BRANCH   2   3
ATOM      3  C   UNL     1      12.577 -21.852 -27.035  1.00  0.00     0.006 C 
BRANCH   3   4
ATOM      4  C   UNL     1      12.669 -22.818 -28.226  1.00  0.00     0.053 C 
BRANCH   4   5
ATOM      5  C   UNL     1      11.335 -23.054 -28.864  1.00  0.00     0.041 C 
ATOM      6  O   UNL     1      11.083 -22.578 -30.002  1.00  0.00    -0.550 OA
ATOM      7  O   UNL     1      10.381 -23.831 -28.216  1.00  0.00    -0.550 OA
ENDBRANCH   4   5
ENDBRANCH   3   4
ENDBRANCH   2   3
ENDBRANCH   1   2
BRANCH   1   8
ATOM      8  C   UNL     1      12.145 -18.755 -25.484  1.00  0.00     0.000 C 
BRANCH   8   9
ATOM      9  C   UNL     1      10.628 -18.606 -25.702  1.00  0.00     0.000 C 
BRANCH   9  10
ATOM     10  C   UNL     1      10.278 -17.426 -26.621  1.00  0.00     0.006 C 
BRANCH  10  11
ATOM     11  C   UNL     1       9.028 -17.692 -27.471  1.00  0.00     0.053 C 
BRANCH  11  12
ATOM     12  C   UNL     1       9.388 -17.764 -28.920  1.00  0.00     0.041 C 
ATOM     13  O   UNL     1      10.596 -17.816 -29.272  1.00  0.00    -0.550 OA
ATOM     14  O   UNL     1       8.391 -17.722 -29.888  1.00  0.00    -0.550 OA
ENDBRANCH  11  12
ENDBRANCH  10  11
ENDBRANCH   9  10
ENDBRANCH   8   9
ENDBRANCH   1   8
TORSDOF 9
ENDMDL
MODEL 3
REMARK VINA RESULT:    -5.182      1.966      5.278
REMARK INTER + INTRA:          -8.498
REMARK INTER:                  -7.907
REMARK INTRA:                  -0.591
REMARK UNBOUND:                -0.590
REMARK SMILES O=C([O-])CCCCCCCCC(=O)[O-]
REMARK SMILES IDX 7 1 6 2 5 3 4 4 2 5 1 6 3 7 8 8 9 9 10 10 11 11 12 12 13 13
REMARK SMILES IDX 14 14
REMARK H PARENT
REMARK Flexibility Score: inf
ROOT
ATOM      1  C   UNL     1      12.683 -19.207 -26.143  1.00  0.00     0.000 C 
ENDROOT
BRANCH   1   2
ATOM      2  C   UNL     1      11.678 -18.289 -25.426  1.00  0.00     0.000 C 
BRANCH   2   3
ATOM      3  C   UNL     1      10.245 -18.435 -25.971  1.00  0.00     0.006 C 
BRANCH   3   4
ATOM      4  C   UNL     1       9.864 -17.390 -27.031  1.00  0.00     0.053 C 
BRANCH   4   5
ATOM      5  C   UNL     1       9.714 -17.997 -28.391  1.00  0.00     0.041 C 
ATOM      6  O   UNL     1      10.732 -18.323 -29.056  1.00  0.00    -0.550 OA
ATOM      7  O   UNL     1       8.447 -18.236 -28.910  1.00  0.00    -0.550 OA
ENDBRANCH   4   5
ENDBRANCH   3   4
ENDBRANCH   2   3
ENDBRANCH   1   2
BRANCH   1   8
ATOM      8  C   UNL     1      12.040 -20.510 -26.641  1.00  0.00     0.000 C 
BRANCH   8   9
ATOM      9  C   UNL     1      13.054 -21.443 -27.326  1.00  0.00     0.000 C 
BRANCH   9  10
ATOM     10  C   UNL     1      12.801 -22.925 -27.007  1.00  0.00     0.006 C 
BRANCH  10  11
ATOM     11  C   UNL     1      12.480 -23.751 -28.260  1.00  0.00     0.053 C 
BRANCH  11  12
ATOM     12  C   UNL     1      11.137 -23.378 -28.801  1.00  0.00     0.041 C 
ATOM     13  O   UNL     1      10.089 -23.768 -28.222  1.00  0.00    -0.550 OA
ATOM     14  O   UNL     1      11.040 -22.640 -29.975  1.00  0.00    -0.550 OA
ENDBRANCH  11  12
ENDBRANCH  10  11
ENDBRANCH   9  10
ENDBRANCH   8   9
ENDBRANCH   1   8
TORSDOF 9
ENDMDL
MODEL 4
REMARK VINA RESULT:    -5.152      2.203      3.331
REMARK INTER + INTRA:          -8.453
REMARK INTER:                  -7.957
REMARK INTRA:                  -0.496
REMARK UNBOUND:                -0.590
REMARK SMILES O=C([O-])CCCCCCCCC(=O)[O-]
REMARK SMILES IDX 7 1 6 2 5 3 4 4 2 5 1 6 3 7 8 8 9 9 10 10 11 11 12 12 13 13
REMARK SMILES IDX 14 14
REMARK H PARENT
REMARK Flexibility Score: inf
ROOT
ATOM      1  C   UNL     1      11.940 -20.376 -26.260  1.00  0.00     0.000 C 
ENDROOT
BRANCH   1   2
ATOM      2  C   UNL     1      12.810 -21.139 -27.273  1.00  0.00     0.000 C 
BRANCH   2   3
ATOM      3  C   UNL     1      12.747 -22.665 -27.082  1.00  0.00     0.006 C 
BRANCH   3   4
ATOM      4  C   UNL     1      12.532 -23.455 -28.382  1.00  0.00     0.053 C 
BRANCH   4   5
ATOM      5  C   UNL     1      11.165 -23.240 -28.953  1.00  0.00     0.041 C 
ATOM      6  O   UNL     1      11.022 -22.615 -30.037  1.00  0.00    -0.550 OA
ATOM      7  O   UNL     1      10.051 -23.760 -28.306  1.00  0.00    -0.550 OA
ENDBRANCH   4   5
ENDBRANCH   3   4
ENDBRANCH   2   3
ENDBRANCH   1   2
BRANCH   1   8
ATOM      8  C   UNL     1      12.161 -18.857 -26.319  1.00  0.00     0.000 C 
BRANCH   8   9
ATOM      9  C   UNL     1      12.101 -18.308 -27.756  1.00  0.00     0.000 C 
BRANCH   9  10
ATOM     10  C   UNL     1      10.663 -18.186 -28.281  1.00  0.00     0.006 C 
BRANCH  10  11
ATOM     11  C   UNL     1       9.699 -17.611 -27.234  1.00  0.00     0.053 C 
BRANCH  11  12
ATOM     12  C   UNL     1       8.283 -17.752 -27.695  1.00  0.00     0.041 C 
ATOM     13  O   UNL     1       8.033 -18.088 -28.883  1.00  0.00    -0.550 OA
ATOM     14  O   UNL     1       7.237 -17.462 -26.827  1.00  0.00    -0.550 OA
ENDBRANCH  11  12
ENDBRANCH  10  11
ENDBRANCH   9  10
ENDBRANCH   8   9
ENDBRANCH   1   8
TORSDOF 9
ENDMDL
MODEL 5
REMARK VINA RESULT:    -5.126      1.268      5.325
REMARK INTER + INTRA:          -8.413
REMARK INTER:                  -7.766
REMARK INTRA:                  -0.646
REMARK UNBOUND:                -0.590
REMARK SMILES O=C([O-])CCCCCCCCC(=O)[O-]
REMARK SMILES IDX 7 1 6 2 5 3 4 4 2 5 1 6 3 7 8 8 9 9 10 10 11 11 12 12 13 13
REMARK SMILES IDX 14 14
REMARK H PARENT
REMARK Flexibility Score: inf
ROOT
ATOM      1  C   UNL     1      11.159 -18.144 -27.820  1.00  0.00     0.000 C 
ENDROOT
BRANCH   1   2
ATOM      2  C   UNL     1      10.125 -17.504 -26.877  1.00  0.00     0.000 C 
BRANCH   2   3
ATOM      3  C   UNL     1       8.676 -17.714 -27.352  1.00  0.00     0.006 C 
BRANCH   3   4
ATOM      4  C   UNL     1       8.053 -16.488 -28.039  1.00  0.00     0.053 C 
BRANCH   4   5
ATOM      5  C   UNL     1       8.134 -16.576 -29.531  1.00  0.00     0.041 C 
ATOM      6  O   UNL     1       8.506 -17.645 -30.083  1.00  0.00    -0.550 OA
ATOM      7  O   UNL     1       7.764 -15.490 -30.314  1.00  0.00    -0.550 OA
ENDBRANCH   4   5
ENDBRANCH   3   4
ENDBRANCH   2   3
ENDBRANCH   1   2
BRANCH   1   8
ATOM      8  C   UNL     1      12.488 -18.453 -27.115  1.00  0.00     0.000 C 
BRANCH   8   9
ATOM      9  C   UNL     1      12.351 -19.570 -26.064  1.00  0.00     0.000 C 
BRANCH   9  10
ATOM     10  C   UNL     1      11.774 -20.866 -26.651  1.00  0.00     0.006 C 
BRANCH  10  11
ATOM     11  C   UNL     1      12.838 -21.717 -27.359  1.00  0.00     0.053 C 
BRANCH  11  12
ATOM     12  C   UNL     1      12.488 -21.895 -28.802  1.00  0.00     0.041 C 
ATOM     13  O   UNL     1      11.396 -21.456 -29.249  1.00  0.00    -0.550 OA
ATOM     14  O   UNL     1      13.346 -22.591 -29.645  1.00  0.00    -0.550 OA
ENDBRANCH  11  12
ENDBRANCH  10  11
ENDBRANCH   9  10
ENDBRANCH   8   9
ENDBRANCH   1   8
TORSDOF 9
ENDMDL
MODEL 6
REMARK VINA RESULT:    -5.095      1.373      5.407
REMARK INTER + INTRA:          -8.366
REMARK INTER:                  -7.941
REMARK INTRA:                  -0.424
REMARK UNBOUND:                -0.590
REMARK SMILES O=C([O-])CCCCCCCCC(=O)[O-]
REMARK SMILES IDX 7 1 6 2 5 3 4 4 2 5 1 6 3 7 8 8 9 9 10 10 11 11 12 12 13 13
REMARK SMILES IDX 14 14
REMARK H PARENT
REMARK Flexibility Score: inf
ROOT
ATOM      1  C   UNL     1      10.279 -18.135 -26.282  1.00  0.00     0.000 C 
ENDROOT
BRANCH   1   2
ATOM      2  C   UNL     1       9.234 -17.265 -27.002  1.00  0.00     0.000 C 
BRANCH   2   3
ATOM      3  C   UNL     1       9.074 -17.636 -28.488  1.00  0.00     0.006 C 
BRANCH   3   4
ATOM      4  C   UNL     1       8.155 -16.691 -29.278  1.00  0.00     0.053 C 
BRANCH   4   5
ATOM      5  C   UNL     1       8.584 -16.553 -30.706  1.00  0.00     0.041 C 
ATOM      6  O   UNL     1       7.759 -16.185 -31.583  1.00  0.00    -0.550 OA
ATOM      7  O   UNL     1       9.905 -16.795 -31.063  1.00  0.00    -0.550 OA
ENDBRANCH   4   5
ENDBRANCH   3   4
ENDBRANCH   2   3
ENDBRANCH   1   2
BRANCH   1   8
ATOM      8  C   UNL     1      11.348 -18.685 -27.238  1.00  0.00     0.000 C 
BRANCH   8   9
ATOM      9  C   UNL     1      12.328 -19.644 -26.538  1.00  0.00     0.000 C 
BRANCH   9  10
ATOM     10  C   UNL     1      12.268 -21.069 -27.107  1.00  0.00     0.006 C 
BRANCH  10  11
ATOM     11  C   UNL     1      12.112 -21.088 -28.634  1.00  0.00     0.053 C 
BRANCH  11  12
ATOM     12  C   UNL     1      11.799 -22.471 -29.109  1.00  0.00     0.041 C 
ATOM     13  O   UNL     1      10.889 -22.660 -29.958  1.00  0.00    -0.550 OA
ATOM     14  O   UNL     1      12.480 -23.560 -28.577  1.00  0.00    -0.550 OA
ENDBRANCH  11  12
ENDBRANCH  10  11
ENDBRANCH   9  10
ENDBRANCH   8   9
ENDBRANCH   1   8
TORSDOF 9
ENDMDL
MODEL 7
REMARK VINA RESULT:    -5.080      1.718      2.859
REMARK INTER + INTRA:          -8.343
REMARK INTER:                  -7.860
REMARK INTRA:                  -0.482
REMARK UNBOUND:                -0.590
REMARK SMILES O=C([O-])CCCCCCCCC(=O)[O-]
REMARK SMILES IDX 7 1 6 2 5 3 4 4 2 5 1 6 3 7 8 8 9 9 10 10 11 11 12 12 13 13
REMARK SMILES IDX 14 14
REMARK H PARENT
REMARK Flexibility Score: inf
ROOT
ATOM      1  C   UNL     1      11.786 -20.369 -27.012  1.00  0.00     0.000 C 
ENDROOT
BRANCH   1   2
ATOM      2  C   UNL     1      12.265 -21.797 -26.699  1.00  0.00     0.000 C 
BRANCH   2   3
ATOM      3  C   UNL     1      13.299 -22.313 -27.717  1.00  0.00     0.006 C 
BRANCH   3   4
ATOM      4  C   UNL     1      12.730 -23.300 -28.748  1.00  0.00     0.053 C 
BRANCH   4   5
ATOM      5  C   UNL     1      11.917 -22.609 -29.799  1.00  0.00     0.041 C 
ATOM      6  O   UNL     1      10.660 -22.642 -29.752  1.00  0.00    -0.550 OA
ATOM      7  O   UNL     1      12.550 -21.897 -30.811  1.00  0.00    -0.550 OA
ENDBRANCH   4   5
ENDBRANCH   3   4
ENDBRANCH   2   3
ENDBRANCH   1   2
BRANCH   1   8
ATOM      8  C   UNL     1      11.978 -19.410 -25.828  1.00  0.00     0.000 C 
BRANCH   8   9
ATOM      9  C   UNL     1      10.726 -18.557 -25.551  1.00  0.00     0.000 C 
BRANCH   9  10
ATOM     10  C   UNL     1      10.473 -17.508 -26.644  1.00  0.00     0.006 C 
BRANCH  10  11
ATOM     11  C   UNL     1       9.150 -17.739 -27.388  1.00  0.00     0.053 C 
BRANCH  11  12
ATOM     12  C   UNL     1       9.383 -17.782 -28.865  1.00  0.00     0.041 C 
ATOM     13  O   UNL     1       8.410 -17.892 -29.657  1.00  0.00    -0.550 OA
ATOM     14  O   UNL     1      10.678 -17.752 -29.366  1.00  0.00    -0.550 OA
ENDBRANCH  11  12
ENDBRANCH  10  11
ENDBRANCH   9  10
ENDBRANCH   8   9
ENDBRANCH   1   8
TORSDOF 9
ENDMDL
MODEL 8
REMARK VINA RESULT:    -4.793      2.032      5.553
REMARK INTER + INTRA:          -7.904
REMARK INTER:                  -7.316
REMARK INTRA:                  -0.589
REMARK UNBOUND:                -0.590
REMARK SMILES O=C([O-])CCCCCCCCC(=O)[O-]
REMARK SMILES IDX 7 1 6 2 5 3 4 4 2 5 1 6 3 7 8 8 9 9 10 10 11 11 12 12 13 13
REMARK SMILES IDX 14 14
REMARK H PARENT
REMARK Flexibility Score: inf
ROOT
ATOM      1  C   UNL     1      12.330 -18.572 -27.055  1.00  0.00     0.000 C 
ENDROOT
BRANCH   1   2
ATOM      2  C   UNL     1      11.555 -18.829 -28.358  1.00  0.00     0.000 C 
BRANCH   2   3
ATOM      3  C   UNL     1      10.293 -17.956 -28.481  1.00  0.00     0.006 C 
BRANCH   3   4
ATOM      4  C   UNL     1       9.494 -17.815 -27.176  1.00  0.00     0.053 C 
BRANCH   4   5
ATOM      5  C   UNL     1       8.126 -17.252 -27.411  1.00  0.00     0.041 C 
ATOM      6  O   UNL     1       7.193 -17.496 -26.603  1.00  0.00    -0.550 OA
ATOM      7  O   UNL     1       7.892 -16.427 -28.505  1.00  0.00    -0.550 OA
ENDBRANCH   4   5
ENDBRANCH   3   4
ENDBRANCH   2   3
ENDBRANCH   1   2
BRANCH   1   8
ATOM      8  C   UNL     1      12.282 -19.770 -26.094  1.00  0.00     0.000 C 
BRANCH   8   9
ATOM      9  C   UNL     1      11.879 -21.076 -26.802  1.00  0.00     0.000 C 
BRANCH   9  10
ATOM     10  C   UNL     1      13.093 -21.890 -27.275  1.00  0.00     0.006 C 
BRANCH  10  11
ATOM     11  C   UNL     1      13.000 -22.280 -28.757  1.00  0.00     0.053 C 
BRANCH  11  12
ATOM     12  C   UNL     1      11.730 -23.024 -29.022  1.00  0.00     0.041 C 
ATOM     13  O   UNL     1      10.872 -22.553 -29.814  1.00  0.00    -0.550 OA
ATOM     14  O   UNL     1      11.470 -24.215 -28.355  1.00  0.00    -0.550 OA
ENDBRANCH  11  12
ENDBRANCH  10  11
ENDBRANCH   9  10
ENDBRANCH   8   9
ENDBRANCH   1   8
TORSDOF 9
ENDMDL
MODEL 9
REMARK VINA RESULT:    -4.633      4.225      7.906
REMARK INTER + INTRA:          -7.661
REMARK INTER:                  -7.091
REMARK INTRA:                  -0.570
REMARK UNBOUND:                -0.590
REMARK SMILES O=C([O-])CCCCCCCCC(=O)[O-]
REMARK SMILES IDX 7 1 6 2 5 3 4 4 2 5 1 6 3 7 8 8 9 9 10 10 11 11 12 12 13 13
REMARK SMILES IDX 14 14
REMARK H PARENT
REMARK Flexibility Score: inf
ROOT
ATOM      1  C   UNL     1      12.153 -21.811 -26.768  1.00  0.00     0.000 C 
ENDROOT
BRANCH   1   2
ATOM      2  C   UNL     1      12.115 -20.817 -27.942  1.00  0.00     0.000 C 
BRANCH   2   3
ATOM      3  C   UNL     1      11.901 -19.363 -27.484  1.00  0.00     0.006 C 
BRANCH   3   4
ATOM      4  C   UNL     1      12.888 -18.890 -26.405  1.00  0.00     0.053 C 
BRANCH   4   5
ATOM      5  C   UNL     1      12.187 -18.385 -25.182  1.00  0.00     0.041 C 
ATOM      6  O   UNL     1      10.931 -18.293 -25.165  1.00  0.00    -0.550 OA
ATOM      7  O   UNL     1      12.917 -18.049 -24.049  1.00  0.00    -0.550 OA
ENDBRANCH   4   5
ENDBRANCH   3   4
ENDBRANCH   2   3
ENDBRANCH   1   2
BRANCH   1   8
ATOM      8  C   UNL     1      13.032 -23.035 -27.061  1.00  0.00     0.000 C 
BRANCH   8   9
ATOM      9  C   UNL     1      13.926 -22.837 -28.298  1.00  0.00     0.000 C 
BRANCH   9  10
ATOM     10  C   UNL     1      15.330 -23.433 -28.114  1.00  0.00     0.006 C 
BRANCH  10  11
ATOM     11  C   UNL     1      16.103 -22.776 -26.963  1.00  0.00     0.053 C 
BRANCH  11  12
ATOM     12  C   UNL     1      16.942 -23.790 -26.252  1.00  0.00     0.041 C 
ATOM     13  O   UNL     1      17.590 -24.648 -26.906  1.00  0.00    -0.550 OA
ATOM     14  O   UNL     1      16.968 -23.820 -24.863  1.00  0.00    -0.550 OA
ENDBRANCH  11  12
ENDBRANCH  10  11
ENDBRANCH   9  10
ENDBRANCH   8   9
ENDBRANCH   1   8
TORSDOF 9
ENDMDL
