MODEL 1
REMARK VINA RESULT:    19.571      0.000      0.000
REMARK INTER + INTRA:          22.776
REMARK INTER:                  23.004
REMARK INTRA:                  -0.228
REMARK UNBOUND:                -0.228
REMARK SMILES Oc1ccc(-c2[o+]c3cc(O)cc(O)c3cc2O)cc1
REMARK SMILES IDX 6 1 7 2 8 3 9 4 10 5 12 6 13 7 15 8 16 9 17 10 5 11 4 12
REMARK SMILES IDX 3 13 2 14 19 15 20 16 1 17 18 19 11 21 14 23
REMARK H PARENT 1 18 18 20 11 22 14 24
REMARK Flexibility Score: inf
ROOT
ATOM      1  C   UNL     1      -6.157   7.557  16.061  1.00  0.00     0.401 A 
ATOM      2  O   UNL     1      -5.802   6.540  16.842  1.00  0.00    -0.202 OA
ATOM      3  C   UNL     1      -6.074   5.272  16.557  1.00  0.00     0.368 A 
ATOM      4  C   UNL     1      -5.656   4.272  17.439  1.00  0.00     0.162 A 
ATOM      5  C   UNL     1      -5.925   2.931  17.165  1.00  0.00     0.128 A 
ATOM      6  C   UNL     1      -6.616   2.583  15.998  1.00  0.00     0.093 A 
ATOM      7  C   UNL     1      -7.046   3.567  15.097  1.00  0.00     0.136 A 
ATOM      8  C   UNL     1      -6.776   4.932  15.375  1.00  0.00     0.125 A 
ATOM      9  C   UNL     1      -7.180   5.985  14.537  1.00  0.00     0.078 A 
ATOM     10  C   UNL     1      -6.881   7.307  14.881  1.00  0.00     0.223 A 
ENDROOT
BRANCH   1  11
ATOM     11  C   UNL     1      -5.786   8.928  16.482  1.00  0.00     0.084 A 
ATOM     12  C   UNL     1      -6.751   9.838  16.950  1.00  0.00     0.022 A 
ATOM     13  C   UNL     1      -6.378  11.135  17.320  1.00  0.00     0.047 A 
ATOM     14  C   UNL     1      -5.043  11.541  17.214  1.00  0.00     0.115 A 
ATOM     15  C   UNL     1      -4.451   9.350  16.359  1.00  0.00     0.022 A 
ATOM     16  C   UNL     1      -4.082  10.646  16.731  1.00  0.00     0.047 A 
BRANCH  14  17
ATOM     17  O   UNL     1      -4.660  12.829  17.580  1.00  0.00    -0.508 OA
ATOM     18  H   UNL     1      -4.434  13.532  16.886  1.00  0.00     0.293 HD
ENDBRANCH  14  17
ENDBRANCH   1  11
BRANCH  10  19
ATOM     19  O   UNL     1      -7.326   8.355  14.074  1.00  0.00    -0.500 OA
ATOM     20  H   UNL     1      -8.312   8.530  13.923  1.00  0.00     0.294 HD
ENDBRANCH  10  19
BRANCH   5  21
ATOM     21  O   UNL     1      -5.500   1.949  18.056  1.00  0.00    -0.507 OA
ATOM     22  H   UNL     1      -5.091   1.079  17.732  1.00  0.00     0.293 HD
ENDBRANCH   5  21
BRANCH   7  23
ATOM     23  O   UNL     1      -7.727   3.138  13.955  1.00  0.00    -0.507 OA
ATOM     24  H   UNL     1      -7.895   3.714  13.143  1.00  0.00     0.293 HD
ENDBRANCH   7  23
TORSDOF 5
ENDMDL
MODEL 2
REMARK VINA RESULT:    19.726     10.313     10.900
REMARK INTER + INTRA:          22.958
REMARK INTER:                  22.467
REMARK INTRA:                   0.491
REMARK UNBOUND:                -0.228
REMARK SMILES Oc1ccc(-c2[o+]c3cc(O)cc(O)c3cc2O)cc1
REMARK SMILES IDX 6 1 7 2 8 3 9 4 10 5 12 6 13 7 15 8 16 9 17 10 5 11 4 12
REMARK SMILES IDX 3 13 2 14 19 15 20 16 1 17 18 19 11 21 14 23
REMARK H PARENT 1 18 18 20 11 22 14 24
REMARK Flexibility Score: inf
ROOT
ATOM      1  C   UNL     1      -5.709  -2.541  13.102  1.00  0.00     0.401 A 
ATOM      2  O   UNL     1      -6.315  -3.044  14.175  1.00  0.00    -0.202 OA
ATOM      3  C   UNL     1      -7.631  -3.014  14.351  1.00  0.00     0.368 A 
ATOM      4  C   UNL     1      -8.176  -3.571  15.511  1.00  0.00     0.162 A 
ATOM      5  C   UNL     1      -9.555  -3.557  15.720  1.00  0.00     0.128 A 
ATOM      6  C   UNL     1     -10.399  -2.982  14.764  1.00  0.00     0.093 A 
ATOM      7  C   UNL     1      -9.879  -2.416  13.592  1.00  0.00     0.136 A 
ATOM      8  C   UNL     1      -8.476  -2.427  13.377  1.00  0.00     0.125 A 
ATOM      9  C   UNL     1      -7.865  -1.873  12.240  1.00  0.00     0.078 A 
ATOM     10  C   UNL     1      -6.474  -1.917  12.100  1.00  0.00     0.223 A 
ENDROOT
BRANCH   1  11
ATOM     11  C   UNL     1      -4.234  -2.645  13.017  1.00  0.00     0.084 A 
ATOM     12  C   UNL     1      -3.502  -3.449  13.911  1.00  0.00     0.022 A 
ATOM     13  C   UNL     1      -2.108  -3.511  13.825  1.00  0.00     0.047 A 
ATOM     14  C   UNL     1      -1.428  -2.764  12.855  1.00  0.00     0.115 A 
ATOM     15  C   UNL     1      -3.542  -1.883  12.061  1.00  0.00     0.022 A 
ATOM     16  C   UNL     1      -2.148  -1.949  11.977  1.00  0.00     0.047 A 
BRANCH  14  17
ATOM     17  O   UNL     1      -0.039  -2.820  12.759  1.00  0.00    -0.508 OA
ATOM     18  H   UNL     1       0.518  -3.331  13.435  1.00  0.00     0.293 HD
ENDBRANCH  14  17
ENDBRANCH   1  11
BRANCH  10  19
ATOM     19  O   UNL     1      -5.864  -1.323  10.996  1.00  0.00    -0.500 OA
ATOM     20  H   UNL     1      -5.773  -0.317  10.915  1.00  0.00     0.294 HD
ENDBRANCH  10  19
BRANCH   5  21
ATOM     21  O   UNL     1     -10.078  -4.117  16.883  1.00  0.00    -0.507 OA
ATOM     22  H   UNL     1     -11.078  -4.204  17.026  1.00  0.00     0.293 HD
ENDBRANCH   5  21
BRANCH   7  23
ATOM     23  O   UNL     1     -10.788  -1.865  12.685  1.00  0.00    -0.507 OA
ATOM     24  H   UNL     1     -11.686  -2.269  12.463  1.00  0.00     0.293 HD
ENDBRANCH   7  23
TORSDOF 5
ENDMDL
MODEL 3
REMARK VINA RESULT:    20.492      1.941      6.503
REMARK INTER + INTRA:          23.858
REMARK INTER:                  24.170
REMARK INTRA:                  -0.313
REMARK UNBOUND:                -0.228
REMARK SMILES Oc1ccc(-c2[o+]c3cc(O)cc(O)c3cc2O)cc1
REMARK SMILES IDX 6 1 7 2 8 3 9 4 10 5 12 6 13 7 15 8 16 9 17 10 5 11 4 12
REMARK SMILES IDX 3 13 2 14 19 15 20 16 1 17 18 19 11 21 14 23
REMARK H PARENT 1 18 18 20 11 22 14 24
REMARK Flexibility Score: inf
ROOT
ATOM      1  C   UNL     1      -5.790   4.585  15.491  1.00  0.00     0.401 A 
ATOM      2  O   UNL     1      -5.573   5.745  16.105  1.00  0.00    -0.202 OA
ATOM      3  C   UNL     1      -6.255   6.853  15.836  1.00  0.00     0.368 A 
ATOM      4  C   UNL     1      -5.956   8.024  16.536  1.00  0.00     0.162 A 
ATOM      5  C   UNL     1      -6.659   9.201  16.277  1.00  0.00     0.128 A 
ATOM      6  C   UNL     1      -7.670   9.209  15.309  1.00  0.00     0.093 A 
ATOM      7  C   UNL     1      -7.989   8.048  14.592  1.00  0.00     0.136 A 
ATOM      8  C   UNL     1      -7.275   6.850  14.853  1.00  0.00     0.125 A 
ATOM      9  C   UNL     1      -7.518   5.644  14.175  1.00  0.00     0.078 A 
ATOM     10  C   UNL     1      -6.768   4.504  14.483  1.00  0.00     0.223 A 
ENDROOT
BRANCH   1  11
ATOM     11  C   UNL     1      -4.969   3.418  15.888  1.00  0.00     0.084 A 
ATOM     12  C   UNL     1      -5.328   2.605  16.978  1.00  0.00     0.022 A 
ATOM     13  C   UNL     1      -4.523   1.522  17.347  1.00  0.00     0.047 A 
ATOM     14  C   UNL     1      -3.345   1.247  16.642  1.00  0.00     0.115 A 
ATOM     15  C   UNL     1      -3.774   3.147  15.199  1.00  0.00     0.022 A 
ATOM     16  C   UNL     1      -2.973   2.063  15.569  1.00  0.00     0.047 A 
BRANCH  14  17
ATOM     17  O   UNL     1      -2.537   0.170  17.000  1.00  0.00    -0.508 OA
ATOM     18  H   UNL     1      -2.142  -0.450  16.302  1.00  0.00     0.293 HD
ENDBRANCH  14  17
ENDBRANCH   1  11
BRANCH  10  19
ATOM     19  O   UNL     1      -6.975   3.320  13.776  1.00  0.00    -0.500 OA
ATOM     20  H   UNL     1      -6.256   2.921  13.183  1.00  0.00     0.294 HD
ENDBRANCH  10  19
BRANCH   5  21
ATOM     21  O   UNL     1      -6.345  10.358  16.986  1.00  0.00    -0.507 OA
ATOM     22  H   UNL     1      -7.023  10.809  17.589  1.00  0.00     0.293 HD
ENDBRANCH   5  21
BRANCH   7  23
ATOM     23  O   UNL     1      -9.014   8.138  13.646  1.00  0.00    -0.507 OA
ATOM     24  H   UNL     1      -9.156   7.478  12.896  1.00  0.00     0.293 HD
ENDBRANCH   7  23
TORSDOF 5
ENDMDL
MODEL 4
REMARK VINA RESULT:    21.684      5.700      6.441
REMARK INTER + INTRA:          25.259
REMARK INTER:                  24.985
REMARK INTRA:                   0.274
REMARK UNBOUND:                -0.228
REMARK SMILES Oc1ccc(-c2[o+]c3cc(O)cc(O)c3cc2O)cc1
REMARK SMILES IDX 6 1 7 2 8 3 9 4 10 5 12 6 13 7 15 8 16 9 17 10 5 11 4 12
REMARK SMILES IDX 3 13 2 14 19 15 20 16 1 17 18 19 11 21 14 23
REMARK H PARENT 1 18 18 20 11 22 14 24
REMARK Flexibility Score: inf
ROOT
ATOM      1  C   UNL     1     -10.073   9.107  19.401  1.00  0.00     0.401 A 
ATOM      2  O   UNL     1     -11.114   8.397  18.975  1.00  0.00    -0.202 OA
ATOM      3  C   UNL     1     -11.487   7.246  19.523  1.00  0.00     0.368 A 
ATOM      4  C   UNL     1     -12.598   6.574  19.007  1.00  0.00     0.162 A 
ATOM      5  C   UNL     1     -13.014   5.365  19.564  1.00  0.00     0.128 A 
ATOM      6  C   UNL     1     -12.316   4.821  20.648  1.00  0.00     0.093 A 
ATOM      7  C   UNL     1     -11.198   5.475  21.185  1.00  0.00     0.136 A 
ATOM      8  C   UNL     1     -10.772   6.704  20.618  1.00  0.00     0.125 A 
ATOM      9  C   UNL     1      -9.656   7.421  21.082  1.00  0.00     0.078 A 
ATOM     10  C   UNL     1      -9.293   8.624  20.468  1.00  0.00     0.223 A 
ENDROOT
BRANCH   1  11
ATOM     11  C   UNL     1      -9.764  10.382  18.713  1.00  0.00     0.084 A 
ATOM     12  C   UNL     1     -10.779  11.174  18.146  1.00  0.00     0.022 A 
ATOM     13  C   UNL     1     -10.459  12.362  17.481  1.00  0.00     0.047 A 
ATOM     14  C   UNL     1      -9.123  12.765  17.363  1.00  0.00     0.115 A 
ATOM     15  C   UNL     1      -8.425  10.783  18.572  1.00  0.00     0.022 A 
ATOM     16  C   UNL     1      -8.109  11.972  17.908  1.00  0.00     0.047 A 
BRANCH  14  17
ATOM     17  O   UNL     1      -8.793  13.948  16.704  1.00  0.00    -0.508 OA
ATOM     18  H   UNL     1      -9.363  14.309  15.948  1.00  0.00     0.293 HD
ENDBRANCH  14  17
ENDBRANCH   1  11
BRANCH  10  19
ATOM     19  O   UNL     1      -8.157   9.311  20.896  1.00  0.00    -0.500 OA
ATOM     20  H   UNL     1      -8.028  10.298  20.709  1.00  0.00     0.294 HD
ENDBRANCH  10  19
BRANCH   5  21
ATOM     21  O   UNL     1     -14.124   4.712  19.035  1.00  0.00    -0.507 OA
ATOM     22  H   UNL     1     -14.055   3.775  18.654  1.00  0.00     0.293 HD
ENDBRANCH   5  21
BRANCH   7  23
ATOM     23  O   UNL     1     -10.558   4.868  22.269  1.00  0.00    -0.507 OA
ATOM     24  H   UNL     1     -10.311   5.345  23.124  1.00  0.00     0.293 HD
ENDBRANCH   7  23
TORSDOF 5
ENDMDL
MODEL 5
REMARK VINA RESULT:    22.173      1.916      3.170
REMARK INTER + INTRA:          25.833
REMARK INTER:                  26.109
REMARK INTRA:                  -0.276
REMARK UNBOUND:                -0.228
REMARK SMILES Oc1ccc(-c2[o+]c3cc(O)cc(O)c3cc2O)cc1
REMARK SMILES IDX 6 1 7 2 8 3 9 4 10 5 12 6 13 7 15 8 16 9 17 10 5 11 4 12
REMARK SMILES IDX 3 13 2 14 19 15 20 16 1 17 18 19 11 21 14 23
REMARK H PARENT 1 18 18 20 11 22 14 24
REMARK Flexibility Score: inf
ROOT
ATOM      1  C   UNL     1      -6.667   7.711  17.122  1.00  0.00     0.401 A 
ATOM      2  O   UNL     1      -7.308   7.096  16.131  1.00  0.00    -0.202 OA
ATOM      3  C   UNL     1      -6.958   5.901  15.667  1.00  0.00     0.368 A 
ATOM      4  C   UNL     1      -7.695   5.335  14.624  1.00  0.00     0.162 A 
ATOM      5  C   UNL     1      -7.354   4.080  14.119  1.00  0.00     0.128 A 
ATOM      6  C   UNL     1      -6.266   3.384  14.659  1.00  0.00     0.093 A 
ATOM      7  C   UNL     1      -5.511   3.930  15.705  1.00  0.00     0.136 A 
ATOM      8  C   UNL     1      -5.855   5.207  16.220  1.00  0.00     0.125 A 
ATOM      9  C   UNL     1      -5.147   5.837  17.257  1.00  0.00     0.078 A 
ATOM     10  C   UNL     1      -5.544   7.100  17.708  1.00  0.00     0.223 A 
ENDROOT
BRANCH   1  11
ATOM     11  C   UNL     1      -7.160   9.038  17.558  1.00  0.00     0.084 A 
ATOM     12  C   UNL     1      -7.867   9.198  18.764  1.00  0.00     0.022 A 
ATOM     13  C   UNL     1      -8.342  10.459  19.141  1.00  0.00     0.047 A 
ATOM     14  C   UNL     1      -8.129  11.569  18.315  1.00  0.00     0.115 A 
ATOM     15  C   UNL     1      -6.969  10.154  16.725  1.00  0.00     0.022 A 
ATOM     16  C   UNL     1      -7.444  11.412  17.106  1.00  0.00     0.047 A 
BRANCH  14  17
ATOM     17  O   UNL     1      -8.597  12.829  18.682  1.00  0.00    -0.508 OA
ATOM     18  H   UNL     1      -9.387  13.257  18.214  1.00  0.00     0.293 HD
ENDBRANCH  14  17
ENDBRANCH   1  11
BRANCH  10  19
ATOM     19  O   UNL     1      -4.811   7.748  18.703  1.00  0.00    -0.500 OA
ATOM     20  H   UNL     1      -4.913   7.507  19.682  1.00  0.00     0.294 HD
ENDBRANCH  10  19
BRANCH   5  21
ATOM     21  O   UNL     1      -8.101   3.532  13.079  1.00  0.00    -0.507 OA
ATOM     22  H   UNL     1      -8.854   4.048  12.639  1.00  0.00     0.293 HD
ENDBRANCH   5  21
BRANCH   7  23
ATOM     23  O   UNL     1      -4.444   3.171  16.192  1.00  0.00    -0.507 OA
ATOM     24  H   UNL     1      -4.416   2.162  16.192  1.00  0.00     0.293 HD
ENDBRANCH   7  23
TORSDOF 5
ENDMDL
