MODEL 1
REMARK VINA RESULT:    -3.718      0.000      0.000
REMARK INTER + INTRA:          -9.924
REMARK INTER:                  -6.979
REMARK INTRA:                  -2.945
REMARK UNBOUND:                -2.945
REMARK SMILES CCCCCCCCC=CCCCCCCCC(=O)[O-]
REMARK SMILES IDX 10 1 9 2 11 3 12 4 13 5 14 6 15 7 16 8 17 9 18 10 19 11
REMARK SMILES IDX 20 12 8 13 7 14 6 15 5 16 4 17 3 18 2 19 1 20
REMARK H PARENT
REMARK Flexibility Score: inf
ROOT
ATOM      1  C   UNL     1      79.844  81.766  77.337  1.00  0.00    -0.031 C 
ATOM      2  C   UNL     1      79.221  80.645  77.729  1.00  0.00    -0.031 C 
ENDROOT
BRANCH   1   3
ATOM      3  C   UNL     1      80.988  81.734  76.361  1.00  0.00     0.027 C 
BRANCH   3   4
ATOM      4  C   UNL     1      80.818  82.802  75.274  1.00  0.00     0.004 C 
BRANCH   4   5
ATOM      5  C   UNL     1      79.335  83.098  75.023  1.00  0.00     0.000 C 
BRANCH   5   6
ATOM      6  C   UNL     1      78.887  82.556  73.660  1.00  0.00     0.000 C 
BRANCH   6   7
ATOM      7  C   UNL     1      77.932  81.369  73.827  1.00  0.00     0.000 C 
BRANCH   7   8
ATOM      8  C   UNL     1      76.977  81.591  75.009  1.00  0.00     0.006 C 
BRANCH   8   9
ATOM      9  C   UNL     1      75.594  82.073  74.556  1.00  0.00     0.053 C 
BRANCH   9  10
ATOM     10  C   UNL     1      75.280  83.437  75.089  1.00  0.00     0.041 C 
ATOM     11  O   UNL     1      74.257  83.620  75.801  1.00  0.00    -0.550 OA
ATOM     12  O   UNL     1      76.100  84.514  74.772  1.00  0.00    -0.550 OA
ENDBRANCH   9  10
ENDBRANCH   8   9
ENDBRANCH   7   8
ENDBRANCH   6   7
ENDBRANCH   5   6
ENDBRANCH   4   5
ENDBRANCH   3   4
ENDBRANCH   1   3
BRANCH   2  13
ATOM     13  C   UNL     1      78.090  80.682  78.717  1.00  0.00     0.027 C 
BRANCH  13  14
ATOM     14  C   UNL     1      77.221  81.930  78.510  1.00  0.00     0.004 C 
BRANCH  14  15
ATOM     15  C   UNL     1      75.717  81.643  78.662  1.00  0.00     0.000 C 
BRANCH  15  16
ATOM     16  C   UNL     1      75.416  80.351  79.451  1.00  0.00     0.000 C 
BRANCH  16  17
ATOM     17  C   UNL     1      74.499  79.395  78.669  1.00  0.00    -0.000 C 
BRANCH  17  18
ATOM     18  C   UNL     1      74.604  79.593  77.149  1.00  0.00    -0.000 C 
BRANCH  18  19
ATOM     19  C   UNL     1      75.075  78.322  76.426  1.00  0.00    -0.003 C 
ATOM     20  C   UNL     1      76.598  78.252  76.371  1.00  0.00     0.004 C 
ENDBRANCH  18  19
ENDBRANCH  17  18
ENDBRANCH  16  17
ENDBRANCH  15  16
ENDBRANCH  14  15
ENDBRANCH  13  14
ENDBRANCH   2  13
TORSDOF 15
ENDMDL
MODEL 2
REMARK VINA RESULT:    -3.641      1.943      5.271
REMARK INTER + INTRA:          -9.779
REMARK INTER:                  -7.745
REMARK INTRA:                  -2.034
REMARK UNBOUND:                -2.945
REMARK SMILES CCCCCCCCC=CCCCCCCCC(=O)[O-]
REMARK SMILES IDX 10 1 9 2 11 3 12 4 13 5 14 6 15 7 16 8 17 9 18 10 19 11
REMARK SMILES IDX 20 12 8 13 7 14 6 15 5 16 4 17 3 18 2 19 1 20
REMARK H PARENT
REMARK Flexibility Score: inf
ROOT
ATOM      1  C   UNL     1      79.623  81.390  76.725  1.00  0.00    -0.031 C 
ATOM      2  C   UNL     1      79.771  82.553  76.075  1.00  0.00    -0.031 C 
ENDROOT
BRANCH   1   3
ATOM      3  C   UNL     1      78.268  80.881  77.135  1.00  0.00     0.027 C 
BRANCH   3   4
ATOM      4  C   UNL     1      77.853  81.449  78.497  1.00  0.00     0.004 C 
BRANCH   4   5
ATOM      5  C   UNL     1      76.434  81.005  78.867  1.00  0.00     0.000 C 
BRANCH   5   6
ATOM      6  C   UNL     1      75.386  81.963  78.287  1.00  0.00     0.000 C 
BRANCH   6   7
ATOM      7  C   UNL     1      74.687  81.344  77.072  1.00  0.00     0.000 C 
BRANCH   7   8
ATOM      8  C   UNL     1      74.781  82.271  75.851  1.00  0.00     0.006 C 
BRANCH   8   9
ATOM      9  C   UNL     1      75.567  83.552  76.154  1.00  0.00     0.053 C 
BRANCH   9  10
ATOM     10  C   UNL     1      76.468  83.931  75.019  1.00  0.00     0.041 C 
ATOM     11  O   UNL     1      76.985  83.040  74.294  1.00  0.00    -0.550 OA
ATOM     12  O   UNL     1      76.763  85.269  74.782  1.00  0.00    -0.550 OA
ENDBRANCH   9  10
ENDBRANCH   8   9
ENDBRANCH   7   8
ENDBRANCH   6   7
ENDBRANCH   5   6
ENDBRANCH   4   5
ENDBRANCH   3   4
ENDBRANCH   1   3
BRANCH   2  13
ATOM     13  C   UNL     1      81.129  83.065  75.683  1.00  0.00     0.027 C 
BRANCH  13  14
ATOM     14  C   UNL     1      82.139  81.914  75.580  1.00  0.00     0.004 C 
BRANCH  14  15
ATOM     15  C   UNL     1      83.509  82.265  76.185  1.00  0.00     0.000 C 
BRANCH  15  16
ATOM     16  C   UNL     1      83.719  81.686  77.601  1.00  0.00     0.000 C 
BRANCH  16  17
ATOM     17  C   UNL     1      82.920  80.390  77.821  1.00  0.00    -0.000 C 
BRANCH  17  18
ATOM     18  C   UNL     1      82.266  80.333  79.210  1.00  0.00    -0.000 C 
BRANCH  18  19
ATOM     19  C   UNL     1      81.826  78.911  79.591  1.00  0.00    -0.003 C 
ATOM     20  C   UNL     1      80.379  78.654  79.181  1.00  0.00     0.004 C 
ENDBRANCH  18  19
ENDBRANCH  17  18
ENDBRANCH  16  17
ENDBRANCH  15  16
ENDBRANCH  14  15
ENDBRANCH  13  14
ENDBRANCH   2  13
TORSDOF 15
ENDMDL
MODEL 3
REMARK VINA RESULT:    -3.630      1.823      4.312
REMARK INTER + INTRA:          -9.759
REMARK INTER:                  -6.688
REMARK INTRA:                  -3.071
REMARK UNBOUND:                -2.945
REMARK SMILES CCCCCCCCC=CCCCCCCCC(=O)[O-]
REMARK SMILES IDX 10 1 9 2 11 3 12 4 13 5 14 6 15 7 16 8 17 9 18 10 19 11
REMARK SMILES IDX 20 12 8 13 7 14 6 15 5 16 4 17 3 18 2 19 1 20
REMARK H PARENT
REMARK Flexibility Score: inf
ROOT
ATOM      1  C   UNL     1      75.132  82.046  78.027  1.00  0.00    -0.031 C 
ATOM      2  C   UNL     1      75.912  82.627  77.103  1.00  0.00    -0.031 C 
ENDROOT
BRANCH   1   3
ATOM      3  C   UNL     1      75.683  81.058  79.018  1.00  0.00     0.027 C 
BRANCH   3   4
ATOM      4  C   UNL     1      76.196  79.797  78.313  1.00  0.00     0.004 C 
BRANCH   4   5
ATOM      5  C   UNL     1      77.695  79.598  78.564  1.00  0.00     0.000 C 
BRANCH   5   6
ATOM      6  C   UNL     1      78.525  80.113  77.382  1.00  0.00     0.000 C 
BRANCH   6   7
ATOM      7  C   UNL     1      79.278  81.395  77.755  1.00  0.00     0.000 C 
BRANCH   7   8
ATOM      8  C   UNL     1      79.676  82.186  76.500  1.00  0.00     0.006 C 
BRANCH   8   9
ATOM      9  C   UNL     1      78.928  81.706  75.250  1.00  0.00     0.053 C 
BRANCH   9  10
ATOM     10  C   UNL     1      78.632  82.835  74.313  1.00  0.00     0.041 C 
ATOM     11  O   UNL     1      78.542  84.014  74.748  1.00  0.00    -0.550 OA
ATOM     12  O   UNL     1      78.421  82.582  72.963  1.00  0.00    -0.550 OA
ENDBRANCH   9  10
ENDBRANCH   8   9
ENDBRANCH   7   8
ENDBRANCH   6   7
ENDBRANCH   5   6
ENDBRANCH   4   5
ENDBRANCH   3   4
ENDBRANCH   1   3
BRANCH   2  13
ATOM     13  C   UNL     1      75.351  83.601  76.106  1.00  0.00     0.027 C 
BRANCH  13  14
ATOM     14  C   UNL     1      74.903  82.879  74.827  1.00  0.00     0.004 C 
BRANCH  14  15
ATOM     15  C   UNL     1      73.388  82.986  74.581  1.00  0.00     0.000 C 
BRANCH  15  16
ATOM     16  C   UNL     1      72.692  81.615  74.441  1.00  0.00     0.000 C 
BRANCH  16  17
ATOM     17  C   UNL     1      72.529  80.908  75.798  1.00  0.00    -0.000 C 
BRANCH  17  18
ATOM     18  C   UNL     1      73.328  79.597  75.875  1.00  0.00    -0.000 C 
BRANCH  18  19
ATOM     19  C   UNL     1      74.096  79.304  74.578  1.00  0.00    -0.003 C 
ATOM     20  C   UNL     1      75.600  79.253  74.829  1.00  0.00     0.004 C 
ENDBRANCH  18  19
ENDBRANCH  17  18
ENDBRANCH  16  17
ENDBRANCH  15  16
ENDBRANCH  14  15
ENDBRANCH  13  14
ENDBRANCH   2  13
TORSDOF 15
ENDMDL
MODEL 4
REMARK VINA RESULT:    -3.621      2.098      5.131
REMARK INTER + INTRA:          -9.742
REMARK INTER:                  -6.656
REMARK INTRA:                  -3.086
REMARK UNBOUND:                -2.945
REMARK SMILES CCCCCCCCC=CCCCCCCCC(=O)[O-]
REMARK SMILES IDX 10 1 9 2 11 3 12 4 13 5 14 6 15 7 16 8 17 9 18 10 19 11
REMARK SMILES IDX 20 12 8 13 7 14 6 15 5 16 4 17 3 18 2 19 1 20
REMARK H PARENT
REMARK Flexibility Score: inf
ROOT
ATOM      1  C   UNL     1      73.644  79.797  77.544  1.00  0.00    -0.031 C 
ATOM      2  C   UNL     1      72.725  79.218  76.757  1.00  0.00    -0.031 C 
ENDROOT
BRANCH   1   3
ATOM      3  C   UNL     1      74.728  78.996  78.212  1.00  0.00     0.027 C 
BRANCH   3   4
ATOM      4  C   UNL     1      75.808  79.911  78.800  1.00  0.00     0.004 C 
BRANCH   4   5
ATOM      5  C   UNL     1      75.427  81.386  78.636  1.00  0.00     0.000 C 
BRANCH   5   6
ATOM      6  C   UNL     1      76.572  82.185  78.000  1.00  0.00     0.000 C 
BRANCH   6   7
ATOM      7  C   UNL     1      77.576  81.254  77.311  1.00  0.00     0.000 C 
BRANCH   7   8
ATOM      8  C   UNL     1      78.684  82.057  76.614  1.00  0.00     0.006 C 
BRANCH   8   9
ATOM      9  C   UNL     1      78.910  81.600  75.168  1.00  0.00     0.053 C 
BRANCH   9  10
ATOM     10  C   UNL     1      78.604  82.689  74.187  1.00  0.00     0.041 C 
ATOM     11  O   UNL     1      78.500  82.427  72.959  1.00  0.00    -0.550 OA
ATOM     12  O   UNL     1      78.465  84.001  74.625  1.00  0.00    -0.550 OA
ENDBRANCH   9  10
ENDBRANCH   8   9
ENDBRANCH   7   8
ENDBRANCH   6   7
ENDBRANCH   5   6
ENDBRANCH   4   5
ENDBRANCH   3   4
ENDBRANCH   1   3
BRANCH   2  13
ATOM     13  C   UNL     1      71.634  80.021  76.107  1.00  0.00     0.027 C 
BRANCH  13  14
ATOM     14  C   UNL     1      71.671  81.481  76.579  1.00  0.00     0.004 C 
BRANCH  14  15
ATOM     15  C   UNL     1      71.365  82.482  75.452  1.00  0.00     0.000 C 
BRANCH  15  16
ATOM     16  C   UNL     1      72.610  82.876  74.628  1.00  0.00     0.000 C 
BRANCH  16  17
ATOM     17  C   UNL     1      73.890  82.889  75.482  1.00  0.00    -0.000 C 
BRANCH  17  18
ATOM     18  C   UNL     1      75.147  82.568  74.660  1.00  0.00    -0.000 C 
BRANCH  18  19
ATOM     19  C   UNL     1      74.999  81.275  73.845  1.00  0.00    -0.003 C 
ATOM     20  C   UNL     1      75.557  80.077  74.606  1.00  0.00     0.004 C 
ENDBRANCH  18  19
ENDBRANCH  17  18
ENDBRANCH  16  17
ENDBRANCH  15  16
ENDBRANCH  14  15
ENDBRANCH  13  14
ENDBRANCH   2  13
TORSDOF 15
ENDMDL
MODEL 5
REMARK VINA RESULT:    -3.599      1.843      3.987
REMARK INTER + INTRA:          -9.700
REMARK INTER:                  -7.749
REMARK INTRA:                  -1.950
REMARK UNBOUND:                -2.945
REMARK SMILES CCCCCCCCC=CCCCCCCCC(=O)[O-]
REMARK SMILES IDX 10 1 9 2 11 3 12 4 13 5 14 6 15 7 16 8 17 9 18 10 19 11
REMARK SMILES IDX 20 12 8 13 7 14 6 15 5 16 4 17 3 18 2 19 1 20
REMARK H PARENT
REMARK Flexibility Score: inf
ROOT
ATOM      1  C   UNL     1      78.099  81.674  78.477  1.00  0.00    -0.031 C 
ATOM      2  C   UNL     1      77.056  80.875  78.749  1.00  0.00    -0.031 C 
ENDROOT
BRANCH   1   3
ATOM      3  C   UNL     1      79.507  81.149  78.436  1.00  0.00     0.027 C 
BRANCH   3   4
ATOM      4  C   UNL     1      79.664  80.071  77.356  1.00  0.00     0.004 C 
BRANCH   4   5
ATOM      5  C   UNL     1      81.044  80.153  76.696  1.00  0.00     0.000 C 
BRANCH   5   6
ATOM      6  C   UNL     1      81.735  81.483  77.021  1.00  0.00     0.000 C 
BRANCH   6   7
ATOM      7  C   UNL     1      82.135  82.224  75.741  1.00  0.00     0.000 C 
BRANCH   7   8
ATOM      8  C   UNL     1      80.919  82.450  74.831  1.00  0.00     0.006 C 
BRANCH   8   9
ATOM      9  C   UNL     1      79.924  83.451  75.432  1.00  0.00     0.053 C 
BRANCH   9  10
ATOM     10  C   UNL     1      78.531  83.214  74.935  1.00  0.00     0.041 C 
ATOM     11  O   UNL     1      78.107  82.040  74.772  1.00  0.00    -0.550 OA
ATOM     12  O   UNL     1      77.712  84.292  74.621  1.00  0.00    -0.550 OA
ENDBRANCH   9  10
ENDBRANCH   8   9
ENDBRANCH   7   8
ENDBRANCH   6   7
ENDBRANCH   5   6
ENDBRANCH   4   5
ENDBRANCH   3   4
ENDBRANCH   1   3
BRANCH   2  13
ATOM     13  C   UNL     1      75.653  81.410  78.805  1.00  0.00     0.027 C 
BRANCH  13  14
ATOM     14  C   UNL     1      74.698  80.533  77.984  1.00  0.00     0.004 C 
BRANCH  14  15
ATOM     15  C   UNL     1      74.475  81.065  76.558  1.00  0.00     0.000 C 
BRANCH  15  16
ATOM     16  C   UNL     1      74.911  82.534  76.377  1.00  0.00     0.000 C 
BRANCH  16  17
ATOM     17  C   UNL     1      74.381  83.138  75.065  1.00  0.00    -0.000 C 
BRANCH  17  18
ATOM     18  C   UNL     1      73.371  82.218  74.362  1.00  0.00    -0.000 C 
BRANCH  18  19
ATOM     19  C   UNL     1      71.968  82.840  74.286  1.00  0.00    -0.003 C 
ATOM     20  C   UNL     1      71.022  82.187  75.288  1.00  0.00     0.004 C 
ENDBRANCH  18  19
ENDBRANCH  17  18
ENDBRANCH  16  17
ENDBRANCH  15  16
ENDBRANCH  14  15
ENDBRANCH  13  14
ENDBRANCH   2  13
TORSDOF 15
ENDMDL
MODEL 6
REMARK VINA RESULT:    -3.582      2.140      4.882
REMARK INTER + INTRA:          -9.668
REMARK INTER:                  -7.365
REMARK INTRA:                  -2.302
REMARK UNBOUND:                -2.945
REMARK SMILES CCCCCCCCC=CCCCCCCCC(=O)[O-]
REMARK SMILES IDX 10 1 9 2 11 3 12 4 13 5 14 6 15 7 16 8 17 9 18 10 19 11
REMARK SMILES IDX 20 12 8 13 7 14 6 15 5 16 4 17 3 18 2 19 1 20
REMARK H PARENT
REMARK Flexibility Score: inf
ROOT
ATOM      1  C   UNL     1      78.691  81.566  78.348  1.00  0.00    -0.031 C 
ATOM      2  C   UNL     1      79.713  80.700  78.410  1.00  0.00    -0.031 C 
ENDROOT
BRANCH   1   3
ATOM      3  C   UNL     1      77.292  81.164  78.725  1.00  0.00     0.027 C 
BRANCH   3   4
ATOM      4  C   UNL     1      76.254  82.062  78.042  1.00  0.00     0.004 C 
BRANCH   4   5
ATOM      5  C   UNL     1      75.063  81.240  77.538  1.00  0.00     0.000 C 
BRANCH   5   6
ATOM      6  C   UNL     1      73.973  82.148  76.955  1.00  0.00     0.000 C 
BRANCH   6   7
ATOM      7  C   UNL     1      74.554  83.098  75.900  1.00  0.00     0.000 C 
BRANCH   7   8
ATOM      8  C   UNL     1      73.904  82.862  74.529  1.00  0.00     0.006 C 
BRANCH   8   9
ATOM      9  C   UNL     1      72.838  81.760  74.574  1.00  0.00     0.053 C 
BRANCH   9  10
ATOM     10  C   UNL     1      71.453  82.324  74.494  1.00  0.00     0.041 C 
ATOM     11  O   UNL     1      71.032  82.822  73.416  1.00  0.00    -0.550 OA
ATOM     12  O   UNL     1      70.638  82.330  75.620  1.00  0.00    -0.550 OA
ENDBRANCH   9  10
ENDBRANCH   8   9
ENDBRANCH   7   8
ENDBRANCH   6   7
ENDBRANCH   5   6
ENDBRANCH   4   5
ENDBRANCH   3   4
ENDBRANCH   1   3
BRANCH   2  13
ATOM     13  C   UNL     1      81.106  81.104  78.015  1.00  0.00     0.027 C 
BRANCH  13  14
ATOM     14  C   UNL     1      81.353  80.835  76.524  1.00  0.00     0.004 C 
BRANCH  14  15
ATOM     15  C   UNL     1      81.767  82.098  75.749  1.00  0.00     0.000 C 
BRANCH  15  16
ATOM     16  C   UNL     1      80.702  82.572  74.737  1.00  0.00     0.000 C 
BRANCH  16  17
ATOM     17  C   UNL     1      79.576  83.373  75.414  1.00  0.00    -0.000 C 
BRANCH  17  18
ATOM     18  C   UNL     1      78.238  83.247  74.669  1.00  0.00    -0.000 C 
BRANCH  18  19
ATOM     19  C   UNL     1      78.116  81.918  73.908  1.00  0.00    -0.003 C 
ATOM     20  C   UNL     1      77.436  80.854  74.764  1.00  0.00     0.004 C 
ENDBRANCH  18  19
ENDBRANCH  17  18
ENDBRANCH  16  17
ENDBRANCH  15  16
ENDBRANCH  14  15
ENDBRANCH  13  14
ENDBRANCH   2  13
TORSDOF 15
ENDMDL
MODEL 7
REMARK VINA RESULT:    -3.502     10.137     11.960
REMARK INTER + INTRA:          -9.518
REMARK INTER:                  -6.867
REMARK INTRA:                  -2.651
REMARK UNBOUND:                -2.945
REMARK SMILES CCCCCCCCC=CCCCCCCCC(=O)[O-]
REMARK SMILES IDX 10 1 9 2 11 3 12 4 13 5 14 6 15 7 16 8 17 9 18 10 19 11
REMARK SMILES IDX 20 12 8 13 7 14 6 15 5 16 4 17 3 18 2 19 1 20
REMARK H PARENT
REMARK Flexibility Score: inf
ROOT
ATOM      1  C   UNL     1      83.750  92.993  78.943  1.00  0.00    -0.031 C 
ATOM      2  C   UNL     1      84.093  92.682  80.202  1.00  0.00    -0.031 C 
ENDROOT
BRANCH   1   3
ATOM      3  C   UNL     1      84.769  93.456  77.939  1.00  0.00     0.027 C 
BRANCH   3   4
ATOM      4  C   UNL     1      84.263  93.256  76.506  1.00  0.00     0.004 C 
BRANCH   4   5
ATOM      5  C   UNL     1      82.991  92.402  76.487  1.00  0.00     0.000 C 
BRANCH   5   6
ATOM      6  C   UNL     1      82.212  92.600  75.180  1.00  0.00     0.000 C 
BRANCH   6   7
ATOM      7  C   UNL     1      80.856  93.266  75.443  1.00  0.00     0.000 C 
BRANCH   7   8
ATOM      8  C   UNL     1      80.522  93.262  76.942  1.00  0.00     0.006 C 
BRANCH   8   9
ATOM      9  C   UNL     1      79.030  93.505  77.204  1.00  0.00     0.053 C 
BRANCH   9  10
ATOM     10  C   UNL     1      78.660  93.206  78.624  1.00  0.00     0.041 C 
ATOM     11  O   UNL     1      78.273  92.053  78.949  1.00  0.00    -0.550 OA
ATOM     12  O   UNL     1      78.712  94.211  79.582  1.00  0.00    -0.550 OA
ENDBRANCH   9  10
ENDBRANCH   8   9
ENDBRANCH   7   8
ENDBRANCH   6   7
ENDBRANCH   5   6
ENDBRANCH   4   5
ENDBRANCH   3   4
ENDBRANCH   1   3
BRANCH   2  13
ATOM     13  C   UNL     1      83.068  92.236  81.206  1.00  0.00     0.027 C 
BRANCH  13  14
ATOM     14  C   UNL     1      81.683  92.110  80.556  1.00  0.00     0.004 C 
BRANCH  14  15
ATOM     15  C   UNL     1      81.130  90.675  80.600  1.00  0.00     0.000 C 
BRANCH  15  16
ATOM     16  C   UNL     1      81.825  89.783  81.651  1.00  0.00     0.000 C 
BRANCH  16  17
ATOM     17  C   UNL     1      82.421  88.509  81.026  1.00  0.00    -0.000 C 
BRANCH  17  18
ATOM     18  C   UNL     1      82.827  88.711  79.558  1.00  0.00    -0.000 C 
BRANCH  18  19
ATOM     19  C   UNL     1      84.300  89.123  79.411  1.00  0.00    -0.003 C 
ATOM     20  C   UNL     1      84.622  89.505  77.970  1.00  0.00     0.004 C 
ENDBRANCH  18  19
ENDBRANCH  17  18
ENDBRANCH  16  17
ENDBRANCH  15  16
ENDBRANCH  14  15
ENDBRANCH  13  14
ENDBRANCH   2  13
TORSDOF 15
ENDMDL
MODEL 8
REMARK VINA RESULT:    -3.479      1.664      3.526
REMARK INTER + INTRA:          -9.475
REMARK INTER:                  -7.211
REMARK INTRA:                  -2.264
REMARK UNBOUND:                -2.945
REMARK SMILES CCCCCCCCC=CCCCCCCCC(=O)[O-]
REMARK SMILES IDX 10 1 9 2 11 3 12 4 13 5 14 6 15 7 16 8 17 9 18 10 19 11
REMARK SMILES IDX 20 12 8 13 7 14 6 15 5 16 4 17 3 18 2 19 1 20
REMARK H PARENT
REMARK Flexibility Score: inf
ROOT
ATOM      1  C   UNL     1      78.098  81.477  78.519  1.00  0.00    -0.031 C 
ATOM      2  C   UNL     1      77.265  81.425  77.469  1.00  0.00    -0.031 C 
ENDROOT
BRANCH   1   3
ATOM      3  C   UNL     1      79.155  80.430  78.741  1.00  0.00     0.027 C 
BRANCH   3   4
ATOM      4  C   UNL     1      80.559  81.009  78.531  1.00  0.00     0.004 C 
BRANCH   4   5
ATOM      5  C   UNL     1      81.134  80.579  77.177  1.00  0.00     0.000 C 
BRANCH   5   6
ATOM      6  C   UNL     1      82.377  81.403  76.819  1.00  0.00     0.000 C 
BRANCH   6   7
ATOM      7  C   UNL     1      82.044  82.476  75.775  1.00  0.00     0.000 C 
BRANCH   7   8
ATOM      8  C   UNL     1      80.634  82.270  75.204  1.00  0.00     0.006 C 
BRANCH   8   9
ATOM      9  C   UNL     1      79.755  83.516  75.367  1.00  0.00     0.053 C 
BRANCH   9  10
ATOM     10  C   UNL     1      78.472  83.394  74.603  1.00  0.00     0.041 C 
ATOM     11  O   UNL     1      78.249  82.375  73.898  1.00  0.00    -0.550 OA
ATOM     12  O   UNL     1      77.539  84.423  74.642  1.00  0.00    -0.550 OA
ENDBRANCH   9  10
ENDBRANCH   8   9
ENDBRANCH   7   8
ENDBRANCH   6   7
ENDBRANCH   5   6
ENDBRANCH   4   5
ENDBRANCH   3   4
ENDBRANCH   1   3
BRANCH   2  13
ATOM     13  C   UNL     1      76.199  82.465  77.263  1.00  0.00     0.027 C 
BRANCH  13  14
ATOM     14  C   UNL     1      75.199  82.019  76.188  1.00  0.00     0.004 C 
BRANCH  14  15
ATOM     15  C   UNL     1      75.141  80.491  76.022  1.00  0.00     0.000 C 
BRANCH  15  16
ATOM     16  C   UNL     1      73.994  79.831  76.816  1.00  0.00     0.000 C 
BRANCH  16  17
ATOM     17  C   UNL     1      74.517  78.961  77.973  1.00  0.00    -0.000 C 
BRANCH  17  18
ATOM     18  C   UNL     1      74.674  79.754  79.279  1.00  0.00    -0.000 C 
BRANCH  18  19
ATOM     19  C   UNL     1      75.720  79.134  80.217  1.00  0.00    -0.003 C 
ATOM     20  C   UNL     1      75.525  79.612  81.652  1.00  0.00     0.004 C 
ENDBRANCH  18  19
ENDBRANCH  17  18
ENDBRANCH  16  17
ENDBRANCH  15  16
ENDBRANCH  14  15
ENDBRANCH  13  14
ENDBRANCH   2  13
TORSDOF 15
ENDMDL
MODEL 9
REMARK VINA RESULT:    -3.478      1.456      4.913
REMARK INTER + INTRA:          -9.474
REMARK INTER:                  -6.661
REMARK INTRA:                  -2.812
REMARK UNBOUND:                -2.945
REMARK SMILES CCCCCCCCC=CCCCCCCCC(=O)[O-]
REMARK SMILES IDX 10 1 9 2 11 3 12 4 13 5 14 6 15 7 16 8 17 9 18 10 19 11
REMARK SMILES IDX 20 12 8 13 7 14 6 15 5 16 4 17 3 18 2 19 1 20
REMARK H PARENT
REMARK Flexibility Score: inf
ROOT
ATOM      1  C   UNL     1      78.385  79.372  76.805  1.00  0.00    -0.031 C 
ATOM      2  C   UNL     1      77.813  79.404  75.592  1.00  0.00    -0.031 C 
ENDROOT
BRANCH   1   3
ATOM      3  C   UNL     1      77.654  78.845  78.009  1.00  0.00     0.027 C 
BRANCH   3   4
ATOM      4  C   UNL     1      77.381  79.962  79.023  1.00  0.00     0.004 C 
BRANCH   4   5
ATOM      5  C   UNL     1      77.932  81.302  78.525  1.00  0.00     0.000 C 
BRANCH   5   6
ATOM      6  C   UNL     1      76.799  82.222  78.052  1.00  0.00     0.000 C 
BRANCH   6   7
ATOM      7  C   UNL     1      75.451  81.780  78.633  1.00  0.00     0.000 C 
BRANCH   7   8
ATOM      8  C   UNL     1      74.430  81.519  77.516  1.00  0.00     0.006 C 
BRANCH   8   9
ATOM      9  C   UNL     1      75.010  81.791  76.123  1.00  0.00     0.053 C 
BRANCH   9  10
ATOM     10  C   UNL     1      74.403  83.009  75.497  1.00  0.00     0.041 C 
ATOM     11  O   UNL     1      73.160  83.203  75.562  1.00  0.00    -0.550 OA
ATOM     12  O   UNL     1      75.206  83.913  74.813  1.00  0.00    -0.550 OA
ENDBRANCH   9  10
ENDBRANCH   8   9
ENDBRANCH   7   8
ENDBRANCH   6   7
ENDBRANCH   5   6
ENDBRANCH   4   5
ENDBRANCH   3   4
ENDBRANCH   1   3
BRANCH   2  13
ATOM     13  C   UNL     1      78.544  79.948  74.397  1.00  0.00     0.027 C 
BRANCH  13  14
ATOM     14  C   UNL     1      77.811  81.163  73.812  1.00  0.00     0.004 C 
BRANCH  14  15
ATOM     15  C   UNL     1      78.716  82.401  73.681  1.00  0.00     0.000 C 
BRANCH  15  16
ATOM     16  C   UNL     1      78.670  83.327  74.915  1.00  0.00     0.000 C 
BRANCH  16  17
ATOM     17  C   UNL     1      79.953  83.230  75.760  1.00  0.00    -0.000 C 
BRANCH  17  18
ATOM     18  C   UNL     1      81.081  82.486  75.029  1.00  0.00    -0.000 C 
BRANCH  18  19
ATOM     19  C   UNL     1      82.083  81.845  76.001  1.00  0.00    -0.003 C 
ATOM     20  C   UNL     1      81.406  81.456  77.311  1.00  0.00     0.004 C 
ENDBRANCH  18  19
ENDBRANCH  17  18
ENDBRANCH  16  17
ENDBRANCH  15  16
ENDBRANCH  14  15
ENDBRANCH  13  14
ENDBRANCH   2  13
TORSDOF 15
ENDMDL
