MODEL 1
REMARK VINA RESULT:    -6.784      0.000      0.000
REMARK INTER + INTRA:          -7.379
REMARK INTER:                  -7.379
REMARK INTRA:                   0.000
REMARK UNBOUND:                 0.000
REMARK SMILES Cc1cc(O)c2c(c1)C(=O)c1cc(O)cc(O)c1C2=O
REMARK SMILES IDX 1 1 2 2 8 3 7 4 6 5 4 6 3 7 19 8 20 9 18 10 11 11 9 12 10 13
REMARK SMILES IDX 12 14 13 15 15 16 16 17 5 18 17 20 14 22
REMARK H PARENT 5 19 17 21 14 23
REMARK Flexibility Score: inf
ROOT
ATOM      1  C   UNL     1     -33.266   5.379  79.263  1.00  0.00     0.044 C 
ATOM      2  C   UNL     1     -34.409   4.861  80.086  1.00  0.00    -0.047 A 
ATOM      3  C   UNL     1     -35.685   4.740  79.522  1.00  0.00     0.016 A 
ATOM      4  C   UNL     1     -36.755   4.225  80.273  1.00  0.00     0.038 A 
ATOM      5  C   UNL     1     -36.540   3.805  81.603  1.00  0.00     0.076 A 
ATOM      6  C   UNL     1     -35.248   3.918  82.165  1.00  0.00     0.127 A 
ATOM      7  C   UNL     1     -34.195   4.436  81.401  1.00  0.00     0.050 A 
ATOM      8  C   UNL     1     -37.675   3.226  82.371  1.00  0.00     0.201 C 
ATOM      9  O   UNL     1     -37.439   2.530  83.394  1.00  0.00    -0.288 OA
ATOM     10  C   UNL     1     -39.069   3.369  81.869  1.00  0.00     0.076 A 
ATOM     11  C   UNL     1     -39.263   3.729  80.515  1.00  0.00     0.041 A 
ATOM     12  C   UNL     1     -38.104   4.114  79.674  1.00  0.00     0.194 C 
ATOM     13  O   UNL     1     -38.271   4.366  78.449  1.00  0.00    -0.289 OA
ATOM     14  C   UNL     1     -40.558   3.732  79.968  1.00  0.00     0.059 A 
ATOM     15  C   UNL     1     -41.660   3.397  80.753  1.00  0.00     0.120 A 
ATOM     16  C   UNL     1     -41.482   3.088  82.103  1.00  0.00     0.093 A 
ATOM     17  C   UNL     1     -40.208   3.104  82.678  1.00  0.00     0.131 A 
ENDROOT
BRANCH   6  18
ATOM     18  O   UNL     1     -35.007   3.524  83.481  1.00  0.00    -0.507 OA
ATOM     19  H   UNL     1     -35.440   2.698  83.879  1.00  0.00     0.293 HD
ENDBRANCH   6  18
BRANCH  17  20
ATOM     20  O   UNL     1     -40.129   2.888  84.056  1.00  0.00    -0.507 OA
ATOM     21  H   UNL     1     -40.242   3.617  84.747  1.00  0.00     0.293 HD
ENDBRANCH  17  20
BRANCH  15  22
ATOM     22  O   UNL     1     -42.932   3.390  80.184  1.00  0.00    -0.508 OA
ATOM     23  H   UNL     1     -43.094   3.024  79.253  1.00  0.00     0.293 HD
ENDBRANCH  15  22
TORSDOF 3
ENDMDL
MODEL 2
REMARK VINA RESULT:    -6.712      1.664      2.757
REMARK INTER + INTRA:          -7.301
REMARK INTER:                  -7.301
REMARK INTRA:                   0.000
REMARK UNBOUND:                 0.000
REMARK SMILES Cc1cc(O)c2c(c1)C(=O)c1cc(O)cc(O)c1C2=O
REMARK SMILES IDX 1 1 2 2 8 3 7 4 6 5 4 6 3 7 19 8 20 9 18 10 11 11 9 12 10 13
REMARK SMILES IDX 12 14 13 15 15 16 16 17 5 18 17 20 14 22
REMARK H PARENT 5 19 17 21 14 23
REMARK Flexibility Score: inf
ROOT
ATOM      1  C   UNL     1     -34.326   4.614  81.644  1.00  0.00     0.044 C 
ATOM      2  C   UNL     1     -35.809   4.390  81.598  1.00  0.00    -0.047 A 
ATOM      3  C   UNL     1     -36.417   3.932  80.423  1.00  0.00     0.016 A 
ATOM      4  C   UNL     1     -37.800   3.686  80.380  1.00  0.00     0.038 A 
ATOM      5  C   UNL     1     -38.584   3.883  81.537  1.00  0.00     0.076 A 
ATOM      6  C   UNL     1     -37.965   4.335  82.725  1.00  0.00     0.127 A 
ATOM      7  C   UNL     1     -36.585   4.576  82.747  1.00  0.00     0.050 A 
ATOM      8  C   UNL     1     -40.040   3.582  81.484  1.00  0.00     0.201 C 
ATOM      9  O   UNL     1     -40.674   3.402  82.558  1.00  0.00    -0.288 OA
ATOM     10  C   UNL     1     -40.715   3.377  80.173  1.00  0.00     0.076 A 
ATOM     11  C   UNL     1     -39.914   3.118  79.037  1.00  0.00     0.041 A 
ATOM     12  C   UNL     1     -38.437   3.217  79.129  1.00  0.00     0.194 C 
ATOM     13  O   UNL     1     -37.723   2.916  78.133  1.00  0.00    -0.289 OA
ATOM     14  C   UNL     1     -40.519   2.777  77.815  1.00  0.00     0.059 A 
ATOM     15  C   UNL     1     -41.907   2.706  77.706  1.00  0.00     0.120 A 
ATOM     16  C   UNL     1     -42.705   3.008  78.810  1.00  0.00     0.093 A 
ATOM     17  C   UNL     1     -42.130   3.376  80.030  1.00  0.00     0.131 A 
ENDROOT
BRANCH   6  18
ATOM     18  O   UNL     1     -38.715   4.551  83.881  1.00  0.00    -0.507 OA
ATOM     19  H   UNL     1     -39.727   4.585  83.862  1.00  0.00     0.293 HD
ENDBRANCH   6  18
BRANCH  17  20
ATOM     20  O   UNL     1     -42.999   3.765  81.053  1.00  0.00    -0.507 OA
ATOM     21  H   UNL     1     -43.705   4.480  80.948  1.00  0.00     0.293 HD
ENDBRANCH  17  20
BRANCH  15  22
ATOM     22  O   UNL     1     -42.483   2.349  76.488  1.00  0.00    -0.508 OA
ATOM     23  H   UNL     1     -41.934   1.938  75.743  1.00  0.00     0.293 HD
ENDBRANCH  15  22
TORSDOF 3
ENDMDL
MODEL 3
REMARK VINA RESULT:    -6.285      2.814      3.823
REMARK INTER + INTRA:          -6.836
REMARK INTER:                  -6.836
REMARK INTRA:                   0.000
REMARK UNBOUND:                 0.000
REMARK SMILES Cc1cc(O)c2c(c1)C(=O)c1cc(O)cc(O)c1C2=O
REMARK SMILES IDX 1 1 2 2 8 3 7 4 6 5 4 6 3 7 19 8 20 9 18 10 11 11 9 12 10 13
REMARK SMILES IDX 12 14 13 15 15 16 16 17 5 18 17 20 14 22
REMARK H PARENT 5 19 17 21 14 23
REMARK Flexibility Score: inf
ROOT
ATOM      1  C   UNL     1     -34.106   9.721  76.988  1.00  0.00     0.044 C 
ATOM      2  C   UNL     1     -34.725   8.458  77.511  1.00  0.00    -0.047 A 
ATOM      3  C   UNL     1     -36.091   8.216  77.328  1.00  0.00     0.016 A 
ATOM      4  C   UNL     1     -36.675   7.021  77.785  1.00  0.00     0.038 A 
ATOM      5  C   UNL     1     -35.874   6.045  78.415  1.00  0.00     0.076 A 
ATOM      6  C   UNL     1     -34.492   6.289  78.587  1.00  0.00     0.127 A 
ATOM      7  C   UNL     1     -33.929   7.486  78.128  1.00  0.00     0.050 A 
ATOM      8  C   UNL     1     -36.500   4.770  78.857  1.00  0.00     0.201 C 
ATOM      9  O   UNL     1     -35.771   3.768  79.081  1.00  0.00    -0.288 OA
ATOM     10  C   UNL     1     -37.982   4.647  78.919  1.00  0.00     0.076 A 
ATOM     11  C   UNL     1     -38.767   5.599  78.228  1.00  0.00     0.041 A 
ATOM     12  C   UNL     1     -38.123   6.779  77.601  1.00  0.00     0.194 C 
ATOM     13  O   UNL     1     -38.816   7.589  76.925  1.00  0.00    -0.289 OA
ATOM     14  C   UNL     1     -40.160   5.432  78.142  1.00  0.00     0.059 A 
ATOM     15  C   UNL     1     -40.782   4.341  78.749  1.00  0.00     0.120 A 
ATOM     16  C   UNL     1     -40.020   3.424  79.474  1.00  0.00     0.093 A 
ATOM     17  C   UNL     1     -38.636   3.581  79.598  1.00  0.00     0.131 A 
ENDROOT
BRANCH   6  18
ATOM     18  O   UNL     1     -33.676   5.349  79.218  1.00  0.00    -0.507 OA
ATOM     19  H   UNL     1     -34.002   4.412  79.424  1.00  0.00     0.293 HD
ENDBRANCH   6  18
BRANCH  17  20
ATOM     20  O   UNL     1     -37.964   2.681  80.428  1.00  0.00    -0.507 OA
ATOM     21  H   UNL     1     -37.595   2.923  81.337  1.00  0.00     0.293 HD
ENDBRANCH  17  20
BRANCH  15  22
ATOM     22  O   UNL     1     -42.162   4.188  78.636  1.00  0.00    -0.508 OA
ATOM     23  H   UNL     1     -42.779   4.987  78.550  1.00  0.00     0.293 HD
ENDBRANCH  15  22
TORSDOF 3
ENDMDL
MODEL 4
REMARK VINA RESULT:    -6.262      2.310      6.000
REMARK INTER + INTRA:          -6.811
REMARK INTER:                  -6.811
REMARK INTRA:                   0.000
REMARK UNBOUND:                 0.000
REMARK SMILES Cc1cc(O)c2c(c1)C(=O)c1cc(O)cc(O)c1C2=O
REMARK SMILES IDX 1 1 2 2 8 3 7 4 6 5 4 6 3 7 19 8 20 9 18 10 11 11 9 12 10 13
REMARK SMILES IDX 12 14 13 15 15 16 16 17 5 18 17 20 14 22
REMARK H PARENT 5 19 17 21 14 23
REMARK Flexibility Score: inf
ROOT
ATOM      1  C   UNL     1     -42.363   3.384  78.127  1.00  0.00     0.044 C 
ATOM      2  C   UNL     1     -40.966   3.596  78.634  1.00  0.00    -0.047 A 
ATOM      3  C   UNL     1     -40.139   4.556  78.040  1.00  0.00     0.016 A 
ATOM      4  C   UNL     1     -38.841   4.786  78.528  1.00  0.00     0.038 A 
ATOM      5  C   UNL     1     -38.372   4.057  79.642  1.00  0.00     0.076 A 
ATOM      6  C   UNL     1     -39.215   3.097  80.247  1.00  0.00     0.127 A 
ATOM      7  C   UNL     1     -40.504   2.881  79.744  1.00  0.00     0.050 A 
ATOM      8  C   UNL     1     -37.011   4.340  80.170  1.00  0.00     0.201 C 
ATOM      9  O   UNL     1     -36.714   3.983  81.341  1.00  0.00    -0.288 OA
ATOM     10  C   UNL     1     -36.048   5.142  79.366  1.00  0.00     0.076 A 
ATOM     11  C   UNL     1     -36.548   5.916  78.292  1.00  0.00     0.041 A 
ATOM     12  C   UNL     1     -37.968   5.792  77.885  1.00  0.00     0.194 C 
ATOM     13  O   UNL     1     -38.428   6.535  76.974  1.00  0.00    -0.289 OA
ATOM     14  C   UNL     1     -35.694   6.796  77.604  1.00  0.00     0.059 A 
ATOM     15  C   UNL     1     -34.350   6.903  77.960  1.00  0.00     0.120 A 
ATOM     16  C   UNL     1     -33.839   6.107  78.986  1.00  0.00     0.093 A 
ATOM     17  C   UNL     1     -34.659   5.204  79.668  1.00  0.00     0.131 A 
ENDROOT
BRANCH   6  18
ATOM     18  O   UNL     1     -38.775   2.352  81.341  1.00  0.00    -0.507 OA
ATOM     19  H   UNL     1     -38.766   1.339  81.328  1.00  0.00     0.293 HD
ENDBRANCH   6  18
BRANCH  17  20
ATOM     20  O   UNL     1     -34.047   4.371  80.607  1.00  0.00    -0.507 OA
ATOM     21  H   UNL     1     -34.543   3.910  81.357  1.00  0.00     0.293 HD
ENDBRANCH  17  20
BRANCH  15  22
ATOM     22  O   UNL     1     -33.528   7.795  77.274  1.00  0.00    -0.508 OA
ATOM     23  H   UNL     1     -32.924   7.487  76.521  1.00  0.00     0.293 HD
ENDBRANCH  15  22
TORSDOF 3
ENDMDL
MODEL 5
REMARK VINA RESULT:    -6.210      2.438      5.144
REMARK INTER + INTRA:          -6.754
REMARK INTER:                  -6.754
REMARK INTRA:                   0.000
REMARK UNBOUND:                 0.000
REMARK SMILES Cc1cc(O)c2c(c1)C(=O)c1cc(O)cc(O)c1C2=O
REMARK SMILES IDX 1 1 2 2 8 3 7 4 6 5 4 6 3 7 19 8 20 9 18 10 11 11 9 12 10 13
REMARK SMILES IDX 12 14 13 15 15 16 16 17 5 18 17 20 14 22
REMARK H PARENT 5 19 17 21 14 23
REMARK Flexibility Score: inf
ROOT
ATOM      1  C   UNL     1     -38.729   7.493  75.885  1.00  0.00     0.044 C 
ATOM      2  C   UNL     1     -38.660   6.810  77.219  1.00  0.00    -0.047 A 
ATOM      3  C   UNL     1     -37.419   6.523  77.800  1.00  0.00     0.016 A 
ATOM      4  C   UNL     1     -37.343   5.914  79.064  1.00  0.00     0.038 A 
ATOM      5  C   UNL     1     -38.527   5.606  79.767  1.00  0.00     0.076 A 
ATOM      6  C   UNL     1     -39.778   5.908  79.182  1.00  0.00     0.127 A 
ATOM      7  C   UNL     1     -39.834   6.513  77.920  1.00  0.00     0.050 A 
ATOM      8  C   UNL     1     -38.428   4.997  81.120  1.00  0.00     0.201 C 
ATOM      9  O   UNL     1     -39.420   5.047  81.896  1.00  0.00    -0.288 OA
ATOM     10  C   UNL     1     -37.132   4.439  81.597  1.00  0.00     0.076 A 
ATOM     11  C   UNL     1     -35.949   4.810  80.917  1.00  0.00     0.041 A 
ATOM     12  C   UNL     1     -36.027   5.600  79.665  1.00  0.00     0.194 C 
ATOM     13  O   UNL     1     -34.968   5.990  79.100  1.00  0.00    -0.289 OA
ATOM     14  C   UNL     1     -34.697   4.421  81.425  1.00  0.00     0.059 A 
ATOM     15  C   UNL     1     -34.609   3.656  82.587  1.00  0.00     0.120 A 
ATOM     16  C   UNL     1     -35.775   3.245  83.236  1.00  0.00     0.093 A 
ATOM     17  C   UNL     1     -37.033   3.595  82.737  1.00  0.00     0.131 A 
ENDROOT
BRANCH   6  18
ATOM     18  O   UNL     1     -40.967   5.604  79.846  1.00  0.00    -0.507 OA
ATOM     19  H   UNL     1     -40.973   5.266  80.801  1.00  0.00     0.293 HD
ENDBRANCH   6  18
BRANCH  17  20
ATOM     20  O   UNL     1     -38.147   3.054  83.384  1.00  0.00    -0.507 OA
ATOM     21  H   UNL     1     -38.123   2.203  83.927  1.00  0.00     0.293 HD
ENDBRANCH  17  20
BRANCH  15  22
ATOM     22  O   UNL     1     -33.356   3.297  83.080  1.00  0.00    -0.508 OA
ATOM     23  H   UNL     1     -32.700   3.993  83.415  1.00  0.00     0.293 HD
ENDBRANCH  15  22
TORSDOF 3
ENDMDL
MODEL 6
REMARK VINA RESULT:    -6.208      1.965      6.389
REMARK INTER + INTRA:          -6.753
REMARK INTER:                  -6.753
REMARK INTRA:                   0.000
REMARK UNBOUND:                 0.000
REMARK SMILES Cc1cc(O)c2c(c1)C(=O)c1cc(O)cc(O)c1C2=O
REMARK SMILES IDX 1 1 2 2 8 3 7 4 6 5 4 6 3 7 19 8 20 9 18 10 11 11 9 12 10 13
REMARK SMILES IDX 12 14 13 15 15 16 16 17 5 18 17 20 14 22
REMARK H PARENT 5 19 17 21 14 23
REMARK Flexibility Score: inf
ROOT
ATOM      1  C   UNL     1     -41.043   2.622  83.369  1.00  0.00     0.044 C 
ATOM      2  C   UNL     1     -40.386   3.296  82.201  1.00  0.00    -0.047 A 
ATOM      3  C   UNL     1     -38.991   3.389  82.134  1.00  0.00     0.016 A 
ATOM      4  C   UNL     1     -38.364   3.989  81.028  1.00  0.00     0.038 A 
ATOM      5  C   UNL     1     -39.145   4.484  79.962  1.00  0.00     0.076 A 
ATOM      6  C   UNL     1     -40.553   4.378  80.028  1.00  0.00     0.127 A 
ATOM      7  C   UNL     1     -41.160   3.779  81.140  1.00  0.00     0.050 A 
ATOM      8  C   UNL     1     -38.464   5.080  78.782  1.00  0.00     0.201 C 
ATOM      9  O   UNL     1     -39.092   5.192  77.696  1.00  0.00    -0.288 OA
ATOM     10  C   UNL     1     -37.018   5.432  78.851  1.00  0.00     0.076 A 
ATOM     11  C   UNL     1     -36.239   4.874  79.891  1.00  0.00     0.041 A 
ATOM     12  C   UNL     1     -36.889   4.097  80.973  1.00  0.00     0.194 C 
ATOM     13  O   UNL     1     -36.183   3.540  81.860  1.00  0.00    -0.289 OA
ATOM     14  C   UNL     1     -34.846   5.065  79.903  1.00  0.00     0.059 A 
ATOM     15  C   UNL     1     -34.224   5.816  78.907  1.00  0.00     0.120 A 
ATOM     16  C   UNL     1     -34.993   6.410  77.904  1.00  0.00     0.093 A 
ATOM     17  C   UNL     1     -36.383   6.258  77.884  1.00  0.00     0.131 A 
ENDROOT
BRANCH   6  18
ATOM     18  O   UNL     1     -41.353   4.870  78.997  1.00  0.00    -0.507 OA
ATOM     19  H   UNL     1     -41.871   4.253  78.382  1.00  0.00     0.293 HD
ENDBRANCH   6  18
BRANCH  17  20
ATOM     20  O   UNL     1     -37.087   6.972  76.911  1.00  0.00    -0.507 OA
ATOM     21  H   UNL     1     -38.000   6.706  76.570  1.00  0.00     0.293 HD
ENDBRANCH  17  20
BRANCH  15  22
ATOM     22  O   UNL     1     -32.840   5.977  78.931  1.00  0.00    -0.508 OA
ATOM     23  H   UNL     1     -32.272   5.569  79.664  1.00  0.00     0.293 HD
ENDBRANCH  15  22
TORSDOF 3
ENDMDL
MODEL 7
REMARK VINA RESULT:    -6.127      1.674      5.545
REMARK INTER + INTRA:          -6.665
REMARK INTER:                  -6.665
REMARK INTRA:                   0.000
REMARK UNBOUND:                 0.000
REMARK SMILES Cc1cc(O)c2c(c1)C(=O)c1cc(O)cc(O)c1C2=O
REMARK SMILES IDX 1 1 2 2 8 3 7 4 6 5 4 6 3 7 19 8 20 9 18 10 11 11 9 12 10 13
REMARK SMILES IDX 12 14 13 15 15 16 16 17 5 18 17 20 14 22
REMARK H PARENT 5 19 17 21 14 23
REMARK Flexibility Score: inf
ROOT
ATOM      1  C   UNL     1     -42.499   2.261  76.999  1.00  0.00     0.044 C 
ATOM      2  C   UNL     1     -41.754   2.720  78.218  1.00  0.00    -0.047 A 
ATOM      3  C   UNL     1     -40.373   2.939  78.158  1.00  0.00     0.016 A 
ATOM      4  C   UNL     1     -39.671   3.402  79.284  1.00  0.00     0.038 A 
ATOM      5  C   UNL     1     -40.366   3.669  80.483  1.00  0.00     0.076 A 
ATOM      6  C   UNL     1     -41.763   3.458  80.536  1.00  0.00     0.127 A 
ATOM      7  C   UNL     1     -42.444   2.994  79.403  1.00  0.00     0.050 A 
ATOM      8  C   UNL     1     -39.614   4.195  81.654  1.00  0.00     0.201 C 
ATOM      9  O   UNL     1     -40.240   4.769  82.584  1.00  0.00    -0.288 OA
ATOM     10  C   UNL     1     -38.126   4.148  81.670  1.00  0.00     0.076 A 
ATOM     11  C   UNL     1     -37.446   3.942  80.446  1.00  0.00     0.041 A 
ATOM     12  C   UNL     1     -38.208   3.616  79.218  1.00  0.00     0.194 C 
ATOM     13  O   UNL     1     -37.605   3.503  78.114  1.00  0.00    -0.289 OA
ATOM     14  C   UNL     1     -36.044   4.038  80.398  1.00  0.00     0.059 A 
ATOM     15  C   UNL     1     -35.312   4.317  81.552  1.00  0.00     0.120 A 
ATOM     16  C   UNL     1     -35.973   4.474  82.771  1.00  0.00     0.093 A 
ATOM     17  C   UNL     1     -37.363   4.357  82.852  1.00  0.00     0.131 A 
ENDROOT
BRANCH   6  18
ATOM     18  O   UNL     1     -42.476   3.700  81.710  1.00  0.00    -0.507 OA
ATOM     19  H   UNL     1     -43.082   3.000  82.121  1.00  0.00     0.293 HD
ENDBRANCH   6  18
BRANCH  17  20
ATOM     20  O   UNL     1     -37.935   4.421  84.125  1.00  0.00    -0.507 OA
ATOM     21  H   UNL     1     -37.404   4.568  84.972  1.00  0.00     0.293 HD
ENDBRANCH  17  20
BRANCH  15  22
ATOM     22  O   UNL     1     -33.925   4.424  81.476  1.00  0.00    -0.508 OA
ATOM     23  H   UNL     1     -33.464   5.326  81.436  1.00  0.00     0.293 HD
ENDBRANCH  15  22
TORSDOF 3
ENDMDL
MODEL 8
REMARK VINA RESULT:    -6.111      1.422      3.367
REMARK INTER + INTRA:          -6.646
REMARK INTER:                  -6.646
REMARK INTRA:                   0.000
REMARK UNBOUND:                 0.000
REMARK SMILES Cc1cc(O)c2c(c1)C(=O)c1cc(O)cc(O)c1C2=O
REMARK SMILES IDX 1 1 2 2 8 3 7 4 6 5 4 6 3 7 19 8 20 9 18 10 11 11 9 12 10 13
REMARK SMILES IDX 12 14 13 15 15 16 16 17 5 18 17 20 14 22
REMARK H PARENT 5 19 17 21 14 23
REMARK Flexibility Score: inf
ROOT
ATOM      1  C   UNL     1     -33.602   4.129  83.303  1.00  0.00     0.044 C 
ATOM      2  C   UNL     1     -34.658   4.180  82.238  1.00  0.00    -0.047 A 
ATOM      3  C   UNL     1     -36.011   4.091  82.583  1.00  0.00     0.016 A 
ATOM      4  C   UNL     1     -37.010   4.172  81.597  1.00  0.00     0.038 A 
ATOM      5  C   UNL     1     -36.647   4.366  80.246  1.00  0.00     0.076 A 
ATOM      6  C   UNL     1     -35.280   4.468  79.904  1.00  0.00     0.127 A 
ATOM      7  C   UNL     1     -34.300   4.383  80.901  1.00  0.00     0.050 A 
ATOM      8  C   UNL     1     -37.718   4.488  79.221  1.00  0.00     0.201 C 
ATOM      9  O   UNL     1     -37.450   5.010  78.106  1.00  0.00    -0.288 OA
ATOM     10  C   UNL     1     -39.119   4.107  79.552  1.00  0.00     0.076 A 
ATOM     11  C   UNL     1     -39.477   3.979  80.914  1.00  0.00     0.041 A 
ATOM     12  C   UNL     1     -38.438   4.061  81.968  1.00  0.00     0.194 C 
ATOM     13  O   UNL     1     -38.771   4.018  83.185  1.00  0.00    -0.289 OA
ATOM     14  C   UNL     1     -40.821   3.765  81.268  1.00  0.00     0.059 A 
ATOM     15  C   UNL     1     -41.805   3.659  80.286  1.00  0.00     0.120 A 
ATOM     16  C   UNL     1     -41.451   3.736  78.938  1.00  0.00     0.093 A 
ATOM     17  C   UNL     1     -40.119   3.922  78.558  1.00  0.00     0.131 A 
ENDROOT
BRANCH   6  18
ATOM     18  O   UNL     1     -34.890   4.647  78.577  1.00  0.00    -0.507 OA
ATOM     19  H   UNL     1     -33.959   4.965  78.332  1.00  0.00     0.293 HD
ENDBRANCH   6  18
BRANCH  17  20
ATOM     20  O   UNL     1     -39.835   3.880  77.191  1.00  0.00    -0.507 OA
ATOM     21  H   UNL     1     -40.096   4.608  76.540  1.00  0.00     0.293 HD
ENDBRANCH  17  20
BRANCH  15  22
ATOM     22  O   UNL     1     -43.132   3.463  80.663  1.00  0.00    -0.508 OA
ATOM     23  H   UNL     1     -43.394   3.333  81.633  1.00  0.00     0.293 HD
ENDBRANCH  15  22
TORSDOF 3
ENDMDL
MODEL 9
REMARK VINA RESULT:    -5.773      2.490      4.430
REMARK INTER + INTRA:          -6.279
REMARK INTER:                  -6.279
REMARK INTRA:                   0.000
REMARK UNBOUND:                 0.000
REMARK SMILES Cc1cc(O)c2c(c1)C(=O)c1cc(O)cc(O)c1C2=O
REMARK SMILES IDX 1 1 2 2 8 3 7 4 6 5 4 6 3 7 19 8 20 9 18 10 11 11 9 12 10 13
REMARK SMILES IDX 12 14 13 15 15 16 16 17 5 18 17 20 14 22
REMARK H PARENT 5 19 17 21 14 23
REMARK Flexibility Score: inf
ROOT
ATOM      1  C   UNL     1     -39.492   7.873  75.913  1.00  0.00     0.044 C 
ATOM      2  C   UNL     1     -38.716   7.088  76.930  1.00  0.00    -0.047 A 
ATOM      3  C   UNL     1     -39.388   6.339  77.903  1.00  0.00     0.016 A 
ATOM      4  C   UNL     1     -38.671   5.573  78.840  1.00  0.00     0.038 A 
ATOM      5  C   UNL     1     -37.261   5.541  78.788  1.00  0.00     0.076 A 
ATOM      6  C   UNL     1     -36.588   6.290  77.796  1.00  0.00     0.127 A 
ATOM      7  C   UNL     1     -37.319   7.049  76.873  1.00  0.00     0.050 A 
ATOM      8  C   UNL     1     -36.521   4.695  79.762  1.00  0.00     0.201 C 
ATOM      9  O   UNL     1     -35.329   4.369  79.517  1.00  0.00    -0.288 OA
ATOM     10  C   UNL     1     -37.218   4.142  80.955  1.00  0.00     0.076 A 
ATOM     11  C   UNL     1     -38.633   4.126  80.960  1.00  0.00     0.041 A 
ATOM     12  C   UNL     1     -39.388   4.796  79.875  1.00  0.00     0.194 C 
ATOM     13  O   UNL     1     -40.648   4.719  79.845  1.00  0.00    -0.289 OA
ATOM     14  C   UNL     1     -39.323   3.481  82.001  1.00  0.00     0.059 A 
ATOM     15  C   UNL     1     -38.626   2.869  83.042  1.00  0.00     0.120 A 
ATOM     16  C   UNL     1     -37.231   2.923  83.069  1.00  0.00     0.093 A 
ATOM     17  C   UNL     1     -36.521   3.581  82.061  1.00  0.00     0.131 A 
ENDROOT
BRANCH   6  18
ATOM     18  O   UNL     1     -35.194   6.289  77.727  1.00  0.00    -0.507 OA
ATOM     19  H   UNL     1     -34.621   6.036  78.523  1.00  0.00     0.293 HD
ENDBRANCH   6  18
BRANCH  17  20
ATOM     20  O   UNL     1     -35.137   3.682  82.218  1.00  0.00    -0.507 OA
ATOM     21  H   UNL     1     -34.535   2.895  82.418  1.00  0.00     0.293 HD
ENDBRANCH  17  20
BRANCH  15  22
ATOM     22  O   UNL     1     -39.332   2.221  84.054  1.00  0.00    -0.508 OA
ATOM     23  H   UNL     1     -39.323   2.563  85.009  1.00  0.00     0.293 HD
ENDBRANCH  15  22
TORSDOF 3
ENDMDL
