MODEL 1
REMARK VINA RESULT:    -4.413      0.000      0.000
REMARK INTER + INTRA:          -6.792
REMARK INTER:                  -6.477
REMARK INTRA:                  -0.315
REMARK UNBOUND:                -0.315
REMARK SMILES O=C([O-])CCCCCCCC(=O)[O-]
REMARK SMILES IDX 7 1 6 2 5 3 4 4 2 5 1 6 3 7 8 8 9 9 10 10 11 11 12 12 13 13
REMARK H PARENT
REMARK Flexibility Score: inf
ROOT
ATOM      1  C   UNL     1       3.174  43.107  66.515  1.00  0.00     0.000 C 
ENDROOT
BRANCH   1   2
ATOM      2  C   UNL     1       3.485  44.218  65.501  1.00  0.00     0.000 C 
BRANCH   2   3
ATOM      3  C   UNL     1       3.420  45.625  66.130  1.00  0.00     0.006 C 
BRANCH   3   4
ATOM      4  C   UNL     1       4.267  46.670  65.388  1.00  0.00     0.053 C 
BRANCH   4   5
ATOM      5  C   UNL     1       4.701  47.790  66.281  1.00  0.00     0.041 C 
ATOM      6  O   UNL     1       4.446  48.983  65.970  1.00  0.00    -0.550 OA
ATOM      7  O   UNL     1       5.413  47.519  67.443  1.00  0.00    -0.550 OA
ENDBRANCH   4   5
ENDBRANCH   3   4
ENDBRANCH   2   3
ENDBRANCH   1   2
BRANCH   1   8
ATOM      8  C   UNL     1       2.913  43.646  67.932  1.00  0.00     0.000 C 
BRANCH   8   9
ATOM      9  C   UNL     1       3.254  42.640  69.053  1.00  0.00     0.006 C 
BRANCH   9  10
ATOM     10  C   UNL     1       2.701  43.047  70.427  1.00  0.00     0.053 C 
BRANCH  10  11
ATOM     11  C   UNL     1       3.774  43.590  71.320  1.00  0.00     0.041 C 
ATOM     12  O   UNL     1       3.485  44.414  72.229  1.00  0.00    -0.550 OA
ATOM     13  O   UNL     1       5.089  43.171  71.166  1.00  0.00    -0.550 OA
ENDBRANCH  10  11
ENDBRANCH   9  10
ENDBRANCH   8   9
ENDBRANCH   1   8
TORSDOF 8
ENDMDL
MODEL 2
REMARK VINA RESULT:    -4.271      0.440      5.810
REMARK INTER + INTRA:          -6.583
REMARK INTER:                  -6.291
REMARK INTRA:                  -0.292
REMARK UNBOUND:                -0.315
REMARK SMILES O=C([O-])CCCCCCCC(=O)[O-]
REMARK SMILES IDX 7 1 6 2 5 3 4 4 2 5 1 6 3 7 8 8 9 9 10 10 11 11 12 12 13 13
REMARK H PARENT
REMARK Flexibility Score: inf
ROOT
ATOM      1  C   UNL     1       3.175  43.255  66.573  1.00  0.00     0.000 C 
ENDROOT
BRANCH   1   2
ATOM      2  C   UNL     1       2.917  43.793  67.990  1.00  0.00     0.000 C 
BRANCH   2   3
ATOM      3  C   UNL     1       3.167  42.729  69.078  1.00  0.00     0.006 C 
BRANCH   3   4
ATOM      4  C   UNL     1       2.653  43.138  70.467  1.00  0.00     0.053 C 
BRANCH   4   5
ATOM      5  C   UNL     1       3.750  43.631  71.358  1.00  0.00     0.041 C 
ATOM      6  O   UNL     1       3.491  44.420  72.305  1.00  0.00    -0.550 OA
ATOM      7  O   UNL     1       5.064  43.244  71.125  1.00  0.00    -0.550 OA
ENDBRANCH   4   5
ENDBRANCH   3   4
ENDBRANCH   2   3
ENDBRANCH   1   2
BRANCH   1   8
ATOM      8  C   UNL     1       3.162  44.360  65.503  1.00  0.00     0.000 C 
BRANCH   8   9
ATOM      9  C   UNL     1       3.560  45.752  66.043  1.00  0.00     0.006 C 
BRANCH   9  10
ATOM     10  C   UNL     1       4.441  46.553  65.071  1.00  0.00     0.053 C 
BRANCH  10  11
ATOM     11  C   UNL     1       5.045  47.754  65.731  1.00  0.00     0.041 C 
ATOM     12  O   UNL     1       6.095  47.639  66.418  1.00  0.00    -0.550 OA
ATOM     13  O   UNL     1       4.465  49.006  65.568  1.00  0.00    -0.550 OA
ENDBRANCH  10  11
ENDBRANCH   9  10
ENDBRANCH   8   9
ENDBRANCH   1   8
TORSDOF 8
ENDMDL
MODEL 3
REMARK VINA RESULT:    -4.267      1.269      1.867
REMARK INTER + INTRA:          -6.578
REMARK INTER:                  -6.320
REMARK INTRA:                  -0.258
REMARK UNBOUND:                -0.315
REMARK SMILES O=C([O-])CCCCCCCC(=O)[O-]
REMARK SMILES IDX 7 1 6 2 5 3 4 4 2 5 1 6 3 7 8 8 9 9 10 10 11 11 12 12 13 13
REMARK H PARENT
REMARK Flexibility Score: inf
ROOT
ATOM      1  C   UNL     1       2.855  43.703  67.448  1.00  0.00     0.000 C 
ENDROOT
BRANCH   1   2
ATOM      2  C   UNL     1       3.232  42.927  66.175  1.00  0.00     0.000 C 
BRANCH   2   3
ATOM      3  C   UNL     1       3.463  43.856  64.966  1.00  0.00     0.006 C 
BRANCH   3   4
ATOM      4  C   UNL     1       2.929  45.282  65.176  1.00  0.00     0.053 C 
BRANCH   4   5
ATOM      5  C   UNL     1       4.011  46.313  65.096  1.00  0.00     0.041 C 
ATOM      6  O   UNL     1       4.363  46.943  66.129  1.00  0.00    -0.550 OA
ATOM      7  O   UNL     1       4.614  46.598  63.877  1.00  0.00    -0.550 OA
ENDBRANCH   4   5
ENDBRANCH   3   4
ENDBRANCH   2   3
ENDBRANCH   1   2
BRANCH   1   8
ATOM      8  C   UNL     1       3.137  42.910  68.736  1.00  0.00     0.000 C 
BRANCH   8   9
ATOM      9  C   UNL     1       2.350  43.421  69.964  1.00  0.00     0.006 C 
BRANCH   9  10
ATOM     10  C   UNL     1       3.181  43.435  71.256  1.00  0.00     0.053 C 
BRANCH  10  11
ATOM     11  C   UNL     1       4.638  43.644  70.979  1.00  0.00     0.041 C 
ATOM     12  O   UNL     1       5.064  44.783  70.649  1.00  0.00    -0.550 OA
ATOM     13  O   UNL     1       5.531  42.587  71.107  1.00  0.00    -0.550 OA
ENDBRANCH  10  11
ENDBRANCH   9  10
ENDBRANCH   8   9
ENDBRANCH   1   8
TORSDOF 8
ENDMDL
MODEL 4
REMARK VINA RESULT:    -4.190     10.145     12.461
REMARK INTER + INTRA:          -6.464
REMARK INTER:                  -5.977
REMARK INTRA:                  -0.487
REMARK UNBOUND:                -0.315
REMARK SMILES O=C([O-])CCCCCCCC(=O)[O-]
REMARK SMILES IDX 7 1 6 2 5 3 4 4 2 5 1 6 3 7 8 8 9 9 10 10 11 11 12 12 13 13
REMARK H PARENT
REMARK Flexibility Score: inf
ROOT
ATOM      1  C   UNL     1       7.293  33.504  70.994  1.00  0.00     0.000 C 
ENDROOT
BRANCH   1   2
ATOM      2  C   UNL     1       7.108  32.019  70.643  1.00  0.00     0.000 C 
BRANCH   2   3
ATOM      3  C   UNL     1       6.998  31.783  69.122  1.00  0.00     0.006 C 
BRANCH   3   4
ATOM      4  C   UNL     1       8.283  31.221  68.494  1.00  0.00     0.053 C 
BRANCH   4   5
ATOM      5  C   UNL     1       8.882  32.156  67.491  1.00  0.00     0.041 C 
ATOM      6  O   UNL     1       8.172  33.046  66.952  1.00  0.00    -0.550 OA
ATOM      7  O   UNL     1      10.217  32.028  67.129  1.00  0.00    -0.550 OA
ENDBRANCH   4   5
ENDBRANCH   3   4
ENDBRANCH   2   3
ENDBRANCH   1   2
BRANCH   1   8
ATOM      8  C   UNL     1       6.853  34.445  69.860  1.00  0.00     0.000 C 
BRANCH   8   9
ATOM      9  C   UNL     1       5.724  35.419  70.264  1.00  0.00     0.006 C 
BRANCH   9  10
ATOM     10  C   UNL     1       4.582  34.740  71.036  1.00  0.00     0.053 C 
BRANCH  10  11
ATOM     11  C   UNL     1       3.390  35.638  71.169  1.00  0.00     0.041 C 
ATOM     12  O   UNL     1       2.945  35.936  72.309  1.00  0.00    -0.550 OA
ATOM     13  O   UNL     1       2.784  36.167  70.035  1.00  0.00    -0.550 OA
ENDBRANCH  10  11
ENDBRANCH   9  10
ENDBRANCH   8   9
ENDBRANCH   1   8
TORSDOF 8
ENDMDL
MODEL 5
REMARK VINA RESULT:    -4.162      9.531     11.060
REMARK INTER + INTRA:          -6.423
REMARK INTER:                  -6.080
REMARK INTRA:                  -0.343
REMARK UNBOUND:                -0.315
REMARK SMILES O=C([O-])CCCCCCCC(=O)[O-]
REMARK SMILES IDX 7 1 6 2 5 3 4 4 2 5 1 6 3 7 8 8 9 9 10 10 11 11 12 12 13 13
REMARK H PARENT
REMARK Flexibility Score: inf
ROOT
ATOM      1  C   UNL     1       4.267  35.183  71.319  1.00  0.00     0.000 C 
ENDROOT
BRANCH   1   2
ATOM      2  C   UNL     1       5.342  35.501  70.268  1.00  0.00     0.000 C 
BRANCH   2   3
ATOM      3  C   UNL     1       5.976  34.229  69.669  1.00  0.00     0.006 C 
BRANCH   3   4
ATOM      4  C   UNL     1       7.356  34.469  69.037  1.00  0.00     0.053 C 
BRANCH   4   5
ATOM      5  C   UNL     1       7.388  34.109  67.585  1.00  0.00     0.041 C 
ATOM      6  O   UNL     1       6.705  34.766  66.755  1.00  0.00    -0.550 OA
ATOM      7  O   UNL     1       8.148  33.030  67.151  1.00  0.00    -0.550 OA
ENDBRANCH   4   5
ENDBRANCH   3   4
ENDBRANCH   2   3
ENDBRANCH   1   2
BRANCH   1   8
ATOM      8  C   UNL     1       2.898  35.796  70.979  1.00  0.00     0.000 C 
BRANCH   8   9
ATOM      9  C   UNL     1       2.282  35.252  69.671  1.00  0.00     0.006 C 
BRANCH   9  10
ATOM     10  C   UNL     1       1.576  36.332  68.836  1.00  0.00     0.053 C 
BRANCH  10  11
ATOM     11  C   UNL     1       1.307  35.865  67.438  1.00  0.00     0.041 C 
ATOM     12  O   UNL     1       0.632  34.820  67.237  1.00  0.00    -0.550 OA
ATOM     13  O   UNL     1       1.780  36.596  66.354  1.00  0.00    -0.550 OA
ENDBRANCH  10  11
ENDBRANCH   9  10
ENDBRANCH   8   9
ENDBRANCH   1   8
TORSDOF 8
ENDMDL
MODEL 6
REMARK VINA RESULT:    -4.149      9.833     12.114
REMARK INTER + INTRA:          -6.404
REMARK INTER:                  -6.021
REMARK INTRA:                  -0.382
REMARK UNBOUND:                -0.315
REMARK SMILES O=C([O-])CCCCCCCC(=O)[O-]
REMARK SMILES IDX 7 1 6 2 5 3 4 4 2 5 1 6 3 7 8 8 9 9 10 10 11 11 12 12 13 13
REMARK H PARENT
REMARK Flexibility Score: inf
ROOT
ATOM      1  C   UNL     1       6.963  34.400  69.756  1.00  0.00     0.000 C 
ENDROOT
BRANCH   1   2
ATOM      2  C   UNL     1       5.891  35.434  70.136  1.00  0.00     0.000 C 
BRANCH   2   3
ATOM      3  C   UNL     1       4.739  34.815  70.954  1.00  0.00     0.006 C 
BRANCH   3   4
ATOM      4  C   UNL     1       3.535  35.754  71.126  1.00  0.00     0.053 C 
BRANCH   4   5
ATOM      5  C   UNL     1       2.542  35.617  70.015  1.00  0.00     0.041 C 
ATOM      6  O   UNL     1       2.092  36.642  69.438  1.00  0.00    -0.550 OA
ATOM      7  O   UNL     1       2.091  34.359  69.634  1.00  0.00    -0.550 OA
ENDBRANCH   4   5
ENDBRANCH   3   4
ENDBRANCH   2   3
ENDBRANCH   1   2
BRANCH   1   8
ATOM      8  C   UNL     1       7.725  34.774  68.473  1.00  0.00     0.000 C 
BRANCH   8   9
ATOM      9  C   UNL     1       7.100  34.188  67.187  1.00  0.00     0.006 C 
BRANCH   9  10
ATOM     10  C   UNL     1       6.431  32.822  67.402  1.00  0.00     0.053 C 
BRANCH  10  11
ATOM     11  C   UNL     1       7.357  31.691  67.072  1.00  0.00     0.041 C 
ATOM     12  O   UNL     1       6.938  30.503  67.089  1.00  0.00    -0.550 OA
ATOM     13  O   UNL     1       8.677  31.949  66.721  1.00  0.00    -0.550 OA
ENDBRANCH  10  11
ENDBRANCH   9  10
ENDBRANCH   8   9
ENDBRANCH   1   8
TORSDOF 8
ENDMDL
MODEL 7
REMARK VINA RESULT:    -4.143     10.281     11.535
REMARK INTER + INTRA:          -6.396
REMARK INTER:                  -5.874
REMARK INTRA:                  -0.522
REMARK UNBOUND:                -0.315
REMARK SMILES O=C([O-])CCCCCCCC(=O)[O-]
REMARK SMILES IDX 7 1 6 2 5 3 4 4 2 5 1 6 3 7 8 8 9 9 10 10 11 11 12 12 13 13
REMARK H PARENT
REMARK Flexibility Score: inf
ROOT
ATOM      1  C   UNL     1       5.285  35.323  70.488  1.00  0.00     0.000 C 
ENDROOT
BRANCH   1   2
ATOM      2  C   UNL     1       3.982  35.508  71.283  1.00  0.00     0.000 C 
BRANCH   2   3
ATOM      3  C   UNL     1       2.782  35.846  70.375  1.00  0.00     0.006 C 
BRANCH   3   4
ATOM      4  C   UNL     1       2.180  34.620  69.670  1.00  0.00     0.053 C 
BRANCH   4   5
ATOM      5  C   UNL     1       2.490  34.596  68.206  1.00  0.00     0.041 C 
ATOM      6  O   UNL     1       1.763  35.228  67.394  1.00  0.00    -0.550 OA
ATOM      7  O   UNL     1       3.566  33.854  67.733  1.00  0.00    -0.550 OA
ENDBRANCH   4   5
ENDBRANCH   3   4
ENDBRANCH   2   3
ENDBRANCH   1   2
BRANCH   1   8
ATOM      8  C   UNL     1       5.875  33.909  70.629  1.00  0.00     0.000 C 
BRANCH   8   9
ATOM      9  C   UNL     1       7.205  33.713  69.867  1.00  0.00     0.006 C 
BRANCH   9  10
ATOM     10  C   UNL     1       7.446  34.772  68.780  1.00  0.00     0.053 C 
BRANCH  10  11
ATOM     11  C   UNL     1       7.375  34.184  67.404  1.00  0.00     0.041 C 
ATOM     12  O   UNL     1       8.010  33.131  67.132  1.00  0.00    -0.550 OA
ATOM     13  O   UNL     1       6.588  34.784  66.428  1.00  0.00    -0.550 OA
ENDBRANCH  10  11
ENDBRANCH   9  10
ENDBRANCH   8   9
ENDBRANCH   1   8
TORSDOF 8
ENDMDL
MODEL 8
REMARK VINA RESULT:    -4.063     11.645     13.900
REMARK INTER + INTRA:          -6.278
REMARK INTER:                  -6.006
REMARK INTRA:                  -0.272
REMARK UNBOUND:                -0.315
REMARK SMILES O=C([O-])CCCCCCCC(=O)[O-]
REMARK SMILES IDX 7 1 6 2 5 3 4 4 2 5 1 6 3 7 8 8 9 9 10 10 11 11 12 12 13 13
REMARK H PARENT
REMARK Flexibility Score: inf
ROOT
ATOM      1  C   UNL     1      15.220  44.335  74.208  1.00  0.00     0.000 C 
ENDROOT
BRANCH   1   2
ATOM      2  C   UNL     1      16.300  43.396  73.647  1.00  0.00     0.000 C 
BRANCH   2   3
ATOM      3  C   UNL     1      16.070  41.925  74.051  1.00  0.00     0.006 C 
BRANCH   3   4
ATOM      4  C   UNL     1      17.364  41.177  74.407  1.00  0.00     0.053 C 
BRANCH   4   5
ATOM      5  C   UNL     1      17.132  39.716  74.637  1.00  0.00     0.041 C 
ATOM      6  O   UNL     1      16.128  39.148  74.132  1.00  0.00    -0.550 OA
ATOM      7  O   UNL     1      18.008  38.988  75.432  1.00  0.00    -0.550 OA
ENDBRANCH   4   5
ENDBRANCH   3   4
ENDBRANCH   2   3
ENDBRANCH   1   2
BRANCH   1   8
ATOM      8  C   UNL     1      14.011  43.579  74.783  1.00  0.00     0.000 C 
BRANCH   8   9
ATOM      9  C   UNL     1      12.996  44.490  75.510  1.00  0.00     0.006 C 
BRANCH   9  10
ATOM     10  C   UNL     1      12.709  45.800  74.761  1.00  0.00     0.053 C 
BRANCH  10  11
ATOM     11  C   UNL     1      11.583  46.564  75.387  1.00  0.00     0.041 C 
ATOM     12  O   UNL     1      11.349  47.751  75.035  1.00  0.00    -0.550 OA
ATOM     13  O   UNL     1      10.775  45.958  76.341  1.00  0.00    -0.550 OA
ENDBRANCH  10  11
ENDBRANCH   9  10
ENDBRANCH   8   9
ENDBRANCH   1   8
TORSDOF 8
ENDMDL
MODEL 9
REMARK VINA RESULT:    -4.052      9.849     11.584
REMARK INTER + INTRA:          -6.262
REMARK INTER:                  -5.824
REMARK INTRA:                  -0.437
REMARK UNBOUND:                -0.315
REMARK SMILES O=C([O-])CCCCCCCC(=O)[O-]
REMARK SMILES IDX 7 1 6 2 5 3 4 4 2 5 1 6 3 7 8 8 9 9 10 10 11 11 12 12 13 13
REMARK H PARENT
REMARK Flexibility Score: inf
ROOT
ATOM      1  C   UNL     1       5.506  34.042  70.773  1.00  0.00     0.000 C 
ENDROOT
BRANCH   1   2
ATOM      2  C   UNL     1       7.015  33.912  70.513  1.00  0.00     0.000 C 
BRANCH   2   3
ATOM      3  C   UNL     1       7.375  32.610  69.770  1.00  0.00     0.006 C 
BRANCH   3   4
ATOM      4  C   UNL     1       7.939  32.843  68.360  1.00  0.00     0.053 C 
BRANCH   4   5
ATOM      5  C   UNL     1       6.911  33.387  67.418  1.00  0.00     0.041 C 
ATOM      6  O   UNL     1       5.943  32.668  67.053  1.00  0.00    -0.550 OA
ATOM      7  O   UNL     1       7.036  34.678  66.919  1.00  0.00    -0.550 OA
ENDBRANCH   4   5
ENDBRANCH   3   4
ENDBRANCH   2   3
ENDBRANCH   1   2
BRANCH   1   8
ATOM      8  C   UNL     1       4.997  35.487  70.631  1.00  0.00     0.000 C 
BRANCH   8   9
ATOM      9  C   UNL     1       3.640  35.739  71.325  1.00  0.00     0.006 C 
BRANCH   9  10
ATOM     10  C   UNL     1       2.477  34.963  70.687  1.00  0.00     0.053 C 
BRANCH  10  11
ATOM     11  C   UNL     1       2.171  35.455  69.306  1.00  0.00     0.041 C 
ATOM     12  O   UNL     1       1.812  36.649  69.124  1.00  0.00    -0.550 OA
ATOM     13  O   UNL     1       2.303  34.604  68.215  1.00  0.00    -0.550 OA
ENDBRANCH  10  11
ENDBRANCH   9  10
ENDBRANCH   8   9
ENDBRANCH   1   8
TORSDOF 8
ENDMDL
