MODEL 1
REMARK VINA RESULT: 2679681.080      0.000      0.000
REMARK INTER + INTRA:     2914665.816
REMARK INTER:             2914662.314
REMARK INTRA:                   3.502
REMARK UNBOUND:                 3.502
REMARK SMILES C[C@@H]1O[C@@H](OC[C@@H]2O[C@@H](Oc3c(-c4ccc(O)c(O)c4)oc4cc(O)cc(O)c4c3=O)[C@H](O)[C@H](O)[C@@H]2O)[C@@H](O)[C@@H](O)[C@H]1O
REMARK SMILES IDX 7 1 36 2 34 3 32 4 9 5 8 6 6 7 5 8 4 9 1 10 2 11 42 12 3 13
REMARK SMILES IDX 40 14 38 15 43 16 41 18 39 20 37 22 35 24 10 26 11 27 12 28
REMARK SMILES IDX 30 29 21 30 29 31 31 32 22 33 27 34 23 35 26 36 24 37 13 38
REMARK SMILES IDX 20 39 14 40 18 41 15 42 16 43 19 44 17 46 28 48 25 50 33 52
REMARK H PARENT 43 17 41 19 39 21 37 23 35 25 19 45 17 47 28 49 25 51 33 53
REMARK Flexibility Score: inf
ROOT
ATOM      1  C   UNL     1       8.825  13.910   8.203  1.00  0.00     0.180 C 
ATOM      2  C   UNL     1       8.733  15.229   6.495  1.00  0.00     0.177 C 
ATOM      3  C   UNL     1       7.994  17.621   6.338  1.00  0.00     0.180 C 
ATOM      4  C   UNL     1       6.139  18.481   5.555  1.00  0.00     0.214 C 
ATOM      5  C   UNL     1       5.185  17.513   4.918  1.00  0.00     0.339 C 
ATOM      6  O   UNL     1       6.815  15.579   6.636  1.00  0.00    -0.332 OA
ENDROOT
BRANCH   1   7
ATOM      7  C   UNL     1      11.325  11.018  10.887  1.00  0.00     0.198 C 
BRANCH   7   8
ATOM      8  O   UNL     1      12.664   9.189  12.554  1.00  0.00    -0.347 OA
BRANCH   8   9
ATOM      9  C   UNL     1      13.355   7.072  14.209  1.00  0.00     0.281 C 
ATOM     10  C   UNL     1      14.123   4.015  14.016  1.00  0.00     0.041 C 
ATOM     11  C   UNL     1      12.973   4.319  14.785  1.00  0.00     0.150 C 
ATOM     12  C   UNL     1      12.917   3.100  16.414  1.00  0.00     0.174 C 
ATOM     13  O   UNL     1      12.251   5.580  13.969  1.00  0.00    -0.344 OA
ATOM     14  C   UNL     1      13.696   3.903  17.851  1.00  0.00     0.179 C 
ATOM     15  C   UNL     1      14.091   6.348  17.256  1.00  0.00     0.202 C 
BRANCH  12  16
ATOM     16  O   UNL     1      11.191   5.304  16.309  1.00  0.00    -0.388 OA
ATOM     17  H   UNL     1      12.870   4.221  17.140  1.00  0.00     0.211 HD
ENDBRANCH  12  16
BRANCH  14  18
ATOM     18  O   UNL     1      13.188   2.702  18.630  1.00  0.00    -0.387 OA
ATOM     19  H   UNL     1      12.479   2.528  19.320  1.00  0.00     0.211 HD
ENDBRANCH  14  18
BRANCH  15  20
ATOM     20  O   UNL     1      12.282  10.238  18.122  1.00  0.00    -0.385 OA
ATOM     21  H   UNL     1      12.321   6.734  17.474  1.00  0.00     0.211 HD
ENDBRANCH  15  20
ENDBRANCH   8   9
ENDBRANCH   7   8
ENDBRANCH   1   7
BRANCH   2  22
ATOM     22  O   UNL     1       9.167  14.329   5.340  1.00  0.00    -0.387 OA
ATOM     23  H   UNL     1       8.357  14.076   4.661  1.00  0.00     0.211 HD
ENDBRANCH   2  22
BRANCH   3  24
ATOM     24  O   UNL     1       8.923  18.592   5.703  1.00  0.00    -0.387 OA
ATOM     25  H   UNL     1       9.836  18.283   5.110  1.00  0.00     0.211 HD
ENDBRANCH   3  24
BRANCH   5  26
ATOM     26  O   UNL     1       2.804  19.208   3.200  1.00  0.00    -0.454 OA
BRANCH  26  27
ATOM     27  C   UNL     1       0.573  20.207   1.858  1.00  0.00     0.214 A 
ATOM     28  C   UNL     1      -0.758  19.345   1.022  1.00  0.00     0.180 A 
ATOM     29  C   UNL     1      -1.018  21.682   0.506  1.00  0.00     0.239 A 
ATOM     30  O   UNL     1      -2.047  19.804   0.249  1.00  0.00    -0.452 OA
ATOM     31  C   UNL     1      -3.345  22.583   0.324  1.00  0.00     0.111 A 
ATOM     32  O   UNL     1       1.579  20.466  -2.131  1.00  0.00    -0.285 OA
ATOM     33  C   UNL     1      -3.109  20.851   0.201  1.00  0.00     0.146 A 
ATOM     34  C   UNL     1      -5.541  22.868  -0.798  1.00  0.00     0.134 A 
ATOM     35  C   UNL     1      -4.146  19.707  -0.253  1.00  0.00     0.094 A 
ATOM     36  C   UNL     1      -5.415  21.097  -0.813  1.00  0.00     0.093 A 
ATOM     37  C   UNL     1      -5.038  19.527  -1.499  1.00  0.00     0.123 A 
BRANCH  28  38
ATOM     38  C   UNL     1      -0.524  17.460   0.285  1.00  0.00     0.025 A 
ATOM     39  C   UNL     1       0.571  15.214   0.150  1.00  0.00     0.062 A 
ATOM     40  C   UNL     1      -2.134  17.841   0.413  1.00  0.00     0.016 A 
ATOM     41  C   UNL     1      -0.241  16.460   1.757  1.00  0.00     0.158 A 
ATOM     42  C   UNL     1      -2.644  17.364   1.605  1.00  0.00     0.051 A 
ATOM     43  C   UNL     1      -1.671  17.064   2.453  1.00  0.00     0.157 A 
BRANCH  41  44
ATOM     44  O   UNL     1       0.717  17.534   2.471  1.00  0.00    -0.504 OA
ATOM     45  H   UNL     1       1.611  17.333   2.900  1.00  0.00     0.293 HD
ENDBRANCH  41  44
BRANCH  43  46
ATOM     46  O   UNL     1      -1.954  17.878   3.627  1.00  0.00    -0.504 OA
ATOM     47  H   UNL     1      -3.003  17.907   3.901  1.00  0.00     0.293 HD
ENDBRANCH  43  46
ENDBRANCH  28  38
BRANCH  34  48
ATOM     48  O   UNL     1      -7.328  24.149  -2.076  1.00  0.00    -0.507 OA
ATOM     49  H   UNL     1      -8.434  23.727  -3.750  1.00  0.00     0.293 HD
ENDBRANCH  34  48
BRANCH  37  50
ATOM     50  O   UNL     1      -6.043  18.615  -2.128  1.00  0.00    -0.508 OA
ATOM     51  H   UNL     1      -7.008  18.962  -2.214  1.00  0.00     0.293 HD
ENDBRANCH  37  50
ENDBRANCH  26  27
ENDBRANCH   5  26
BRANCH   4  52
ATOM     52  O   UNL     1       6.528  19.577   4.589  1.00  0.00    -0.384 OA
ATOM     53  H   UNL     1       5.990  20.477   4.859  1.00  0.00     0.211 HD
ENDBRANCH   4  52
TORSDOF 16
ENDMDL
