MODEL 1
REMARK VINA RESULT:    -5.856      0.000      0.000
REMARK INTER + INTRA:         -12.277
REMARK INTER:                 -10.648
REMARK INTRA:                  -1.628
REMARK UNBOUND:                -1.628
REMARK SMILES CCCCCCCCCCCCCC[C@H](C)C(=O)[O-]
REMARK SMILES IDX 9 1 10 2 11 3 12 4 13 5 14 6 15 7 16 8 17 9 18 10 19 11 8 12
REMARK SMILES IDX 7 13 6 14 5 15 4 16 3 17 2 18 1 19
REMARK H PARENT
REMARK Flexibility Score: inf
ROOT
ATOM      1  C   UNL     1      11.866   3.896  53.458  1.00  0.00     0.000 C 
ENDROOT
BRANCH   1   2
ATOM      2  C   UNL     1      10.831   3.045  54.215  1.00  0.00     0.000 C 
BRANCH   2   3
ATOM      3  C   UNL     1       9.531   3.809  54.508  1.00  0.00     0.000 C 
BRANCH   3   4
ATOM      4  C   UNL     1       9.467   4.237  55.982  1.00  0.00     0.000 C 
BRANCH   4   5
ATOM      5  C   UNL     1       9.630   5.755  56.173  1.00  0.00     0.001 C 
BRANCH   5   6
ATOM      6  C   UNL     1       9.431   6.604  54.900  1.00  0.00     0.009 C 
BRANCH   6   7
ATOM      7  C   UNL     1      10.716   7.253  54.337  1.00  0.00     0.032 C 
ATOM      8  C   UNL     1      11.273   8.345  55.261  1.00  0.00     0.014 C 
BRANCH   7   9
ATOM      9  C   UNL     1      10.439   7.827  52.974  1.00  0.00     0.044 C 
ATOM     10  O   UNL     1       9.895   8.957  52.854  1.00  0.00    -0.550 OA
ATOM     11  O   UNL     1      10.772   7.105  51.836  1.00  0.00    -0.550 OA
ENDBRANCH   7   9
ENDBRANCH   6   7
ENDBRANCH   5   6
ENDBRANCH   4   5
ENDBRANCH   3   4
ENDBRANCH   2   3
ENDBRANCH   1   2
BRANCH   1  12
ATOM     12  C   UNL     1      12.985   4.491  54.337  1.00  0.00     0.000 C 
BRANCH  12  13
ATOM     13  C   UNL     1      12.970   4.040  55.812  1.00  0.00    -0.000 C 
BRANCH  13  14
ATOM     14  C   UNL     1      14.146   3.139  56.228  1.00  0.00    -0.000 C 
BRANCH  14  15
ATOM     15  C   UNL     1      15.458   3.504  55.517  1.00  0.00    -0.000 C 
BRANCH  15  16
ATOM     16  C   UNL     1      16.451   2.333  55.561  1.00  0.00    -0.000 C 
BRANCH  16  17
ATOM     17  C   UNL     1      15.833   1.043  56.129  1.00  0.00    -0.000 C 
BRANCH  17  18
ATOM     18  C   UNL     1      16.850  -0.033  56.549  1.00  0.00    -0.003 C 
ATOM     19  C   UNL     1      17.541   0.282  57.875  1.00  0.00     0.004 C 
ENDBRANCH  17  18
ENDBRANCH  16  17
ENDBRANCH  15  16
ENDBRANCH  14  15
ENDBRANCH  13  14
ENDBRANCH  12  13
ENDBRANCH   1  12
TORSDOF 14
ENDMDL
MODEL 2
REMARK VINA RESULT:    -5.753      1.076      2.005
REMARK INTER + INTRA:         -12.090
REMARK INTER:                 -10.610
REMARK INTRA:                  -1.480
REMARK UNBOUND:                -1.628
REMARK SMILES CCCCCCCCCCCCCC[C@H](C)C(=O)[O-]
REMARK SMILES IDX 9 1 10 2 11 3 12 4 13 5 14 6 15 7 16 8 17 9 18 10 19 11 8 12
REMARK SMILES IDX 7 13 6 14 5 15 4 16 3 17 2 18 1 19
REMARK H PARENT
REMARK Flexibility Score: inf
ROOT
ATOM      1  C   UNL     1      10.851   3.091  54.440  1.00  0.00     0.000 C 
ENDROOT
BRANCH   1   2
ATOM      2  C   UNL     1       9.499   3.698  54.854  1.00  0.00     0.000 C 
BRANCH   2   3
ATOM      3  C   UNL     1       9.553   4.397  56.220  1.00  0.00     0.000 C 
BRANCH   3   4
ATOM      4  C   UNL     1       9.329   5.910  56.072  1.00  0.00     0.000 C 
BRANCH   4   5
ATOM      5  C   UNL     1       9.097   6.341  54.613  1.00  0.00     0.001 C 
BRANCH   5   6
ATOM      6  C   UNL     1       8.990   7.864  54.387  1.00  0.00     0.009 C 
BRANCH   6   7
ATOM      7  C   UNL     1      10.032   8.457  53.412  1.00  0.00     0.032 C 
ATOM      8  C   UNL     1       9.881   7.905  51.987  1.00  0.00     0.014 C 
BRANCH   7   9
ATOM      9  C   UNL     1      11.420   8.182  53.923  1.00  0.00     0.044 C 
ATOM     10  O   UNL     1      12.249   7.550  53.215  1.00  0.00    -0.550 OA
ATOM     11  O   UNL     1      11.792   8.616  55.188  1.00  0.00    -0.550 OA
ENDBRANCH   7   9
ENDBRANCH   6   7
ENDBRANCH   5   6
ENDBRANCH   4   5
ENDBRANCH   3   4
ENDBRANCH   2   3
ENDBRANCH   1   2
BRANCH   1  12
ATOM     12  C   UNL     1      11.774   4.041  53.649  1.00  0.00     0.000 C 
BRANCH  12  13
ATOM     13  C   UNL     1      13.016   4.537  54.415  1.00  0.00    -0.000 C 
BRANCH  13  14
ATOM     14  C   UNL     1      13.041   4.185  55.913  1.00  0.00    -0.000 C 
BRANCH  14  15
ATOM     15  C   UNL     1      14.087   3.114  56.256  1.00  0.00    -0.000 C 
BRANCH  15  16
ATOM     16  C   UNL     1      15.421   3.404  55.553  1.00  0.00    -0.000 C 
BRANCH  16  17
ATOM     17  C   UNL     1      16.358   2.183  55.517  1.00  0.00    -0.000 C 
BRANCH  17  18
ATOM     18  C   UNL     1      15.909   0.995  56.388  1.00  0.00    -0.003 C 
ATOM     19  C   UNL     1      16.613  -0.311  56.027  1.00  0.00     0.004 C 
ENDBRANCH  17  18
ENDBRANCH  16  17
ENDBRANCH  15  16
ENDBRANCH  14  15
ENDBRANCH  13  14
ENDBRANCH  12  13
ENDBRANCH   1  12
TORSDOF 14
ENDMDL
MODEL 3
REMARK VINA RESULT:    -5.618      1.247      1.954
REMARK INTER + INTRA:         -11.844
REMARK INTER:                 -10.593
REMARK INTRA:                  -1.250
REMARK UNBOUND:                -1.628
REMARK SMILES CCCCCCCCCCCCCC[C@H](C)C(=O)[O-]
REMARK SMILES IDX 9 1 10 2 11 3 12 4 13 5 14 6 15 7 16 8 17 9 18 10 19 11 8 12
REMARK SMILES IDX 7 13 6 14 5 15 4 16 3 17 2 18 1 19
REMARK H PARENT
REMARK Flexibility Score: inf
ROOT
ATOM      1  C   UNL     1      10.913   3.072  54.277  1.00  0.00     0.000 C 
ENDROOT
BRANCH   1   2
ATOM      2  C   UNL     1       9.602   3.825  54.566  1.00  0.00     0.000 C 
BRANCH   2   3
ATOM      3  C   UNL     1       9.518   4.342  56.009  1.00  0.00     0.000 C 
BRANCH   3   4
ATOM      4  C   UNL     1       9.185   5.842  56.036  1.00  0.00     0.000 C 
BRANCH   4   5
ATOM      5  C   UNL     1       9.945   6.643  54.964  1.00  0.00     0.001 C 
BRANCH   5   6
ATOM      6  C   UNL     1       9.089   7.124  53.774  1.00  0.00     0.009 C 
BRANCH   6   7
ATOM      7  C   UNL     1       9.041   8.657  53.577  1.00  0.00     0.032 C 
ATOM      8  C   UNL     1       7.930   9.318  54.405  1.00  0.00     0.014 C 
BRANCH   7   9
ATOM      9  C   UNL     1       8.851   8.975  52.119  1.00  0.00     0.044 C 
ATOM     10  O   UNL     1       9.804   9.436  51.435  1.00  0.00    -0.550 OA
ATOM     11  O   UNL     1       7.615   8.774  51.520  1.00  0.00    -0.550 OA
ENDBRANCH   7   9
ENDBRANCH   6   7
ENDBRANCH   5   6
ENDBRANCH   4   5
ENDBRANCH   3   4
ENDBRANCH   2   3
ENDBRANCH   1   2
BRANCH   1  12
ATOM     12  C   UNL     1      11.977   3.890  53.517  1.00  0.00     0.000 C 
BRANCH  12  13
ATOM     13  C   UNL     1      12.991   4.634  54.408  1.00  0.00    -0.000 C 
BRANCH  13  14
ATOM     14  C   UNL     1      12.998   4.205  55.886  1.00  0.00    -0.000 C 
BRANCH  14  15
ATOM     15  C   UNL     1      14.020   3.096  56.181  1.00  0.00    -0.000 C 
BRANCH  15  16
ATOM     16  C   UNL     1      15.392   3.442  55.583  1.00  0.00    -0.000 C 
BRANCH  16  17
ATOM     17  C   UNL     1      16.340   2.231  55.519  1.00  0.00    -0.000 C 
BRANCH  17  18
ATOM     18  C   UNL     1      15.907   1.022  56.368  1.00  0.00    -0.003 C 
ATOM     19  C   UNL     1      16.598  -0.276  55.957  1.00  0.00     0.004 C 
ENDBRANCH  17  18
ENDBRANCH  16  17
ENDBRANCH  15  16
ENDBRANCH  14  15
ENDBRANCH  13  14
ENDBRANCH  12  13
ENDBRANCH   1  12
TORSDOF 14
ENDMDL
MODEL 4
REMARK VINA RESULT:    -5.555      3.885      7.536
REMARK INTER + INTRA:         -11.729
REMARK INTER:                  -9.659
REMARK INTRA:                  -2.070
REMARK UNBOUND:                -1.628
REMARK SMILES CCCCCCCCCCCCCC[C@H](C)C(=O)[O-]
REMARK SMILES IDX 9 1 10 2 11 3 12 4 13 5 14 6 15 7 16 8 17 9 18 10 19 11 8 12
REMARK SMILES IDX 7 13 6 14 5 15 4 16 3 17 2 18 1 19
REMARK H PARENT
REMARK Flexibility Score: inf
ROOT
ATOM      1  C   UNL     1      13.241   4.461  55.089  1.00  0.00     0.000 C 
ENDROOT
BRANCH   1   2
ATOM      2  C   UNL     1      13.051   4.184  56.592  1.00  0.00     0.000 C 
BRANCH   2   3
ATOM      3  C   UNL     1      12.460   2.795  56.871  1.00  0.00     0.000 C 
BRANCH   3   4
ATOM      4  C   UNL     1      12.762   2.350  58.310  1.00  0.00     0.000 C 
BRANCH   4   5
ATOM      5  C   UNL     1      13.955   1.383  58.401  1.00  0.00     0.001 C 
BRANCH   5   6
ATOM      6  C   UNL     1      14.536   0.926  57.046  1.00  0.00     0.009 C 
BRANCH   6   7
ATOM      7  C   UNL     1      16.017   1.297  56.809  1.00  0.00     0.032 C 
ATOM      8  C   UNL     1      16.220   2.100  55.517  1.00  0.00     0.014 C 
BRANCH   7   9
ATOM      9  C   UNL     1      16.854   0.047  56.772  1.00  0.00     0.044 C 
ATOM     10  O   UNL     1      17.725  -0.167  57.656  1.00  0.00    -0.550 OA
ATOM     11  O   UNL     1      16.677  -0.876  55.749  1.00  0.00    -0.550 OA
ENDBRANCH   7   9
ENDBRANCH   6   7
ENDBRANCH   5   6
ENDBRANCH   4   5
ENDBRANCH   3   4
ENDBRANCH   2   3
ENDBRANCH   1   2
BRANCH   1  12
ATOM     12  C   UNL     1      12.151   3.864  54.176  1.00  0.00     0.000 C 
BRANCH  12  13
ATOM     13  C   UNL     1      12.017   4.530  52.792  1.00  0.00    -0.000 C 
BRANCH  13  14
ATOM     14  C   UNL     1      12.390   6.023  52.750  1.00  0.00    -0.000 C 
BRANCH  14  15
ATOM     15  C   UNL     1      11.161   6.943  52.705  1.00  0.00    -0.000 C 
BRANCH  15  16
ATOM     16  C   UNL     1      11.157   7.912  53.896  1.00  0.00    -0.000 C 
BRANCH  16  17
ATOM     17  C   UNL     1      10.865   7.215  55.236  1.00  0.00    -0.000 C 
BRANCH  17  18
ATOM     18  C   UNL     1       9.475   6.560  55.337  1.00  0.00    -0.003 C 
ATOM     19  C   UNL     1       9.477   5.276  56.164  1.00  0.00     0.004 C 
ENDBRANCH  17  18
ENDBRANCH  16  17
ENDBRANCH  15  16
ENDBRANCH  14  15
ENDBRANCH  13  14
ENDBRANCH  12  13
ENDBRANCH   1  12
TORSDOF 14
ENDMDL
MODEL 5
REMARK VINA RESULT:    -5.501      3.572      7.674
REMARK INTER + INTRA:         -11.632
REMARK INTER:                  -9.748
REMARK INTRA:                  -1.884
REMARK UNBOUND:                -1.628
REMARK SMILES CCCCCCCCCCCCCC[C@H](C)C(=O)[O-]
REMARK SMILES IDX 9 1 10 2 11 3 12 4 13 5 14 6 15 7 16 8 17 9 18 10 19 11 8 12
REMARK SMILES IDX 7 13 6 14 5 15 4 16 3 17 2 18 1 19
REMARK H PARENT
REMARK Flexibility Score: inf
ROOT
ATOM      1  C   UNL     1      11.591   6.397  52.862  1.00  0.00     0.000 C 
ENDROOT
BRANCH   1   2
ATOM      2  C   UNL     1      12.489   5.207  53.248  1.00  0.00     0.000 C 
BRANCH   2   3
ATOM      3  C   UNL     1      11.822   3.849  52.988  1.00  0.00     0.000 C 
BRANCH   3   4
ATOM      4  C   UNL     1      11.041   3.376  54.223  1.00  0.00     0.000 C 
BRANCH   4   5
ATOM      5  C   UNL     1      11.596   3.949  55.539  1.00  0.00     0.001 C 
BRANCH   5   6
ATOM      6  C   UNL     1      12.069   2.899  56.565  1.00  0.00     0.009 C 
BRANCH   6   7
ATOM      7  C   UNL     1      13.550   3.018  56.992  1.00  0.00     0.032 C 
ATOM      8  C   UNL     1      14.448   3.519  55.853  1.00  0.00     0.014 C 
BRANCH   7   9
ATOM      9  C   UNL     1      14.045   1.686  57.486  1.00  0.00     0.044 C 
ATOM     10  O   UNL     1      13.599   1.195  58.558  1.00  0.00    -0.550 OA
ATOM     11  O   UNL     1      15.010   0.994  56.768  1.00  0.00    -0.550 OA
ENDBRANCH   7   9
ENDBRANCH   6   7
ENDBRANCH   5   6
ENDBRANCH   4   5
ENDBRANCH   3   4
ENDBRANCH   2   3
ENDBRANCH   1   2
BRANCH   1  12
ATOM     12  C   UNL     1      11.726   7.634  53.773  1.00  0.00     0.000 C 
BRANCH  12  13
ATOM     13  C   UNL     1      10.990   7.537  55.124  1.00  0.00    -0.000 C 
BRANCH  13  14
ATOM     14  C   UNL     1       9.485   7.233  55.025  1.00  0.00    -0.000 C 
BRANCH  14  15
ATOM     15  C   UNL     1       8.609   8.467  55.290  1.00  0.00    -0.000 C 
BRANCH  15  16
ATOM     16  C   UNL     1       7.684   8.750  54.097  1.00  0.00    -0.000 C 
BRANCH  16  17
ATOM     17  C   UNL     1       8.182   8.114  52.788  1.00  0.00    -0.000 C 
BRANCH  17  18
ATOM     18  C   UNL     1       8.843   9.094  51.801  1.00  0.00    -0.003 C 
ATOM     19  C   UNL     1       9.418   8.402  50.566  1.00  0.00     0.004 C 
ENDBRANCH  17  18
ENDBRANCH  16  17
ENDBRANCH  15  16
ENDBRANCH  14  15
ENDBRANCH  13  14
ENDBRANCH  12  13
ENDBRANCH   1  12
TORSDOF 14
ENDMDL
MODEL 6
REMARK VINA RESULT:    -5.495      1.473      2.376
REMARK INTER + INTRA:         -11.621
REMARK INTER:                 -10.034
REMARK INTRA:                  -1.587
REMARK UNBOUND:                -1.628
REMARK SMILES CCCCCCCCCCCCCC[C@H](C)C(=O)[O-]
REMARK SMILES IDX 9 1 10 2 11 3 12 4 13 5 14 6 15 7 16 8 17 9 18 10 19 11 8 12
REMARK SMILES IDX 7 13 6 14 5 15 4 16 3 17 2 18 1 19
REMARK H PARENT
REMARK Flexibility Score: inf
ROOT
ATOM      1  C   UNL     1      11.455   3.646  53.980  1.00  0.00     0.000 C 
ENDROOT
BRANCH   1   2
ATOM      2  C   UNL     1      12.413   4.713  53.422  1.00  0.00     0.000 C 
BRANCH   2   3
ATOM      3  C   UNL     1      11.677   5.913  52.809  1.00  0.00     0.000 C 
BRANCH   3   4
ATOM      4  C   UNL     1      12.112   7.224  53.480  1.00  0.00     0.000 C 
BRANCH   4   5
ATOM      5  C   UNL     1      11.331   7.526  54.770  1.00  0.00     0.001 C 
BRANCH   5   6
ATOM      6  C   UNL     1       9.797   7.421  54.650  1.00  0.00     0.009 C 
BRANCH   6   7
ATOM      7  C   UNL     1       9.063   8.763  54.425  1.00  0.00     0.032 C 
ATOM      8  C   UNL     1       7.775   8.871  55.254  1.00  0.00     0.014 C 
BRANCH   7   9
ATOM      9  C   UNL     1       8.747   8.930  52.964  1.00  0.00     0.044 C 
ATOM     10  O   UNL     1       9.645   9.278  52.151  1.00  0.00    -0.550 OA
ATOM     11  O   UNL     1       7.456   8.713  52.503  1.00  0.00    -0.550 OA
ENDBRANCH   7   9
ENDBRANCH   6   7
ENDBRANCH   5   6
ENDBRANCH   4   5
ENDBRANCH   3   4
ENDBRANCH   2   3
ENDBRANCH   1   2
BRANCH   1  12
ATOM     12  C   UNL     1      11.153   3.769  55.487  1.00  0.00     0.000 C 
BRANCH  12  13
ATOM     13  C   UNL     1      12.303   4.336  56.343  1.00  0.00    -0.000 C 
BRANCH  13  14
ATOM     14  C   UNL     1      13.006   3.310  57.250  1.00  0.00    -0.000 C 
BRANCH  14  15
ATOM     15  C   UNL     1      14.007   2.427  56.488  1.00  0.00    -0.000 C 
BRANCH  15  16
ATOM     16  C   UNL     1      15.059   3.284  55.770  1.00  0.00    -0.000 C 
BRANCH  16  17
ATOM     17  C   UNL     1      16.353   2.511  55.460  1.00  0.00    -0.000 C 
BRANCH  17  18
ATOM     18  C   UNL     1      16.278   0.994  55.714  1.00  0.00    -0.003 C 
ATOM     19  C   UNL     1      17.007   0.564  56.986  1.00  0.00     0.004 C 
ENDBRANCH  17  18
ENDBRANCH  16  17
ENDBRANCH  15  16
ENDBRANCH  14  15
ENDBRANCH  13  14
ENDBRANCH  12  13
ENDBRANCH   1  12
TORSDOF 14
ENDMDL
MODEL 7
REMARK VINA RESULT:    -5.402      3.726      7.748
REMARK INTER + INTRA:         -11.452
REMARK INTER:                  -9.464
REMARK INTRA:                  -1.989
REMARK UNBOUND:                -1.628
REMARK SMILES CCCCCCCCCCCCCC[C@H](C)C(=O)[O-]
REMARK SMILES IDX 9 1 10 2 11 3 12 4 13 5 14 6 15 7 16 8 17 9 18 10 19 11 8 12
REMARK SMILES IDX 7 13 6 14 5 15 4 16 3 17 2 18 1 19
REMARK H PARENT
REMARK Flexibility Score: inf
ROOT
ATOM      1  C   UNL     1      11.499   7.987  55.146  1.00  0.00     0.000 C 
ENDROOT
BRANCH   1   2
ATOM      2  C   UNL     1      11.783   7.933  53.634  1.00  0.00     0.000 C 
BRANCH   2   3
ATOM      3  C   UNL     1      11.204   6.679  52.963  1.00  0.00     0.000 C 
BRANCH   3   4
ATOM      4  C   UNL     1      12.290   5.612  52.762  1.00  0.00     0.000 C 
BRANCH   4   5
ATOM      5  C   UNL     1      12.327   4.573  53.896  1.00  0.00     0.001 C 
BRANCH   5   6
ATOM      6  C   UNL     1      11.064   3.696  54.025  1.00  0.00     0.009 C 
BRANCH   6   7
ATOM      7  C   UNL     1      10.328   3.800  55.381  1.00  0.00     0.032 C 
ATOM      8  C   UNL     1       9.459   5.062  55.480  1.00  0.00     0.014 C 
BRANCH   7   9
ATOM      9  C   UNL     1      11.330   3.779  56.504  1.00  0.00     0.044 C 
ATOM     10  O   UNL     1      11.391   4.733  57.325  1.00  0.00    -0.550 OA
ATOM     11  O   UNL     1      12.203   2.708  56.634  1.00  0.00    -0.550 OA
ENDBRANCH   7   9
ENDBRANCH   6   7
ENDBRANCH   5   6
ENDBRANCH   4   5
ENDBRANCH   3   4
ENDBRANCH   2   3
ENDBRANCH   1   2
BRANCH   1  12
ATOM     12  C   UNL     1      11.015   9.355  55.667  1.00  0.00     0.000 C 
BRANCH  12  13
ATOM     13  C   UNL     1       9.910  10.025  54.825  1.00  0.00    -0.000 C 
BRANCH  13  14
ATOM     14  C   UNL     1       8.522  10.068  55.489  1.00  0.00    -0.000 C 
BRANCH  14  15
ATOM     15  C   UNL     1       7.550   9.032  54.905  1.00  0.00    -0.000 C 
BRANCH  15  16
ATOM     16  C   UNL     1       8.083   8.463  53.582  1.00  0.00    -0.000 C 
BRANCH  16  17
ATOM     17  C   UNL     1       7.356   9.028  52.350  1.00  0.00    -0.000 C 
BRANCH  17  18
ATOM     18  C   UNL     1       8.182   9.022  51.050  1.00  0.00    -0.003 C 
ATOM     19  C   UNL     1       9.542   9.700  51.203  1.00  0.00     0.004 C 
ENDBRANCH  17  18
ENDBRANCH  16  17
ENDBRANCH  15  16
ENDBRANCH  14  15
ENDBRANCH  13  14
ENDBRANCH  12  13
ENDBRANCH   1  12
TORSDOF 14
ENDMDL
MODEL 8
REMARK VINA RESULT:    -5.314      1.287      1.942
REMARK INTER + INTRA:         -11.292
REMARK INTER:                  -9.842
REMARK INTRA:                  -1.450
REMARK UNBOUND:                -1.628
REMARK SMILES CCCCCCCCCCCCCC[C@H](C)C(=O)[O-]
REMARK SMILES IDX 9 1 10 2 11 3 12 4 13 5 14 6 15 7 16 8 17 9 18 10 19 11 8 12
REMARK SMILES IDX 7 13 6 14 5 15 4 16 3 17 2 18 1 19
REMARK H PARENT
REMARK Flexibility Score: inf
ROOT
ATOM      1  C   UNL     1      12.034   4.413  54.214  1.00  0.00     0.000 C 
ENDROOT
BRANCH   1   2
ATOM      2  C   UNL     1      10.720   3.616  54.303  1.00  0.00     0.000 C 
BRANCH   2   3
ATOM      3  C   UNL     1       9.647   4.328  55.137  1.00  0.00     0.000 C 
BRANCH   3   4
ATOM      4  C   UNL     1      10.166   5.674  55.666  1.00  0.00     0.000 C 
BRANCH   4   5
ATOM      5  C   UNL     1       9.095   6.778  55.649  1.00  0.00     0.001 C 
BRANCH   5   6
ATOM      6  C   UNL     1       9.257   7.834  54.536  1.00  0.00     0.009 C 
BRANCH   6   7
ATOM      7  C   UNL     1      10.029   7.357  53.285  1.00  0.00     0.032 C 
ATOM      8  C   UNL     1      11.480   7.859  53.266  1.00  0.00     0.014 C 
BRANCH   7   9
ATOM      9  C   UNL     1       9.314   7.811  52.042  1.00  0.00     0.044 C 
ATOM     10  O   UNL     1       9.782   7.549  50.902  1.00  0.00    -0.550 OA
ATOM     11  O   UNL     1       8.135   8.537  52.147  1.00  0.00    -0.550 OA
ENDBRANCH   7   9
ENDBRANCH   6   7
ENDBRANCH   5   6
ENDBRANCH   4   5
ENDBRANCH   3   4
ENDBRANCH   2   3
ENDBRANCH   1   2
BRANCH   1  12
ATOM     12  C   UNL     1      13.232   3.773  54.946  1.00  0.00     0.000 C 
BRANCH  12  13
ATOM     13  C   UNL     1      13.284   4.026  56.466  1.00  0.00    -0.000 C 
BRANCH  13  14
ATOM     14  C   UNL     1      12.489   3.023  57.320  1.00  0.00    -0.000 C 
BRANCH  14  15
ATOM     15  C   UNL     1      13.392   2.028  58.066  1.00  0.00    -0.000 C 
BRANCH  15  16
ATOM     16  C   UNL     1      14.076   1.065  57.084  1.00  0.00    -0.000 C 
BRANCH  16  17
ATOM     17  C   UNL     1      15.505   0.687  57.512  1.00  0.00    -0.000 C 
BRANCH  17  18
ATOM     18  C   UNL     1      16.570   0.826  56.409  1.00  0.00    -0.003 C 
ATOM     19  C   UNL     1      16.371   2.064  55.537  1.00  0.00     0.004 C 
ENDBRANCH  17  18
ENDBRANCH  16  17
ENDBRANCH  15  16
ENDBRANCH  14  15
ENDBRANCH  13  14
ENDBRANCH  12  13
ENDBRANCH   1  12
TORSDOF 14
ENDMDL
MODEL 9
REMARK VINA RESULT:    -5.198      3.105      7.830
REMARK INTER + INTRA:         -11.081
REMARK INTER:                  -9.277
REMARK INTRA:                  -1.804
REMARK UNBOUND:                -1.628
REMARK SMILES CCCCCCCCCCCCCC[C@H](C)C(=O)[O-]
REMARK SMILES IDX 9 1 10 2 11 3 12 4 13 5 14 6 15 7 16 8 17 9 18 10 19 11 8 12
REMARK SMILES IDX 7 13 6 14 5 15 4 16 3 17 2 18 1 19
REMARK H PARENT
REMARK Flexibility Score: inf
ROOT
ATOM      1  C   UNL     1      11.363   8.091  55.129  1.00  0.00     0.000 C 
ENDROOT
BRANCH   1   2
ATOM      2  C   UNL     1      10.453   6.981  54.574  1.00  0.00     0.000 C 
BRANCH   2   3
ATOM      3  C   UNL     1       9.469   6.438  55.621  1.00  0.00     0.000 C 
BRANCH   3   4
ATOM      4  C   UNL     1       9.523   4.905  55.681  1.00  0.00     0.000 C 
BRANCH   4   5
ATOM      5  C   UNL     1      10.577   4.380  56.672  1.00  0.00     0.001 C 
BRANCH   5   6
ATOM      6  C   UNL     1      11.681   3.498  56.052  1.00  0.00     0.009 C 
BRANCH   6   7
ATOM      7  C   UNL     1      12.905   4.268  55.506  1.00  0.00     0.032 C 
ATOM      8  C   UNL     1      12.848   4.452  53.983  1.00  0.00     0.014 C 
BRANCH   7   9
ATOM      9  C   UNL     1      14.169   3.547  55.888  1.00  0.00     0.044 C 
ATOM     10  O   UNL     1      15.290   3.969  55.496  1.00  0.00    -0.550 OA
ATOM     11  O   UNL     1      14.106   2.400  56.667  1.00  0.00    -0.550 OA
ENDBRANCH   7   9
ENDBRANCH   6   7
ENDBRANCH   5   6
ENDBRANCH   4   5
ENDBRANCH   3   4
ENDBRANCH   2   3
ENDBRANCH   1   2
BRANCH   1  12
ATOM     12  C   UNL     1      10.625   9.359  55.604  1.00  0.00     0.000 C 
BRANCH  12  13
ATOM     13  C   UNL     1       9.474   9.828  54.692  1.00  0.00    -0.000 C 
BRANCH  13  14
ATOM     14  C   UNL     1       8.081   9.822  55.347  1.00  0.00    -0.000 C 
BRANCH  14  15
ATOM     15  C   UNL     1       6.977   9.337  54.396  1.00  0.00    -0.000 C 
BRANCH  15  16
ATOM     16  C   UNL     1       7.572   8.552  53.218  1.00  0.00    -0.000 C 
BRANCH  16  17
ATOM     17  C   UNL     1       7.282   9.203  51.854  1.00  0.00    -0.000 C 
BRANCH  17  18
ATOM     18  C   UNL     1       8.471   9.220  50.877  1.00  0.00    -0.003 C 
ATOM     19  C   UNL     1       9.449   8.069  51.104  1.00  0.00     0.004 C 
ENDBRANCH  17  18
ENDBRANCH  16  17
ENDBRANCH  15  16
ENDBRANCH  14  15
ENDBRANCH  13  14
ENDBRANCH  12  13
ENDBRANCH   1  12
TORSDOF 14
ENDMDL
