MODEL 1
REMARK VINA RESULT:    -4.979      0.000      0.000
REMARK INTER + INTRA:          -7.354
REMARK INTER:                  -6.725
REMARK INTRA:                  -0.628
REMARK UNBOUND:                -0.628
REMARK SMILES CC(=O)CCC=C(C)CCC=C(C)C
REMARK SMILES IDX 7 1 6 2 8 3 9 4 10 5 11 6 13 7 12 8 14 9 5 10 4 11 2 12 3 13
REMARK SMILES IDX 1 14
REMARK H PARENT
REMARK Flexibility Score: inf
ROOT
ATOM      1  C   UNL     1      10.591 117.917  18.390  1.00  0.00    -0.077 C 
ATOM      2  C   UNL     1      10.009 118.674  19.349  1.00  0.00    -0.028 C 
ATOM      3  C   UNL     1      10.253 118.084  16.927  1.00  0.00     0.039 C 
ENDROOT
BRANCH   1   4
ATOM      4  C   UNL     1      11.624 116.887  18.793  1.00  0.00     0.034 C 
BRANCH   4   5
ATOM      5  C   UNL     1      11.343 115.541  18.116  1.00  0.00     0.032 C 
BRANCH   5   6
ATOM      6  C   UNL     1      11.598 114.400  19.069  1.00  0.00    -0.028 C 
ATOM      7  C   UNL     1      11.658 112.682  17.248  1.00  0.00     0.039 C 
ATOM      8  C   UNL     1      11.718 113.106  18.697  1.00  0.00    -0.080 C 
ATOM      9  C   UNL     1      11.934 112.068  19.766  1.00  0.00     0.039 C 
ENDBRANCH   5   6
ENDBRANCH   4   5
ENDBRANCH   1   4
BRANCH   2  10
ATOM     10  C   UNL     1       8.942 119.709  19.091  1.00  0.00     0.035 C 
BRANCH  10  11
ATOM     11  C   UNL     1       7.602 119.267  19.695  1.00  0.00     0.079 C 
BRANCH  11  12
ATOM     12  C   UNL     1       6.593 118.771  18.682  1.00  0.00     0.130 C 
ATOM     13  O   UNL     1       5.598 119.449  18.476  1.00  0.00    -0.300 OA
ATOM     14  C   UNL     1       6.758 117.482  17.926  1.00  0.00     0.087 C 
ENDBRANCH  11  12
ENDBRANCH  10  11
ENDBRANCH   2  10
TORSDOF 6
ENDMDL
MODEL 2
REMARK VINA RESULT:    -4.972      9.304     11.644
REMARK INTER + INTRA:          -7.345
REMARK INTER:                  -6.751
REMARK INTRA:                  -0.593
REMARK UNBOUND:                -0.628
REMARK SMILES CC(=O)CCC=C(C)CCC=C(C)C
REMARK SMILES IDX 7 1 6 2 8 3 9 4 10 5 11 6 13 7 12 8 14 9 5 10 4 11 2 12 3 13
REMARK SMILES IDX 1 14
REMARK H PARENT
REMARK Flexibility Score: inf
ROOT
ATOM      1  C   UNL     1      16.858 119.745  12.550  1.00  0.00    -0.077 C 
ATOM      2  C   UNL     1      17.340 119.117  11.453  1.00  0.00    -0.028 C 
ATOM      3  C   UNL     1      15.488 119.440  13.108  1.00  0.00     0.039 C 
ENDROOT
BRANCH   1   4
ATOM      4  C   UNL     1      17.725 120.768  13.251  1.00  0.00     0.034 C 
BRANCH   4   5
ATOM      5  C   UNL     1      17.267 122.191  12.916  1.00  0.00     0.032 C 
BRANCH   5   6
ATOM      6  C   UNL     1      17.145 123.023  14.169  1.00  0.00    -0.028 C 
ATOM      7  C   UNL     1      14.663 123.280  13.949  1.00  0.00     0.039 C 
ATOM      8  C   UNL     1      15.985 123.540  14.633  1.00  0.00    -0.080 C 
ATOM      9  C   UNL     1      16.023 124.385  15.879  1.00  0.00     0.039 C 
ENDBRANCH   5   6
ENDBRANCH   4   5
ENDBRANCH   1   4
BRANCH   2  10
ATOM     10  C   UNL     1      16.571 118.105  10.640  1.00  0.00     0.035 C 
BRANCH  10  11
ATOM     11  C   UNL     1      16.758 118.362   9.138  1.00  0.00     0.079 C 
BRANCH  11  12
ATOM     12  C   UNL     1      15.511 118.157   8.308  1.00  0.00     0.130 C 
ATOM     13  O   UNL     1      14.635 119.007   8.359  1.00  0.00    -0.300 OA
ATOM     14  C   UNL     1      15.299 116.954   7.430  1.00  0.00     0.087 C 
ENDBRANCH  11  12
ENDBRANCH  10  11
ENDBRANCH   2  10
TORSDOF 6
ENDMDL
MODEL 3
REMARK VINA RESULT:    -4.962      1.482      2.088
REMARK INTER + INTRA:          -7.331
REMARK INTER:                  -6.752
REMARK INTRA:                  -0.579
REMARK UNBOUND:                -0.628
REMARK SMILES CC(=O)CCC=C(C)CCC=C(C)C
REMARK SMILES IDX 7 1 6 2 8 3 9 4 10 5 11 6 13 7 12 8 14 9 5 10 4 11 2 12 3 13
REMARK SMILES IDX 1 14
REMARK H PARENT
REMARK Flexibility Score: inf
ROOT
ATOM      1  C   UNL     1      10.466 117.378  17.964  1.00  0.00    -0.077 C 
ATOM      2  C   UNL     1       9.371 117.378  18.760  1.00  0.00    -0.028 C 
ATOM      3  C   UNL     1      10.459 118.017  16.595  1.00  0.00     0.039 C 
ENDROOT
BRANCH   1   4
ATOM      4  C   UNL     1      11.740 116.737  18.469  1.00  0.00     0.034 C 
BRANCH   4   5
ATOM      5  C   UNL     1      11.463 115.332  19.015  1.00  0.00     0.032 C 
BRANCH   5   6
ATOM      6  C   UNL     1      11.473 114.314  17.903  1.00  0.00    -0.028 C 
ATOM      7  C   UNL     1      11.679 112.369  19.468  1.00  0.00     0.039 C 
ATOM      8  C   UNL     1      11.594 112.980  18.089  1.00  0.00    -0.080 C 
ATOM      9  C   UNL     1      11.626 112.086  16.877  1.00  0.00     0.039 C 
ENDBRANCH   5   6
ENDBRANCH   4   5
ENDBRANCH   1   4
BRANCH   2  10
ATOM     10  C   UNL     1       8.031 117.949  18.369  1.00  0.00     0.035 C 
BRANCH  10  11
ATOM     11  C   UNL     1       7.063 117.924  19.560  1.00  0.00     0.079 C 
BRANCH  11  12
ATOM     12  C   UNL     1       7.622 118.517  20.834  1.00  0.00     0.130 C 
ATOM     13  O   UNL     1       7.865 119.714  20.858  1.00  0.00    -0.300 OA
ATOM     14  C   UNL     1       7.898 117.701  22.066  1.00  0.00     0.087 C 
ENDBRANCH  11  12
ENDBRANCH  10  11
ENDBRANCH   2  10
TORSDOF 6
ENDMDL
MODEL 4
REMARK VINA RESULT:    -4.944      1.242      2.150
REMARK INTER + INTRA:          -7.307
REMARK INTER:                  -6.666
REMARK INTRA:                  -0.640
REMARK UNBOUND:                -0.628
REMARK SMILES CC(=O)CCC=C(C)CCC=C(C)C
REMARK SMILES IDX 7 1 6 2 8 3 9 4 10 5 11 6 13 7 12 8 14 9 5 10 4 11 2 12 3 13
REMARK SMILES IDX 1 14
REMARK H PARENT
REMARK Flexibility Score: inf
ROOT
ATOM      1  C   UNL     1      10.957 115.881  19.158  1.00  0.00    -0.077 C 
ATOM      2  C   UNL     1       9.862 116.588  19.522  1.00  0.00    -0.028 C 
ATOM      3  C   UNL     1      11.696 116.161  17.870  1.00  0.00     0.039 C 
ENDROOT
BRANCH   1   4
ATOM      4  C   UNL     1      11.468 114.792  20.076  1.00  0.00     0.034 C 
BRANCH   4   5
ATOM      5  C   UNL     1      11.192 113.406  19.483  1.00  0.00     0.032 C 
BRANCH   5   6
ATOM      6  C   UNL     1      12.466 112.782  18.969  1.00  0.00    -0.028 C 
ATOM      7  C   UNL     1      11.486 112.239  16.729  1.00  0.00     0.039 C 
ATOM      8  C   UNL     1      12.606 112.231  17.743  1.00  0.00    -0.080 C 
ATOM      9  C   UNL     1      13.930 111.608  17.383  1.00  0.00     0.039 C 
ENDBRANCH   5   6
ENDBRANCH   4   5
ENDBRANCH   1   4
BRANCH   2  10
ATOM     10  C   UNL     1       9.228 117.673  18.687  1.00  0.00     0.035 C 
BRANCH  10  11
ATOM     11  C   UNL     1       7.701 117.515  18.662  1.00  0.00     0.079 C 
BRANCH  11  12
ATOM     12  C   UNL     1       6.942 118.673  19.270  1.00  0.00     0.130 C 
ATOM     13  O   UNL     1       5.941 119.074  18.697  1.00  0.00    -0.300 OA
ATOM     14  C   UNL     1       7.368 119.355  20.541  1.00  0.00     0.087 C 
ENDBRANCH  11  12
ENDBRANCH  10  11
ENDBRANCH   2  10
TORSDOF 6
ENDMDL
MODEL 5
REMARK VINA RESULT:    -4.879      1.969      3.265
REMARK INTER + INTRA:          -7.219
REMARK INTER:                  -6.361
REMARK INTRA:                  -0.858
REMARK UNBOUND:                -0.628
REMARK SMILES CC(=O)CCC=C(C)CCC=C(C)C
REMARK SMILES IDX 7 1 6 2 8 3 9 4 10 5 11 6 13 7 12 8 14 9 5 10 4 11 2 12 3 13
REMARK SMILES IDX 1 14
REMARK H PARENT
REMARK Flexibility Score: inf
ROOT
ATOM      1  C   UNL     1      11.156 114.833  19.170  1.00  0.00    -0.077 C 
ATOM      2  C   UNL     1      11.106 115.716  18.145  1.00  0.00    -0.028 C 
ATOM      3  C   UNL     1      11.181 115.285  20.611  1.00  0.00     0.039 C 
ENDROOT
BRANCH   1   4
ATOM      4  C   UNL     1      11.165 113.351  18.863  1.00  0.00     0.034 C 
BRANCH   4   5
ATOM      5  C   UNL     1      11.588 113.099  17.412  1.00  0.00     0.032 C 
BRANCH   5   6
ATOM      6  C   UNL     1      12.682 112.062  17.347  1.00  0.00    -0.028 C 
ATOM      7  C   UNL     1      14.500 113.717  17.824  1.00  0.00     0.039 C 
ATOM      8  C   UNL     1      13.998 112.328  17.506  1.00  0.00    -0.080 C 
ATOM      9  C   UNL     1      14.981 111.194  17.375  1.00  0.00     0.039 C 
ENDBRANCH   5   6
ENDBRANCH   4   5
ENDBRANCH   1   4
BRANCH   2  10
ATOM     10  C   UNL     1      11.127 117.215  18.306  1.00  0.00     0.035 C 
BRANCH  10  11
ATOM     11  C   UNL     1       9.818 117.833  17.793  1.00  0.00     0.079 C 
BRANCH  11  12
ATOM     12  C   UNL     1       8.697 117.856  18.808  1.00  0.00     0.130 C 
ATOM     13  O   UNL     1       8.984 118.010  19.985  1.00  0.00    -0.300 OA
ATOM     14  C   UNL     1       7.250 117.693  18.434  1.00  0.00     0.087 C 
ENDBRANCH  11  12
ENDBRANCH  10  11
ENDBRANCH   2  10
TORSDOF 6
ENDMDL
MODEL 6
REMARK VINA RESULT:    -4.875      2.015      2.881
REMARK INTER + INTRA:          -7.213
REMARK INTER:                  -6.016
REMARK INTRA:                  -1.197
REMARK UNBOUND:                -0.628
REMARK SMILES CC(=O)CCC=C(C)CCC=C(C)C
REMARK SMILES IDX 7 1 6 2 8 3 9 4 10 5 11 6 13 7 12 8 14 9 5 10 4 11 2 12 3 13
REMARK SMILES IDX 1 14
REMARK H PARENT
REMARK Flexibility Score: inf
ROOT
ATOM      1  C   UNL     1       9.007 118.260  18.314  1.00  0.00    -0.077 C 
ATOM      2  C   UNL     1       9.472 119.343  18.980  1.00  0.00    -0.028 C 
ATOM      3  C   UNL     1       7.636 117.685  18.584  1.00  0.00     0.039 C 
ENDROOT
BRANCH   1   4
ATOM      4  C   UNL     1       9.877 117.620  17.254  1.00  0.00     0.034 C 
BRANCH   4   5
ATOM      5  C   UNL     1      11.218 117.175  17.848  1.00  0.00     0.032 C 
BRANCH   5   6
ATOM      6  C   UNL     1      11.247 115.679  18.040  1.00  0.00    -0.028 C 
ATOM      7  C   UNL     1      10.880 115.829  20.513  1.00  0.00     0.039 C 
ATOM      8  C   UNL     1      11.121 115.060  19.235  1.00  0.00    -0.080 C 
ATOM      9  C   UNL     1      11.208 113.557  19.278  1.00  0.00     0.039 C 
ENDBRANCH   5   6
ENDBRANCH   4   5
ENDBRANCH   1   4
BRANCH   2  10
ATOM     10  C   UNL     1       8.725 120.055  20.081  1.00  0.00     0.035 C 
BRANCH  10  11
ATOM     11  C   UNL     1       9.146 119.517  21.456  1.00  0.00     0.079 C 
BRANCH  11  12
ATOM     12  C   UNL     1       8.052 118.791  22.206  1.00  0.00     0.130 C 
ATOM     13  O   UNL     1       7.189 119.455  22.759  1.00  0.00    -0.300 OA
ATOM     14  C   UNL     1       7.982 117.292  22.305  1.00  0.00     0.087 C 
ENDBRANCH  11  12
ENDBRANCH  10  11
ENDBRANCH   2  10
TORSDOF 6
ENDMDL
MODEL 7
REMARK VINA RESULT:    -4.828      2.749      6.392
REMARK INTER + INTRA:          -7.150
REMARK INTER:                  -6.331
REMARK INTRA:                  -0.819
REMARK UNBOUND:                -0.628
REMARK SMILES CC(=O)CCC=C(C)CCC=C(C)C
REMARK SMILES IDX 7 1 6 2 8 3 9 4 10 5 11 6 13 7 12 8 14 9 5 10 4 11 2 12 3 13
REMARK SMILES IDX 1 14
REMARK H PARENT
REMARK Flexibility Score: inf
ROOT
ATOM      1  C   UNL     1      11.555 115.971  18.152  1.00  0.00    -0.077 C 
ATOM      2  C   UNL     1      10.960 115.015  18.904  1.00  0.00    -0.028 C 
ATOM      3  C   UNL     1      13.036 115.946  17.856  1.00  0.00     0.039 C 
ENDROOT
BRANCH   1   4
ATOM      4  C   UNL     1      10.709 117.085  17.576  1.00  0.00     0.034 C 
BRANCH   4   5
ATOM      5  C   UNL     1      10.237 118.036  18.681  1.00  0.00     0.032 C 
BRANCH   5   6
ATOM      6  C   UNL     1       8.812 118.470  18.440  1.00  0.00    -0.028 C 
ATOM      7  C   UNL     1       8.047 117.779  20.722  1.00  0.00     0.039 C 
ATOM      8  C   UNL     1       7.812 118.339  19.339  1.00  0.00    -0.080 C 
ATOM      9  C   UNL     1       6.427 118.783  18.943  1.00  0.00     0.039 C 
ENDBRANCH   5   6
ENDBRANCH   4   5
ENDBRANCH   1   4
BRANCH   2  10
ATOM     10  C   UNL     1      11.688 113.872  19.566  1.00  0.00     0.035 C 
BRANCH  10  11
ATOM     11  C   UNL     1      11.310 112.536  18.910  1.00  0.00     0.079 C 
BRANCH  11  12
ATOM     12  C   UNL     1      11.952 112.297  17.562  1.00  0.00     0.130 C 
ATOM     13  O   UNL     1      11.224 112.135  16.594  1.00  0.00    -0.300 OA
ATOM     14  C   UNL     1      13.442 112.242  17.362  1.00  0.00     0.087 C 
ENDBRANCH  11  12
ENDBRANCH  10  11
ENDBRANCH   2  10
TORSDOF 6
ENDMDL
MODEL 8
REMARK VINA RESULT:    -4.820      2.286      4.518
REMARK INTER + INTRA:          -7.139
REMARK INTER:                  -6.491
REMARK INTRA:                  -0.648
REMARK UNBOUND:                -0.628
REMARK SMILES CC(=O)CCC=C(C)CCC=C(C)C
REMARK SMILES IDX 7 1 6 2 8 3 9 4 10 5 11 6 13 7 12 8 14 9 5 10 4 11 2 12 3 13
REMARK SMILES IDX 1 14
REMARK H PARENT
REMARK Flexibility Score: inf
ROOT
ATOM      1  C   UNL     1      11.677 113.006  18.798  1.00  0.00    -0.077 C 
ATOM      2  C   UNL     1      11.521 114.302  19.156  1.00  0.00    -0.028 C 
ATOM      3  C   UNL     1      11.651 112.568  17.353  1.00  0.00     0.039 C 
ENDROOT
BRANCH   1   4
ATOM      4  C   UNL     1      11.904 111.969  19.876  1.00  0.00     0.034 C 
BRANCH   4   5
ATOM      5  C   UNL     1      13.401 111.701  20.066  1.00  0.00     0.032 C 
BRANCH   5   6
ATOM      6  C   UNL     1      13.726 110.256  19.782  1.00  0.00    -0.028 C 
ATOM      7  C   UNL     1      14.957 110.782  17.665  1.00  0.00     0.039 C 
ATOM      8  C   UNL     1      14.403 109.825  18.695  1.00  0.00    -0.080 C 
ATOM      9  C   UNL     1      14.621 108.344  18.524  1.00  0.00     0.039 C 
ENDBRANCH   5   6
ENDBRANCH   4   5
ENDBRANCH   1   4
BRANCH   2  10
ATOM     10  C   UNL     1      11.253 115.429  18.189  1.00  0.00     0.035 C 
BRANCH  10  11
ATOM     11  C   UNL     1      10.431 116.537  18.863  1.00  0.00     0.079 C 
BRANCH  11  12
ATOM     12  C   UNL     1       9.795 117.517  17.902  1.00  0.00     0.130 C 
ATOM     13  O   UNL     1       8.677 117.937  18.158  1.00  0.00    -0.300 OA
ATOM     14  C   UNL     1      10.474 117.990  16.646  1.00  0.00     0.087 C 
ENDBRANCH  11  12
ENDBRANCH  10  11
ENDBRANCH   2  10
TORSDOF 6
ENDMDL
MODEL 9
REMARK VINA RESULT:    -4.803      2.800      6.322
REMARK INTER + INTRA:          -7.116
REMARK INTER:                  -6.237
REMARK INTRA:                  -0.878
REMARK UNBOUND:                -0.628
REMARK SMILES CC(=O)CCC=C(C)CCC=C(C)C
REMARK SMILES IDX 7 1 6 2 8 3 9 4 10 5 11 6 13 7 12 8 14 9 5 10 4 11 2 12 3 13
REMARK SMILES IDX 1 14
REMARK H PARENT
REMARK Flexibility Score: inf
ROOT
ATOM      1  C   UNL     1       9.348 117.264  18.463  1.00  0.00    -0.077 C 
ATOM      2  C   UNL     1       9.896 116.376  19.325  1.00  0.00    -0.028 C 
ATOM      3  C   UNL     1      10.112 117.796  17.272  1.00  0.00     0.039 C 
ENDROOT
BRANCH   1   4
ATOM      4  C   UNL     1       7.924 117.722  18.686  1.00  0.00     0.034 C 
BRANCH   4   5
ATOM      5  C   UNL     1       7.700 118.107  20.153  1.00  0.00     0.032 C 
BRANCH   5   6
ATOM      6  C   UNL     1       7.866 119.593  20.347  1.00  0.00    -0.028 C 
ATOM      7  C   UNL     1      10.117 119.362  21.423  1.00  0.00     0.039 C 
ATOM      8  C   UNL     1       8.936 120.171  20.938  1.00  0.00    -0.080 C 
ATOM      9  C   UNL     1       8.946 121.669  21.097  1.00  0.00     0.039 C 
ENDBRANCH   5   6
ENDBRANCH   4   5
ENDBRANCH   1   4
BRANCH   2  10
ATOM     10  C   UNL     1      11.313 115.865  19.240  1.00  0.00     0.035 C 
BRANCH  10  11
ATOM     11  C   UNL     1      11.329 114.336  19.103  1.00  0.00     0.079 C 
BRANCH  11  12
ATOM     12  C   UNL     1      11.999 113.827  17.846  1.00  0.00     0.130 C 
ATOM     13  O   UNL     1      12.979 114.426  17.429  1.00  0.00    -0.300 OA
ATOM     14  C   UNL     1      11.511 112.624  17.087  1.00  0.00     0.087 C 
ENDBRANCH  11  12
ENDBRANCH  10  11
ENDBRANCH   2  10
TORSDOF 6
ENDMDL
