MODEL 1
REMARK VINA RESULT:    -5.320      0.000      0.000
REMARK INTER + INTRA:         -10.749
REMARK INTER:                  -9.984
REMARK INTRA:                  -0.765
REMARK UNBOUND:                -0.765
REMARK SMILES O=C([O-])CCCCCCCCCCCCCCC(=O)[O-]
REMARK SMILES IDX 10 1 9 2 8 3 7 4 6 5 5 6 4 7 2 8 1 9 3 10 11 11 12 12 13 13
REMARK SMILES IDX 14 14 15 15 16 16 17 17 18 18 19 19 20 20
REMARK H PARENT
REMARK Flexibility Score: inf
ROOT
ATOM      1  C   UNL     1       2.144  21.705 -11.973  1.00  0.00     0.000 C 
ENDROOT
BRANCH   1   2
ATOM      2  C   UNL     1       2.165  20.164 -12.026  1.00  0.00     0.000 C 
BRANCH   2   3
ATOM      3  C   UNL     1       2.686  19.473 -10.754  1.00  0.00     0.000 C 
BRANCH   3   4
ATOM      4  C   UNL     1       3.241  20.465  -9.720  1.00  0.00     0.000 C 
BRANCH   4   5
ATOM      5  C   UNL     1       3.159  19.884  -8.304  1.00  0.00     0.000 C 
BRANCH   5   6
ATOM      6  C   UNL     1       2.840  20.981  -7.276  1.00  0.00     0.006 C 
BRANCH   6   7
ATOM      7  C   UNL     1       1.384  21.454  -7.366  1.00  0.00     0.053 C 
BRANCH   7   8
ATOM      8  C   UNL     1       0.653  21.254  -6.074  1.00  0.00     0.041 C 
ATOM      9  O   UNL     1      -0.583  21.486  -6.003  1.00  0.00    -0.550 OA
ATOM     10  O   UNL     1       1.329  20.782  -4.957  1.00  0.00    -0.550 OA
ENDBRANCH   7   8
ENDBRANCH   6   7
ENDBRANCH   5   6
ENDBRANCH   4   5
ENDBRANCH   3   4
ENDBRANCH   2   3
ENDBRANCH   1   2
BRANCH   1  11
ATOM     11  C   UNL     1       2.560  22.408 -13.278  1.00  0.00     0.000 C 
BRANCH  11  12
ATOM     12  C   UNL     1       2.792  21.429 -14.437  1.00  0.00     0.000 C 
BRANCH  12  13
ATOM     13  C   UNL     1       2.903  22.178 -15.773  1.00  0.00     0.000 C 
BRANCH  13  14
ATOM     14  C   UNL     1       1.898  21.678 -16.823  1.00  0.00     0.000 C 
BRANCH  14  15
ATOM     15  C   UNL     1       1.426  22.796 -17.769  1.00  0.00     0.000 C 
BRANCH  15  16
ATOM     16  C   UNL     1       1.602  22.432 -19.254  1.00  0.00     0.006 C 
BRANCH  16  17
ATOM     17  C   UNL     1       1.338  20.953 -19.583  1.00  0.00     0.053 C 
BRANCH  17  18
ATOM     18  C   UNL     1       2.442  20.352 -20.399  1.00  0.00     0.041 C 
ATOM     19  O   UNL     1       2.587  19.103 -20.444  1.00  0.00    -0.550 OA
ATOM     20  O   UNL     1       3.288  21.172 -21.135  1.00  0.00    -0.550 OA
ENDBRANCH  17  18
ENDBRANCH  16  17
ENDBRANCH  15  16
ENDBRANCH  14  15
ENDBRANCH  13  14
ENDBRANCH  12  13
ENDBRANCH  11  12
ENDBRANCH   1  11
TORSDOF 15
ENDMDL
MODEL 2
REMARK VINA RESULT:    -5.255      0.895     10.853
REMARK INTER + INTRA:         -10.628
REMARK INTER:                  -9.820
REMARK INTRA:                  -0.808
REMARK UNBOUND:                -0.765
REMARK SMILES O=C([O-])CCCCCCCCCCCCCCC(=O)[O-]
REMARK SMILES IDX 10 1 9 2 8 3 7 4 6 5 5 6 4 7 2 8 1 9 3 10 11 11 12 12 13 13
REMARK SMILES IDX 14 14 15 15 16 16 17 17 18 18 19 19 20 20
REMARK H PARENT
REMARK Flexibility Score: inf
ROOT
ATOM      1  C   UNL     1       2.897  22.520 -13.954  1.00  0.00     0.000 C 
ENDROOT
BRANCH   1   2
ATOM      2  C   UNL     1       2.898  21.611 -15.200  1.00  0.00     0.000 C 
BRANCH   2   3
ATOM      3  C   UNL     1       3.666  22.166 -16.413  1.00  0.00     0.000 C 
BRANCH   3   4
ATOM      4  C   UNL     1       2.740  22.778 -17.476  1.00  0.00     0.000 C 
BRANCH   4   5
ATOM      5  C   UNL     1       1.418  22.007 -17.561  1.00  0.00     0.000 C 
BRANCH   5   6
ATOM      6  C   UNL     1       1.259  21.335 -18.933  1.00  0.00     0.006 C 
BRANCH   6   7
ATOM      7  C   UNL     1       2.469  21.579 -19.843  1.00  0.00     0.053 C 
BRANCH   7   8
ATOM      8  C   UNL     1       2.864  20.342 -20.589  1.00  0.00     0.041 C 
ATOM      9  O   UNL     1       3.837  20.368 -21.387  1.00  0.00    -0.550 OA
ATOM     10  O   UNL     1       2.180  19.153 -20.377  1.00  0.00    -0.550 OA
ENDBRANCH   7   8
ENDBRANCH   6   7
ENDBRANCH   5   6
ENDBRANCH   4   5
ENDBRANCH   3   4
ENDBRANCH   2   3
ENDBRANCH   1   2
BRANCH   1  11
ATOM     11  C   UNL     1       2.457  21.835 -12.648  1.00  0.00     0.000 C 
BRANCH  11  12
ATOM     12  C   UNL     1       2.313  20.313 -12.790  1.00  0.00     0.000 C 
BRANCH  12  13
ATOM     13  C   UNL     1       2.510  19.616 -11.436  1.00  0.00     0.000 C 
BRANCH  13  14
ATOM     14  C   UNL     1       1.853  20.377 -10.272  1.00  0.00     0.000 C 
BRANCH  14  15
ATOM     15  C   UNL     1       2.860  20.759  -9.174  1.00  0.00     0.000 C 
BRANCH  15  16
ATOM     16  C   UNL     1       2.238  21.651  -8.083  1.00  0.00     0.006 C 
BRANCH  16  17
ATOM     17  C   UNL     1       2.280  21.048  -6.669  1.00  0.00     0.053 C 
BRANCH  17  18
ATOM     18  C   UNL     1       0.909  20.875  -6.091  1.00  0.00     0.041 C 
ATOM     19  O   UNL     1      -0.097  21.323  -6.701  1.00  0.00    -0.550 OA
ATOM     20  O   UNL     1       0.740  20.189  -4.895  1.00  0.00    -0.550 OA
ENDBRANCH  17  18
ENDBRANCH  16  17
ENDBRANCH  15  16
ENDBRANCH  14  15
ENDBRANCH  13  14
ENDBRANCH  12  13
ENDBRANCH  11  12
ENDBRANCH   1  11
TORSDOF 15
ENDMDL
MODEL 3
REMARK VINA RESULT:    -5.230      1.003     11.050
REMARK INTER + INTRA:         -10.581
REMARK INTER:                  -9.955
REMARK INTRA:                  -0.627
REMARK UNBOUND:                -0.765
REMARK SMILES O=C([O-])CCCCCCCCCCCCCCC(=O)[O-]
REMARK SMILES IDX 10 1 9 2 8 3 7 4 6 5 5 6 4 7 2 8 1 9 3 10 11 11 12 12 13 13
REMARK SMILES IDX 14 14 15 15 16 16 17 17 18 18 19 19 20 20
REMARK H PARENT
REMARK Flexibility Score: inf
ROOT
ATOM      1  C   UNL     1       2.409  21.057 -12.253  1.00  0.00     0.000 C 
ENDROOT
BRANCH   1   2
ATOM      2  C   UNL     1       2.518  20.981 -13.790  1.00  0.00     0.000 C 
BRANCH   2   3
ATOM      3  C   UNL     1       2.907  22.298 -14.484  1.00  0.00     0.000 C 
BRANCH   3   4
ATOM      4  C   UNL     1       3.308  22.101 -15.954  1.00  0.00     0.000 C 
BRANCH   4   5
ATOM      5  C   UNL     1       2.145  22.452 -16.891  1.00  0.00     0.000 C 
BRANCH   5   6
ATOM      6  C   UNL     1       2.555  22.289 -18.362  1.00  0.00     0.006 C 
BRANCH   6   7
ATOM      7  C   UNL     1       1.641  21.314 -19.115  1.00  0.00     0.053 C 
BRANCH   7   8
ATOM      8  C   UNL     1       2.378  20.577 -20.191  1.00  0.00     0.041 C 
ATOM      9  O   UNL     1       2.168  19.349 -20.374  1.00  0.00    -0.550 OA
ATOM     10  O   UNL     1       3.271  21.253 -21.011  1.00  0.00    -0.550 OA
ENDBRANCH   7   8
ENDBRANCH   6   7
ENDBRANCH   5   6
ENDBRANCH   4   5
ENDBRANCH   3   4
ENDBRANCH   2   3
ENDBRANCH   1   2
BRANCH   1  11
ATOM     11  C   UNL     1       2.385  19.697 -11.533  1.00  0.00     0.000 C 
BRANCH  11  12
ATOM     12  C   UNL     1       2.672  19.811 -10.029  1.00  0.00     0.000 C 
BRANCH  12  13
ATOM     13  C   UNL     1       1.510  20.502  -9.301  1.00  0.00     0.000 C 
BRANCH  13  14
ATOM     14  C   UNL     1       1.974  21.663  -8.405  1.00  0.00     0.000 C 
BRANCH  14  15
ATOM     15  C   UNL     1       3.106  21.254  -7.446  1.00  0.00     0.000 C 
BRANCH  15  16
ATOM     16  C   UNL     1       2.650  20.225  -6.395  1.00  0.00     0.006 C 
BRANCH  16  17
ATOM     17  C   UNL     1       1.756  20.802  -5.286  1.00  0.00     0.053 C 
BRANCH  17  18
ATOM     18  C   UNL     1       0.308  20.489  -5.511  1.00  0.00     0.041 C 
ATOM     19  O   UNL     1      -0.147  19.352  -5.219  1.00  0.00    -0.550 OA
ATOM     20  O   UNL     1      -0.545  21.465  -6.011  1.00  0.00    -0.550 OA
ENDBRANCH  17  18
ENDBRANCH  16  17
ENDBRANCH  15  16
ENDBRANCH  14  15
ENDBRANCH  13  14
ENDBRANCH  12  13
ENDBRANCH  11  12
ENDBRANCH   1  11
TORSDOF 15
ENDMDL
MODEL 4
REMARK VINA RESULT:    -5.032      9.616     11.125
REMARK INTER + INTRA:         -10.209
REMARK INTER:                  -8.546
REMARK INTRA:                  -1.663
REMARK UNBOUND:                -0.765
REMARK SMILES O=C([O-])CCCCCCCCCCCCCCC(=O)[O-]
REMARK SMILES IDX 10 1 9 2 8 3 7 4 6 5 5 6 4 7 2 8 1 9 3 10 11 11 12 12 13 13
REMARK SMILES IDX 14 14 15 15 16 16 17 17 18 18 19 19 20 20
REMARK H PARENT
REMARK Flexibility Score: inf
ROOT
ATOM      1  C   UNL     1       8.281  28.516 -13.279  1.00  0.00     0.000 C 
ENDROOT
BRANCH   1   2
ATOM      2  C   UNL     1       9.011  28.810 -14.606  1.00  0.00     0.000 C 
BRANCH   2   3
ATOM      3  C   UNL     1      10.088  27.784 -15.001  1.00  0.00     0.000 C 
BRANCH   3   4
ATOM      4  C   UNL     1      10.349  26.741 -13.904  1.00  0.00     0.000 C 
BRANCH   4   5
ATOM      5  C   UNL     1      10.320  25.321 -14.481  1.00  0.00     0.000 C 
BRANCH   5   6
ATOM      6  C   UNL     1       9.266  24.459 -13.769  1.00  0.00     0.006 C 
BRANCH   6   7
ATOM      7  C   UNL     1       8.923  24.995 -12.374  1.00  0.00     0.053 C 
BRANCH   7   8
ATOM      8  C   UNL     1       7.549  24.584 -11.940  1.00  0.00     0.041 C 
ATOM      9  O   UNL     1       6.548  24.889 -12.639  1.00  0.00    -0.550 OA
ATOM     10  O   UNL     1       7.379  23.836 -10.783  1.00  0.00    -0.550 OA
ENDBRANCH   7   8
ENDBRANCH   6   7
ENDBRANCH   5   6
ENDBRANCH   4   5
ENDBRANCH   3   4
ENDBRANCH   2   3
ENDBRANCH   1   2
BRANCH   1  11
ATOM     11  C   UNL     1       7.764  29.757 -12.530  1.00  0.00     0.000 C 
BRANCH  11  12
ATOM     12  C   UNL     1       8.544  31.033 -12.877  1.00  0.00     0.000 C 
BRANCH  12  13
ATOM     13  C   UNL     1       7.738  32.286 -12.505  1.00  0.00     0.000 C 
BRANCH  13  14
ATOM     14  C   UNL     1       6.220  32.038 -12.499  1.00  0.00     0.000 C 
BRANCH  14  15
ATOM     15  C   UNL     1       5.533  32.548 -13.778  1.00  0.00     0.000 C 
BRANCH  15  16
ATOM     16  C   UNL     1       5.195  31.413 -14.763  1.00  0.00     0.006 C 
BRANCH  16  17
ATOM     17  C   UNL     1       6.223  31.220 -15.889  1.00  0.00     0.053 C 
BRANCH  17  18
ATOM     18  C   UNL     1       6.237  32.376 -16.842  1.00  0.00     0.041 C 
ATOM     19  O   UNL     1       5.313  32.510 -17.687  1.00  0.00    -0.550 OA
ATOM     20  O   UNL     1       7.252  33.322 -16.774  1.00  0.00    -0.550 OA
ENDBRANCH  17  18
ENDBRANCH  16  17
ENDBRANCH  15  16
ENDBRANCH  14  15
ENDBRANCH  13  14
ENDBRANCH  12  13
ENDBRANCH  11  12
ENDBRANCH   1  11
TORSDOF 15
ENDMDL
MODEL 5
REMARK VINA RESULT:    -4.994      9.695     11.141
REMARK INTER + INTRA:         -10.138
REMARK INTER:                  -8.578
REMARK INTRA:                  -1.560
REMARK UNBOUND:                -0.765
REMARK SMILES O=C([O-])CCCCCCCCCCCCCCC(=O)[O-]
REMARK SMILES IDX 10 1 9 2 8 3 7 4 6 5 5 6 4 7 2 8 1 9 3 10 11 11 12 12 13 13
REMARK SMILES IDX 14 14 15 15 16 16 17 17 18 18 19 19 20 20
REMARK H PARENT
REMARK Flexibility Score: inf
ROOT
ATOM      1  C   UNL     1       9.139  30.499 -12.791  1.00  0.00     0.000 C 
ENDROOT
BRANCH   1   2
ATOM      2  C   UNL     1       7.925  29.583 -12.537  1.00  0.00     0.000 C 
BRANCH   2   3
ATOM      3  C   UNL     1       7.749  28.436 -13.547  1.00  0.00     0.000 C 
BRANCH   3   4
ATOM      4  C   UNL     1       7.672  27.056 -12.876  1.00  0.00     0.000 C 
BRANCH   4   5
ATOM      5  C   UNL     1       9.073  26.528 -12.547  1.00  0.00     0.000 C 
BRANCH   5   6
ATOM      6  C   UNL     1       9.054  25.005 -12.344  1.00  0.00     0.006 C 
BRANCH   6   7
ATOM      7  C   UNL     1       9.102  24.616 -10.861  1.00  0.00     0.053 C 
BRANCH   7   8
ATOM      8  C   UNL     1       7.859  23.898 -10.432  1.00  0.00     0.041 C 
ATOM      9  O   UNL     1       7.874  23.164  -9.410  1.00  0.00    -0.550 OA
ATOM     10  O   UNL     1       6.678  24.066 -11.143  1.00  0.00    -0.550 OA
ENDBRANCH   7   8
ENDBRANCH   6   7
ENDBRANCH   5   6
ENDBRANCH   4   5
ENDBRANCH   3   4
ENDBRANCH   2   3
ENDBRANCH   1   2
BRANCH   1  11
ATOM     11  C   UNL     1       8.793  31.949 -13.175  1.00  0.00     0.000 C 
BRANCH  11  12
ATOM     12  C   UNL     1       8.572  32.854 -11.955  1.00  0.00     0.000 C 
BRANCH  12  13
ATOM     13  C   UNL     1       7.208  33.556 -12.033  1.00  0.00     0.000 C 
BRANCH  13  14
ATOM     14  C   UNL     1       6.075  32.728 -11.404  1.00  0.00     0.000 C 
BRANCH  14  15
ATOM     15  C   UNL     1       4.823  32.668 -12.297  1.00  0.00     0.000 C 
BRANCH  15  16
ATOM     16  C   UNL     1       5.158  32.750 -13.797  1.00  0.00     0.006 C 
BRANCH  16  17
ATOM     17  C   UNL     1       5.112  31.402 -14.535  1.00  0.00     0.053 C 
BRANCH  17  18
ATOM     18  C   UNL     1       6.092  31.347 -15.667  1.00  0.00     0.041 C 
ATOM     19  O   UNL     1       6.309  30.260 -16.264  1.00  0.00    -0.550 OA
ATOM     20  O   UNL     1       6.739  32.503 -16.084  1.00  0.00    -0.550 OA
ENDBRANCH  17  18
ENDBRANCH  16  17
ENDBRANCH  15  16
ENDBRANCH  14  15
ENDBRANCH  13  14
ENDBRANCH  12  13
ENDBRANCH  11  12
ENDBRANCH   1  11
TORSDOF 15
ENDMDL
MODEL 6
REMARK VINA RESULT:    -4.977      9.530     12.400
REMARK INTER + INTRA:         -10.106
REMARK INTER:                  -8.481
REMARK INTRA:                  -1.625
REMARK UNBOUND:                -0.765
REMARK SMILES O=C([O-])CCCCCCCCCCCCCCC(=O)[O-]
REMARK SMILES IDX 10 1 9 2 8 3 7 4 6 5 5 6 4 7 2 8 1 9 3 10 11 11 12 12 13 13
REMARK SMILES IDX 14 14 15 15 16 16 17 17 18 18 19 19 20 20
REMARK H PARENT
REMARK Flexibility Score: inf
ROOT
ATOM      1  C   UNL     1       9.174  29.895 -12.758  1.00  0.00     0.000 C 
ENDROOT
BRANCH   1   2
ATOM      2  C   UNL     1       7.782  29.231 -12.799  1.00  0.00     0.000 C 
BRANCH   2   3
ATOM      3  C   UNL     1       7.497  28.390 -14.056  1.00  0.00     0.000 C 
BRANCH   3   4
ATOM      4  C   UNL     1       6.278  28.892 -14.845  1.00  0.00     0.000 C 
BRANCH   4   5
ATOM      5  C   UNL     1       6.442  30.368 -15.226  1.00  0.00     0.000 C 
BRANCH   5   6
ATOM      6  C   UNL     1       5.258  31.204 -14.714  1.00  0.00     0.006 C 
BRANCH   6   7
ATOM      7  C   UNL     1       5.494  32.709 -14.882  1.00  0.00     0.053 C 
BRANCH   7   8
ATOM      8  C   UNL     1       4.670  33.281 -15.995  1.00  0.00     0.041 C 
ATOM      9  O   UNL     1       3.545  33.790 -15.752  1.00  0.00    -0.550 OA
ATOM     10  O   UNL     1       5.158  33.279 -17.295  1.00  0.00    -0.550 OA
ENDBRANCH   7   8
ENDBRANCH   6   7
ENDBRANCH   5   6
ENDBRANCH   4   5
ENDBRANCH   3   4
ENDBRANCH   2   3
ENDBRANCH   1   2
BRANCH   1  11
ATOM     11  C   UNL     1      10.040  29.670 -14.011  1.00  0.00     0.000 C 
BRANCH  11  12
ATOM     12  C   UNL     1      11.119  28.596 -13.807  1.00  0.00     0.000 C 
BRANCH  12  13
ATOM     13  C   UNL     1      10.944  27.448 -14.812  1.00  0.00     0.000 C 
BRANCH  13  14
ATOM     14  C   UNL     1      10.461  26.146 -14.150  1.00  0.00     0.000 C 
BRANCH  14  15
ATOM     15  C   UNL     1      10.384  26.256 -12.617  1.00  0.00     0.000 C 
BRANCH  15  16
ATOM     16  C   UNL     1       9.060  25.712 -12.048  1.00  0.00     0.006 C 
BRANCH  16  17
ATOM     17  C   UNL     1       9.226  24.727 -10.880  1.00  0.00     0.053 C 
BRANCH  17  18
ATOM     18  C   UNL     1       7.947  24.017 -10.557  1.00  0.00     0.041 C 
ATOM     19  O   UNL     1       6.965  24.095 -11.341  1.00  0.00    -0.550 OA
ATOM     20  O   UNL     1       7.853  23.242  -9.408  1.00  0.00    -0.550 OA
ENDBRANCH  17  18
ENDBRANCH  16  17
ENDBRANCH  15  16
ENDBRANCH  14  15
ENDBRANCH  13  14
ENDBRANCH  12  13
ENDBRANCH  11  12
ENDBRANCH   1  11
TORSDOF 15
ENDMDL
MODEL 7
REMARK VINA RESULT:    -4.976      9.456     10.817
REMARK INTER + INTRA:         -10.104
REMARK INTER:                  -8.355
REMARK INTRA:                  -1.749
REMARK UNBOUND:                -0.765
REMARK SMILES O=C([O-])CCCCCCCCCCCCCCC(=O)[O-]
REMARK SMILES IDX 10 1 9 2 8 3 7 4 6 5 5 6 4 7 2 8 1 9 3 10 11 11 12 12 13 13
REMARK SMILES IDX 14 14 15 15 16 16 17 17 18 18 19 19 20 20
REMARK H PARENT
REMARK Flexibility Score: inf
ROOT
ATOM      1  C   UNL     1      10.472  28.352 -15.293  1.00  0.00     0.000 C 
ENDROOT
BRANCH   1   2
ATOM      2  C   UNL     1      10.562  26.933 -14.695  1.00  0.00     0.000 C 
BRANCH   2   3
ATOM      3  C   UNL     1      11.125  26.861 -13.265  1.00  0.00     0.000 C 
BRANCH   3   4
ATOM      4  C   UNL     1      10.050  26.537 -12.216  1.00  0.00     0.000 C 
BRANCH   4   5
ATOM      5  C   UNL     1       8.778  26.000 -12.883  1.00  0.00     0.000 C 
BRANCH   5   6
ATOM      6  C   UNL     1       8.616  24.494 -12.628  1.00  0.00     0.006 C 
BRANCH   6   7
ATOM      7  C   UNL     1       8.907  24.117 -11.171  1.00  0.00     0.053 C 
BRANCH   7   8
ATOM      8  C   UNL     1       7.671  23.668 -10.454  1.00  0.00     0.041 C 
ATOM      9  O   UNL     1       6.534  23.978 -10.897  1.00  0.00    -0.550 OA
ATOM     10  O   UNL     1       7.774  22.879  -9.315  1.00  0.00    -0.550 OA
ENDBRANCH   7   8
ENDBRANCH   6   7
ENDBRANCH   5   6
ENDBRANCH   4   5
ENDBRANCH   3   4
ENDBRANCH   2   3
ENDBRANCH   1   2
BRANCH   1  11
ATOM     11  C   UNL     1      11.080  29.466 -14.422  1.00  0.00     0.000 C 
BRANCH  11  12
ATOM     12  C   UNL     1      10.038  30.487 -13.944  1.00  0.00     0.000 C 
BRANCH  12  13
ATOM     13  C   UNL     1       9.412  30.048 -12.612  1.00  0.00     0.000 C 
BRANCH  13  14
ATOM     14  C   UNL     1       7.921  29.693 -12.742  1.00  0.00     0.000 C 
BRANCH  14  15
ATOM     15  C   UNL     1       7.332  30.109 -14.101  1.00  0.00     0.000 C 
BRANCH  15  16
ATOM     16  C   UNL     1       6.417  31.344 -13.999  1.00  0.00     0.006 C 
BRANCH  16  17
ATOM     17  C   UNL     1       5.493  31.553 -15.209  1.00  0.00     0.053 C 
BRANCH  17  18
ATOM     18  C   UNL     1       6.209  32.192 -16.360  1.00  0.00     0.041 C 
ATOM     19  O   UNL     1       5.872  31.924 -17.542  1.00  0.00    -0.550 OA
ATOM     20  O   UNL     1       7.226  33.109 -16.124  1.00  0.00    -0.550 OA
ENDBRANCH  17  18
ENDBRANCH  16  17
ENDBRANCH  15  16
ENDBRANCH  14  15
ENDBRANCH  13  14
ENDBRANCH  12  13
ENDBRANCH  11  12
ENDBRANCH   1  11
TORSDOF 15
ENDMDL
MODEL 8
REMARK VINA RESULT:    -4.970      9.534     11.390
REMARK INTER + INTRA:         -10.093
REMARK INTER:                  -8.465
REMARK INTRA:                  -1.628
REMARK UNBOUND:                -0.765
REMARK SMILES O=C([O-])CCCCCCCCCCCCCCC(=O)[O-]
REMARK SMILES IDX 10 1 9 2 8 3 7 4 6 5 5 6 4 7 2 8 1 9 3 10 11 11 12 12 13 13
REMARK SMILES IDX 14 14 15 15 16 16 17 17 18 18 19 19 20 20
REMARK H PARENT
REMARK Flexibility Score: inf
ROOT
ATOM      1  C   UNL     1       8.008  29.230 -12.963  1.00  0.00     0.000 C 
ENDROOT
BRANCH   1   2
ATOM      2  C   UNL     1       9.480  28.803 -12.793  1.00  0.00     0.000 C 
BRANCH   2   3
ATOM      3  C   UNL     1      10.049  27.948 -13.939  1.00  0.00     0.000 C 
BRANCH   3   4
ATOM      4  C   UNL     1      10.476  26.546 -13.481  1.00  0.00     0.000 C 
BRANCH   4   5
ATOM      5  C   UNL     1      10.443  26.435 -11.952  1.00  0.00     0.000 C 
BRANCH   5   6
ATOM      6  C   UNL     1       9.544  25.272 -11.504  1.00  0.00     0.006 C 
BRANCH   6   7
ATOM      7  C   UNL     1       8.469  24.935 -12.544  1.00  0.00     0.053 C 
BRANCH   7   8
ATOM      8  C   UNL     1       7.199  24.466 -11.902  1.00  0.00     0.041 C 
ATOM      9  O   UNL     1       7.233  23.884 -10.786  1.00  0.00    -0.550 OA
ATOM     10  O   UNL     1       5.978  24.700 -12.520  1.00  0.00    -0.550 OA
ENDBRANCH   7   8
ENDBRANCH   6   7
ENDBRANCH   5   6
ENDBRANCH   4   5
ENDBRANCH   3   4
ENDBRANCH   2   3
ENDBRANCH   1   2
BRANCH   1  11
ATOM     11  C   UNL     1       7.111  28.206 -13.683  1.00  0.00     0.000 C 
BRANCH  11  12
ATOM     12  C   UNL     1       6.333  28.815 -14.858  1.00  0.00     0.000 C 
BRANCH  12  13
ATOM     13  C   UNL     1       6.976  30.131 -15.317  1.00  0.00     0.000 C 
BRANCH  13  14
ATOM     14  C   UNL     1       5.938  31.215 -15.655  1.00  0.00     0.000 C 
BRANCH  14  15
ATOM     15  C   UNL     1       4.989  31.511 -14.481  1.00  0.00     0.000 C 
BRANCH  15  16
ATOM     16  C   UNL     1       5.670  32.309 -13.353  1.00  0.00     0.006 C 
BRANCH  16  17
ATOM     17  C   UNL     1       4.756  32.630 -12.160  1.00  0.00     0.053 C 
BRANCH  17  18
ATOM     18  C   UNL     1       5.534  32.858 -10.900  1.00  0.00     0.041 C 
ATOM     19  O   UNL     1       5.053  32.518  -9.788  1.00  0.00    -0.550 OA
ATOM     20  O   UNL     1       6.806  33.416 -10.960  1.00  0.00    -0.550 OA
ENDBRANCH  17  18
ENDBRANCH  16  17
ENDBRANCH  15  16
ENDBRANCH  14  15
ENDBRANCH  13  14
ENDBRANCH  12  13
ENDBRANCH  11  12
ENDBRANCH   1  11
TORSDOF 15
ENDMDL
MODEL 9
REMARK VINA RESULT:    -4.816     10.020     12.761
REMARK INTER + INTRA:          -9.805
REMARK INTER:                  -7.890
REMARK INTRA:                  -1.914
REMARK UNBOUND:                -0.765
REMARK SMILES O=C([O-])CCCCCCCCCCCCCCC(=O)[O-]
REMARK SMILES IDX 10 1 9 2 8 3 7 4 6 5 5 6 4 7 2 8 1 9 3 10 11 11 12 12 13 13
REMARK SMILES IDX 14 14 15 15 16 16 17 17 18 18 19 19 20 20
REMARK H PARENT
REMARK Flexibility Score: inf
ROOT
ATOM      1  C   UNL     1       9.322  31.317 -12.485  1.00  0.00     0.000 C 
ENDROOT
BRANCH   1   2
ATOM      2  C   UNL     1       8.928  32.689 -11.900  1.00  0.00     0.000 C 
BRANCH   2   3
ATOM      3  C   UNL     1       7.595  33.260 -12.414  1.00  0.00     0.000 C 
BRANCH   3   4
ATOM      4  C   UNL     1       6.382  32.748 -11.623  1.00  0.00     0.000 C 
BRANCH   4   5
ATOM      5  C   UNL     1       5.263  32.294 -12.569  1.00  0.00     0.000 C 
BRANCH   5   6
ATOM      6  C   UNL     1       5.362  33.013 -13.923  1.00  0.00     0.006 C 
BRANCH   6   7
ATOM      7  C   UNL     1       5.223  32.046 -15.105  1.00  0.00     0.053 C 
BRANCH   7   8
ATOM      8  C   UNL     1       6.098  32.442 -16.255  1.00  0.00     0.041 C 
ATOM      9  O   UNL     1       7.054  33.241 -16.076  1.00  0.00    -0.550 OA
ATOM     10  O   UNL     1       5.876  31.904 -17.516  1.00  0.00    -0.550 OA
ENDBRANCH   7   8
ENDBRANCH   6   7
ENDBRANCH   5   6
ENDBRANCH   4   5
ENDBRANCH   3   4
ENDBRANCH   2   3
ENDBRANCH   1   2
BRANCH   1  11
ATOM     11  C   UNL     1       8.896  31.086 -13.947  1.00  0.00     0.000 C 
BRANCH  11  12
ATOM     12  C   UNL     1       8.010  29.845 -14.122  1.00  0.00     0.000 C 
BRANCH  12  13
ATOM     13  C   UNL     1       7.688  29.205 -12.763  1.00  0.00     0.000 C 
BRANCH  13  14
ATOM     14  C   UNL     1       7.650  27.669 -12.821  1.00  0.00     0.000 C 
BRANCH  14  15
ATOM     15  C   UNL     1       9.013  27.058 -13.193  1.00  0.00     0.000 C 
BRANCH  15  16
ATOM     16  C   UNL     1       9.032  25.524 -13.059  1.00  0.00     0.006 C 
BRANCH  16  17
ATOM     17  C   UNL     1       9.115  25.012 -11.612  1.00  0.00     0.053 C 
BRANCH  17  18
ATOM     18  C   UNL     1       7.863  24.305 -11.193  1.00  0.00     0.041 C 
ATOM     19  O   UNL     1       7.843  23.631 -10.130  1.00  0.00    -0.550 OA
ATOM     20  O   UNL     1       6.710  24.418 -11.960  1.00  0.00    -0.550 OA
ENDBRANCH  17  18
ENDBRANCH  16  17
ENDBRANCH  15  16
ENDBRANCH  14  15
ENDBRANCH  13  14
ENDBRANCH  12  13
ENDBRANCH  11  12
ENDBRANCH   1  11
TORSDOF 15
ENDMDL
