MODEL 1
REMARK VINA RESULT:    -3.783      0.000      0.000
REMARK INTER + INTRA:         -11.166
REMARK INTER:                  -8.206
REMARK INTRA:                  -2.960
REMARK UNBOUND:                -2.960
REMARK SMILES CCCCCCCCCCCCCCCCCCCCCC(=O)[O-]
REMARK SMILES IDX 12 1 11 2 10 3 9 4 8 5 7 6 6 7 5 8 4 9 3 10 2 11 1 12 13 13
REMARK SMILES IDX 14 14 15 15 16 16 17 17 18 18 19 19 20 20 21 21 22 22 23 23
REMARK SMILES IDX 24 24
REMARK H PARENT
REMARK Flexibility Score: inf
ROOT
ATOM      1  C   UNL     1      -6.511  30.401  47.492  1.00  0.00     0.000 C 
ENDROOT
BRANCH   1   2
ATOM      2  C   UNL     1      -7.906  30.668  46.901  1.00  0.00     0.000 C 
BRANCH   2   3
ATOM      3  C   UNL     1      -7.898  30.762  45.369  1.00  0.00     0.000 C 
BRANCH   3   4
ATOM      4  C   UNL     1      -8.860  31.851  44.879  1.00  0.00    -0.000 C 
BRANCH   4   5
ATOM      5  C   UNL     1      -8.375  33.245  45.303  1.00  0.00    -0.000 C 
BRANCH   5   6
ATOM      6  C   UNL     1      -7.383  33.863  44.301  1.00  0.00    -0.000 C 
BRANCH   6   7
ATOM      7  C   UNL     1      -5.918  33.882  44.774  1.00  0.00    -0.000 C 
BRANCH   7   8
ATOM      8  C   UNL     1      -5.786  33.948  46.304  1.00  0.00    -0.000 C 
BRANCH   8   9
ATOM      9  C   UNL     1      -4.447  33.390  46.814  1.00  0.00    -0.000 C 
BRANCH   9  10
ATOM     10  C   UNL     1      -4.243  33.561  48.333  1.00  0.00    -0.000 C 
BRANCH  10  11
ATOM     11  C   UNL     1      -5.382  34.355  48.990  1.00  0.00    -0.003 C 
ATOM     12  C   UNL     1      -5.898  33.647  50.238  1.00  0.00     0.004 C 
ENDBRANCH  10  11
ENDBRANCH   9  10
ENDBRANCH   8   9
ENDBRANCH   7   8
ENDBRANCH   6   7
ENDBRANCH   5   6
ENDBRANCH   4   5
ENDBRANCH   3   4
ENDBRANCH   2   3
ENDBRANCH   1   2
BRANCH   1  13
ATOM     13  C   UNL     1      -5.431  29.992  46.469  1.00  0.00     0.000 C 
BRANCH  13  14
ATOM     14  C   UNL     1      -4.733  28.651  46.757  1.00  0.00     0.000 C 
BRANCH  14  15
ATOM     15  C   UNL     1      -5.076  27.567  45.720  1.00  0.00     0.000 C 
BRANCH  15  16
ATOM     16  C   UNL     1      -6.335  26.770  46.098  1.00  0.00     0.000 C 
BRANCH  16  17
ATOM     17  C   UNL     1      -7.588  27.261  45.353  1.00  0.00     0.000 C 
BRANCH  17  18
ATOM     18  C   UNL     1      -7.363  27.418  43.838  1.00  0.00     0.000 C 
BRANCH  18  19
ATOM     19  C   UNL     1      -8.624  27.267  42.967  1.00  0.00     0.000 C 
BRANCH  19  20
ATOM     20  C   UNL     1      -9.819  28.080  43.495  1.00  0.00     0.006 C 
BRANCH  20  21
ATOM     21  C   UNL     1     -11.070  27.211  43.684  1.00  0.00     0.053 C 
BRANCH  21  22
ATOM     22  C   UNL     1     -11.955  27.238  42.476  1.00  0.00     0.041 C 
ATOM     23  O   UNL     1     -11.471  27.491  41.341  1.00  0.00    -0.550 OA
ATOM     24  O   UNL     1     -13.318  27.008  42.607  1.00  0.00    -0.550 OA
ENDBRANCH  21  22
ENDBRANCH  20  21
ENDBRANCH  19  20
ENDBRANCH  18  19
ENDBRANCH  17  18
ENDBRANCH  16  17
ENDBRANCH  15  16
ENDBRANCH  14  15
ENDBRANCH  13  14
ENDBRANCH   1  13
TORSDOF 20
ENDMDL
MODEL 2
REMARK VINA RESULT:    -3.716      1.514      2.692
REMARK INTER + INTRA:         -11.022
REMARK INTER:                  -8.078
REMARK INTRA:                  -2.944
REMARK UNBOUND:                -2.960
REMARK SMILES CCCCCCCCCCCCCCCCCCCCCC(=O)[O-]
REMARK SMILES IDX 12 1 11 2 10 3 9 4 8 5 7 6 6 7 5 8 4 9 3 10 2 11 1 12 13 13
REMARK SMILES IDX 14 14 15 15 16 16 17 17 18 18 19 19 20 20 21 21 22 22 23 23
REMARK SMILES IDX 24 24
REMARK H PARENT
REMARK Flexibility Score: inf
ROOT
ATOM      1  C   UNL     1      -4.954  28.840  46.774  1.00  0.00     0.000 C 
ENDROOT
BRANCH   1   2
ATOM      2  C   UNL     1      -4.114  30.069  46.383  1.00  0.00     0.000 C 
BRANCH   2   3
ATOM      3  C   UNL     1      -3.910  30.196  44.867  1.00  0.00     0.000 C 
BRANCH   3   4
ATOM      4  C   UNL     1      -4.701  31.382  44.304  1.00  0.00    -0.000 C 
BRANCH   4   5
ATOM      5  C   UNL     1      -6.141  30.971  43.963  1.00  0.00    -0.000 C 
BRANCH   5   6
ATOM      6  C   UNL     1      -7.195  31.810  44.710  1.00  0.00    -0.000 C 
BRANCH   6   7
ATOM      7  C   UNL     1      -7.841  31.105  45.917  1.00  0.00    -0.000 C 
BRANCH   7   8
ATOM      8  C   UNL     1      -7.346  31.656  47.264  1.00  0.00    -0.000 C 
BRANCH   8   9
ATOM      9  C   UNL     1      -6.822  33.098  47.165  1.00  0.00    -0.000 C 
BRANCH   9  10
ATOM     10  C   UNL     1      -5.330  33.241  47.533  1.00  0.00    -0.000 C 
BRANCH  10  11
ATOM     11  C   UNL     1      -5.113  34.161  48.743  1.00  0.00    -0.003 C 
ATOM     12  C   UNL     1      -6.040  33.783  49.894  1.00  0.00     0.004 C 
ENDBRANCH  10  11
ENDBRANCH   9  10
ENDBRANCH   8   9
ENDBRANCH   7   8
ENDBRANCH   6   7
ENDBRANCH   5   6
ENDBRANCH   4   5
ENDBRANCH   3   4
ENDBRANCH   2   3
ENDBRANCH   1   2
BRANCH   1  13
ATOM     13  C   UNL     1      -4.882  27.656  45.788  1.00  0.00     0.000 C 
BRANCH  13  14
ATOM     14  C   UNL     1      -5.911  26.537  46.034  1.00  0.00     0.000 C 
BRANCH  14  15
ATOM     15  C   UNL     1      -7.364  27.024  45.893  1.00  0.00     0.000 C 
BRANCH  15  16
ATOM     16  C   UNL     1      -7.661  27.591  44.496  1.00  0.00     0.000 C 
BRANCH  16  17
ATOM     17  C   UNL     1      -9.074  28.191  44.393  1.00  0.00     0.000 C 
BRANCH  17  18
ATOM     18  C   UNL     1      -9.366  28.806  43.012  1.00  0.00     0.000 C 
BRANCH  18  19
ATOM     19  C   UNL     1     -10.552  28.183  42.253  1.00  0.00     0.000 C 
BRANCH  19  20
ATOM     20  C   UNL     1     -11.172  26.982  42.989  1.00  0.00     0.006 C 
BRANCH  20  21
ATOM     21  C   UNL     1     -12.575  26.647  42.466  1.00  0.00     0.053 C 
BRANCH  21  22
ATOM     22  C   UNL     1     -12.652  25.249  41.933  1.00  0.00     0.041 C 
ATOM     23  O   UNL     1     -13.723  24.821  41.428  1.00  0.00    -0.550 OA
ATOM     24  O   UNL     1     -11.547  24.411  42.016  1.00  0.00    -0.550 OA
ENDBRANCH  21  22
ENDBRANCH  20  21
ENDBRANCH  19  20
ENDBRANCH  18  19
ENDBRANCH  17  18
ENDBRANCH  16  17
ENDBRANCH  15  16
ENDBRANCH  14  15
ENDBRANCH  13  14
ENDBRANCH   1  13
TORSDOF 20
ENDMDL
MODEL 3
REMARK VINA RESULT:    -3.705      1.524      3.326
REMARK INTER + INTRA:         -10.997
REMARK INTER:                  -6.973
REMARK INTRA:                  -4.024
REMARK UNBOUND:                -2.960
REMARK SMILES CCCCCCCCCCCCCCCCCCCCCC(=O)[O-]
REMARK SMILES IDX 12 1 11 2 10 3 9 4 8 5 7 6 6 7 5 8 4 9 3 10 2 11 1 12 13 13
REMARK SMILES IDX 14 14 15 15 16 16 17 17 18 18 19 19 20 20 21 21 22 22 23 23
REMARK SMILES IDX 24 24
REMARK H PARENT
REMARK Flexibility Score: inf
ROOT
ATOM      1  C   UNL     1      -7.866  30.868  46.866  1.00  0.00     0.000 C 
ENDROOT
BRANCH   1   2
ATOM      2  C   UNL     1      -7.675  31.275  45.394  1.00  0.00     0.000 C 
BRANCH   2   3
ATOM      3  C   UNL     1      -8.292  32.641  45.066  1.00  0.00     0.000 C 
BRANCH   3   4
ATOM      4  C   UNL     1      -7.981  33.662  46.167  1.00  0.00    -0.000 C 
BRANCH   4   5
ATOM      5  C   UNL     1      -6.748  34.503  45.806  1.00  0.00    -0.000 C 
BRANCH   5   6
ATOM      6  C   UNL     1      -5.523  34.173  46.680  1.00  0.00    -0.000 C 
BRANCH   6   7
ATOM      7  C   UNL     1      -4.396  33.419  45.950  1.00  0.00    -0.000 C 
BRANCH   7   8
ATOM      8  C   UNL     1      -4.637  33.307  44.436  1.00  0.00    -0.000 C 
BRANCH   8   9
ATOM      9  C   UNL     1      -4.086  32.002  43.837  1.00  0.00    -0.000 C 
BRANCH   9  10
ATOM     10  C   UNL     1      -4.996  31.384  42.756  1.00  0.00    -0.000 C 
BRANCH  10  11
ATOM     11  C   UNL     1      -5.300  29.902  43.025  1.00  0.00    -0.003 C 
ATOM     12  C   UNL     1      -5.807  29.207  41.765  1.00  0.00     0.004 C 
ENDBRANCH  10  11
ENDBRANCH   9  10
ENDBRANCH   8   9
ENDBRANCH   7   8
ENDBRANCH   6   7
ENDBRANCH   5   6
ENDBRANCH   4   5
ENDBRANCH   3   4
ENDBRANCH   2   3
ENDBRANCH   1   2
BRANCH   1  13
ATOM     13  C   UNL     1      -6.725  30.019  47.465  1.00  0.00     0.000 C 
BRANCH  13  14
ATOM     14  C   UNL     1      -5.356  30.189  46.783  1.00  0.00     0.000 C 
BRANCH  14  15
ATOM     15  C   UNL     1      -4.658  28.845  46.507  1.00  0.00     0.000 C 
BRANCH  15  16
ATOM     16  C   UNL     1      -5.638  27.662  46.513  1.00  0.00     0.000 C 
BRANCH  16  17
ATOM     17  C   UNL     1      -5.553  26.821  45.227  1.00  0.00     0.000 C 
BRANCH  17  18
ATOM     18  C   UNL     1      -6.871  26.808  44.431  1.00  0.00     0.000 C 
BRANCH  18  19
ATOM     19  C   UNL     1      -8.014  27.640  45.039  1.00  0.00     0.000 C 
BRANCH  19  20
ATOM     20  C   UNL     1      -9.004  28.163  43.983  1.00  0.00     0.006 C 
BRANCH  20  21
ATOM     21  C   UNL     1     -10.415  27.593  44.182  1.00  0.00     0.053 C 
BRANCH  21  22
ATOM     22  C   UNL     1     -11.124  27.394  42.879  1.00  0.00     0.041 C 
ATOM     23  O   UNL     1     -11.998  26.495  42.763  1.00  0.00    -0.550 OA
ATOM     24  O   UNL     1     -10.802  28.184  41.783  1.00  0.00    -0.550 OA
ENDBRANCH  21  22
ENDBRANCH  20  21
ENDBRANCH  19  20
ENDBRANCH  18  19
ENDBRANCH  17  18
ENDBRANCH  16  17
ENDBRANCH  15  16
ENDBRANCH  14  15
ENDBRANCH  13  14
ENDBRANCH   1  13
TORSDOF 20
ENDMDL
MODEL 4
REMARK VINA RESULT:    -3.664      2.446      3.085
REMARK INTER + INTRA:         -10.908
REMARK INTER:                  -7.093
REMARK INTRA:                  -3.815
REMARK UNBOUND:                -2.960
REMARK SMILES CCCCCCCCCCCCCCCCCCCCCC(=O)[O-]
REMARK SMILES IDX 12 1 11 2 10 3 9 4 8 5 7 6 6 7 5 8 4 9 3 10 2 11 1 12 13 13
REMARK SMILES IDX 14 14 15 15 16 16 17 17 18 18 19 19 20 20 21 21 22 22 23 23
REMARK SMILES IDX 24 24
REMARK H PARENT
REMARK Flexibility Score: inf
ROOT
ATOM      1  C   UNL     1      -6.515  30.394  47.500  1.00  0.00     0.000 C 
ENDROOT
BRANCH   1   2
ATOM      2  C   UNL     1      -7.918  30.712  46.954  1.00  0.00     0.000 C 
BRANCH   2   3
ATOM      3  C   UNL     1      -7.965  30.767  45.421  1.00  0.00     0.000 C 
BRANCH   3   4
ATOM      4  C   UNL     1      -8.899  31.883  44.940  1.00  0.00    -0.000 C 
BRANCH   4   5
ATOM      5  C   UNL     1      -8.341  33.265  45.310  1.00  0.00    -0.000 C 
BRANCH   5   6
ATOM      6  C   UNL     1      -7.336  33.801  44.273  1.00  0.00    -0.000 C 
BRANCH   6   7
ATOM      7  C   UNL     1      -5.865  33.770  44.727  1.00  0.00    -0.000 C 
BRANCH   7   8
ATOM      8  C   UNL     1      -5.708  33.878  46.252  1.00  0.00    -0.000 C 
BRANCH   8   9
ATOM      9  C   UNL     1      -4.391  33.271  46.763  1.00  0.00    -0.000 C 
BRANCH   9  10
ATOM     10  C   UNL     1      -4.176  33.447  48.281  1.00  0.00    -0.000 C 
BRANCH  10  11
ATOM     11  C   UNL     1      -5.284  34.287  48.934  1.00  0.00    -0.003 C 
ATOM     12  C   UNL     1      -5.834  33.599  50.179  1.00  0.00     0.004 C 
ENDBRANCH  10  11
ENDBRANCH   9  10
ENDBRANCH   8   9
ENDBRANCH   7   8
ENDBRANCH   6   7
ENDBRANCH   5   6
ENDBRANCH   4   5
ENDBRANCH   3   4
ENDBRANCH   2   3
ENDBRANCH   1   2
BRANCH   1  13
ATOM     13  C   UNL     1      -5.496  29.910  46.448  1.00  0.00     0.000 C 
BRANCH  13  14
ATOM     14  C   UNL     1      -4.829  28.557  46.759  1.00  0.00     0.000 C 
BRANCH  14  15
ATOM     15  C   UNL     1      -5.207  27.461  45.747  1.00  0.00     0.000 C 
BRANCH  15  16
ATOM     16  C   UNL     1      -6.549  26.791  46.082  1.00  0.00     0.000 C 
BRANCH  16  17
ATOM     17  C   UNL     1      -7.686  27.256  45.155  1.00  0.00     0.000 C 
BRANCH  17  18
ATOM     18  C   UNL     1      -7.364  27.056  43.663  1.00  0.00     0.000 C 
BRANCH  18  19
ATOM     19  C   UNL     1      -7.337  28.343  42.819  1.00  0.00     0.000 C 
BRANCH  19  20
ATOM     20  C   UNL     1      -5.913  28.772  42.422  1.00  0.00     0.006 C 
BRANCH  20  21
ATOM     21  C   UNL     1      -5.636  30.242  42.765  1.00  0.00     0.053 C 
BRANCH  21  22
ATOM     22  C   UNL     1      -5.971  31.153  41.625  1.00  0.00     0.041 C 
ATOM     23  O   UNL     1      -5.132  31.358  40.709  1.00  0.00    -0.550 OA
ATOM     24  O   UNL     1      -7.202  31.795  41.586  1.00  0.00    -0.550 OA
ENDBRANCH  21  22
ENDBRANCH  20  21
ENDBRANCH  19  20
ENDBRANCH  18  19
ENDBRANCH  17  18
ENDBRANCH  16  17
ENDBRANCH  15  16
ENDBRANCH  14  15
ENDBRANCH  13  14
ENDBRANCH   1  13
TORSDOF 20
ENDMDL
MODEL 5
REMARK VINA RESULT:    -3.661      1.642      3.386
REMARK INTER + INTRA:         -10.901
REMARK INTER:                  -7.539
REMARK INTRA:                  -3.363
REMARK UNBOUND:                -2.960
REMARK SMILES CCCCCCCCCCCCCCCCCCCCCC(=O)[O-]
REMARK SMILES IDX 12 1 11 2 10 3 9 4 8 5 7 6 6 7 5 8 4 9 3 10 2 11 1 12 13 13
REMARK SMILES IDX 14 14 15 15 16 16 17 17 18 18 19 19 20 20 21 21 22 22 23 23
REMARK SMILES IDX 24 24
REMARK H PARENT
REMARK Flexibility Score: inf
ROOT
ATOM      1  C   UNL     1      -4.568  26.733  44.082  1.00  0.00     0.000 C 
ENDROOT
BRANCH   1   2
ATOM      2  C   UNL     1      -6.065  26.501  44.352  1.00  0.00     0.000 C 
BRANCH   2   3
ATOM      3  C   UNL     1      -6.440  26.675  45.830  1.00  0.00     0.000 C 
BRANCH   3   4
ATOM      4  C   UNL     1      -6.820  28.129  46.134  1.00  0.00    -0.000 C 
BRANCH   4   5
ATOM      5  C   UNL     1      -5.654  28.876  46.797  1.00  0.00    -0.000 C 
BRANCH   5   6
ATOM      6  C   UNL     1      -6.037  30.296  47.253  1.00  0.00    -0.000 C 
BRANCH   6   7
ATOM      7  C   UNL     1      -7.502  30.686  46.984  1.00  0.00    -0.000 C 
BRANCH   7   8
ATOM      8  C   UNL     1      -7.644  32.096  46.387  1.00  0.00    -0.000 C 
BRANCH   8   9
ATOM      9  C   UNL     1      -6.471  33.021  46.752  1.00  0.00    -0.000 C 
BRANCH   9  10
ATOM     10  C   UNL     1      -6.879  34.219  47.634  1.00  0.00    -0.000 C 
BRANCH  10  11
ATOM     11  C   UNL     1      -5.793  34.588  48.656  1.00  0.00    -0.003 C 
ATOM     12  C   UNL     1      -5.780  33.606  49.823  1.00  0.00     0.004 C 
ENDBRANCH  10  11
ENDBRANCH   9  10
ENDBRANCH   8   9
ENDBRANCH   7   8
ENDBRANCH   6   7
ENDBRANCH   5   6
ENDBRANCH   4   5
ENDBRANCH   3   4
ENDBRANCH   2   3
ENDBRANCH   1   2
BRANCH   1  13
ATOM     13  C   UNL     1      -4.249  27.858  43.075  1.00  0.00     0.000 C 
BRANCH  13  14
ATOM     14  C   UNL     1      -3.903  29.220  43.703  1.00  0.00     0.000 C 
BRANCH  14  15
ATOM     15  C   UNL     1      -5.001  30.275  43.480  1.00  0.00     0.000 C 
BRANCH  15  16
ATOM     16  C   UNL     1      -6.228  29.701  42.753  1.00  0.00     0.000 C 
BRANCH  16  17
ATOM     17  C   UNL     1      -7.540  30.372  43.196  1.00  0.00     0.000 C 
BRANCH  17  18
ATOM     18  C   UNL     1      -8.763  29.447  43.056  1.00  0.00     0.000 C 
BRANCH  18  19
ATOM     19  C   UNL     1      -9.423  29.025  44.382  1.00  0.00     0.000 C 
BRANCH  19  20
ATOM     20  C   UNL     1     -10.133  27.663  44.293  1.00  0.00     0.006 C 
BRANCH  20  21
ATOM     21  C   UNL     1     -10.318  27.202  42.841  1.00  0.00     0.053 C 
BRANCH  21  22
ATOM     22  C   UNL     1     -11.747  27.296  42.404  1.00  0.00     0.041 C 
ATOM     23  O   UNL     1     -12.158  28.317  41.793  1.00  0.00    -0.550 OA
ATOM     24  O   UNL     1     -12.633  26.266  42.695  1.00  0.00    -0.550 OA
ENDBRANCH  21  22
ENDBRANCH  20  21
ENDBRANCH  19  20
ENDBRANCH  18  19
ENDBRANCH  17  18
ENDBRANCH  16  17
ENDBRANCH  15  16
ENDBRANCH  14  15
ENDBRANCH  13  14
ENDBRANCH   1  13
TORSDOF 20
ENDMDL
MODEL 6
REMARK VINA RESULT:    -3.658      1.948      3.875
REMARK INTER + INTRA:         -10.896
REMARK INTER:                  -7.660
REMARK INTRA:                  -3.236
REMARK UNBOUND:                -2.960
REMARK SMILES CCCCCCCCCCCCCCCCCCCCCC(=O)[O-]
REMARK SMILES IDX 12 1 11 2 10 3 9 4 8 5 7 6 6 7 5 8 4 9 3 10 2 11 1 12 13 13
REMARK SMILES IDX 14 14 15 15 16 16 17 17 18 18 19 19 20 20 21 21 22 22 23 23
REMARK SMILES IDX 24 24
REMARK H PARENT
REMARK Flexibility Score: inf
ROOT
ATOM      1  C   UNL     1      -4.852  28.247  46.657  1.00  0.00     0.000 C 
ENDROOT
BRANCH   1   2
ATOM      2  C   UNL     1      -4.255  29.651  46.461  1.00  0.00     0.000 C 
BRANCH   2   3
ATOM      3  C   UNL     1      -5.197  30.771  46.924  1.00  0.00     0.000 C 
BRANCH   3   4
ATOM      4  C   UNL     1      -6.553  30.204  47.359  1.00  0.00    -0.000 C 
BRANCH   4   5
ATOM      5  C   UNL     1      -7.704  31.096  46.873  1.00  0.00    -0.000 C 
BRANCH   5   6
ATOM      6  C   UNL     1      -7.317  32.584  46.799  1.00  0.00    -0.000 C 
BRANCH   6   7
ATOM      7  C   UNL     1      -8.083  33.397  45.739  1.00  0.00    -0.000 C 
BRANCH   7   8
ATOM      8  C   UNL     1      -8.700  32.515  44.642  1.00  0.00    -0.000 C 
BRANCH   8   9
ATOM      9  C   UNL     1      -8.082  32.762  43.256  1.00  0.00    -0.000 C 
BRANCH   9  10
ATOM     10  C   UNL     1      -7.231  31.584  42.739  1.00  0.00    -0.000 C 
BRANCH  10  11
ATOM     11  C   UNL     1      -5.872  31.490  43.448  1.00  0.00    -0.003 C 
ATOM     12  C   UNL     1      -5.013  30.382  42.846  1.00  0.00     0.004 C 
ENDBRANCH  10  11
ENDBRANCH   9  10
ENDBRANCH   8   9
ENDBRANCH   7   8
ENDBRANCH   6   7
ENDBRANCH   5   6
ENDBRANCH   4   5
ENDBRANCH   3   4
ENDBRANCH   2   3
ENDBRANCH   1   2
BRANCH   1  13
ATOM     13  C   UNL     1      -5.101  27.452  45.359  1.00  0.00     0.000 C 
BRANCH  13  14
ATOM     14  C   UNL     1      -6.312  26.502  45.396  1.00  0.00     0.000 C 
BRANCH  14  15
ATOM     15  C   UNL     1      -7.655  27.251  45.429  1.00  0.00     0.000 C 
BRANCH  15  16
ATOM     16  C   UNL     1      -7.750  28.337  44.346  1.00  0.00     0.000 C 
BRANCH  16  17
ATOM     17  C   UNL     1      -9.199  28.781  44.083  1.00  0.00     0.000 C 
BRANCH  17  18
ATOM     18  C   UNL     1     -10.203  27.615  44.139  1.00  0.00     0.000 C 
BRANCH  18  19
ATOM     19  C   UNL     1     -11.025  27.394  42.855  1.00  0.00     0.000 C 
BRANCH  19  20
ATOM     20  C   UNL     1     -12.360  26.674  43.113  1.00  0.00     0.006 C 
BRANCH  20  21
ATOM     21  C   UNL     1     -13.078  26.304  41.809  1.00  0.00     0.053 C 
BRANCH  21  22
ATOM     22  C   UNL     1     -12.768  24.904  41.379  1.00  0.00     0.041 C 
ATOM     23  O   UNL     1     -12.759  23.969  42.222  1.00  0.00    -0.550 OA
ATOM     24  O   UNL     1     -12.462  24.635  40.051  1.00  0.00    -0.550 OA
ENDBRANCH  21  22
ENDBRANCH  20  21
ENDBRANCH  19  20
ENDBRANCH  18  19
ENDBRANCH  17  18
ENDBRANCH  16  17
ENDBRANCH  15  16
ENDBRANCH  14  15
ENDBRANCH  13  14
ENDBRANCH   1  13
TORSDOF 20
ENDMDL
MODEL 7
REMARK VINA RESULT:    -3.653      2.533      6.353
REMARK INTER + INTRA:         -10.885
REMARK INTER:                  -6.306
REMARK INTRA:                  -4.579
REMARK UNBOUND:                -2.960
REMARK SMILES CCCCCCCCCCCCCCCCCCCCCC(=O)[O-]
REMARK SMILES IDX 12 1 11 2 10 3 9 4 8 5 7 6 6 7 5 8 4 9 3 10 2 11 1 12 13 13
REMARK SMILES IDX 14 14 15 15 16 16 17 17 18 18 19 19 20 20 21 21 22 22 23 23
REMARK SMILES IDX 24 24
REMARK H PARENT
REMARK Flexibility Score: inf
ROOT
ATOM      1  C   UNL     1      -7.689  31.078  46.931  1.00  0.00     0.000 C 
ENDROOT
BRANCH   1   2
ATOM      2  C   UNL     1      -8.253  30.097  45.888  1.00  0.00     0.000 C 
BRANCH   2   3
ATOM      3  C   UNL     1      -7.448  28.794  45.796  1.00  0.00     0.000 C 
BRANCH   3   4
ATOM      4  C   UNL     1      -6.238  28.828  46.738  1.00  0.00    -0.000 C 
BRANCH   4   5
ATOM      5  C   UNL     1      -5.242  27.711  46.396  1.00  0.00    -0.000 C 
BRANCH   5   6
ATOM      6  C   UNL     1      -5.930  26.359  46.129  1.00  0.00    -0.000 C 
BRANCH   6   7
ATOM      7  C   UNL     1      -5.683  25.776  44.725  1.00  0.00    -0.000 C 
BRANCH   7   8
ATOM      8  C   UNL     1      -5.075  26.801  43.753  1.00  0.00    -0.000 C 
BRANCH   8   9
ATOM      9  C   UNL     1      -5.956  27.048  42.517  1.00  0.00    -0.000 C 
BRANCH   9  10
ATOM     10  C   UNL     1      -7.429  26.635  42.713  1.00  0.00    -0.000 C 
BRANCH  10  11
ATOM     11  C   UNL     1      -8.404  27.775  42.385  1.00  0.00    -0.003 C 
ATOM     12  C   UNL     1      -9.711  27.621  43.156  1.00  0.00     0.004 C 
ENDBRANCH  10  11
ENDBRANCH   9  10
ENDBRANCH   8   9
ENDBRANCH   7   8
ENDBRANCH   6   7
ENDBRANCH   5   6
ENDBRANCH   4   5
ENDBRANCH   3   4
ENDBRANCH   2   3
ENDBRANCH   1   2
BRANCH   1  13
ATOM     13  C   UNL     1      -7.573  32.543  46.459  1.00  0.00     0.000 C 
BRANCH  13  14
ATOM     14  C   UNL     1      -6.175  33.169  46.609  1.00  0.00     0.000 C 
BRANCH  14  15
ATOM     15  C   UNL     1      -5.224  32.307  47.457  1.00  0.00     0.000 C 
BRANCH  15  16
ATOM     16  C   UNL     1      -3.975  31.868  46.677  1.00  0.00     0.000 C 
BRANCH  16  17
ATOM     17  C   UNL     1      -4.155  32.003  45.154  1.00  0.00     0.000 C 
BRANCH  17  18
ATOM     18  C   UNL     1      -4.182  30.644  44.431  1.00  0.00     0.000 C 
BRANCH  18  19
ATOM     19  C   UNL     1      -5.150  30.554  43.237  1.00  0.00     0.000 C 
BRANCH  19  20
ATOM     20  C   UNL     1      -6.042  31.799  43.093  1.00  0.00     0.006 C 
BRANCH  20  21
ATOM     21  C   UNL     1      -7.448  31.447  42.589  1.00  0.00     0.053 C 
BRANCH  21  22
ATOM     22  C   UNL     1      -8.393  32.602  42.723  1.00  0.00     0.041 C 
ATOM     23  O   UNL     1      -8.117  33.712  42.196  1.00  0.00    -0.550 OA
ATOM     24  O   UNL     1      -9.568  32.459  43.450  1.00  0.00    -0.550 OA
ENDBRANCH  21  22
ENDBRANCH  20  21
ENDBRANCH  19  20
ENDBRANCH  18  19
ENDBRANCH  17  18
ENDBRANCH  16  17
ENDBRANCH  15  16
ENDBRANCH  14  15
ENDBRANCH  13  14
ENDBRANCH   1  13
TORSDOF 20
ENDMDL
MODEL 8
REMARK VINA RESULT:    -3.624      1.727      3.427
REMARK INTER + INTRA:         -10.822
REMARK INTER:                  -6.582
REMARK INTRA:                  -4.240
REMARK UNBOUND:                -2.960
REMARK SMILES CCCCCCCCCCCCCCCCCCCCCC(=O)[O-]
REMARK SMILES IDX 12 1 11 2 10 3 9 4 8 5 7 6 6 7 5 8 4 9 3 10 2 11 1 12 13 13
REMARK SMILES IDX 14 14 15 15 16 16 17 17 18 18 19 19 20 20 21 21 22 22 23 23
REMARK SMILES IDX 24 24
REMARK H PARENT
REMARK Flexibility Score: inf
ROOT
ATOM      1  C   UNL     1      -7.353  28.846  45.135  1.00  0.00     0.000 C 
ENDROOT
BRANCH   1   2
ATOM      2  C   UNL     1      -8.352  29.857  45.724  1.00  0.00     0.000 C 
BRANCH   2   3
ATOM      3  C   UNL     1      -7.889  30.444  47.064  1.00  0.00     0.000 C 
BRANCH   3   4
ATOM      4  C   UNL     1      -6.373  30.290  47.237  1.00  0.00    -0.000 C 
BRANCH   4   5
ATOM      5  C   UNL     1      -5.711  31.646  47.521  1.00  0.00    -0.000 C 
BRANCH   5   6
ATOM      6  C   UNL     1      -6.714  32.815  47.507  1.00  0.00    -0.000 C 
BRANCH   6   7
ATOM      7  C   UNL     1      -6.488  33.844  46.384  1.00  0.00    -0.000 C 
BRANCH   7   8
ATOM      8  C   UNL     1      -7.280  33.517  45.108  1.00  0.00    -0.000 C 
BRANCH   8   9
ATOM      9  C   UNL     1      -6.377  33.299  43.883  1.00  0.00    -0.000 C 
BRANCH   9  10
ATOM     10  C   UNL     1      -5.831  31.860  43.763  1.00  0.00    -0.000 C 
BRANCH  10  11
ATOM     11  C   UNL     1      -4.325  31.781  44.054  1.00  0.00    -0.003 C 
ATOM     12  C   UNL     1      -3.908  30.358  44.410  1.00  0.00     0.004 C 
ENDBRANCH  10  11
ENDBRANCH   9  10
ENDBRANCH   8   9
ENDBRANCH   7   8
ENDBRANCH   6   7
ENDBRANCH   5   6
ENDBRANCH   4   5
ENDBRANCH   3   4
ENDBRANCH   2   3
ENDBRANCH   1   2
BRANCH   1  13
ATOM     13  C   UNL     1      -7.661  27.365  45.442  1.00  0.00     0.000 C 
BRANCH  13  14
ATOM     14  C   UNL     1      -6.522  26.590  46.129  1.00  0.00     0.000 C 
BRANCH  14  15
ATOM     15  C   UNL     1      -5.129  27.007  45.625  1.00  0.00     0.000 C 
BRANCH  15  16
ATOM     16  C   UNL     1      -4.637  26.130  44.463  1.00  0.00     0.000 C 
BRANCH  16  17
ATOM     17  C   UNL     1      -4.442  26.931  43.163  1.00  0.00     0.000 C 
BRANCH  17  18
ATOM     18  C   UNL     1      -5.716  26.993  42.300  1.00  0.00     0.000 C 
BRANCH  18  19
ATOM     19  C   UNL     1      -6.599  25.732  42.339  1.00  0.00     0.000 C 
BRANCH  19  20
ATOM     20  C   UNL     1      -8.054  26.004  41.920  1.00  0.00     0.006 C 
BRANCH  20  21
ATOM     21  C   UNL     1      -8.327  27.501  41.721  1.00  0.00     0.053 C 
BRANCH  21  22
ATOM     22  C   UNL     1      -9.618  27.921  42.352  1.00  0.00     0.041 C 
ATOM     23  O   UNL     1     -10.342  27.074  42.938  1.00  0.00    -0.550 OA
ATOM     24  O   UNL     1     -10.034  29.244  42.272  1.00  0.00    -0.550 OA
ENDBRANCH  21  22
ENDBRANCH  20  21
ENDBRANCH  19  20
ENDBRANCH  18  19
ENDBRANCH  17  18
ENDBRANCH  16  17
ENDBRANCH  15  16
ENDBRANCH  14  15
ENDBRANCH  13  14
ENDBRANCH   1  13
TORSDOF 20
ENDMDL
MODEL 9
REMARK VINA RESULT:    -3.581      1.836      4.523
REMARK INTER + INTRA:         -10.729
REMARK INTER:                  -6.451
REMARK INTRA:                  -4.278
REMARK UNBOUND:                -2.960
REMARK SMILES CCCCCCCCCCCCCCCCCCCCCC(=O)[O-]
REMARK SMILES IDX 12 1 11 2 10 3 9 4 8 5 7 6 6 7 5 8 4 9 3 10 2 11 1 12 13 13
REMARK SMILES IDX 14 14 15 15 16 16 17 17 18 18 19 19 20 20 21 21 22 22 23 23
REMARK SMILES IDX 24 24
REMARK H PARENT
REMARK Flexibility Score: inf
ROOT
ATOM      1  C   UNL     1      -7.617  33.549  46.553  1.00  0.00     0.000 C 
ENDROOT
BRANCH   1   2
ATOM      2  C   UNL     1      -6.251  34.196  46.264  1.00  0.00     0.000 C 
BRANCH   2   3
ATOM      3  C   UNL     1      -5.120  33.613  47.121  1.00  0.00     0.000 C 
BRANCH   3   4
ATOM      4  C   UNL     1      -4.137  32.808  46.261  1.00  0.00    -0.000 C 
BRANCH   4   5
ATOM      5  C   UNL     1      -4.458  32.964  44.768  1.00  0.00    -0.000 C 
BRANCH   5   6
ATOM      6  C   UNL     1      -4.202  31.675  43.964  1.00  0.00    -0.000 C 
BRANCH   6   7
ATOM      7  C   UNL     1      -5.179  31.438  42.798  1.00  0.00    -0.000 C 
BRANCH   7   8
ATOM      8  C   UNL     1      -5.801  32.740  42.267  1.00  0.00    -0.000 C 
BRANCH   8   9
ATOM      9  C   UNL     1      -7.302  32.606  41.964  1.00  0.00    -0.000 C 
BRANCH   9  10
ATOM     10  C   UNL     1      -7.796  31.146  41.911  1.00  0.00    -0.000 C 
BRANCH  10  11
ATOM     11  C   UNL     1      -9.317  31.036  42.094  1.00  0.00    -0.003 C 
ATOM     12  C   UNL     1      -9.951  32.413  42.266  1.00  0.00     0.004 C 
ENDBRANCH  10  11
ENDBRANCH   9  10
ENDBRANCH   8   9
ENDBRANCH   7   8
ENDBRANCH   6   7
ENDBRANCH   5   6
ENDBRANCH   4   5
ENDBRANCH   3   4
ENDBRANCH   2   3
ENDBRANCH   1   2
BRANCH   1  13
ATOM     13  C   UNL     1      -8.156  32.628  45.439  1.00  0.00     0.000 C 
BRANCH  13  14
ATOM     14  C   UNL     1      -7.880  31.127  45.641  1.00  0.00     0.000 C 
BRANCH  14  15
ATOM     15  C   UNL     1      -7.548  30.774  47.102  1.00  0.00     0.000 C 
BRANCH  15  16
ATOM     16  C   UNL     1      -6.250  29.961  47.229  1.00  0.00     0.000 C 
BRANCH  16  17
ATOM     17  C   UNL     1      -5.914  29.184  45.945  1.00  0.00     0.000 C 
BRANCH  17  18
ATOM     18  C   UNL     1      -6.140  27.667  46.084  1.00  0.00     0.000 C 
BRANCH  18  19
ATOM     19  C   UNL     1      -7.535  27.169  45.662  1.00  0.00     0.000 C 
BRANCH  19  20
ATOM     20  C   UNL     1      -7.986  27.728  44.302  1.00  0.00     0.006 C 
BRANCH  20  21
ATOM     21  C   UNL     1      -9.506  27.926  44.234  1.00  0.00     0.053 C 
BRANCH  21  22
ATOM     22  C   UNL     1     -10.075  27.436  42.938  1.00  0.00     0.041 C 
ATOM     23  O   UNL     1     -11.167  27.895  42.511  1.00  0.00    -0.550 OA
ATOM     24  O   UNL     1      -9.411  26.454  42.214  1.00  0.00    -0.550 OA
ENDBRANCH  21  22
ENDBRANCH  20  21
ENDBRANCH  19  20
ENDBRANCH  18  19
ENDBRANCH  17  18
ENDBRANCH  16  17
ENDBRANCH  15  16
ENDBRANCH  14  15
ENDBRANCH  13  14
ENDBRANCH   1  13
TORSDOF 20
ENDMDL
