MODEL 1
REMARK VINA RESULT:    -6.671      0.000      0.000
REMARK INTER + INTRA:          -8.093
REMARK INTER:                  -8.036
REMARK INTRA:                  -0.057
REMARK UNBOUND:                -0.057
REMARK SMILES O=c1c(O)c(-c2ccc(O)c(O)c2)oc2cc(O)cc(O)c12
REMARK SMILES IDX 5 1 3 2 2 3 1 4 22 5 20 6 19 7 17 8 16 9 15 10 14 11 6 12
REMARK SMILES IDX 7 13 8 14 9 15 13 16 11 17 10 18 12 20 4 22 21 24 18 26
REMARK H PARENT 10 19 12 21 4 23 21 25 18 27
REMARK Flexibility Score: inf
ROOT
ATOM      1  C   UNL     1     110.381 102.981  97.190  1.00  0.00     0.180 A 
ATOM      2  C   UNL     1     109.982 102.821  98.528  1.00  0.00     0.208 A 
ATOM      3  C   UNL     1     110.720 103.455  99.540  1.00  0.00     0.238 A 
ATOM      4  O   UNL     1     110.391 103.262 100.739  1.00  0.00    -0.285 OA
ATOM      5  C   UNL     1     111.838 104.255  99.201  1.00  0.00     0.111 A 
ATOM      6  C   UNL     1     112.634 104.975 100.141  1.00  0.00     0.134 A 
ATOM      7  C   UNL     1     113.794 105.628  99.707  1.00  0.00     0.093 A 
ATOM      8  C   UNL     1     114.150 105.641  98.357  1.00  0.00     0.123 A 
ATOM      9  C   UNL     1     113.348 104.991  97.423  1.00  0.00     0.094 A 
ATOM     10  C   UNL     1     112.204 104.299  97.831  1.00  0.00     0.146 A 
ATOM     11  O   UNL     1     111.472 103.684  96.909  1.00  0.00    -0.452 OA
ENDROOT
BRANCH   1  12
ATOM     12  C   UNL     1     109.639 102.365  96.066  1.00  0.00     0.025 A 
ATOM     13  C   UNL     1     108.255 102.549  95.916  1.00  0.00     0.016 A 
ATOM     14  C   UNL     1     107.582 101.977  94.835  1.00  0.00     0.051 A 
ATOM     15  C   UNL     1     108.272 101.224  93.879  1.00  0.00     0.157 A 
ATOM     16  C   UNL     1     110.337 101.628  95.098  1.00  0.00     0.062 A 
ATOM     17  C   UNL     1     109.670 101.050  94.010  1.00  0.00     0.158 A 
BRANCH  15  18
ATOM     18  O   UNL     1     107.538 100.677  92.826  1.00  0.00    -0.504 OA
ATOM     19  H   UNL     1     107.170 101.216  92.053  1.00  0.00     0.293 HD
ENDBRANCH  15  18
BRANCH  17  20
ATOM     20  O   UNL     1     110.428 100.321  93.092  1.00  0.00    -0.504 OA
ATOM     21  H   UNL     1     111.359  99.977  93.275  1.00  0.00     0.293 HD
ENDBRANCH  17  20
ENDBRANCH   1  12
BRANCH   2  22
ATOM     22  O   UNL     1     108.888 102.008  98.843  1.00  0.00    -0.502 OA
ATOM     23  H   UNL     1     108.712 101.673  99.783  1.00  0.00     0.293 HD
ENDBRANCH   2  22
BRANCH   6  24
ATOM     24  O   UNL     1     112.316 105.102 101.496  1.00  0.00    -0.507 OA
ATOM     25  H   UNL     1     112.201 104.330 102.135  1.00  0.00     0.293 HD
ENDBRANCH   6  24
BRANCH   8  26
ATOM     26  O   UNL     1     115.298 106.308  97.930  1.00  0.00    -0.508 OA
ATOM     27  H   UNL     1     115.287 107.298  97.720  1.00  0.00     0.293 HD
ENDBRANCH   8  26
TORSDOF 6
ENDMDL
MODEL 2
REMARK VINA RESULT:    -6.310     10.158     11.484
REMARK INTER + INTRA:          -7.658
REMARK INTER:                  -7.324
REMARK INTRA:                  -0.334
REMARK UNBOUND:                -0.057
REMARK SMILES O=c1c(O)c(-c2ccc(O)c(O)c2)oc2cc(O)cc(O)c12
REMARK SMILES IDX 5 1 3 2 2 3 1 4 22 5 20 6 19 7 17 8 16 9 15 10 14 11 6 12
REMARK SMILES IDX 7 13 8 14 9 15 13 16 11 17 10 18 12 20 4 22 21 24 18 26
REMARK H PARENT 10 19 12 21 4 23 21 25 18 27
REMARK Flexibility Score: inf
ROOT
ATOM      1  C   UNL     1     110.690 113.114  93.086  1.00  0.00     0.180 A 
ATOM      2  C   UNL     1     111.431 112.724  94.215  1.00  0.00     0.208 A 
ATOM      3  C   UNL     1     112.792 112.412  94.062  1.00  0.00     0.238 A 
ATOM      4  O   UNL     1     113.436 112.010  95.066  1.00  0.00    -0.285 OA
ATOM      5  C   UNL     1     113.398 112.510  92.786  1.00  0.00     0.111 A 
ATOM      6  C   UNL     1     114.778 112.257  92.523  1.00  0.00     0.134 A 
ATOM      7  C   UNL     1     115.240 112.257  91.201  1.00  0.00     0.093 A 
ATOM      8  C   UNL     1     114.387 112.566  90.140  1.00  0.00     0.123 A 
ATOM      9  C   UNL     1     113.052 112.873  90.392  1.00  0.00     0.094 A 
ATOM     10  C   UNL     1     112.552 112.845  91.697  1.00  0.00     0.146 A 
ATOM     11  O   UNL     1     111.271 113.133  91.893  1.00  0.00    -0.452 OA
ENDROOT
BRANCH   1  12
ATOM     12  C   UNL     1     109.258 113.482  93.172  1.00  0.00     0.025 A 
ATOM     13  C   UNL     1     108.858 114.797  93.460  1.00  0.00     0.016 A 
ATOM     14  C   UNL     1     107.501 115.125  93.512  1.00  0.00     0.051 A 
ATOM     15  C   UNL     1     106.521 114.157  93.267  1.00  0.00     0.157 A 
ATOM     16  C   UNL     1     108.278 112.514  92.905  1.00  0.00     0.062 A 
ATOM     17  C   UNL     1     106.915 112.834  92.955  1.00  0.00     0.158 A 
BRANCH  15  18
ATOM     18  O   UNL     1     105.184 114.550  93.339  1.00  0.00    -0.504 OA
ATOM     19  H   UNL     1     104.675 114.964  92.570  1.00  0.00     0.293 HD
ENDBRANCH  15  18
BRANCH  17  20
ATOM     20  O   UNL     1     105.996 111.817  92.689  1.00  0.00    -0.504 OA
ATOM     21  H   UNL     1     106.185 110.835  92.826  1.00  0.00     0.293 HD
ENDBRANCH  17  20
ENDBRANCH   1  12
BRANCH   2  22
ATOM     22  O   UNL     1     110.808 112.611  95.461  1.00  0.00    -0.502 OA
ATOM     23  H   UNL     1     110.443 113.414  95.961  1.00  0.00     0.293 HD
ENDBRANCH   2  22
BRANCH   6  24
ATOM     24  O   UNL     1     115.732 112.029  93.518  1.00  0.00    -0.507 OA
ATOM     25  H   UNL     1     115.616 112.266  94.492  1.00  0.00     0.293 HD
ENDBRANCH   6  24
BRANCH   8  26
ATOM     26  O   UNL     1     114.859 112.580  88.829  1.00  0.00    -0.508 OA
ATOM     27  H   UNL     1     114.984 113.447  88.321  1.00  0.00     0.293 HD
ENDBRANCH   8  26
TORSDOF 6
ENDMDL
MODEL 3
REMARK VINA RESULT:    -6.252      8.404      9.173
REMARK INTER + INTRA:          -7.587
REMARK INTER:                  -7.345
REMARK INTRA:                  -0.242
REMARK UNBOUND:                -0.057
REMARK SMILES O=c1c(O)c(-c2ccc(O)c(O)c2)oc2cc(O)cc(O)c12
REMARK SMILES IDX 5 1 3 2 2 3 1 4 22 5 20 6 19 7 17 8 16 9 15 10 14 11 6 12
REMARK SMILES IDX 7 13 8 14 9 15 13 16 11 17 10 18 12 20 4 22 21 24 18 26
REMARK H PARENT 10 19 12 21 4 23 21 25 18 27
REMARK Flexibility Score: inf
ROOT
ATOM      1  C   UNL     1     105.989 109.193  95.615  1.00  0.00     0.180 A 
ATOM      2  C   UNL     1     104.877 109.845  96.175  1.00  0.00     0.208 A 
ATOM      3  C   UNL     1     104.621 111.180  95.823  1.00  0.00     0.238 A 
ATOM      4  O   UNL     1     103.656 111.775  96.369  1.00  0.00    -0.285 OA
ATOM      5  C   UNL     1     105.471 111.841  94.903  1.00  0.00     0.111 A 
ATOM      6  C   UNL     1     105.284 113.179  94.445  1.00  0.00     0.134 A 
ATOM      7  C   UNL     1     106.260 113.775  93.636  1.00  0.00     0.093 A 
ATOM      8  C   UNL     1     107.382 113.059  93.216  1.00  0.00     0.123 A 
ATOM      9  C   UNL     1     107.544 111.733  93.610  1.00  0.00     0.094 A 
ATOM     10  C   UNL     1     106.606 111.122  94.447  1.00  0.00     0.146 A 
ATOM     11  O   UNL     1     106.804 109.860  94.807  1.00  0.00    -0.452 OA
ENDROOT
BRANCH   1  12
ATOM     12  C   UNL     1     106.309 107.779  95.919  1.00  0.00     0.025 A 
ATOM     13  C   UNL     1     106.829 107.399  97.166  1.00  0.00     0.016 A 
ATOM     14  C   UNL     1     107.100 106.057  97.438  1.00  0.00     0.051 A 
ATOM     15  C   UNL     1     106.847 105.068  96.481  1.00  0.00     0.157 A 
ATOM     16  C   UNL     1     106.033 106.787  94.965  1.00  0.00     0.062 A 
ATOM     17  C   UNL     1     106.302 105.438  95.228  1.00  0.00     0.158 A 
BRANCH  15  18
ATOM     18  O   UNL     1     107.144 103.746  96.815  1.00  0.00    -0.504 OA
ATOM     19  H   UNL     1     107.728 103.140  96.255  1.00  0.00     0.293 HD
ENDBRANCH  15  18
BRANCH  17  20
ATOM     20  O   UNL     1     106.013 104.508  94.228  1.00  0.00    -0.504 OA
ATOM     21  H   UNL     1     106.087 103.508  94.347  1.00  0.00     0.293 HD
ENDBRANCH  17  20
ENDBRANCH   1  12
BRANCH   2  22
ATOM     22  O   UNL     1     104.063 109.181  97.099  1.00  0.00    -0.502 OA
ATOM     23  H   UNL     1     103.443 108.425  96.833  1.00  0.00     0.293 HD
ENDBRANCH   2  22
BRANCH   6  24
ATOM     24  O   UNL     1     104.154 113.951  94.730  1.00  0.00    -0.507 OA
ATOM     25  H   UNL     1     104.175 114.903  95.064  1.00  0.00     0.293 HD
ENDBRANCH   6  24
BRANCH   8  26
ATOM     26  O   UNL     1     108.340 113.654  92.398  1.00  0.00    -0.508 OA
ATOM     27  H   UNL     1     108.601 114.626  92.509  1.00  0.00     0.293 HD
ENDBRANCH   8  26
TORSDOF 6
ENDMDL
MODEL 4
REMARK VINA RESULT:    -6.168      9.133     10.101
REMARK INTER + INTRA:          -7.487
REMARK INTER:                  -7.470
REMARK INTRA:                  -0.017
REMARK UNBOUND:                -0.057
REMARK SMILES O=c1c(O)c(-c2ccc(O)c(O)c2)oc2cc(O)cc(O)c12
REMARK SMILES IDX 5 1 3 2 2 3 1 4 22 5 20 6 19 7 17 8 16 9 15 10 14 11 6 12
REMARK SMILES IDX 7 13 8 14 9 15 13 16 11 17 10 18 12 20 4 22 21 24 18 26
REMARK H PARENT 10 19 12 21 4 23 21 25 18 27
REMARK Flexibility Score: inf
ROOT
ATOM      1  C   UNL     1     105.652 110.150  95.705  1.00  0.00     0.180 A 
ATOM      2  C   UNL     1     104.597 111.069  95.845  1.00  0.00     0.208 A 
ATOM      3  C   UNL     1     104.681 112.309  95.192  1.00  0.00     0.238 A 
ATOM      4  O   UNL     1     103.760 113.147  95.367  1.00  0.00    -0.285 OA
ATOM      5  C   UNL     1     105.812 112.609  94.394  1.00  0.00     0.111 A 
ATOM      6  C   UNL     1     105.984 113.818  93.656  1.00  0.00     0.134 A 
ATOM      7  C   UNL     1     107.200 114.063  93.006  1.00  0.00     0.093 A 
ATOM      8  C   UNL     1     108.224 113.114  93.013  1.00  0.00     0.123 A 
ATOM      9  C   UNL     1     108.043 111.906  93.682  1.00  0.00     0.094 A 
ATOM     10  C   UNL     1     106.855 111.648  94.370  1.00  0.00     0.146 A 
ATOM     11  O   UNL     1     106.727 110.487  95.003  1.00  0.00    -0.452 OA
ENDROOT
BRANCH   1  12
ATOM     12  C   UNL     1     105.624 108.814  96.342  1.00  0.00     0.025 A 
ATOM     13  C   UNL     1     105.840 107.644  95.597  1.00  0.00     0.016 A 
ATOM     14  C   UNL     1     105.833 106.397  96.224  1.00  0.00     0.051 A 
ATOM     15  C   UNL     1     105.624 106.291  97.604  1.00  0.00     0.157 A 
ATOM     16  C   UNL     1     105.436 108.713  97.729  1.00  0.00     0.062 A 
ATOM     17  C   UNL     1     105.427 107.466  98.368  1.00  0.00     0.158 A 
BRANCH  15  18
ATOM     18  O   UNL     1     105.625 105.015  98.168  1.00  0.00    -0.504 OA
ATOM     19  H   UNL     1     106.219 104.260  97.855  1.00  0.00     0.293 HD
ENDBRANCH  15  18
BRANCH  17  20
ATOM     20  O   UNL     1     105.222 107.442  99.749  1.00  0.00    -0.504 OA
ATOM     21  H   UNL     1     105.465 108.200 100.369  1.00  0.00     0.293 HD
ENDBRANCH  17  20
ENDBRANCH   1  12
BRANCH   2  22
ATOM     22  O   UNL     1     103.501 110.761  96.657  1.00  0.00    -0.502 OA
ATOM     23  H   UNL     1     103.527 110.853  97.665  1.00  0.00     0.293 HD
ENDBRANCH   2  22
BRANCH   6  24
ATOM     24  O   UNL     1     104.990 114.790  93.508  1.00  0.00    -0.507 OA
ATOM     25  H   UNL     1     104.119 114.803  94.015  1.00  0.00     0.293 HD
ENDBRANCH   6  24
BRANCH   8  26
ATOM     26  O   UNL     1     109.425 113.359  92.350  1.00  0.00    -0.508 OA
ATOM     27  H   UNL     1     109.579 113.043  91.400  1.00  0.00     0.293 HD
ENDBRANCH   8  26
TORSDOF 6
ENDMDL
MODEL 5
REMARK VINA RESULT:    -6.152      4.688      7.297
REMARK INTER + INTRA:          -7.468
REMARK INTER:                  -7.137
REMARK INTRA:                  -0.331
REMARK UNBOUND:                -0.057
REMARK SMILES O=c1c(O)c(-c2ccc(O)c(O)c2)oc2cc(O)cc(O)c12
REMARK SMILES IDX 5 1 3 2 2 3 1 4 22 5 20 6 19 7 17 8 16 9 15 10 14 11 6 12
REMARK SMILES IDX 7 13 8 14 9 15 13 16 11 17 10 18 12 20 4 22 21 24 18 26
REMARK H PARENT 10 19 12 21 4 23 21 25 18 27
REMARK Flexibility Score: inf
ROOT
ATOM      1  C   UNL     1     106.118 103.544  97.061  1.00  0.00     0.180 A 
ATOM      2  C   UNL     1     106.356 103.600  95.676  1.00  0.00     0.208 A 
ATOM      3  C   UNL     1     107.242 102.676  95.099  1.00  0.00     0.238 A 
ATOM      4  O   UNL     1     107.493 102.766  93.870  1.00  0.00    -0.285 OA
ATOM      5  C   UNL     1     107.867 101.698  95.911  1.00  0.00     0.111 A 
ATOM      6  C   UNL     1     108.751 100.688  95.427  1.00  0.00     0.134 A 
ATOM      7  C   UNL     1     109.413  99.856  96.338  1.00  0.00     0.093 A 
ATOM      8  C   UNL     1     109.172  99.954  97.710  1.00  0.00     0.123 A 
ATOM      9  C   UNL     1     108.266 100.897  98.187  1.00  0.00     0.094 A 
ATOM     10  C   UNL     1     107.617 101.767  97.306  1.00  0.00     0.146 A 
ATOM     11  O   UNL     1     106.768 102.658  97.804  1.00  0.00    -0.452 OA
ENDROOT
BRANCH   1  12
ATOM     12  C   UNL     1     105.178 104.468  97.736  1.00  0.00     0.025 A 
ATOM     13  C   UNL     1     103.803 104.191  97.805  1.00  0.00     0.016 A 
ATOM     14  C   UNL     1     102.940 105.066  98.468  1.00  0.00     0.051 A 
ATOM     15  C   UNL     1     103.429 106.222  99.086  1.00  0.00     0.157 A 
ATOM     16  C   UNL     1     105.674 105.616  98.373  1.00  0.00     0.062 A 
ATOM     17  C   UNL     1     104.817 106.499  99.041  1.00  0.00     0.158 A 
BRANCH  15  18
ATOM     18  O   UNL     1     102.513 107.056  99.729  1.00  0.00    -0.504 OA
ATOM     19  H   UNL     1     101.513 107.006  99.593  1.00  0.00     0.293 HD
ENDBRANCH  15  18
BRANCH  17  20
ATOM     20  O   UNL     1     105.380 107.627  99.642  1.00  0.00    -0.504 OA
ATOM     21  H   UNL     1     105.308 108.561  99.267  1.00  0.00     0.293 HD
ENDBRANCH  17  20
ENDBRANCH   1  12
BRANCH   2  22
ATOM     22  O   UNL     1     105.746 104.588  94.897  1.00  0.00    -0.502 OA
ATOM     23  H   UNL     1     106.277 105.258  94.354  1.00  0.00     0.293 HD
ENDBRANCH   2  22
BRANCH   6  24
ATOM     24  O   UNL     1     108.990 100.445  94.071  1.00  0.00    -0.507 OA
ATOM     25  H   UNL     1     108.441  99.828  93.492  1.00  0.00     0.293 HD
ENDBRANCH   6  24
BRANCH   8  26
ATOM     26  O   UNL     1     109.823  99.111  98.608  1.00  0.00    -0.508 OA
ATOM     27  H   UNL     1     109.320  98.638  99.349  1.00  0.00     0.293 HD
ENDBRANCH   8  26
TORSDOF 6
ENDMDL
MODEL 6
REMARK VINA RESULT:    -6.136      4.475      5.973
REMARK INTER + INTRA:          -7.448
REMARK INTER:                  -7.192
REMARK INTRA:                  -0.256
REMARK UNBOUND:                -0.057
REMARK SMILES O=c1c(O)c(-c2ccc(O)c(O)c2)oc2cc(O)cc(O)c12
REMARK SMILES IDX 5 1 3 2 2 3 1 4 22 5 20 6 19 7 17 8 16 9 15 10 14 11 6 12
REMARK SMILES IDX 7 13 8 14 9 15 13 16 11 17 10 18 12 20 4 22 21 24 18 26
REMARK H PARENT 10 19 12 21 4 23 21 25 18 27
REMARK Flexibility Score: inf
ROOT
ATOM      1  C   UNL     1     106.884 104.150  96.644  1.00  0.00     0.180 A 
ATOM      2  C   UNL     1     106.230 104.052  97.884  1.00  0.00     0.208 A 
ATOM      3  C   UNL     1     105.500 105.153  98.359  1.00  0.00     0.238 A 
ATOM      4  O   UNL     1     104.964 105.079  99.495  1.00  0.00    -0.285 OA
ATOM      5  C   UNL     1     105.420 106.333  97.580  1.00  0.00     0.111 A 
ATOM      6  C   UNL     1     104.676 107.495  97.945  1.00  0.00     0.134 A 
ATOM      7  C   UNL     1     104.774 108.652  97.161  1.00  0.00     0.093 A 
ATOM      8  C   UNL     1     105.537 108.667  95.992  1.00  0.00     0.123 A 
ATOM      9  C   UNL     1     106.219 107.519  95.596  1.00  0.00     0.094 A 
ATOM     10  C   UNL     1     106.170 106.361  96.377  1.00  0.00     0.146 A 
ATOM     11  O   UNL     1     106.844 105.292  95.968  1.00  0.00    -0.452 OA
ENDROOT
BRANCH   1  12
ATOM     12  C   UNL     1     107.652 103.022  96.066  1.00  0.00     0.025 A 
ATOM     13  C   UNL     1     108.908 102.658  96.575  1.00  0.00     0.016 A 
ATOM     14  C   UNL     1     109.602 101.576  96.029  1.00  0.00     0.051 A 
ATOM     15  C   UNL     1     109.054 100.830  94.979  1.00  0.00     0.157 A 
ATOM     16  C   UNL     1     107.090 102.264  95.028  1.00  0.00     0.062 A 
ATOM     17  C   UNL     1     107.779 101.177  94.474  1.00  0.00     0.158 A 
BRANCH  15  18
ATOM     18  O   UNL     1     109.802  99.764  94.477  1.00  0.00    -0.504 OA
ATOM     19  H   UNL     1     110.244  99.063  95.055  1.00  0.00     0.293 HD
ENDBRANCH  15  18
BRANCH  17  20
ATOM     20  O   UNL     1     107.163 100.475  93.435  1.00  0.00    -0.504 OA
ATOM     21  H   UNL     1     107.275 100.700  92.458  1.00  0.00     0.293 HD
ENDBRANCH  17  20
ENDBRANCH   1  12
BRANCH   2  22
ATOM     22  O   UNL     1     106.341 102.885  98.648  1.00  0.00    -0.502 OA
ATOM     23  H   UNL     1     105.819 102.744  99.504  1.00  0.00     0.293 HD
ENDBRANCH   2  22
BRANCH   6  24
ATOM     24  O   UNL     1     103.812 107.556  99.042  1.00  0.00    -0.507 OA
ATOM     25  H   UNL     1     103.785 108.309  99.713  1.00  0.00     0.293 HD
ENDBRANCH   6  24
BRANCH   8  26
ATOM     26  O   UNL     1     105.616 109.817  95.209  1.00  0.00    -0.508 OA
ATOM     27  H   UNL     1     104.883 110.062  94.554  1.00  0.00     0.293 HD
ENDBRANCH   8  26
TORSDOF 6
ENDMDL
MODEL 7
REMARK VINA RESULT:    -6.050      9.554     10.928
REMARK INTER + INTRA:          -7.344
REMARK INTER:                  -7.178
REMARK INTRA:                  -0.166
REMARK UNBOUND:                -0.057
REMARK SMILES O=c1c(O)c(-c2ccc(O)c(O)c2)oc2cc(O)cc(O)c12
REMARK SMILES IDX 5 1 3 2 2 3 1 4 22 5 20 6 19 7 17 8 16 9 15 10 14 11 6 12
REMARK SMILES IDX 7 13 8 14 9 15 13 16 11 17 10 18 12 20 4 22 21 24 18 26
REMARK H PARENT 10 19 12 21 4 23 21 25 18 27
REMARK Flexibility Score: inf
ROOT
ATOM      1  C   UNL     1     105.624 110.324  96.017  1.00  0.00     0.180 A 
ATOM      2  C   UNL     1     106.397 110.619  94.880  1.00  0.00     0.208 A 
ATOM      3  C   UNL     1     106.180 111.831  94.205  1.00  0.00     0.238 A 
ATOM      4  O   UNL     1     106.837 112.065  93.157  1.00  0.00    -0.285 OA
ATOM      5  C   UNL     1     105.205 112.740  94.684  1.00  0.00     0.111 A 
ATOM      6  C   UNL     1     104.930 114.013  94.102  1.00  0.00     0.134 A 
ATOM      7  C   UNL     1     103.855 114.773  94.579  1.00  0.00     0.093 A 
ATOM      8  C   UNL     1     103.087 114.334  95.660  1.00  0.00     0.123 A 
ATOM      9  C   UNL     1     103.386 113.120  96.273  1.00  0.00     0.094 A 
ATOM     10  C   UNL     1     104.429 112.322  95.795  1.00  0.00     0.146 A 
ATOM     11  O   UNL     1     104.674 111.167  96.402  1.00  0.00    -0.452 OA
ENDROOT
BRANCH   1  12
ATOM     12  C   UNL     1     105.812 109.078  96.796  1.00  0.00     0.025 A 
ATOM     13  C   UNL     1     105.536 107.820  96.238  1.00  0.00     0.016 A 
ATOM     14  C   UNL     1     105.743 106.658  96.984  1.00  0.00     0.051 A 
ATOM     15  C   UNL     1     106.240 106.725  98.290  1.00  0.00     0.157 A 
ATOM     16  C   UNL     1     106.330 109.148  98.097  1.00  0.00     0.062 A 
ATOM     17  C   UNL     1     106.542 107.988  98.854  1.00  0.00     0.158 A 
BRANCH  15  18
ATOM     18  O   UNL     1     106.421 105.527  98.982  1.00  0.00    -0.504 OA
ATOM     19  H   UNL     1     105.664 104.925  99.276  1.00  0.00     0.293 HD
ENDBRANCH  15  18
BRANCH  17  20
ATOM     20  O   UNL     1     107.049 108.135 100.146  1.00  0.00    -0.504 OA
ATOM     21  H   UNL     1     107.064 107.397 100.835  1.00  0.00     0.293 HD
ENDBRANCH  17  20
ENDBRANCH   1  12
BRANCH   2  22
ATOM     22  O   UNL     1     107.338 109.698  94.411  1.00  0.00    -0.502 OA
ATOM     23  H   UNL     1     107.838 109.827  93.540  1.00  0.00     0.293 HD
ENDBRANCH   2  22
BRANCH   6  24
ATOM     24  O   UNL     1     105.693 114.585  93.080  1.00  0.00    -0.507 OA
ATOM     25  H   UNL     1     105.504 114.483  92.094  1.00  0.00     0.293 HD
ENDBRANCH   6  24
BRANCH   8  26
ATOM     26  O   UNL     1     102.029 115.104  96.139  1.00  0.00    -0.508 OA
ATOM     27  H   UNL     1     101.966 116.096  95.946  1.00  0.00     0.293 HD
ENDBRANCH   8  26
TORSDOF 6
ENDMDL
MODEL 8
REMARK VINA RESULT:    -6.038      4.061      5.684
REMARK INTER + INTRA:          -7.330
REMARK INTER:                  -7.118
REMARK INTRA:                  -0.213
REMARK UNBOUND:                -0.057
REMARK SMILES O=c1c(O)c(-c2ccc(O)c(O)c2)oc2cc(O)cc(O)c12
REMARK SMILES IDX 5 1 3 2 2 3 1 4 22 5 20 6 19 7 17 8 16 9 15 10 14 11 6 12
REMARK SMILES IDX 7 13 8 14 9 15 13 16 11 17 10 18 12 20 4 22 21 24 18 26
REMARK H PARENT 10 19 12 21 4 23 21 25 18 27
REMARK Flexibility Score: inf
ROOT
ATOM      1  C   UNL     1     107.196 102.926  97.233  1.00  0.00     0.180 A 
ATOM      2  C   UNL     1     106.937 102.274  98.451  1.00  0.00     0.208 A 
ATOM      3  C   UNL     1     106.111 102.901  99.399  1.00  0.00     0.238 A 
ATOM      4  O   UNL     1     105.928 102.337 100.509  1.00  0.00    -0.285 OA
ATOM      5  C   UNL     1     105.543 104.165  99.110  1.00  0.00     0.111 A 
ATOM      6  C   UNL     1     104.660 104.874  99.979  1.00  0.00     0.134 A 
ATOM      7  C   UNL     1     104.262 106.175  99.647  1.00  0.00     0.093 A 
ATOM      8  C   UNL     1     104.661 106.766  98.447  1.00  0.00     0.123 A 
ATOM      9  C   UNL     1     105.474 106.060  97.565  1.00  0.00     0.094 A 
ATOM     10  C   UNL     1     105.918 104.774  97.885  1.00  0.00     0.146 A 
ATOM     11  O   UNL     1     106.700 104.139  97.020  1.00  0.00    -0.452 OA
ENDROOT
BRANCH   1  12
ATOM     12  C   UNL     1     108.035 102.317  96.176  1.00  0.00     0.025 A 
ATOM     13  C   UNL     1     109.420 102.160  96.343  1.00  0.00     0.016 A 
ATOM     14  C   UNL     1     110.187 101.562  95.342  1.00  0.00     0.051 A 
ATOM     15  C   UNL     1     109.590 101.097  94.165  1.00  0.00     0.157 A 
ATOM     16  C   UNL     1     107.431 101.833  95.006  1.00  0.00     0.062 A 
ATOM     17  C   UNL     1     108.192 101.231  93.996  1.00  0.00     0.158 A 
BRANCH  15  18
ATOM     18  O   UNL     1     110.415 100.512  93.202  1.00  0.00    -0.504 OA
ATOM     19  H   UNL     1     110.728 100.984  92.365  1.00  0.00     0.293 HD
ENDBRANCH  15  18
BRANCH  17  20
ATOM     20  O   UNL     1     107.524 100.783  92.855  1.00  0.00    -0.504 OA
ATOM     21  H   UNL     1     106.614 101.113  92.567  1.00  0.00     0.293 HD
ENDBRANCH  17  20
ENDBRANCH   1  12
BRANCH   2  22
ATOM     22  O   UNL     1     107.527 101.036  98.726  1.00  0.00    -0.502 OA
ATOM     23  H   UNL     1     108.296 100.667  98.179  1.00  0.00     0.293 HD
ENDBRANCH   2  22
BRANCH   6  24
ATOM     24  O   UNL     1     104.129 104.339 101.156  1.00  0.00    -0.507 OA
ATOM     25  H   UNL     1     104.670 103.892 101.881  1.00  0.00     0.293 HD
ENDBRANCH   6  24
BRANCH   8  26
ATOM     26  O   UNL     1     104.247 108.055  98.117  1.00  0.00    -0.508 OA
ATOM     27  H   UNL     1     104.461 108.848  98.710  1.00  0.00     0.293 HD
ENDBRANCH   8  26
TORSDOF 6
ENDMDL
MODEL 9
REMARK VINA RESULT:    -6.029      3.986      6.060
REMARK INTER + INTRA:          -7.319
REMARK INTER:                  -6.988
REMARK INTRA:                  -0.331
REMARK UNBOUND:                -0.057
REMARK SMILES O=c1c(O)c(-c2ccc(O)c(O)c2)oc2cc(O)cc(O)c12
REMARK SMILES IDX 5 1 3 2 2 3 1 4 22 5 20 6 19 7 17 8 16 9 15 10 14 11 6 12
REMARK SMILES IDX 7 13 8 14 9 15 13 16 11 17 10 18 12 20 4 22 21 24 18 26
REMARK H PARENT 10 19 12 21 4 23 21 25 18 27
REMARK Flexibility Score: inf
ROOT
ATOM      1  C   UNL     1     110.449 104.324 100.314  1.00  0.00     0.180 A 
ATOM      2  C   UNL     1     111.275 103.198 100.151  1.00  0.00     0.208 A 
ATOM      3  C   UNL     1     112.204 103.180  99.099  1.00  0.00     0.238 A 
ATOM      4  O   UNL     1     112.901 102.147  98.925  1.00  0.00    -0.285 OA
ATOM      5  C   UNL     1     112.306 104.295  98.231  1.00  0.00     0.111 A 
ATOM      6  C   UNL     1     113.239 104.401  97.156  1.00  0.00     0.134 A 
ATOM      7  C   UNL     1     113.164 105.493  96.282  1.00  0.00     0.093 A 
ATOM      8  C   UNL     1     112.233 106.513  96.484  1.00  0.00     0.123 A 
ATOM      9  C   UNL     1     111.357 106.448  97.565  1.00  0.00     0.094 A 
ATOM     10  C   UNL     1     111.384 105.353  98.433  1.00  0.00     0.146 A 
ATOM     11  O   UNL     1     110.525 105.325  99.445  1.00  0.00    -0.452 OA
ENDROOT
BRANCH   1  12
ATOM     12  C   UNL     1     109.464 104.427 101.415  1.00  0.00     0.025 A 
ATOM     13  C   UNL     1     109.810 104.988 102.655  1.00  0.00     0.016 A 
ATOM     14  C   UNL     1     108.856 105.095 103.669  1.00  0.00     0.051 A 
ATOM     15  C   UNL     1     107.542 104.661 103.466  1.00  0.00     0.157 A 
ATOM     16  C   UNL     1     108.142 104.010 101.200  1.00  0.00     0.062 A 
ATOM     17  C   UNL     1     107.178 104.114 102.212  1.00  0.00     0.158 A 
BRANCH  15  18
ATOM     18  O   UNL     1     106.640 104.794 104.522  1.00  0.00    -0.504 OA
ATOM     19  H   UNL     1     106.894 104.702 105.496  1.00  0.00     0.293 HD
ENDBRANCH  15  18
BRANCH  17  20
ATOM     20  O   UNL     1     105.886 103.668 101.931  1.00  0.00    -0.504 OA
ATOM     21  H   UNL     1     105.662 102.726 101.646  1.00  0.00     0.293 HD
ENDBRANCH  17  20
ENDBRANCH   1  12
BRANCH   2  22
ATOM     22  O   UNL     1     111.141 102.099 101.006  1.00  0.00    -0.502 OA
ATOM     23  H   UNL     1     111.396 102.137 101.985  1.00  0.00     0.293 HD
ENDBRANCH   2  22
BRANCH   6  24
ATOM     24  O   UNL     1     114.268 103.484  96.922  1.00  0.00    -0.507 OA
ATOM     25  H   UNL     1     114.144 102.576  96.500  1.00  0.00     0.293 HD
ENDBRANCH   6  24
BRANCH   8  26
ATOM     26  O   UNL     1     112.175 107.604  95.619  1.00  0.00    -0.508 OA
ATOM     27  H   UNL     1     112.285 107.493  94.618  1.00  0.00     0.293 HD
ENDBRANCH   8  26
TORSDOF 6
ENDMDL
