MODEL 1
REMARK VINA RESULT:    -5.409      0.000      0.000
REMARK INTER + INTRA:          -5.409
REMARK INTER:                  -5.409
REMARK INTRA:                   0.000
REMARK UNBOUND:                 0.000
REMARK SMILES CC1=CC[C@]23C[C@H]1C(C)(C)[C@@H]2CC[C@@H]3C
REMARK SMILES IDX 15 1 14 2 13 3 12 4 11 5 5 6 4 7 3 8 2 9 7 10 6 11 8 12 9 13
REMARK SMILES IDX 10 14 1 15
REMARK H PARENT
REMARK Flexibility Score: inf
ROOT
ATOM      1  C   UNL     1      -0.271   5.900   9.846  1.00  0.00     0.008 C 
ATOM      2  C   UNL     1      -0.592   5.777  11.342  1.00  0.00    -0.007 C 
ATOM      3  C   UNL     1      -1.932   6.472  11.737  1.00  0.00     0.004 C 
ATOM      4  C   UNL     1      -2.547   5.640  12.895  1.00  0.00     0.005 C 
ATOM      5  C   UNL     1      -1.416   4.688  13.232  1.00  0.00     0.002 C 
ATOM      6  C   UNL     1      -0.772   4.347  11.893  1.00  0.00    -0.020 C 
ATOM      7  C   UNL     1      -1.652   3.444  10.926  1.00  0.00     0.035 C 
ATOM      8  C   UNL     1      -1.680   1.969  11.282  1.00  0.00    -0.027 C 
ATOM      9  C   UNL     1      -1.044   1.504  12.373  1.00  0.00    -0.074 C 
ATOM     10  C   UNL     1      -0.383   2.506  13.299  1.00  0.00     0.021 C 
ATOM     11  C   UNL     1       0.398   3.507  12.395  1.00  0.00     0.016 C 
ATOM     12  C   UNL     1      -1.467   3.380  14.052  1.00  0.00    -0.025 C 
ATOM     13  C   UNL     1      -2.899   2.788  14.117  1.00  0.00     0.012 C 
ATOM     14  C   UNL     1      -0.999   3.621  15.507  1.00  0.00     0.012 C 
ATOM     15  C   UNL     1      -1.029   0.031  12.677  1.00  0.00     0.039 C 
ENDROOT
TORSDOF 0
ENDMDL
MODEL 2
REMARK VINA RESULT:    -5.248      1.454      4.502
REMARK INTER + INTRA:          -5.248
REMARK INTER:                  -5.248
REMARK INTRA:                   0.000
REMARK UNBOUND:                 0.000
REMARK SMILES CC1=CC[C@]23C[C@H]1C(C)(C)[C@@H]2CC[C@@H]3C
REMARK SMILES IDX 15 1 14 2 13 3 12 4 11 5 5 6 4 7 3 8 2 9 7 10 6 11 8 12 9 13
REMARK SMILES IDX 10 14 1 15
REMARK H PARENT
REMARK Flexibility Score: inf
ROOT
ATOM      1  C   UNL     1      -2.279   1.332  14.533  1.00  0.00     0.008 C 
ATOM      2  C   UNL     1      -1.019   2.104  14.118  1.00  0.00    -0.007 C 
ATOM      3  C   UNL     1      -0.453   1.649  12.737  1.00  0.00     0.004 C 
ATOM      4  C   UNL     1       0.170   2.905  12.070  1.00  0.00     0.005 C 
ATOM      5  C   UNL     1       0.130   3.914  13.200  1.00  0.00     0.002 C 
ATOM      6  C   UNL     1      -1.172   3.630  13.940  1.00  0.00    -0.020 C 
ATOM      7  C   UNL     1      -2.498   4.004  13.149  1.00  0.00     0.035 C 
ATOM      8  C   UNL     1      -2.836   5.485  13.137  1.00  0.00    -0.027 C 
ATOM      9  C   UNL     1      -2.022   6.389  13.711  1.00  0.00    -0.074 C 
ATOM     10  C   UNL     1      -0.703   5.905  14.284  1.00  0.00     0.021 C 
ATOM     11  C   UNL     1      -1.013   4.612  15.096  1.00  0.00     0.016 C 
ATOM     12  C   UNL     1       0.280   5.450  13.130  1.00  0.00    -0.025 C 
ATOM     13  C   UNL     1      -0.025   6.001  11.713  1.00  0.00     0.012 C 
ATOM     14  C   UNL     1       1.720   5.882  13.495  1.00  0.00     0.012 C 
ATOM     15  C   UNL     1      -2.401   7.844  13.744  1.00  0.00     0.039 C 
ENDROOT
TORSDOF 0
ENDMDL
MODEL 3
REMARK VINA RESULT:    -5.192      1.470      4.119
REMARK INTER + INTRA:          -5.192
REMARK INTER:                  -5.192
REMARK INTRA:                   0.000
REMARK UNBOUND:                 0.000
REMARK SMILES CC1=CC[C@]23C[C@H]1C(C)(C)[C@@H]2CC[C@@H]3C
REMARK SMILES IDX 15 1 14 2 13 3 12 4 11 5 5 6 4 7 3 8 2 9 7 10 6 11 8 12 9 13
REMARK SMILES IDX 10 14 1 15
REMARK H PARENT
REMARK Flexibility Score: inf
ROOT
ATOM      1  C   UNL     1      -2.106   0.848  14.500  1.00  0.00     0.008 C 
ATOM      2  C   UNL     1      -1.748   2.310  14.801  1.00  0.00    -0.007 C 
ATOM      3  C   UNL     1      -0.251   2.502  15.195  1.00  0.00     0.004 C 
ATOM      4  C   UNL     1       0.180   3.896  14.664  1.00  0.00     0.005 C 
ATOM      5  C   UNL     1      -1.145   4.488  14.225  1.00  0.00     0.002 C 
ATOM      6  C   UNL     1      -1.931   3.317  13.646  1.00  0.00    -0.020 C 
ATOM      7  C   UNL     1      -1.381   2.746  12.269  1.00  0.00     0.035 C 
ATOM      8  C   UNL     1      -1.732   3.578  11.049  1.00  0.00    -0.027 C 
ATOM      9  C   UNL     1      -2.409   4.735  11.167  1.00  0.00    -0.074 C 
ATOM     10  C   UNL     1      -2.723   5.243  12.561  1.00  0.00     0.021 C 
ATOM     11  C   UNL     1      -3.253   4.024  13.375  1.00  0.00     0.016 C 
ATOM     12  C   UNL     1      -1.403   5.701  13.305  1.00  0.00    -0.025 C 
ATOM     13  C   UNL     1      -0.183   6.019  12.403  1.00  0.00     0.012 C 
ATOM     14  C   UNL     1      -1.708   6.970  14.137  1.00  0.00     0.012 C 
ATOM     15  C   UNL     1      -2.803   5.516   9.944  1.00  0.00     0.039 C 
ENDROOT
TORSDOF 0
ENDMDL
MODEL 4
REMARK VINA RESULT:    -5.076      1.834      3.206
REMARK INTER + INTRA:          -5.076
REMARK INTER:                  -5.076
REMARK INTRA:                   0.000
REMARK UNBOUND:                 0.000
REMARK SMILES CC1=CC[C@]23C[C@H]1C(C)(C)[C@@H]2CC[C@@H]3C
REMARK SMILES IDX 15 1 14 2 13 3 12 4 11 5 5 6 4 7 3 8 2 9 7 10 6 11 8 12 9 13
REMARK SMILES IDX 10 14 1 15
REMARK H PARENT
REMARK Flexibility Score: inf
ROOT
ATOM      1  C   UNL     1       2.129   6.282  15.240  1.00  0.00     0.008 C 
ATOM      2  C   UNL     1       0.872   6.394  14.367  1.00  0.00    -0.007 C 
ATOM      3  C   UNL     1       1.190   6.761  12.885  1.00  0.00     0.004 C 
ATOM      4  C   UNL     1       0.120   6.056  12.007  1.00  0.00     0.005 C 
ATOM      5  C   UNL     1      -0.855   5.546  13.049  1.00  0.00     0.002 C 
ATOM      6  C   UNL     1       0.012   5.121  14.229  1.00  0.00    -0.020 C 
ATOM      7  C   UNL     1       0.902   3.827  13.986  1.00  0.00     0.035 C 
ATOM      8  C   UNL     1       0.151   2.511  14.070  1.00  0.00    -0.027 C 
ATOM      9  C   UNL     1      -1.178   2.480  14.279  1.00  0.00    -0.074 C 
ATOM     10  C   UNL     1      -1.927   3.799  14.325  1.00  0.00     0.021 C 
ATOM     11  C   UNL     1      -1.089   4.761  15.220  1.00  0.00     0.016 C 
ATOM     12  C   UNL     1      -1.961   4.479  12.897  1.00  0.00    -0.025 C 
ATOM     13  C   UNL     1      -1.706   3.544  11.686  1.00  0.00     0.012 C 
ATOM     14  C   UNL     1      -3.343   5.142  12.686  1.00  0.00     0.012 C 
ATOM     15  C   UNL     1      -1.898   1.168  14.423  1.00  0.00     0.039 C 
ENDROOT
TORSDOF 0
ENDMDL
MODEL 5
REMARK VINA RESULT:    -5.073      1.802      3.940
REMARK INTER + INTRA:          -5.073
REMARK INTER:                  -5.073
REMARK INTRA:                   0.000
REMARK UNBOUND:                 0.000
REMARK SMILES CC1=CC[C@]23C[C@H]1C(C)(C)[C@@H]2CC[C@@H]3C
REMARK SMILES IDX 15 1 14 2 13 3 12 4 11 5 5 6 4 7 3 8 2 9 7 10 6 11 8 12 9 13
REMARK SMILES IDX 10 14 1 15
REMARK H PARENT
REMARK Flexibility Score: inf
ROOT
ATOM      1  C   UNL     1      -5.550   6.377  13.044  1.00  0.00     0.008 C 
ATOM      2  C   UNL     1      -4.843   5.377  12.120  1.00  0.00    -0.007 C 
ATOM      3  C   UNL     1      -4.785   5.853  10.635  1.00  0.00     0.004 C 
ATOM      4  C   UNL     1      -3.458   5.311  10.039  1.00  0.00     0.005 C 
ATOM      5  C   UNL     1      -2.979   4.380  11.135  1.00  0.00     0.002 C 
ATOM      6  C   UNL     1      -3.365   5.069  12.439  1.00  0.00    -0.020 C 
ATOM      7  C   UNL     1      -2.544   6.387  12.779  1.00  0.00     0.035 C 
ATOM      8  C   UNL     1      -1.149   6.145  13.326  1.00  0.00    -0.027 C 
ATOM      9  C   UNL     1      -0.655   4.900  13.447  1.00  0.00    -0.074 C 
ATOM     10  C   UNL     1      -1.487   3.744  12.924  1.00  0.00     0.021 C 
ATOM     11  C   UNL     1      -2.945   3.980  13.421  1.00  0.00     0.016 C 
ATOM     12  C   UNL     1      -1.572   3.778  11.344  1.00  0.00    -0.025 C 
ATOM     13  C   UNL     1      -0.474   4.596  10.617  1.00  0.00     0.012 C 
ATOM     14  C   UNL     1      -1.504   2.329  10.804  1.00  0.00     0.012 C 
ATOM     15  C   UNL     1       0.705   4.673  14.048  1.00  0.00     0.039 C 
ENDROOT
TORSDOF 0
ENDMDL
MODEL 6
REMARK VINA RESULT:    -5.036      1.567      2.388
REMARK INTER + INTRA:          -5.036
REMARK INTER:                  -5.036
REMARK INTRA:                   0.000
REMARK UNBOUND:                 0.000
REMARK SMILES CC1=CC[C@]23C[C@H]1C(C)(C)[C@@H]2CC[C@@H]3C
REMARK SMILES IDX 15 1 14 2 13 3 12 4 11 5 5 6 4 7 3 8 2 9 7 10 6 11 8 12 9 13
REMARK SMILES IDX 10 14 1 15
REMARK H PARENT
REMARK Flexibility Score: inf
ROOT
ATOM      1  C   UNL     1      -3.631   5.050  10.196  1.00  0.00     0.008 C 
ATOM      2  C   UNL     1      -2.382   5.563  10.925  1.00  0.00    -0.007 C 
ATOM      3  C   UNL     1      -2.588   6.966  11.575  1.00  0.00     0.004 C 
ATOM      4  C   UNL     1      -1.728   6.996  12.866  1.00  0.00     0.005 C 
ATOM      5  C   UNL     1      -0.919   5.720  12.734  1.00  0.00     0.002 C 
ATOM      6  C   UNL     1      -1.872   4.710  12.105  1.00  0.00    -0.020 C 
ATOM      7  C   UNL     1      -3.059   4.223  13.041  1.00  0.00     0.035 C 
ATOM      8  C   UNL     1      -2.666   3.193  14.086  1.00  0.00    -0.027 C 
ATOM      9  C   UNL     1      -1.390   2.790  14.219  1.00  0.00    -0.074 C 
ATOM     10  C   UNL     1      -0.332   3.466  13.368  1.00  0.00     0.021 C 
ATOM     11  C   UNL     1      -0.903   3.548  11.921  1.00  0.00     0.016 C 
ATOM     12  C   UNL     1      -0.119   4.968  13.820  1.00  0.00    -0.025 C 
ATOM     13  C   UNL     1      -0.596   5.327  15.251  1.00  0.00     0.012 C 
ATOM     14  C   UNL     1       1.388   5.312  13.734  1.00  0.00     0.012 C 
ATOM     15  C   UNL     1      -1.027   1.724  15.216  1.00  0.00     0.039 C 
ENDROOT
TORSDOF 0
ENDMDL
MODEL 7
REMARK VINA RESULT:    -5.013      1.637      3.480
REMARK INTER + INTRA:          -5.013
REMARK INTER:                  -5.013
REMARK INTRA:                   0.000
REMARK UNBOUND:                 0.000
REMARK SMILES CC1=CC[C@]23C[C@H]1C(C)(C)[C@@H]2CC[C@@H]3C
REMARK SMILES IDX 15 1 14 2 13 3 12 4 11 5 5 6 4 7 3 8 2 9 7 10 6 11 8 12 9 13
REMARK SMILES IDX 10 14 1 15
REMARK H PARENT
REMARK Flexibility Score: inf
ROOT
ATOM      1  C   UNL     1      -2.661   5.881  10.012  1.00  0.00     0.008 C 
ATOM      2  C   UNL     1      -2.606   4.800  11.100  1.00  0.00    -0.007 C 
ATOM      3  C   UNL     1      -2.166   3.407  10.554  1.00  0.00     0.004 C 
ATOM      4  C   UNL     1      -1.367   2.710  11.689  1.00  0.00     0.005 C 
ATOM      5  C   UNL     1      -1.611   3.639  12.861  1.00  0.00     0.002 C 
ATOM      6  C   UNL     1      -1.619   5.041  12.262  1.00  0.00    -0.020 C 
ATOM      7  C   UNL     1      -0.211   5.565  11.745  1.00  0.00     0.035 C 
ATOM      8  C   UNL     1       0.731   6.043  12.835  1.00  0.00    -0.027 C 
ATOM      9  C   UNL     1       0.390   5.960  14.135  1.00  0.00    -0.074 C 
ATOM     10  C   UNL     1      -0.918   5.281  14.491  1.00  0.00     0.021 C 
ATOM     11  C   UNL     1      -1.994   5.834  13.508  1.00  0.00     0.016 C 
ATOM     12  C   UNL     1      -0.845   3.727  14.199  1.00  0.00    -0.025 C 
ATOM     13  C   UNL     1       0.576   3.115  14.099  1.00  0.00     0.012 C 
ATOM     14  C   UNL     1      -1.599   2.968  15.318  1.00  0.00     0.012 C 
ATOM     15  C   UNL     1       1.308   6.494  15.199  1.00  0.00     0.039 C 
ENDROOT
TORSDOF 0
ENDMDL
MODEL 8
REMARK VINA RESULT:    -4.996      1.164      4.571
REMARK INTER + INTRA:          -4.996
REMARK INTER:                  -4.996
REMARK INTRA:                   0.000
REMARK UNBOUND:                 0.000
REMARK SMILES CC1=CC[C@]23C[C@H]1C(C)(C)[C@@H]2CC[C@@H]3C
REMARK SMILES IDX 15 1 14 2 13 3 12 4 11 5 5 6 4 7 3 8 2 9 7 10 6 11 8 12 9 13
REMARK SMILES IDX 10 14 1 15
REMARK H PARENT
REMARK Flexibility Score: inf
ROOT
ATOM      1  C   UNL     1      -0.222   2.149  14.256  1.00  0.00     0.008 C 
ATOM      2  C   UNL     1      -0.118   2.705  12.829  1.00  0.00    -0.007 C 
ATOM      3  C   UNL     1      -0.853   1.821  11.775  1.00  0.00     0.004 C 
ATOM      4  C   UNL     1      -1.402   2.781  10.685  1.00  0.00     0.005 C 
ATOM      5  C   UNL     1      -0.746   4.094  11.064  1.00  0.00     0.002 C 
ATOM      6  C   UNL     1      -0.727   4.103  12.588  1.00  0.00    -0.020 C 
ATOM      7  C   UNL     1      -2.146   4.260  13.284  1.00  0.00     0.035 C 
ATOM      8  C   UNL     1      -2.701   5.673  13.288  1.00  0.00    -0.027 C 
ATOM      9  C   UNL     1      -2.042   6.681  12.689  1.00  0.00    -0.074 C 
ATOM     10  C   UNL     1      -0.779   6.353  11.916  1.00  0.00     0.021 C 
ATOM     11  C   UNL     1       0.058   5.390  12.812  1.00  0.00     0.016 C 
ATOM     12  C   UNL     1      -1.115   5.523  10.611  1.00  0.00    -0.025 C 
ATOM     13  C   UNL     1      -2.575   5.614  10.098  1.00  0.00     0.012 C 
ATOM     14  C   UNL     1      -0.191   5.995   9.462  1.00  0.00     0.012 C 
ATOM     15  C   UNL     1      -2.573   8.086  12.755  1.00  0.00     0.039 C 
ENDROOT
TORSDOF 0
ENDMDL
MODEL 9
REMARK VINA RESULT:    -4.905      1.642      4.381
REMARK INTER + INTRA:          -4.905
REMARK INTER:                  -4.905
REMARK INTRA:                   0.000
REMARK UNBOUND:                 0.000
REMARK SMILES CC1=CC[C@]23C[C@H]1C(C)(C)[C@@H]2CC[C@@H]3C
REMARK SMILES IDX 15 1 14 2 13 3 12 4 11 5 5 6 4 7 3 8 2 9 7 10 6 11 8 12 9 13
REMARK SMILES IDX 10 14 1 15
REMARK H PARENT
REMARK Flexibility Score: inf
ROOT
ATOM      1  C   UNL     1      -0.259   2.126  11.508  1.00  0.00     0.008 C 
ATOM      2  C   UNL     1      -1.410   2.877  12.192  1.00  0.00    -0.007 C 
ATOM      3  C   UNL     1      -1.032   3.416  13.606  1.00  0.00     0.004 C 
ATOM      4  C   UNL     1      -1.812   4.742  13.807  1.00  0.00     0.005 C 
ATOM      5  C   UNL     1      -2.747   4.740  12.613  1.00  0.00     0.002 C 
ATOM      6  C   UNL     1      -1.934   4.138  11.473  1.00  0.00    -0.020 C 
ATOM      7  C   UNL     1      -0.749   5.047  10.931  1.00  0.00     0.035 C 
ATOM      8  C   UNL     1      -1.182   6.179  10.016  1.00  0.00    -0.027 C 
ATOM      9  C   UNL     1      -2.482   6.403   9.753  1.00  0.00    -0.074 C 
ATOM     10  C   UNL     1      -3.515   5.559  10.476  1.00  0.00     0.021 C 
ATOM     11  C   UNL     1      -3.020   4.083  10.405  1.00  0.00     0.016 C 
ATOM     12  C   UNL     1      -3.555   5.914  12.018  1.00  0.00    -0.025 C 
ATOM     13  C   UNL     1      -2.967   7.291  12.420  1.00  0.00     0.012 C 
ATOM     14  C   UNL     1      -5.024   5.878  12.506  1.00  0.00     0.012 C 
ATOM     15  C   UNL     1      -2.891   7.489   8.797  1.00  0.00     0.039 C 
ENDROOT
TORSDOF 0
ENDMDL
