MODEL 1
REMARK VINA RESULT:    -6.817      0.000      0.000
REMARK INTER + INTRA:         -10.597
REMARK INTER:                  -9.209
REMARK INTRA:                  -1.388
REMARK UNBOUND:                -1.388
REMARK SMILES CC[C@@H](CC[C@H](C)[C@@H]1CC[C@H]2[C@@H]3CC(=O)C4=CC(=O)CC[C@@]4(C)[C@@H]3CC[C@@]21C)C(C)C
REMARK SMILES IDX 4 1 3 2 2 3 1 4 29 5 30 6 31 7 5 8 6 9 7 10 8 11 9 12 27 13
REMARK SMILES IDX 10 14 11 15 26 16 28 17 12 18 25 19 24 20 13 21 22 22 14 23
REMARK SMILES IDX 16 24 21 25 23 26 15 27 17 28 20 29 18 30 19 31
REMARK H PARENT
REMARK Flexibility Score: inf
ROOT
ATOM      1  C   UNL     1      -3.179   4.176  10.512  1.00  0.00     0.004 C 
ENDROOT
BRANCH   1   2
ATOM      2  C   UNL     1      -3.345   5.578  11.171  1.00  0.00    -0.009 C 
BRANCH   2   3
ATOM      3  C   UNL     1      -3.744   6.625  10.095  1.00  0.00     0.000 C 
ATOM      4  C   UNL     1      -5.060   7.347  10.402  1.00  0.00     0.004 C 
ENDBRANCH   2   3
BRANCH   2   5
ATOM      5  C   UNL     1      -2.089   6.013  12.002  1.00  0.00    -0.014 C 
ATOM      6  C   UNL     1      -2.480   6.691  13.327  1.00  0.00     0.007 C 
ATOM      7  C   UNL     1      -1.092   4.867  12.265  1.00  0.00     0.007 C 
ENDBRANCH   2   5
ENDBRANCH   1   2
BRANCH   1   8
ATOM      8  C   UNL     1      -4.448   3.724   9.765  1.00  0.00     0.004 C 
BRANCH   8   9
ATOM      9  C   UNL     1      -4.241   3.351   8.265  1.00  0.00    -0.011 C 
ATOM     10  C   UNL     1      -2.759   3.505   7.872  1.00  0.00     0.008 C 
BRANCH   9  11
ATOM     11  C   UNL     1      -5.279   3.940   7.228  1.00  0.00    -0.002 C 
ATOM     12  C   UNL     1      -6.315   4.853   7.935  1.00  0.00     0.005 C 
ATOM     13  C   UNL     1      -6.162   3.007   6.317  1.00  0.00    -0.026 C 
ATOM     14  C   UNL     1      -7.693   4.196   7.806  1.00  0.00     0.005 C 
ATOM     15  C   UNL     1      -7.434   2.833   7.177  1.00  0.00    -0.001 C 
ATOM     16  C   UNL     1      -5.618   1.588   5.967  1.00  0.00     0.007 C 
ATOM     17  C   UNL     1      -6.466   3.781   4.972  1.00  0.00     0.012 C 
ATOM     18  C   UNL     1      -8.625   2.187   6.412  1.00  0.00     0.004 C 
ATOM     19  C   UNL     1      -6.728   0.510   5.808  1.00  0.00     0.005 C 
ATOM     20  C   UNL     1      -8.135   1.068   5.417  1.00  0.00     0.003 C 
ATOM     21  C   UNL     1      -9.688   1.685   7.400  1.00  0.00     0.085 C 
ATOM     22  C   UNL     1      -9.198  -0.081   5.082  1.00  0.00    -0.000 C 
ATOM     23  C   UNL     1     -10.859   1.140   6.648  1.00  0.00     0.159 C 
ATOM     24  C   UNL     1     -10.627   0.379   5.400  1.00  0.00     0.005 C 
ATOM     25  C   UNL     1      -9.081  -0.421   3.556  1.00  0.00     0.020 C 
ATOM     26  C   UNL     1      -8.950  -1.374   5.910  1.00  0.00     0.017 C 
ATOM     27  O   UNL     1     -12.025   1.318   7.099  1.00  0.00    -0.295 OA
ATOM     28  C   UNL     1     -11.677  -0.007   4.650  1.00  0.00     0.055 C 
ATOM     29  C   UNL     1     -10.175  -1.369   3.064  1.00  0.00     0.081 C 
ATOM     30  C   UNL     1     -11.521  -0.848   3.448  1.00  0.00     0.156 C 
ATOM     31  O   UNL     1     -12.544  -1.199   2.796  1.00  0.00    -0.295 OA
ENDBRANCH   9  11
ENDBRANCH   8   9
ENDBRANCH   1   8
TORSDOF 6
ENDMDL
MODEL 2
REMARK VINA RESULT:    -6.808      1.586      2.788
REMARK INTER + INTRA:         -10.585
REMARK INTER:                  -8.598
REMARK INTRA:                  -1.987
REMARK UNBOUND:                -1.388
REMARK SMILES CC[C@@H](CC[C@H](C)[C@@H]1CC[C@H]2[C@@H]3CC(=O)C4=CC(=O)CC[C@@]4(C)[C@@H]3CC[C@@]21C)C(C)C
REMARK SMILES IDX 4 1 3 2 2 3 1 4 29 5 30 6 31 7 5 8 6 9 7 10 8 11 9 12 27 13
REMARK SMILES IDX 10 14 11 15 26 16 28 17 12 18 25 19 24 20 13 21 22 22 14 23
REMARK SMILES IDX 16 24 21 25 23 26 15 27 17 28 20 29 18 30 19 31
REMARK H PARENT
REMARK Flexibility Score: inf
ROOT
ATOM      1  C   UNL     1      -3.527   3.752   7.503  1.00  0.00     0.004 C 
ENDROOT
BRANCH   1   2
ATOM      2  C   UNL     1      -3.819   4.644   8.748  1.00  0.00    -0.009 C 
BRANCH   2   3
ATOM      3  C   UNL     1      -3.611   3.821  10.049  1.00  0.00     0.000 C 
ATOM      4  C   UNL     1      -2.455   4.331  10.917  1.00  0.00     0.004 C 
ENDBRANCH   2   3
BRANCH   2   5
ATOM      5  C   UNL     1      -5.225   5.334   8.687  1.00  0.00    -0.014 C 
ATOM      6  C   UNL     1      -6.348   4.400   9.174  1.00  0.00     0.007 C 
ATOM      7  C   UNL     1      -5.289   6.679   9.438  1.00  0.00     0.007 C 
ENDBRANCH   2   5
ENDBRANCH   1   2
BRANCH   1   8
ATOM      8  C   UNL     1      -3.254   4.584   6.236  1.00  0.00     0.004 C 
BRANCH   8   9
ATOM      9  C   UNL     1      -3.508   3.845   4.887  1.00  0.00    -0.011 C 
ATOM     10  C   UNL     1      -2.282   3.973   3.963  1.00  0.00     0.008 C 
BRANCH   9  11
ATOM     11  C   UNL     1      -4.906   4.085   4.189  1.00  0.00    -0.002 C 
ATOM     12  C   UNL     1      -5.635   5.307   4.807  1.00  0.00     0.005 C 
ATOM     13  C   UNL     1      -6.016   2.968   4.150  1.00  0.00    -0.026 C 
ATOM     14  C   UNL     1      -6.906   4.802   5.496  1.00  0.00     0.005 C 
ATOM     15  C   UNL     1      -6.831   3.283   5.424  1.00  0.00    -0.001 C 
ATOM     16  C   UNL     1      -5.566   1.476   4.221  1.00  0.00     0.007 C 
ATOM     17  C   UNL     1      -6.875   3.176   2.838  1.00  0.00     0.012 C 
ATOM     18  C   UNL     1      -8.184   2.519   5.509  1.00  0.00     0.004 C 
ATOM     19  C   UNL     1      -6.577   0.548   4.952  1.00  0.00     0.005 C 
ATOM     20  C   UNL     1      -8.056   1.052   4.945  1.00  0.00     0.003 C 
ATOM     21  C   UNL     1      -8.736   2.562   6.941  1.00  0.00     0.085 C 
ATOM     22  C   UNL     1      -9.090  -0.016   5.540  1.00  0.00    -0.000 C 
ATOM     23  C   UNL     1     -10.071   1.893   6.988  1.00  0.00     0.159 C 
ATOM     24  C   UNL     1     -10.303   0.682   6.170  1.00  0.00     0.005 C 
ATOM     25  C   UNL     1      -9.564  -0.939   4.366  1.00  0.00     0.020 C 
ATOM     26  C   UNL     1      -8.453  -0.896   6.653  1.00  0.00     0.017 C 
ATOM     27  O   UNL     1     -10.974   2.357   7.740  1.00  0.00    -0.295 OA
ATOM     28  C   UNL     1     -11.537   0.146   6.108  1.00  0.00     0.055 C 
ATOM     29  C   UNL     1     -10.700  -1.883   4.762  1.00  0.00     0.081 C 
ATOM     30  C   UNL     1     -11.815  -1.113   5.390  1.00  0.00     0.156 C 
ATOM     31  O   UNL     1     -12.988  -1.581   5.384  1.00  0.00    -0.295 OA
ENDBRANCH   9  11
ENDBRANCH   8   9
ENDBRANCH   1   8
TORSDOF 6
ENDMDL
MODEL 3
REMARK VINA RESULT:    -6.805      5.303     11.027
REMARK INTER + INTRA:         -10.580
REMARK INTER:                  -8.820
REMARK INTRA:                  -1.760
REMARK UNBOUND:                -1.388
REMARK SMILES CC[C@@H](CC[C@H](C)[C@@H]1CC[C@H]2[C@@H]3CC(=O)C4=CC(=O)CC[C@@]4(C)[C@@H]3CC[C@@]21C)C(C)C
REMARK SMILES IDX 4 1 3 2 2 3 1 4 29 5 30 6 31 7 5 8 6 9 7 10 8 11 9 12 27 13
REMARK SMILES IDX 10 14 11 15 26 16 28 17 12 18 25 19 24 20 13 21 22 22 14 23
REMARK SMILES IDX 16 24 21 25 23 26 15 27 17 28 20 29 18 30 19 31
REMARK H PARENT
REMARK Flexibility Score: inf
ROOT
ATOM      1  C   UNL     1     -15.079  -4.282   8.085  1.00  0.00     0.004 C 
ENDROOT
BRANCH   1   2
ATOM      2  C   UNL     1     -14.760  -5.799   7.917  1.00  0.00    -0.009 C 
BRANCH   2   3
ATOM      3  C   UNL     1     -14.027  -6.039   6.568  1.00  0.00     0.000 C 
ATOM      4  C   UNL     1     -14.889  -6.757   5.524  1.00  0.00     0.004 C 
ENDBRANCH   2   3
BRANCH   2   5
ATOM      5  C   UNL     1     -16.025  -6.709   8.089  1.00  0.00    -0.014 C 
ATOM      6  C   UNL     1     -15.733  -7.943   8.962  1.00  0.00     0.007 C 
ATOM      7  C   UNL     1     -17.261  -5.959   8.625  1.00  0.00     0.007 C 
ENDBRANCH   2   5
ENDBRANCH   1   2
BRANCH   1   8
ATOM      8  C   UNL     1     -14.333  -3.408   7.058  1.00  0.00     0.004 C 
BRANCH   8   9
ATOM      9  C   UNL     1     -15.244  -2.622   6.066  1.00  0.00    -0.011 C 
ATOM     10  C   UNL     1     -16.644  -3.261   6.001  1.00  0.00     0.008 C 
BRANCH   9  11
ATOM     11  C   UNL     1     -14.614  -2.230   4.670  1.00  0.00    -0.002 C 
ATOM     12  C   UNL     1     -14.251  -3.495   3.848  1.00  0.00     0.005 C 
ATOM     13  C   UNL     1     -13.324  -1.333   4.565  1.00  0.00    -0.026 C 
ATOM     14  C   UNL     1     -12.729  -3.532   3.682  1.00  0.00     0.005 C 
ATOM     15  C   UNL     1     -12.199  -2.392   4.542  1.00  0.00    -0.001 C 
ATOM     16  C   UNL     1     -13.023  -0.334   5.724  1.00  0.00     0.007 C 
ATOM     17  C   UNL     1     -13.398  -0.526   3.206  1.00  0.00     0.012 C 
ATOM     18  C   UNL     1     -10.806  -1.820   4.149  1.00  0.00     0.004 C 
ATOM     19  C   UNL     1     -11.506  -0.109   5.983  1.00  0.00     0.005 C 
ATOM     20  C   UNL     1     -10.581  -0.380   4.753  1.00  0.00     0.003 C 
ATOM     21  C   UNL     1      -9.694  -2.807   4.529  1.00  0.00     0.085 C 
ATOM     22  C   UNL     1      -9.057   0.039   5.004  1.00  0.00    -0.000 C 
ATOM     23  C   UNL     1      -8.372  -2.278   4.075  1.00  0.00     0.159 C 
ATOM     24  C   UNL     1      -8.102  -0.827   4.171  1.00  0.00     0.005 C 
ATOM     25  C   UNL     1      -8.895   1.543   4.596  1.00  0.00     0.020 C 
ATOM     26  C   UNL     1      -8.636  -0.133   6.491  1.00  0.00     0.017 C 
ATOM     27  O   UNL     1      -7.499  -3.080   3.636  1.00  0.00    -0.295 OA
ATOM     28  C   UNL     1      -6.966  -0.325   3.650  1.00  0.00     0.055 C 
ATOM     29  C   UNL     1      -7.441   2.018   4.607  1.00  0.00     0.081 C 
ATOM     30  C   UNL     1      -6.591   1.095   3.796  1.00  0.00     0.156 C 
ATOM     31  O   UNL     1      -5.502   1.506   3.306  1.00  0.00    -0.295 OA
ENDBRANCH   9  11
ENDBRANCH   8   9
ENDBRANCH   1   8
TORSDOF 6
ENDMDL
MODEL 4
REMARK VINA RESULT:    -6.799      1.844      3.040
REMARK INTER + INTRA:         -10.572
REMARK INTER:                  -7.782
REMARK INTRA:                  -2.790
REMARK UNBOUND:                -1.388
REMARK SMILES CC[C@@H](CC[C@H](C)[C@@H]1CC[C@H]2[C@@H]3CC(=O)C4=CC(=O)CC[C@@]4(C)[C@@H]3CC[C@@]21C)C(C)C
REMARK SMILES IDX 4 1 3 2 2 3 1 4 29 5 30 6 31 7 5 8 6 9 7 10 8 11 9 12 27 13
REMARK SMILES IDX 10 14 11 15 26 16 28 17 12 18 25 19 24 20 13 21 22 22 14 23
REMARK SMILES IDX 16 24 21 25 23 26 15 27 17 28 20 29 18 30 19 31
REMARK H PARENT
REMARK Flexibility Score: inf
ROOT
ATOM      1  C   UNL     1      -3.638   6.560  10.046  1.00  0.00     0.004 C 
ENDROOT
BRANCH   1   2
ATOM      2  C   UNL     1      -4.650   5.375  10.009  1.00  0.00    -0.009 C 
BRANCH   2   3
ATOM      3  C   UNL     1      -5.754   5.589  11.082  1.00  0.00     0.000 C 
ATOM      4  C   UNL     1      -7.030   4.785  10.814  1.00  0.00     0.004 C 
ENDBRANCH   2   3
BRANCH   2   5
ATOM      5  C   UNL     1      -3.955   3.975  10.127  1.00  0.00    -0.014 C 
ATOM      6  C   UNL     1      -4.110   3.143   8.842  1.00  0.00     0.007 C 
ATOM      7  C   UNL     1      -2.470   4.053  10.534  1.00  0.00     0.007 C 
ENDBRANCH   2   5
ENDBRANCH   1   2
BRANCH   1   8
ATOM      8  C   UNL     1      -3.960   7.641   8.998  1.00  0.00     0.004 C 
BRANCH   8   9
ATOM      9  C   UNL     1      -3.820   7.191   7.512  1.00  0.00    -0.011 C 
ATOM     10  C   UNL     1      -2.591   7.856   6.862  1.00  0.00     0.008 C 
BRANCH   9  11
ATOM     11  C   UNL     1      -5.133   7.197   6.632  1.00  0.00    -0.002 C 
ATOM     12  C   UNL     1      -6.366   7.618   7.475  1.00  0.00     0.005 C 
ATOM     13  C   UNL     1      -5.625   5.910   5.868  1.00  0.00    -0.026 C 
ATOM     14  C   UNL     1      -7.318   6.421   7.554  1.00  0.00     0.005 C 
ATOM     15  C   UNL     1      -6.570   5.264   6.905  1.00  0.00    -0.001 C 
ATOM     16  C   UNL     1      -4.563   4.846   5.454  1.00  0.00     0.007 C 
ATOM     17  C   UNL     1      -6.406   6.377   4.574  1.00  0.00     0.012 C 
ATOM     18  C   UNL     1      -7.443   4.113   6.328  1.00  0.00     0.004 C 
ATOM     19  C   UNL     1      -5.096   3.385   5.468  1.00  0.00     0.005 C 
ATOM     20  C   UNL     1      -6.641   3.248   5.281  1.00  0.00     0.003 C 
ATOM     21  C   UNL     1      -8.042   3.271   7.464  1.00  0.00     0.085 C 
ATOM     22  C   UNL     1      -7.125   1.731   5.114  1.00  0.00    -0.000 C 
ATOM     23  C   UNL     1      -8.939   2.220   6.895  1.00  0.00     0.159 C 
ATOM     24  C   UNL     1      -8.557   1.548   5.634  1.00  0.00     0.005 C 
ATOM     25  C   UNL     1      -7.066   1.368   3.591  1.00  0.00     0.020 C 
ATOM     26  C   UNL     1      -6.231   0.737   5.909  1.00  0.00     0.017 C 
ATOM     27  O   UNL     1      -9.998   1.907   7.510  1.00  0.00    -0.295 OA
ATOM     28  C   UNL     1      -9.417   0.692   5.048  1.00  0.00     0.055 C 
ATOM     29  C   UNL     1      -7.685   0.006   3.272  1.00  0.00     0.081 C 
ATOM     30  C   UNL     1      -9.062  -0.082   3.843  1.00  0.00     0.156 C 
ATOM     31  O   UNL     1      -9.900  -0.887   3.350  1.00  0.00    -0.295 OA
ENDBRANCH   9  11
ENDBRANCH   8   9
ENDBRANCH   1   8
TORSDOF 6
ENDMDL
MODEL 5
REMARK VINA RESULT:    -6.716      1.921      3.487
REMARK INTER + INTRA:         -10.460
REMARK INTER:                  -8.134
REMARK INTRA:                  -2.325
REMARK UNBOUND:                -1.388
REMARK SMILES CC[C@@H](CC[C@H](C)[C@@H]1CC[C@H]2[C@@H]3CC(=O)C4=CC(=O)CC[C@@]4(C)[C@@H]3CC[C@@]21C)C(C)C
REMARK SMILES IDX 4 1 3 2 2 3 1 4 29 5 30 6 31 7 5 8 6 9 7 10 8 11 9 12 27 13
REMARK SMILES IDX 10 14 11 15 26 16 28 17 12 18 25 19 24 20 13 21 22 22 14 23
REMARK SMILES IDX 16 24 21 25 23 26 15 27 17 28 20 29 18 30 19 31
REMARK H PARENT
REMARK Flexibility Score: inf
ROOT
ATOM      1  C   UNL     1      -4.153   5.943  11.513  1.00  0.00     0.004 C 
ENDROOT
BRANCH   1   2
ATOM      2  C   UNL     1      -2.767   5.399  11.049  1.00  0.00    -0.009 C 
BRANCH   2   3
ATOM      3  C   UNL     1      -2.936   3.985  10.427  1.00  0.00     0.000 C 
ATOM      4  C   UNL     1      -4.388   3.636  10.085  1.00  0.00     0.004 C 
ENDBRANCH   2   3
BRANCH   2   5
ATOM      5  C   UNL     1      -1.687   5.435  12.185  1.00  0.00    -0.014 C 
ATOM      6  C   UNL     1      -0.457   6.268  11.785  1.00  0.00     0.007 C 
ATOM      7  C   UNL     1      -2.234   5.914  13.545  1.00  0.00     0.007 C 
ENDBRANCH   2   5
ENDBRANCH   1   2
BRANCH   1   8
ATOM      8  C   UNL     1      -4.469   7.327  10.916  1.00  0.00     0.004 C 
BRANCH   8   9
ATOM      9  C   UNL     1      -3.972   7.552   9.456  1.00  0.00    -0.011 C 
ATOM     10  C   UNL     1      -2.860   8.619   9.425  1.00  0.00     0.008 C 
BRANCH   9  11
ATOM     11  C   UNL     1      -5.077   7.697   8.335  1.00  0.00    -0.002 C 
ATOM     12  C   UNL     1      -6.473   7.956   8.960  1.00  0.00     0.005 C 
ATOM     13  C   UNL     1      -5.344   6.556   7.281  1.00  0.00    -0.026 C 
ATOM     14  C   UNL     1      -7.367   6.754   8.637  1.00  0.00     0.005 C 
ATOM     15  C   UNL     1      -6.451   5.733   7.977  1.00  0.00    -0.001 C 
ATOM     16  C   UNL     1      -4.173   5.590   6.928  1.00  0.00     0.007 C 
ATOM     17  C   UNL     1      -5.865   7.232   5.949  1.00  0.00     0.012 C 
ATOM     18  C   UNL     1      -7.135   4.690   7.046  1.00  0.00     0.004 C 
ATOM     19  C   UNL     1      -4.632   4.143   6.586  1.00  0.00     0.005 C 
ATOM     20  C   UNL     1      -6.099   4.026   6.061  1.00  0.00     0.003 C 
ATOM     21  C   UNL     1      -7.915   3.660   7.876  1.00  0.00     0.085 C 
ATOM     22  C   UNL     1      -6.469   2.556   5.547  1.00  0.00    -0.000 C 
ATOM     23  C   UNL     1      -8.629   2.714   6.966  1.00  0.00     0.159 C 
ATOM     24  C   UNL     1      -7.968   2.273   5.718  1.00  0.00     0.005 C 
ATOM     25  C   UNL     1      -6.085   2.460   4.031  1.00  0.00     0.020 C 
ATOM     26  C   UNL     1      -5.713   1.448   6.334  1.00  0.00     0.017 C 
ATOM     27  O   UNL     1      -9.776   2.290   7.285  1.00  0.00    -0.295 OA
ATOM     28  C   UNL     1      -8.651   1.522   4.832  1.00  0.00     0.055 C 
ATOM     29  C   UNL     1      -6.563   1.168   3.367  1.00  0.00     0.081 C 
ATOM     30  C   UNL     1      -8.023   0.970   3.616  1.00  0.00     0.156 C 
ATOM     31  O   UNL     1      -8.705   0.254   2.831  1.00  0.00    -0.295 OA
ENDBRANCH   9  11
ENDBRANCH   8   9
ENDBRANCH   1   8
TORSDOF 6
ENDMDL
MODEL 6
REMARK VINA RESULT:    -6.714      5.183      8.650
REMARK INTER + INTRA:         -10.457
REMARK INTER:                  -9.027
REMARK INTRA:                  -1.430
REMARK UNBOUND:                -1.388
REMARK SMILES CC[C@@H](CC[C@H](C)[C@@H]1CC[C@H]2[C@@H]3CC(=O)C4=CC(=O)CC[C@@]4(C)[C@@H]3CC[C@@]21C)C(C)C
REMARK SMILES IDX 4 1 3 2 2 3 1 4 29 5 30 6 31 7 5 8 6 9 7 10 8 11 9 12 27 13
REMARK SMILES IDX 10 14 11 15 26 16 28 17 12 18 25 19 24 20 13 21 22 22 14 23
REMARK SMILES IDX 16 24 21 25 23 26 15 27 17 28 20 29 18 30 19 31
REMARK H PARENT
REMARK Flexibility Score: inf
ROOT
ATOM      1  C   UNL     1      -8.447  -0.470   6.393  1.00  0.00     0.004 C 
ENDROOT
BRANCH   1   2
ATOM      2  C   UNL     1      -7.634   0.860   6.354  1.00  0.00    -0.009 C 
BRANCH   2   3
ATOM      3  C   UNL     1      -8.566   2.038   5.956  1.00  0.00     0.000 C 
ATOM      4  C   UNL     1      -8.847   3.011   7.105  1.00  0.00     0.004 C 
ENDBRANCH   2   3
BRANCH   2   5
ATOM      5  C   UNL     1      -6.357   0.767   5.450  1.00  0.00    -0.014 C 
ATOM      6  C   UNL     1      -5.907  -0.689   5.235  1.00  0.00     0.007 C 
ATOM      7  C   UNL     1      -6.505   1.483   4.093  1.00  0.00     0.007 C 
ENDBRANCH   2   5
ENDBRANCH   1   2
BRANCH   1   8
ATOM      8  C   UNL     1      -9.850  -0.320   5.774  1.00  0.00     0.004 C 
BRANCH   8   9
ATOM      9  C   UNL     1     -10.193  -1.341   4.647  1.00  0.00    -0.011 C 
ATOM     10  C   UNL     1      -9.178  -1.228   3.493  1.00  0.00     0.008 C 
BRANCH   9  11
ATOM     11  C   UNL     1     -11.707  -1.442   4.206  1.00  0.00    -0.002 C 
ATOM     12  C   UNL     1     -12.573  -0.385   4.941  1.00  0.00     0.005 C 
ATOM     13  C   UNL     1     -12.530  -2.776   4.365  1.00  0.00    -0.026 C 
ATOM     14  C   UNL     1     -13.562  -1.128   5.845  1.00  0.00     0.005 C 
ATOM     15  C   UNL     1     -13.163  -2.596   5.762  1.00  0.00    -0.001 C 
ATOM     16  C   UNL     1     -11.753  -4.128   4.358  1.00  0.00     0.007 C 
ATOM     17  C   UNL     1     -13.626  -2.814   3.225  1.00  0.00     0.012 C 
ATOM     18  C   UNL     1     -14.276  -3.634   6.086  1.00  0.00     0.004 C 
ATOM     19  C   UNL     1     -12.390  -5.225   5.256  1.00  0.00     0.005 C 
ATOM     20  C   UNL     1     -13.923  -5.059   5.510  1.00  0.00     0.003 C 
ATOM     21  C   UNL     1     -14.570  -3.655   7.593  1.00  0.00     0.085 C 
ATOM     22  C   UNL     1     -14.574  -6.302   6.279  1.00  0.00    -0.000 C 
ATOM     23  C   UNL     1     -15.694  -4.598   7.875  1.00  0.00     0.159 C 
ATOM     24  C   UNL     1     -15.786  -5.863   7.112  1.00  0.00     0.005 C 
ATOM     25  C   UNL     1     -15.025  -7.354   5.209  1.00  0.00     0.020 C 
ATOM     26  C   UNL     1     -13.576  -6.975   7.264  1.00  0.00     0.017 C 
ATOM     27  O   UNL     1     -16.534  -4.313   8.774  1.00  0.00    -0.295 OA
ATOM     28  C   UNL     1     -16.861  -6.659   7.270  1.00  0.00     0.055 C 
ATOM     29  C   UNL     1     -15.837  -8.507   5.800  1.00  0.00     0.081 C 
ATOM     30  C   UNL     1     -16.971  -7.976   6.614  1.00  0.00     0.156 C 
ATOM     31  O   UNL     1     -17.992  -8.690   6.815  1.00  0.00    -0.295 OA
ENDBRANCH   9  11
ENDBRANCH   8   9
ENDBRANCH   1   8
TORSDOF 6
ENDMDL
MODEL 7
REMARK VINA RESULT:    -6.655      8.534     12.768
REMARK INTER + INTRA:         -10.377
REMARK INTER:                  -7.203
REMARK INTRA:                  -3.174
REMARK UNBOUND:                -1.388
REMARK SMILES CC[C@@H](CC[C@H](C)[C@@H]1CC[C@H]2[C@@H]3CC(=O)C4=CC(=O)CC[C@@]4(C)[C@@H]3CC[C@@]21C)C(C)C
REMARK SMILES IDX 4 1 3 2 2 3 1 4 29 5 30 6 31 7 5 8 6 9 7 10 8 11 9 12 27 13
REMARK SMILES IDX 10 14 11 15 26 16 28 17 12 18 25 19 24 20 13 21 22 22 14 23
REMARK SMILES IDX 16 24 21 25 23 26 15 27 17 28 20 29 18 30 19 31
REMARK H PARENT
REMARK Flexibility Score: inf
ROOT
ATOM      1  C   UNL     1     -16.205  -7.375   8.161  1.00  0.00     0.004 C 
ENDROOT
BRANCH   1   2
ATOM      2  C   UNL     1     -16.214  -5.840   7.886  1.00  0.00    -0.009 C 
BRANCH   2   3
ATOM      3  C   UNL     1     -14.820  -5.236   8.213  1.00  0.00     0.000 C 
ATOM      4  C   UNL     1     -14.726  -3.732   7.939  1.00  0.00     0.004 C 
ENDBRANCH   2   3
BRANCH   2   5
ATOM      5  C   UNL     1     -17.383  -5.096   8.619  1.00  0.00    -0.014 C 
ATOM      6  C   UNL     1     -18.344  -4.416   7.629  1.00  0.00     0.007 C 
ATOM      7  C   UNL     1     -18.171  -5.992   9.596  1.00  0.00     0.007 C 
ENDBRANCH   2   5
ENDBRANCH   1   2
BRANCH   1   8
ATOM      8  C   UNL     1     -16.447  -8.202   6.884  1.00  0.00     0.004 C 
BRANCH   8   9
ATOM      9  C   UNL     1     -17.162  -7.443   5.725  1.00  0.00    -0.011 C 
ATOM     10  C   UNL     1     -18.582  -7.999   5.513  1.00  0.00     0.008 C 
BRANCH   9  11
ATOM     11  C   UNL     1     -16.328  -7.201   4.403  1.00  0.00    -0.002 C 
ATOM     12  C   UNL     1     -15.015  -8.028   4.414  1.00  0.00     0.005 C 
ATOM     13  C   UNL     1     -15.860  -5.761   3.969  1.00  0.00    -0.026 C 
ATOM     14  C   UNL     1     -13.838  -7.047   4.446  1.00  0.00     0.005 C 
ATOM     15  C   UNL     1     -14.463  -5.670   4.622  1.00  0.00    -0.001 C 
ATOM     16  C   UNL     1     -16.698  -4.537   4.450  1.00  0.00     0.007 C 
ATOM     17  C   UNL     1     -15.774  -5.729   2.390  1.00  0.00     0.012 C 
ATOM     18  C   UNL     1     -13.618  -4.460   4.128  1.00  0.00     0.004 C 
ATOM     19  C   UNL     1     -15.854  -3.256   4.702  1.00  0.00     0.005 C 
ATOM     20  C   UNL     1     -14.515  -3.183   3.900  1.00  0.00     0.003 C 
ATOM     21  C   UNL     1     -12.442  -4.201   5.081  1.00  0.00     0.085 C 
ATOM     22  C   UNL     1     -13.769  -1.774   4.043  1.00  0.00    -0.000 C 
ATOM     23  C   UNL     1     -11.597  -3.088   4.551  1.00  0.00     0.159 C 
ATOM     24  C   UNL     1     -12.250  -1.935   3.893  1.00  0.00     0.005 C 
ATOM     25  C   UNL     1     -14.310  -0.822   2.921  1.00  0.00     0.020 C 
ATOM     26  C   UNL     1     -14.015  -1.114   5.430  1.00  0.00     0.017 C 
ATOM     27  O   UNL     1     -10.343  -3.139   4.692  1.00  0.00    -0.295 OA
ATOM     28  C   UNL     1     -11.494  -0.989   3.303  1.00  0.00     0.055 C 
ATOM     29  C   UNL     1     -13.542   0.496   2.826  1.00  0.00     0.081 C 
ATOM     30  C   UNL     1     -12.076   0.232   2.714  1.00  0.00     0.156 C 
ATOM     31  O   UNL     1     -11.316   1.096   2.192  1.00  0.00    -0.295 OA
ENDBRANCH   9  11
ENDBRANCH   8   9
ENDBRANCH   1   8
TORSDOF 6
ENDMDL
MODEL 8
REMARK VINA RESULT:    -6.648      3.609      8.703
REMARK INTER + INTRA:         -10.369
REMARK INTER:                  -8.193
REMARK INTRA:                  -2.175
REMARK UNBOUND:                -1.388
REMARK SMILES CC[C@@H](CC[C@H](C)[C@@H]1CC[C@H]2[C@@H]3CC(=O)C4=CC(=O)CC[C@@]4(C)[C@@H]3CC[C@@]21C)C(C)C
REMARK SMILES IDX 4 1 3 2 2 3 1 4 29 5 30 6 31 7 5 8 6 9 7 10 8 11 9 12 27 13
REMARK SMILES IDX 10 14 11 15 26 16 28 17 12 18 25 19 24 20 13 21 22 22 14 23
REMARK SMILES IDX 16 24 21 25 23 26 15 27 17 28 20 29 18 30 19 31
REMARK H PARENT
REMARK Flexibility Score: inf
ROOT
ATOM      1  C   UNL     1      -6.574   1.566   6.296  1.00  0.00     0.004 C 
ENDROOT
BRANCH   1   2
ATOM      2  C   UNL     1      -8.088   1.880   6.098  1.00  0.00    -0.009 C 
BRANCH   2   3
ATOM      3  C   UNL     1      -8.720   2.315   7.449  1.00  0.00     0.000 C 
ATOM      4  C   UNL     1     -10.250   2.239   7.461  1.00  0.00     0.004 C 
ENDBRANCH   2   3
BRANCH   2   5
ATOM      5  C   UNL     1      -8.869   0.704   5.415  1.00  0.00    -0.014 C 
ATOM      6  C   UNL     1      -8.998   0.904   3.894  1.00  0.00     0.007 C 
ATOM      7  C   UNL     1      -8.285  -0.689   5.721  1.00  0.00     0.007 C 
ENDBRANCH   2   5
ENDBRANCH   1   2
BRANCH   1   8
ATOM      8  C   UNL     1      -5.747   1.831   5.023  1.00  0.00     0.004 C 
BRANCH   8   9
ATOM      9  C   UNL     1      -5.963   3.229   4.368  1.00  0.00    -0.011 C 
ATOM     10  C   UNL     1      -6.128   3.089   2.843  1.00  0.00     0.008 C 
BRANCH   9  11
ATOM     11  C   UNL     1      -5.008   4.398   4.839  1.00  0.00    -0.002 C 
ATOM     12  C   UNL     1      -3.551   3.893   5.005  1.00  0.00     0.005 C 
ATOM     13  C   UNL     1      -5.278   5.206   6.164  1.00  0.00    -0.026 C 
ATOM     14  C   UNL     1      -3.179   3.998   6.488  1.00  0.00     0.005 C 
ATOM     15  C   UNL     1      -4.463   4.400   7.201  1.00  0.00    -0.001 C 
ATOM     16  C   UNL     1      -6.746   5.310   6.680  1.00  0.00     0.007 C 
ATOM     17  C   UNL     1      -4.703   6.667   5.973  1.00  0.00     0.012 C 
ATOM     18  C   UNL     1      -4.297   5.125   8.568  1.00  0.00     0.004 C 
ATOM     19  C   UNL     1      -6.867   5.367   8.229  1.00  0.00     0.005 C 
ATOM     20  C   UNL     1      -5.602   5.913   8.967  1.00  0.00     0.003 C 
ATOM     21  C   UNL     1      -3.843   4.133   9.649  1.00  0.00     0.085 C 
ATOM     22  C   UNL     1      -5.832   6.130  10.537  1.00  0.00    -0.000 C 
ATOM     23  C   UNL     1      -3.613   4.858  10.935  1.00  0.00     0.159 C 
ATOM     24  C   UNL     1      -4.520   5.964  11.315  1.00  0.00     0.005 C 
ATOM     25  C   UNL     1      -6.390   7.579  10.749  1.00  0.00     0.020 C 
ATOM     26  C   UNL     1      -6.839   5.106  11.132  1.00  0.00     0.017 C 
ATOM     27  O   UNL     1      -2.662   4.504  11.687  1.00  0.00    -0.295 OA
ATOM     28  C   UNL     1      -4.248   6.704  12.407  1.00  0.00     0.055 C 
ATOM     29  C   UNL     1      -6.474   7.984  12.222  1.00  0.00     0.081 C 
ATOM     30  C   UNL     1      -5.160   7.756  12.895  1.00  0.00     0.156 C 
ATOM     31  O   UNL     1      -4.864   8.404  13.937  1.00  0.00    -0.295 OA
ENDBRANCH   9  11
ENDBRANCH   8   9
ENDBRANCH   1   8
TORSDOF 6
ENDMDL
MODEL 9
REMARK VINA RESULT:    -6.559      6.684     10.361
REMARK INTER + INTRA:         -10.248
REMARK INTER:                  -7.094
REMARK INTRA:                  -3.154
REMARK UNBOUND:                -1.388
REMARK SMILES CC[C@@H](CC[C@H](C)[C@@H]1CC[C@H]2[C@@H]3CC(=O)C4=CC(=O)CC[C@@]4(C)[C@@H]3CC[C@@]21C)C(C)C
REMARK SMILES IDX 4 1 3 2 2 3 1 4 29 5 30 6 31 7 5 8 6 9 7 10 8 11 9 12 27 13
REMARK SMILES IDX 10 14 11 15 26 16 28 17 12 18 25 19 24 20 13 21 22 22 14 23
REMARK SMILES IDX 16 24 21 25 23 26 15 27 17 28 20 29 18 30 19 31
REMARK H PARENT
REMARK Flexibility Score: inf
ROOT
ATOM      1  C   UNL     1      -4.924   9.120   7.502  1.00  0.00     0.004 C 
ENDROOT
BRANCH   1   2
ATOM      2  C   UNL     1      -3.927   8.005   7.940  1.00  0.00    -0.009 C 
BRANCH   2   3
ATOM      3  C   UNL     1      -2.760   8.629   8.755  1.00  0.00     0.000 C 
ATOM      4  C   UNL     1      -3.045  10.055   9.237  1.00  0.00     0.004 C 
ENDBRANCH   2   3
BRANCH   2   5
ATOM      5  C   UNL     1      -3.426   7.130   6.739  1.00  0.00    -0.014 C 
ATOM      6  C   UNL     1      -3.734   5.636   6.946  1.00  0.00     0.007 C 
ATOM      7  C   UNL     1      -3.955   7.597   5.369  1.00  0.00     0.007 C 
ENDBRANCH   2   5
ENDBRANCH   1   2
BRANCH   1   8
ATOM      8  C   UNL     1      -6.354   8.864   8.016  1.00  0.00     0.004 C 
BRANCH   8   9
ATOM      9  C   UNL     1      -6.610   7.436   8.587  1.00  0.00    -0.011 C 
ATOM     10  C   UNL     1      -7.642   6.688   7.721  1.00  0.00     0.008 C 
BRANCH   9  11
ATOM     11  C   UNL     1      -6.824   7.314  10.148  1.00  0.00    -0.002 C 
ATOM     12  C   UNL     1      -7.057   8.708  10.788  1.00  0.00     0.005 C 
ATOM     13  C   UNL     1      -5.746   6.648  11.084  1.00  0.00    -0.026 C 
ATOM     14  C   UNL     1      -5.881   9.002  11.725  1.00  0.00     0.005 C 
ATOM     15  C   UNL     1      -4.892   7.865  11.503  1.00  0.00    -0.001 C 
ATOM     16  C   UNL     1      -4.792   5.579  10.467  1.00  0.00     0.007 C 
ATOM     17  C   UNL     1      -6.498   6.006  12.318  1.00  0.00     0.012 C 
ATOM     18  C   UNL     1      -3.907   7.568  12.671  1.00  0.00     0.004 C 
ATOM     19  C   UNL     1      -3.371   5.566  11.097  1.00  0.00     0.005 C 
ATOM     20  C   UNL     1      -3.292   6.121  12.555  1.00  0.00     0.003 C 
ATOM     21  C   UNL     1      -2.837   8.666  12.764  1.00  0.00     0.085 C 
ATOM     22  C   UNL     1      -1.855   5.918  13.231  1.00  0.00    -0.000 C 
ATOM     23  C   UNL     1      -1.949   8.408  13.937  1.00  0.00     0.159 C 
ATOM     24  C   UNL     1      -1.573   7.015  14.267  1.00  0.00     0.005 C 
ATOM     25  C   UNL     1      -1.842   4.517  13.931  1.00  0.00     0.020 C 
ATOM     26  C   UNL     1      -0.700   5.978  12.191  1.00  0.00     0.017 C 
ATOM     27  O   UNL     1      -1.515   9.381  14.615  1.00  0.00    -0.295 OA
ATOM     28  C   UNL     1      -0.878   6.762  15.393  1.00  0.00     0.055 C 
ATOM     29  C   UNL     1      -0.592   4.277  14.779  1.00  0.00     0.081 C 
ATOM     30  C   UNL     1      -0.390   5.411  15.731  1.00  0.00     0.156 C 
ATOM     31  O   UNL     1       0.277   5.236  16.789  1.00  0.00    -0.295 OA
ENDBRANCH   9  11
ENDBRANCH   8   9
ENDBRANCH   1   8
TORSDOF 6
ENDMDL
