MODEL 1
REMARK VINA RESULT:    -5.030      0.000      0.000
REMARK INTER + INTRA:          -5.471
REMARK INTER:                  -5.471
REMARK INTRA:                   0.000
REMARK UNBOUND:                 0.000
REMARK SMILES Cc1cc(O)c2c(c1)C(=O)c1cc(O)cc(O)c1C2=O
REMARK SMILES IDX 1 1 2 2 8 3 7 4 6 5 4 6 3 7 19 8 20 9 18 10 11 11 9 12 10 13
REMARK SMILES IDX 12 14 13 15 15 16 16 17 5 18 17 20 14 22
REMARK H PARENT 5 19 17 21 14 23
REMARK Flexibility Score: inf
ROOT
ATOM      1  C   UNL     1      13.274  -0.321   8.452  1.00  0.00     0.044 C 
ATOM      2  C   UNL     1      13.884  -1.406   7.613  1.00  0.00    -0.047 A 
ATOM      3  C   UNL     1      15.142  -1.925   7.939  1.00  0.00     0.016 A 
ATOM      4  C   UNL     1      15.708  -2.960   7.177  1.00  0.00     0.038 A 
ATOM      5  C   UNL     1      15.005  -3.483   6.068  1.00  0.00     0.076 A 
ATOM      6  C   UNL     1      13.697  -3.011   5.795  1.00  0.00     0.127 A 
ATOM      7  C   UNL     1      13.161  -1.967   6.556  1.00  0.00     0.050 A 
ATOM      8  C   UNL     1      15.698  -4.470   5.201  1.00  0.00     0.201 C 
ATOM      9  O   UNL     1      15.412  -4.535   3.974  1.00  0.00    -0.288 OA
ATOM     10  C   UNL     1      16.850  -5.243   5.733  1.00  0.00     0.076 A 
ATOM     11  C   UNL     1      17.550  -4.717   6.843  1.00  0.00     0.041 A 
ATOM     12  C   UNL     1      17.038  -3.509   7.534  1.00  0.00     0.194 C 
ATOM     13  O   UNL     1      17.723  -2.964   8.442  1.00  0.00    -0.289 OA
ATOM     14  C   UNL     1      18.725  -5.345   7.289  1.00  0.00     0.059 A 
ATOM     15  C   UNL     1      19.200  -6.495   6.654  1.00  0.00     0.120 A 
ATOM     16  C   UNL     1      18.490  -7.039   5.584  1.00  0.00     0.093 A 
ATOM     17  C   UNL     1      17.307  -6.445   5.133  1.00  0.00     0.131 A 
ENDROOT
BRANCH   6  18
ATOM     18  O   UNL     1      12.883  -3.572   4.807  1.00  0.00    -0.507 OA
ATOM     19  H   UNL     1      12.336  -4.410   4.944  1.00  0.00     0.293 HD
ENDBRANCH   6  18
BRANCH  17  20
ATOM     20  O   UNL     1      16.604  -7.098   4.118  1.00  0.00    -0.507 OA
ATOM     21  H   UNL     1      16.919  -7.140   3.158  1.00  0.00     0.293 HD
ENDBRANCH  17  20
BRANCH  15  22
ATOM     22  O   UNL     1      20.372  -7.113   7.086  1.00  0.00    -0.508 OA
ATOM     23  H   UNL     1      20.404  -8.105   7.287  1.00  0.00     0.293 HD
ENDBRANCH  15  22
TORSDOF 3
ENDMDL
MODEL 2
REMARK VINA RESULT:    -4.583      1.352      5.497
REMARK INTER + INTRA:          -4.984
REMARK INTER:                  -4.984
REMARK INTRA:                   0.000
REMARK UNBOUND:                 0.000
REMARK SMILES Cc1cc(O)c2c(c1)C(=O)c1cc(O)cc(O)c1C2=O
REMARK SMILES IDX 1 1 2 2 8 3 7 4 6 5 4 6 3 7 19 8 20 9 18 10 11 11 9 12 10 13
REMARK SMILES IDX 12 14 13 15 15 16 16 17 5 18 17 20 14 22
REMARK H PARENT 5 19 17 21 14 23
REMARK Flexibility Score: inf
ROOT
ATOM      1  C   UNL     1      20.374  -6.914   6.859  1.00  0.00     0.044 C 
ATOM      2  C   UNL     1      19.021  -6.388   6.480  1.00  0.00    -0.047 A 
ATOM      3  C   UNL     1      18.511  -5.243   7.103  1.00  0.00     0.016 A 
ATOM      4  C   UNL     1      17.258  -4.726   6.735  1.00  0.00     0.038 A 
ATOM      5  C   UNL     1      16.500  -5.366   5.728  1.00  0.00     0.076 A 
ATOM      6  C   UNL     1      17.059  -6.475   5.044  1.00  0.00     0.127 A 
ATOM      7  C   UNL     1      18.300  -6.983   5.441  1.00  0.00     0.050 A 
ATOM      8  C   UNL     1      15.121  -4.880   5.472  1.00  0.00     0.201 C 
ATOM      9  O   UNL     1      14.239  -5.684   5.062  1.00  0.00    -0.288 OA
ATOM     10  C   UNL     1      14.735  -3.503   5.874  1.00  0.00     0.076 A 
ATOM     11  C   UNL     1      15.496  -2.864   6.881  1.00  0.00     0.041 A 
ATOM     12  C   UNL     1      16.729  -3.508   7.394  1.00  0.00     0.194 C 
ATOM     13  O   UNL     1      17.340  -3.005   8.376  1.00  0.00    -0.289 OA
ATOM     14  C   UNL     1      15.083  -1.620   7.385  1.00  0.00     0.059 A 
ATOM     15  C   UNL     1      13.933  -1.000   6.889  1.00  0.00     0.120 A 
ATOM     16  C   UNL     1      13.202  -1.608   5.868  1.00  0.00     0.093 A 
ATOM     17  C   UNL     1      13.603  -2.837   5.335  1.00  0.00     0.131 A 
ENDROOT
BRANCH   6  18
ATOM     18  O   UNL     1      16.438  -7.076   3.947  1.00  0.00    -0.507 OA
ATOM     19  H   UNL     1      16.844  -7.841   3.425  1.00  0.00     0.293 HD
ENDBRANCH   6  18
BRANCH  17  20
ATOM     20  O   UNL     1      12.875  -3.339   4.255  1.00  0.00    -0.507 OA
ATOM     21  H   UNL     1      12.373  -4.216   4.278  1.00  0.00     0.293 HD
ENDBRANCH  17  20
BRANCH  15  22
ATOM     22  O   UNL     1      13.513   0.228   7.396  1.00  0.00    -0.508 OA
ATOM     23  H   UNL     1      14.110   1.046   7.364  1.00  0.00     0.293 HD
ENDBRANCH  15  22
TORSDOF 3
ENDMDL
MODEL 3
REMARK VINA RESULT:    -4.498      3.765      6.757
REMARK INTER + INTRA:          -4.892
REMARK INTER:                  -4.892
REMARK INTRA:                   0.000
REMARK UNBOUND:                 0.000
REMARK SMILES Cc1cc(O)c2c(c1)C(=O)c1cc(O)cc(O)c1C2=O
REMARK SMILES IDX 1 1 2 2 8 3 7 4 6 5 4 6 3 7 19 8 20 9 18 10 11 11 9 12 10 13
REMARK SMILES IDX 12 14 13 15 15 16 16 17 5 18 17 20 14 22
REMARK H PARENT 5 19 17 21 14 23
REMARK Flexibility Score: inf
ROOT
ATOM      1  C   UNL     1      15.118  -6.024   6.168  1.00  0.00     0.044 C 
ATOM      2  C   UNL     1      14.830  -4.555   6.268  1.00  0.00    -0.047 A 
ATOM      3  C   UNL     1      15.269  -3.683   5.265  1.00  0.00     0.016 A 
ATOM      4  C   UNL     1      14.979  -2.309   5.335  1.00  0.00     0.038 A 
ATOM      5  C   UNL     1      14.241  -1.800   6.426  1.00  0.00     0.076 A 
ATOM      6  C   UNL     1      13.728  -2.701   7.394  1.00  0.00     0.127 A 
ATOM      7  C   UNL     1      14.046  -4.061   7.314  1.00  0.00     0.050 A 
ATOM      8  C   UNL     1      14.083  -0.328   6.542  1.00  0.00     0.201 C 
ATOM      9  O   UNL     1      13.973   0.203   7.680  1.00  0.00    -0.288 OA
ATOM     10  C   UNL     1      14.243   0.529   5.338  1.00  0.00     0.076 A 
ATOM     11  C   UNL     1      14.981   0.016   4.247  1.00  0.00     0.041 A 
ATOM     12  C   UNL     1      15.441  -1.393   4.264  1.00  0.00     0.194 C 
ATOM     13  O   UNL     1      16.204  -1.819   3.355  1.00  0.00    -0.289 OA
ATOM     14  C   UNL     1      15.271   0.843   3.149  1.00  0.00     0.059 A 
ATOM     15  C   UNL     1      14.823   2.166   3.120  1.00  0.00     0.120 A 
ATOM     16  C   UNL     1      14.060   2.664   4.176  1.00  0.00     0.093 A 
ATOM     17  C   UNL     1      13.741   1.855   5.272  1.00  0.00     0.131 A 
ENDROOT
BRANCH   6  18
ATOM     18  O   UNL     1      12.875  -2.298   8.424  1.00  0.00    -0.507 OA
ATOM     19  H   UNL     1      12.812  -1.346   8.756  1.00  0.00     0.293 HD
ENDBRANCH   6  18
BRANCH  17  20
ATOM     20  O   UNL     1      12.898   2.394   6.246  1.00  0.00    -0.507 OA
ATOM     21  H   UNL     1      13.218   3.001   6.988  1.00  0.00     0.293 HD
ENDBRANCH  17  20
BRANCH  15  22
ATOM     22  O   UNL     1      15.119   2.993   2.038  1.00  0.00    -0.508 OA
ATOM     23  H   UNL     1      15.674   3.834   2.150  1.00  0.00     0.293 HD
ENDBRANCH  15  22
TORSDOF 3
ENDMDL
MODEL 4
REMARK VINA RESULT:    -4.340      3.640      6.141
REMARK INTER + INTRA:          -4.720
REMARK INTER:                  -4.720
REMARK INTRA:                   0.000
REMARK UNBOUND:                 0.000
REMARK SMILES Cc1cc(O)c2c(c1)C(=O)c1cc(O)cc(O)c1C2=O
REMARK SMILES IDX 1 1 2 2 8 3 7 4 6 5 4 6 3 7 19 8 20 9 18 10 11 11 9 12 10 13
REMARK SMILES IDX 12 14 13 15 15 16 16 17 5 18 17 20 14 22
REMARK H PARENT 5 19 17 21 14 23
REMARK Flexibility Score: inf
ROOT
ATOM      1  C   UNL     1      14.299  -5.694   7.601  1.00  0.00     0.044 C 
ATOM      2  C   UNL     1      14.366  -4.674   6.502  1.00  0.00    -0.047 A 
ATOM      3  C   UNL     1      14.303  -3.309   6.805  1.00  0.00     0.016 A 
ATOM      4  C   UNL     1      14.393  -2.346   5.786  1.00  0.00     0.038 A 
ATOM      5  C   UNL     1      14.548  -2.755   4.442  1.00  0.00     0.076 A 
ATOM      6  C   UNL     1      14.696  -4.135   4.153  1.00  0.00     0.127 A 
ATOM      7  C   UNL     1      14.583  -5.076   5.181  1.00  0.00     0.050 A 
ATOM      8  C   UNL     1      14.490  -1.717   3.382  1.00  0.00     0.201 C 
ATOM      9  O   UNL     1      14.056  -2.015   2.236  1.00  0.00    -0.288 OA
ATOM     10  C   UNL     1      14.764  -0.296   3.721  1.00  0.00     0.076 A 
ATOM     11  C   UNL     1      14.609   0.110   5.067  1.00  0.00     0.041 A 
ATOM     12  C   UNL     1      14.333  -0.901   6.116  1.00  0.00     0.194 C 
ATOM     13  O   UNL     1      14.071  -0.533   7.293  1.00  0.00    -0.289 OA
ATOM     14  C   UNL     1      14.724   1.468   5.405  1.00  0.00     0.059 A 
ATOM     15  C   UNL     1      15.005   2.422   4.423  1.00  0.00     0.120 A 
ATOM     16  C   UNL     1      15.198   2.021   3.101  1.00  0.00     0.093 A 
ATOM     17  C   UNL     1      15.108   0.672   2.742  1.00  0.00     0.131 A 
ENDROOT
BRANCH   6  18
ATOM     18  O   UNL     1      14.991  -4.611   2.873  1.00  0.00    -0.507 OA
ATOM     19  H   UNL     1      15.539  -5.441   2.699  1.00  0.00     0.293 HD
ENDBRANCH   6  18
BRANCH  17  20
ATOM     20  O   UNL     1      15.403   0.337   1.420  1.00  0.00    -0.507 OA
ATOM     21  H   UNL     1      14.701   0.226   0.701  1.00  0.00     0.293 HD
ENDBRANCH  17  20
BRANCH  15  22
ATOM     22  O   UNL     1      15.108   3.772   4.752  1.00  0.00    -0.508 OA
ATOM     23  H   UNL     1      15.117   4.492   4.039  1.00  0.00     0.293 HD
ENDBRANCH  15  22
TORSDOF 3
ENDMDL
MODEL 5
REMARK VINA RESULT:    -4.265      3.913      6.008
REMARK INTER + INTRA:          -4.639
REMARK INTER:                  -4.639
REMARK INTRA:                   0.000
REMARK UNBOUND:                 0.000
REMARK SMILES Cc1cc(O)c2c(c1)C(=O)c1cc(O)cc(O)c1C2=O
REMARK SMILES IDX 1 1 2 2 8 3 7 4 6 5 4 6 3 7 19 8 20 9 18 10 11 11 9 12 10 13
REMARK SMILES IDX 12 14 13 15 15 16 16 17 5 18 17 20 14 22
REMARK H PARENT 5 19 17 21 14 23
REMARK Flexibility Score: inf
ROOT
ATOM      1  C   UNL     1      13.328   2.871   1.075  1.00  0.00     0.044 C 
ATOM      2  C   UNL     1      13.546   2.169   2.383  1.00  0.00    -0.047 A 
ATOM      3  C   UNL     1      13.351   0.787   2.482  1.00  0.00     0.016 A 
ATOM      4  C   UNL     1      13.580   0.116   3.695  1.00  0.00     0.038 A 
ATOM      5  C   UNL     1      14.012   0.840   4.829  1.00  0.00     0.076 A 
ATOM      6  C   UNL     1      14.289   2.225   4.699  1.00  0.00     0.127 A 
ATOM      7  C   UNL     1      14.034   2.875   3.487  1.00  0.00     0.050 A 
ATOM      8  C   UNL     1      14.101   0.124   6.127  1.00  0.00     0.201 C 
ATOM      9  O   UNL     1      13.911   0.753   7.203  1.00  0.00    -0.288 OA
ATOM     10  C   UNL     1      14.225  -1.356   6.148  1.00  0.00     0.076 A 
ATOM     11  C   UNL     1      13.793  -2.078   5.011  1.00  0.00     0.041 A 
ATOM     12  C   UNL     1      13.378  -1.350   3.788  1.00  0.00     0.194 C 
ATOM     13  O   UNL     1      12.875  -1.981   2.818  1.00  0.00    -0.289 OA
ATOM     14  C   UNL     1      13.766  -3.482   5.043  1.00  0.00     0.059 A 
ATOM     15  C   UNL     1      14.176  -4.173   6.187  1.00  0.00     0.120 A 
ATOM     16  C   UNL     1      14.640  -3.466   7.296  1.00  0.00     0.093 A 
ATOM     17  C   UNL     1      14.696  -2.068   7.281  1.00  0.00     0.131 A 
ENDROOT
BRANCH   6  18
ATOM     18  O   UNL     1      14.850   2.982   5.731  1.00  0.00    -0.507 OA
ATOM     19  H   UNL     1      15.772   2.815   6.109  1.00  0.00     0.293 HD
ENDBRANCH   6  18
BRANCH  17  20
ATOM     20  O   UNL     1      15.257  -1.435   8.392  1.00  0.00    -0.507 OA
ATOM     21  H   UNL     1      14.712  -0.959   9.098  1.00  0.00     0.293 HD
ENDBRANCH  17  20
BRANCH  15  22
ATOM     22  O   UNL     1      14.138  -5.566   6.227  1.00  0.00    -0.508 OA
ATOM     23  H   UNL     1      14.654  -6.129   5.562  1.00  0.00     0.293 HD
ENDBRANCH  15  22
TORSDOF 3
ENDMDL
MODEL 6
REMARK VINA RESULT:    -4.187      1.850      3.729
REMARK INTER + INTRA:          -4.554
REMARK INTER:                  -4.554
REMARK INTRA:                   0.000
REMARK UNBOUND:                 0.000
REMARK SMILES Cc1cc(O)c2c(c1)C(=O)c1cc(O)cc(O)c1C2=O
REMARK SMILES IDX 1 1 2 2 8 3 7 4 6 5 4 6 3 7 19 8 20 9 18 10 11 11 9 12 10 13
REMARK SMILES IDX 12 14 13 15 15 16 16 17 5 18 17 20 14 22
REMARK H PARENT 5 19 17 21 14 23
REMARK Flexibility Score: inf
ROOT
ATOM      1  C   UNL     1      12.876  -2.968   1.548  1.00  0.00     0.044 C 
ATOM      2  C   UNL     1      13.673  -2.986   2.820  1.00  0.00    -0.047 A 
ATOM      3  C   UNL     1      14.517  -4.065   3.106  1.00  0.00     0.016 A 
ATOM      4  C   UNL     1      15.288  -4.077   4.281  1.00  0.00     0.038 A 
ATOM      5  C   UNL     1      15.213  -2.993   5.184  1.00  0.00     0.076 A 
ATOM      6  C   UNL     1      14.421  -1.867   4.846  1.00  0.00     0.127 A 
ATOM      7  C   UNL     1      13.647  -1.886   3.681  1.00  0.00     0.050 A 
ATOM      8  C   UNL     1      15.927  -3.109   6.481  1.00  0.00     0.201 C 
ATOM      9  O   UNL     1      15.475  -2.518   7.499  1.00  0.00    -0.288 OA
ATOM     10  C   UNL     1      17.056  -4.065   6.621  1.00  0.00     0.076 A 
ATOM     11  C   UNL     1      17.129  -5.148   5.715  1.00  0.00     0.041 A 
ATOM     12  C   UNL     1      16.186  -5.220   4.573  1.00  0.00     0.194 C 
ATOM     13  O   UNL     1      16.165  -6.244   3.837  1.00  0.00    -0.289 OA
ATOM     14  C   UNL     1      18.100  -6.147   5.897  1.00  0.00     0.059 A 
ATOM     15  C   UNL     1      19.004  -6.072   6.960  1.00  0.00     0.120 A 
ATOM     16  C   UNL     1      18.961  -4.985   7.832  1.00  0.00     0.093 A 
ATOM     17  C   UNL     1      18.017  -3.967   7.660  1.00  0.00     0.131 A 
ENDROOT
BRANCH   6  18
ATOM     18  O   UNL     1      14.401  -0.700   5.614  1.00  0.00    -0.507 OA
ATOM     19  H   UNL     1      14.873  -0.609   6.503  1.00  0.00     0.293 HD
ENDBRANCH   6  18
BRANCH  17  20
ATOM     20  O   UNL     1      18.094  -2.867   8.517  1.00  0.00    -0.507 OA
ATOM     21  H   UNL     1      18.708  -2.079   8.361  1.00  0.00     0.293 HD
ENDBRANCH  17  20
BRANCH  15  22
ATOM     22  O   UNL     1      19.960  -7.068   7.151  1.00  0.00    -0.508 OA
ATOM     23  H   UNL     1      20.365  -7.570   6.370  1.00  0.00     0.293 HD
ENDBRANCH  15  22
TORSDOF 3
ENDMDL
MODEL 7
REMARK VINA RESULT:    -4.048      2.382      5.855
REMARK INTER + INTRA:          -4.403
REMARK INTER:                  -4.403
REMARK INTRA:                   0.000
REMARK UNBOUND:                 0.000
REMARK SMILES Cc1cc(O)c2c(c1)C(=O)c1cc(O)cc(O)c1C2=O
REMARK SMILES IDX 1 1 2 2 8 3 7 4 6 5 4 6 3 7 19 8 20 9 18 10 11 11 9 12 10 13
REMARK SMILES IDX 12 14 13 15 15 16 16 17 5 18 17 20 14 22
REMARK H PARENT 5 19 17 21 14 23
REMARK Flexibility Score: inf
ROOT
ATOM      1  C   UNL     1      17.398  -6.487   7.735  1.00  0.00     0.044 C 
ATOM      2  C   UNL     1      16.579  -5.624   6.820  1.00  0.00    -0.047 A 
ATOM      3  C   UNL     1      16.112  -4.380   7.257  1.00  0.00     0.016 A 
ATOM      4  C   UNL     1      15.369  -3.552   6.399  1.00  0.00     0.038 A 
ATOM      5  C   UNL     1      15.087  -3.978   5.081  1.00  0.00     0.076 A 
ATOM      6  C   UNL     1      15.634  -5.202   4.619  1.00  0.00     0.127 A 
ATOM      7  C   UNL     1      16.354  -6.017   5.498  1.00  0.00     0.050 A 
ATOM      8  C   UNL     1      14.176  -3.146   4.255  1.00  0.00     0.201 C 
ATOM      9  O   UNL     1      13.455  -3.690   3.375  1.00  0.00    -0.288 OA
ATOM     10  C   UNL     1      13.977  -1.711   4.589  1.00  0.00     0.076 A 
ATOM     11  C   UNL     1      14.262  -1.288   5.908  1.00  0.00     0.041 A 
ATOM     12  C   UNL     1      14.885  -2.231   6.867  1.00  0.00     0.194 C 
ATOM     13  O   UNL     1      15.026  -1.900   8.076  1.00  0.00    -0.289 OA
ATOM     14  C   UNL     1      13.958   0.026   6.301  1.00  0.00     0.059 A 
ATOM     15  C   UNL     1      13.389   0.924   5.395  1.00  0.00     0.120 A 
ATOM     16  C   UNL     1      13.144   0.522   4.081  1.00  0.00     0.093 A 
ATOM     17  C   UNL     1      13.455  -0.775   3.660  1.00  0.00     0.131 A 
ENDROOT
BRANCH   6  18
ATOM     18  O   UNL     1      15.519  -5.627   3.293  1.00  0.00    -0.507 OA
ATOM     19  H   UNL     1      16.115  -6.330   2.879  1.00  0.00     0.293 HD
ENDBRANCH   6  18
BRANCH  17  20
ATOM     20  O   UNL     1      13.267  -1.075   2.309  1.00  0.00    -0.507 OA
ATOM     21  H   UNL     1      13.952  -1.555   1.742  1.00  0.00     0.293 HD
ENDBRANCH  17  20
BRANCH  15  22
ATOM     22  O   UNL     1      13.074   2.224   5.784  1.00  0.00    -0.508 OA
ATOM     23  H   UNL     1      13.795   2.891   6.033  1.00  0.00     0.293 HD
ENDBRANCH  15  22
TORSDOF 3
ENDMDL
MODEL 8
REMARK VINA RESULT:    -3.888      2.460      3.552
REMARK INTER + INTRA:          -4.229
REMARK INTER:                  -4.229
REMARK INTRA:                   0.000
REMARK UNBOUND:                 0.000
REMARK SMILES Cc1cc(O)c2c(c1)C(=O)c1cc(O)cc(O)c1C2=O
REMARK SMILES IDX 1 1 2 2 8 3 7 4 6 5 4 6 3 7 19 8 20 9 18 10 11 11 9 12 10 13
REMARK SMILES IDX 12 14 13 15 15 16 16 17 5 18 17 20 14 22
REMARK H PARENT 5 19 17 21 14 23
REMARK Flexibility Score: inf
ROOT
ATOM      1  C   UNL     1      13.918   2.167   5.772  1.00  0.00     0.044 C 
ATOM      2  C   UNL     1      13.909   0.710   6.132  1.00  0.00    -0.047 A 
ATOM      3  C   UNL     1      14.462  -0.234   5.259  1.00  0.00     0.016 A 
ATOM      4  C   UNL     1      14.484  -1.597   5.600  1.00  0.00     0.038 A 
ATOM      5  C   UNL     1      13.943  -2.022   6.834  1.00  0.00     0.076 A 
ATOM      6  C   UNL     1      13.461  -1.052   7.748  1.00  0.00     0.127 A 
ATOM      7  C   UNL     1      13.431   0.297   7.379  1.00  0.00     0.050 A 
ATOM      8  C   UNL     1      13.850  -3.482   7.093  1.00  0.00     0.201 C 
ATOM      9  O   UNL     1      12.926  -3.930   7.825  1.00  0.00    -0.288 OA
ATOM     10  C   UNL     1      14.723  -4.423   6.345  1.00  0.00     0.076 A 
ATOM     11  C   UNL     1      15.264  -3.993   5.112  1.00  0.00     0.041 A 
ATOM     12  C   UNL     1      15.079  -2.590   4.673  1.00  0.00     0.194 C 
ATOM     13  O   UNL     1      15.450  -2.234   3.521  1.00  0.00    -0.289 OA
ATOM     14  C   UNL     1      15.980  -4.898   4.310  1.00  0.00     0.059 A 
ATOM     15  C   UNL     1      16.175  -6.217   4.729  1.00  0.00     0.120 A 
ATOM     16  C   UNL     1      15.676  -6.633   5.964  1.00  0.00     0.093 A 
ATOM     17  C   UNL     1      14.977  -5.747   6.789  1.00  0.00     0.131 A 
ENDROOT
BRANCH   6  18
ATOM     18  O   UNL     1      13.039  -1.375   9.040  1.00  0.00    -0.507 OA
ATOM     19  H   UNL     1      12.536  -0.736   9.640  1.00  0.00     0.293 HD
ENDBRANCH   6  18
BRANCH  17  20
ATOM     20  O   UNL     1      14.589  -6.210   8.048  1.00  0.00    -0.507 OA
ATOM     21  H   UNL     1      13.677  -6.598   8.244  1.00  0.00     0.293 HD
ENDBRANCH  17  20
BRANCH  15  22
ATOM     22  O   UNL     1      16.873  -7.121   3.931  1.00  0.00    -0.508 OA
ATOM     23  H   UNL     1      17.866  -7.016   3.758  1.00  0.00     0.293 HD
ENDBRANCH  15  22
TORSDOF 3
ENDMDL
MODEL 9
REMARK VINA RESULT:    -3.541      3.052      3.622
REMARK INTER + INTRA:          -3.851
REMARK INTER:                  -3.851
REMARK INTRA:                   0.000
REMARK UNBOUND:                 0.000
REMARK SMILES Cc1cc(O)c2c(c1)C(=O)c1cc(O)cc(O)c1C2=O
REMARK SMILES IDX 1 1 2 2 8 3 7 4 6 5 4 6 3 7 19 8 20 9 18 10 11 11 9 12 10 13
REMARK SMILES IDX 12 14 13 15 15 16 16 17 5 18 17 20 14 22
REMARK H PARENT 5 19 17 21 14 23
REMARK Flexibility Score: inf
ROOT
ATOM      1  C   UNL     1      14.114   2.318   4.997  1.00  0.00     0.044 C 
ATOM      2  C   UNL     1      14.168   0.855   4.668  1.00  0.00    -0.047 A 
ATOM      3  C   UNL     1      14.386  -0.086   5.681  1.00  0.00     0.016 A 
ATOM      4  C   UNL     1      14.410  -1.460   5.388  1.00  0.00     0.038 A 
ATOM      5  C   UNL     1      14.215  -1.900   4.059  1.00  0.00     0.076 A 
ATOM      6  C   UNL     1      13.912  -0.947   3.054  1.00  0.00     0.127 A 
ATOM      7  C   UNL     1      13.912   0.417   3.366  1.00  0.00     0.050 A 
ATOM      8  C   UNL     1      14.395  -3.344   3.764  1.00  0.00     0.201 C 
ATOM      9  O   UNL     1      14.797  -3.705   2.625  1.00  0.00    -0.288 OA
ATOM     10  C   UNL     1      14.284  -4.342   4.859  1.00  0.00     0.076 A 
ATOM     11  C   UNL     1      14.479  -3.898   6.188  1.00  0.00     0.041 A 
ATOM     12  C   UNL     1      14.634  -2.451   6.468  1.00  0.00     0.194 C 
ATOM     13  O   UNL     1      14.931  -2.061   7.630  1.00  0.00    -0.289 OA
ATOM     14  C   UNL     1      14.518  -4.832   7.237  1.00  0.00     0.059 A 
ATOM     15  C   UNL     1      14.352  -6.195   6.981  1.00  0.00     0.120 A 
ATOM     16  C   UNL     1      14.120  -6.632   5.677  1.00  0.00     0.093 A 
ATOM     17  C   UNL     1      14.057  -5.721   4.617  1.00  0.00     0.131 A 
ENDROOT
BRANCH   6  18
ATOM     18  O   UNL     1      13.570  -1.309   1.749  1.00  0.00    -0.507 OA
ATOM     19  H   UNL     1      13.148  -2.196   1.508  1.00  0.00     0.293 HD
ENDBRANCH   6  18
BRANCH  17  20
ATOM     20  O   UNL     1      13.731  -6.223   3.356  1.00  0.00    -0.507 OA
ATOM     21  H   UNL     1      13.409  -5.646   2.590  1.00  0.00     0.293 HD
ENDBRANCH  17  20
BRANCH  15  22
ATOM     22  O   UNL     1      14.403  -7.125   8.018  1.00  0.00    -0.508 OA
ATOM     23  H   UNL     1      15.237  -7.671   8.198  1.00  0.00     0.293 HD
ENDBRANCH  15  22
TORSDOF 3
ENDMDL
