MODEL 1
REMARK VINA RESULT:    -3.849      0.000      0.000
REMARK INTER + INTRA:          -4.732
REMARK INTER:                  -4.411
REMARK INTRA:                  -0.321
REMARK UNBOUND:                -0.321
REMARK SMILES O=C1C[C@H](c2ccc(O)cc2)Oc2cc(O)cc(O)c21
REMARK SMILES IDX 3 1 4 2 12 3 13 4 14 5 15 6 17 7 18 8 20 9 2 10 1 11 5 12
REMARK SMILES IDX 6 13 11 14 7 15 10 16 8 17 9 18 19 20 16 22
REMARK H PARENT 9 19 19 21 16 23
REMARK Flexibility Score: inf
ROOT
ATOM      1  C   UNL     1      10.263 -21.824 -18.723  1.00  0.00     0.131 C 
ATOM      2  C   UNL     1       9.319 -22.888 -19.300  1.00  0.00     0.211 C 
ATOM      3  O   UNL     1       7.961 -22.592 -18.961  1.00  0.00    -0.484 OA
ATOM      4  C   UNL     1       7.587 -22.089 -17.707  1.00  0.00     0.138 A 
ATOM      5  C   UNL     1       6.236 -22.087 -17.353  1.00  0.00     0.093 A 
ATOM      6  C   UNL     1       5.834 -21.607 -16.107  1.00  0.00     0.123 A 
ATOM      7  C   UNL     1       6.786 -21.096 -15.219  1.00  0.00     0.093 A 
ATOM      8  C   UNL     1       8.141 -21.050 -15.569  1.00  0.00     0.133 A 
ATOM      9  C   UNL     1       8.559 -21.583 -16.817  1.00  0.00     0.102 A 
ATOM     10  C   UNL     1       9.973 -21.651 -17.261  1.00  0.00     0.174 C 
ATOM     11  O   UNL     1      10.929 -21.623 -16.441  1.00  0.00    -0.294 OA
ENDROOT
BRANCH   2  12
ATOM     12  C   UNL     1       9.469 -22.978 -20.799  1.00  0.00    -0.007 A 
ATOM     13  C   UNL     1       8.341 -22.911 -21.636  1.00  0.00     0.011 A 
ATOM     14  C   UNL     1      10.747 -23.071 -21.377  1.00  0.00     0.011 A 
ATOM     15  C   UNL     1       8.488 -22.965 -23.026  1.00  0.00     0.046 A 
ATOM     16  C   UNL     1      10.891 -23.125 -22.767  1.00  0.00     0.046 A 
ATOM     17  C   UNL     1       9.761 -23.073 -23.595  1.00  0.00     0.115 A 
BRANCH  17  18
ATOM     18  O   UNL     1       9.893 -23.125 -24.981  1.00  0.00    -0.508 OA
ATOM     19  H   UNL     1       9.543 -22.383 -25.574  1.00  0.00     0.293 HD
ENDBRANCH  17  18
ENDBRANCH   2  12
BRANCH   8  20
ATOM     20  O   UNL     1       9.018 -20.441 -14.667  1.00  0.00    -0.507 OA
ATOM     21  H   UNL     1       8.729 -20.018 -13.797  1.00  0.00     0.293 HD
ENDBRANCH   8  20
BRANCH   6  22
ATOM     22  O   UNL     1       4.485 -21.634 -15.763  1.00  0.00    -0.508 OA
ATOM     23  H   UNL     1       3.791 -21.120 -16.296  1.00  0.00     0.293 HD
ENDBRANCH   6  22
TORSDOF 4
ENDMDL
MODEL 2
REMARK VINA RESULT:    -1.579      3.228      6.615
REMARK INTER + INTRA:          -2.132
REMARK INTER:                  -1.821
REMARK INTRA:                  -0.311
REMARK UNBOUND:                -0.321
REMARK SMILES O=C1C[C@H](c2ccc(O)cc2)Oc2cc(O)cc(O)c21
REMARK SMILES IDX 3 1 4 2 12 3 13 4 14 5 15 6 17 7 18 8 20 9 2 10 1 11 5 12
REMARK SMILES IDX 6 13 11 14 7 15 10 16 8 17 9 18 19 20 16 22
REMARK H PARENT 9 19 19 21 16 23
REMARK Flexibility Score: inf
ROOT
ATOM      1  C   UNL     1       6.704 -22.306 -17.763  1.00  0.00     0.131 C 
ATOM      2  C   UNL     1       6.273 -22.473 -16.300  1.00  0.00     0.211 C 
ATOM      3  O   UNL     1       7.004 -21.580 -15.455  1.00  0.00    -0.484 OA
ATOM      4  C   UNL     1       8.366 -21.307 -15.641  1.00  0.00     0.138 A 
ATOM      5  C   UNL     1       9.070 -20.654 -14.628  1.00  0.00     0.093 A 
ATOM      6  C   UNL     1      10.430 -20.382 -14.776  1.00  0.00     0.123 A 
ATOM      7  C   UNL     1      11.084 -20.739 -15.960  1.00  0.00     0.093 A 
ATOM      8  C   UNL     1      10.389 -21.358 -17.006  1.00  0.00     0.133 A 
ATOM      9  C   UNL     1       9.016 -21.680 -16.838  1.00  0.00     0.102 A 
ATOM     10  C   UNL     1       8.200 -22.396 -17.848  1.00  0.00     0.174 C 
ATOM     11  O   UNL     1       8.725 -23.119 -18.736  1.00  0.00    -0.294 OA
ENDROOT
BRANCH   2  12
ATOM     12  C   UNL     1       4.791 -22.231 -16.149  1.00  0.00    -0.007 A 
ATOM     13  C   UNL     1       3.860 -23.125 -16.706  1.00  0.00     0.011 A 
ATOM     14  C   UNL     1       4.326 -21.137 -15.399  1.00  0.00     0.011 A 
ATOM     15  C   UNL     1       2.488 -22.912 -16.538  1.00  0.00     0.046 A 
ATOM     16  C   UNL     1       2.953 -20.927 -15.233  1.00  0.00     0.046 A 
ATOM     17  C   UNL     1       2.031 -21.814 -15.803  1.00  0.00     0.115 A 
BRANCH  17  18
ATOM     18  O   UNL     1       0.661 -21.614 -15.644  1.00  0.00    -0.508 OA
ATOM     19  H   UNL     1       0.115 -21.115 -16.335  1.00  0.00     0.293 HD
ENDBRANCH  17  18
ENDBRANCH   2  12
BRANCH   8  20
ATOM     20  O   UNL     1      11.090 -21.598 -18.190  1.00  0.00    -0.507 OA
ATOM     21  H   UNL     1      11.138 -22.498 -18.645  1.00  0.00     0.293 HD
ENDBRANCH   8  20
BRANCH   6  22
ATOM     22  O   UNL     1      11.121 -19.750 -13.746  1.00  0.00    -0.508 OA
ATOM     23  H   UNL     1      11.420 -20.256 -12.919  1.00  0.00     0.293 HD
ENDBRANCH   6  22
TORSDOF 4
ENDMDL
