MODEL 1
REMARK VINA RESULT:    -2.905      0.000      0.000
REMARK INTER + INTRA:          -4.309
REMARK INTER:                  -3.754
REMARK INTRA:                  -0.554
REMARK UNBOUND:                -0.554
REMARK SMILES C=CC(=O)CCCCC
REMARK SMILES IDX 6 1 7 2 8 3 9 4 5 5 3 6 4 7 2 8 1 9
REMARK H PARENT
REMARK Flexibility Score: inf
ROOT
ATOM      1  C   UNL     1     176.198 179.662 236.551  1.00  0.00     0.008 C 
ENDROOT
BRANCH   1   2
ATOM      2  C   UNL     1     176.508 181.038 237.170  1.00  0.00     0.000 C 
BRANCH   2   3
ATOM      3  C   UNL     1     177.703 181.775 236.540  1.00  0.00    -0.003 C 
ATOM      4  C   UNL     1     178.658 182.363 237.578  1.00  0.00     0.004 C 
ENDBRANCH   2   3
ENDBRANCH   1   2
BRANCH   1   5
ATOM      5  C   UNL     1     177.064 178.533 237.134  1.00  0.00     0.080 C 
BRANCH   5   6
ATOM      6  C   UNL     1     178.107 178.029 236.163  1.00  0.00     0.155 C 
ATOM      7  O   UNL     1     177.789 177.196 235.271  1.00  0.00    -0.295 OA
BRANCH   6   8
ATOM      8  C   UNL     1     179.516 178.465 236.238  1.00  0.00     0.039 C 
ATOM      9  C   UNL     1     180.092 178.913 237.354  1.00  0.00     0.012 C 
ENDBRANCH   6   8
ENDBRANCH   5   6
ENDBRANCH   1   5
TORSDOF 5
ENDMDL
MODEL 2
REMARK VINA RESULT:    -2.736      2.355      3.760
REMARK INTER + INTRA:          -4.090
REMARK INTER:                  -3.550
REMARK INTRA:                  -0.540
REMARK UNBOUND:                -0.554
REMARK SMILES C=CC(=O)CCCCC
REMARK SMILES IDX 6 1 7 2 8 3 9 4 5 5 3 6 4 7 2 8 1 9
REMARK H PARENT
REMARK Flexibility Score: inf
ROOT
ATOM      1  C   UNL     1     176.586 181.009 237.294  1.00  0.00     0.008 C 
ENDROOT
BRANCH   1   2
ATOM      2  C   UNL     1     176.192 179.620 236.760  1.00  0.00     0.000 C 
BRANCH   2   3
ATOM      3  C   UNL     1     177.173 178.489 237.118  1.00  0.00    -0.003 C 
ATOM      4  C   UNL     1     177.872 177.894 235.897  1.00  0.00     0.004 C 
ENDBRANCH   2   3
ENDBRANCH   1   2
BRANCH   1   5
ATOM      5  C   UNL     1     177.612 181.726 236.400  1.00  0.00     0.080 C 
BRANCH   5   6
ATOM      6  C   UNL     1     178.815 182.226 237.168  1.00  0.00     0.155 C 
ATOM      7  O   UNL     1     179.139 183.444 237.112  1.00  0.00    -0.295 OA
BRANCH   6   8
ATOM      8  C   UNL     1     179.654 181.319 237.978  1.00  0.00     0.039 C 
ATOM      9  C   UNL     1     180.360 180.312 237.464  1.00  0.00     0.012 C 
ENDBRANCH   6   8
ENDBRANCH   5   6
ENDBRANCH   1   5
TORSDOF 5
ENDMDL
MODEL 3
REMARK VINA RESULT:    -2.666     15.494     16.673
REMARK INTER + INTRA:          -3.999
REMARK INTER:                  -3.391
REMARK INTRA:                  -0.608
REMARK UNBOUND:                -0.554
REMARK SMILES C=CC(=O)CCCCC
REMARK SMILES IDX 6 1 7 2 8 3 9 4 5 5 3 6 4 7 2 8 1 9
REMARK H PARENT
REMARK Flexibility Score: inf
ROOT
ATOM      1  C   UNL     1     189.084 181.448 225.440  1.00  0.00     0.008 C 
ENDROOT
BRANCH   1   2
ATOM      2  C   UNL     1     189.689 182.790 224.988  1.00  0.00     0.000 C 
BRANCH   2   3
ATOM      3  C   UNL     1     190.425 182.745 223.638  1.00  0.00    -0.003 C 
ATOM      4  C   UNL     1     190.198 181.441 222.875  1.00  0.00     0.004 C 
ENDBRANCH   2   3
ENDBRANCH   1   2
BRANCH   1   5
ATOM      5  C   UNL     1     187.554 181.499 225.587  1.00  0.00     0.080 C 
BRANCH   5   6
ATOM      6  C   UNL     1     186.833 181.483 224.258  1.00  0.00     0.155 C 
ATOM      7  O   UNL     1     186.815 180.431 223.562  1.00  0.00    -0.295 OA
BRANCH   6   8
ATOM      8  C   UNL     1     186.156 182.682 223.723  1.00  0.00     0.039 C 
ATOM      9  C   UNL     1     186.732 183.540 222.881  1.00  0.00     0.012 C 
ENDBRANCH   6   8
ENDBRANCH   5   6
ENDBRANCH   1   5
TORSDOF 5
ENDMDL
MODEL 4
REMARK VINA RESULT:    -2.658      1.578      2.677
REMARK INTER + INTRA:          -3.989
REMARK INTER:                  -3.442
REMARK INTRA:                  -0.546
REMARK UNBOUND:                -0.554
REMARK SMILES C=CC(=O)CCCCC
REMARK SMILES IDX 6 1 7 2 8 3 9 4 5 5 3 6 4 7 2 8 1 9
REMARK H PARENT
REMARK Flexibility Score: inf
ROOT
ATOM      1  C   UNL     1     177.902 177.784 236.120  1.00  0.00     0.008 C 
ENDROOT
BRANCH   1   2
ATOM      2  C   UNL     1     177.031 178.583 237.106  1.00  0.00     0.000 C 
BRANCH   2   3
ATOM      3  C   UNL     1     176.119 179.638 236.454  1.00  0.00    -0.003 C 
ATOM      4  C   UNL     1     175.939 180.887 237.315  1.00  0.00     0.004 C 
ENDBRANCH   2   3
ENDBRANCH   1   2
BRANCH   1   5
ATOM      5  C   UNL     1     179.019 178.629 235.486  1.00  0.00     0.080 C 
BRANCH   5   6
ATOM      6  C   UNL     1     180.073 179.056 236.482  1.00  0.00     0.155 C 
ATOM      7  O   UNL     1     180.773 178.189 237.072  1.00  0.00    -0.295 OA
BRANCH   6   8
ATOM      8  C   UNL     1     180.300 180.478 236.814  1.00  0.00     0.039 C 
ATOM      9  C   UNL     1     179.716 181.098 237.839  1.00  0.00     0.012 C 
ENDBRANCH   6   8
ENDBRANCH   5   6
ENDBRANCH   1   5
TORSDOF 5
ENDMDL
MODEL 5
REMARK VINA RESULT:    -2.648     17.173     18.274
REMARK INTER + INTRA:          -3.976
REMARK INTER:                  -3.653
REMARK INTRA:                  -0.323
REMARK UNBOUND:                -0.554
REMARK SMILES C=CC(=O)CCCCC
REMARK SMILES IDX 6 1 7 2 8 3 9 4 5 5 3 6 4 7 2 8 1 9
REMARK H PARENT
REMARK Flexibility Score: inf
ROOT
ATOM      1  C   UNL     1     183.360 191.246 224.605  1.00  0.00     0.008 C 
ENDROOT
BRANCH   1   2
ATOM      2  C   UNL     1     182.819 189.850 224.964  1.00  0.00     0.000 C 
BRANCH   2   3
ATOM      3  C   UNL     1     181.918 189.210 223.893  1.00  0.00    -0.003 C 
ATOM      4  C   UNL     1     180.428 189.383 224.184  1.00  0.00     0.004 C 
ENDBRANCH   2   3
ENDBRANCH   1   2
BRANCH   1   5
ATOM      5  C   UNL     1     183.958 191.311 223.190  1.00  0.00     0.080 C 
BRANCH   5   6
ATOM      6  C   UNL     1     185.469 191.357 223.190  1.00  0.00     0.155 C 
ATOM      7  O   UNL     1     186.068 192.464 223.280  1.00  0.00    -0.295 OA
BRANCH   6   8
ATOM      8  C   UNL     1     186.286 190.133 223.063  1.00  0.00     0.039 C 
ATOM      9  C   UNL     1     187.022 189.630 224.054  1.00  0.00     0.012 C 
ENDBRANCH   6   8
ENDBRANCH   5   6
ENDBRANCH   1   5
TORSDOF 5
ENDMDL
MODEL 6
REMARK VINA RESULT:    -2.609      1.564      2.214
REMARK INTER + INTRA:          -3.925
REMARK INTER:                  -3.357
REMARK INTRA:                  -0.568
REMARK UNBOUND:                -0.554
REMARK SMILES C=CC(=O)CCCCC
REMARK SMILES IDX 6 1 7 2 8 3 9 4 5 5 3 6 4 7 2 8 1 9
REMARK H PARENT
REMARK Flexibility Score: inf
ROOT
ATOM      1  C   UNL     1     177.191 178.596 237.121  1.00  0.00     0.008 C 
ENDROOT
BRANCH   1   2
ATOM      2  C   UNL     1     176.029 179.519 236.709  1.00  0.00     0.000 C 
BRANCH   2   3
ATOM      3  C   UNL     1     176.172 180.981 237.167  1.00  0.00    -0.003 C 
ATOM      4  C   UNL     1     177.623 181.457 237.204  1.00  0.00     0.004 C 
ENDBRANCH   2   3
ENDBRANCH   1   2
BRANCH   1   5
ATOM      5  C   UNL     1     177.741 177.765 235.949  1.00  0.00     0.080 C 
BRANCH   5   6
ATOM      6  C   UNL     1     179.037 178.313 235.395  1.00  0.00     0.155 C 
ATOM      7  O   UNL     1     180.139 177.828 235.770  1.00  0.00    -0.295 OA
BRANCH   6   8
ATOM      8  C   UNL     1     179.061 179.433 234.432  1.00  0.00     0.039 C 
ATOM      9  C   UNL     1     178.075 179.686 233.570  1.00  0.00     0.012 C 
ENDBRANCH   6   8
ENDBRANCH   5   6
ENDBRANCH   1   5
TORSDOF 5
ENDMDL
MODEL 7
REMARK VINA RESULT:    -2.602     15.580     16.703
REMARK INTER + INTRA:          -3.916
REMARK INTER:                  -3.481
REMARK INTRA:                  -0.435
REMARK UNBOUND:                -0.554
REMARK SMILES C=CC(=O)CCCCC
REMARK SMILES IDX 6 1 7 2 8 3 9 4 5 5 3 6 4 7 2 8 1 9
REMARK H PARENT
REMARK Flexibility Score: inf
ROOT
ATOM      1  C   UNL     1     189.474 181.512 224.222  1.00  0.00     0.008 C 
ENDROOT
BRANCH   1   2
ATOM      2  C   UNL     1     190.453 182.701 224.226  1.00  0.00     0.000 C 
BRANCH   2   3
ATOM      3  C   UNL     1     190.292 183.666 225.414  1.00  0.00    -0.003 C 
ATOM      4  C   UNL     1     188.982 183.467 226.174  1.00  0.00     0.004 C 
ENDBRANCH   2   3
ENDBRANCH   1   2
BRANCH   1   5
ATOM      5  C   UNL     1     188.675 181.398 222.913  1.00  0.00     0.080 C 
BRANCH   5   6
ATOM      6  C   UNL     1     187.180 181.357 223.137  1.00  0.00     0.155 C 
ATOM      7  O   UNL     1     186.585 180.248 223.225  1.00  0.00    -0.295 OA
BRANCH   6   8
ATOM      8  C   UNL     1     186.372 182.590 223.233  1.00  0.00     0.039 C 
ATOM      9  C   UNL     1     185.691 182.942 224.324  1.00  0.00     0.012 C 
ENDBRANCH   6   8
ENDBRANCH   5   6
ENDBRANCH   1   5
TORSDOF 5
ENDMDL
MODEL 8
REMARK VINA RESULT:    -2.576     15.715     16.463
REMARK INTER + INTRA:          -3.883
REMARK INTER:                  -3.297
REMARK INTRA:                  -0.586
REMARK UNBOUND:                -0.554
REMARK SMILES C=CC(=O)CCCCC
REMARK SMILES IDX 6 1 7 2 8 3 9 4 5 5 3 6 4 7 2 8 1 9
REMARK H PARENT
REMARK Flexibility Score: inf
ROOT
ATOM      1  C   UNL     1     186.739 182.613 222.884  1.00  0.00     0.008 C 
ENDROOT
BRANCH   1   2
ATOM      2  C   UNL     1     185.774 183.127 223.968  1.00  0.00     0.000 C 
BRANCH   2   3
ATOM      3  C   UNL     1     186.297 184.320 224.786  1.00  0.00    -0.003 C 
ATOM      4  C   UNL     1     187.211 185.243 223.982  1.00  0.00     0.004 C 
ENDBRANCH   2   3
ENDBRANCH   1   2
BRANCH   1   5
ATOM      5  C   UNL     1     187.432 181.297 223.272  1.00  0.00     0.080 C 
BRANCH   5   6
ATOM      6  C   UNL     1     188.865 181.493 223.713  1.00  0.00     0.155 C 
ATOM      7  O   UNL     1     189.803 181.395 222.875  1.00  0.00    -0.295 OA
BRANCH   6   8
ATOM      8  C   UNL     1     189.216 181.775 225.120  1.00  0.00     0.039 C 
ATOM      9  C   UNL     1     189.741 182.929 225.532  1.00  0.00     0.012 C 
ENDBRANCH   6   8
ENDBRANCH   5   6
ENDBRANCH   1   5
TORSDOF 5
ENDMDL
MODEL 9
REMARK VINA RESULT:    -2.542     16.853     17.973
REMARK INTER + INTRA:          -3.839
REMARK INTER:                  -3.307
REMARK INTRA:                  -0.532
REMARK UNBOUND:                -0.554
REMARK SMILES C=CC(=O)CCCCC
REMARK SMILES IDX 6 1 7 2 8 3 9 4 5 5 3 6 4 7 2 8 1 9
REMARK H PARENT
REMARK Flexibility Score: inf
ROOT
ATOM      1  C   UNL     1     184.165 191.422 222.893  1.00  0.00     0.008 C 
ENDROOT
BRANCH   1   2
ATOM      2  C   UNL     1     185.637 191.458 223.343  1.00  0.00     0.000 C 
BRANCH   2   3
ATOM      3  C   UNL     1     186.375 190.111 223.248  1.00  0.00    -0.003 C 
ATOM      4  C   UNL     1     187.130 189.752 224.527  1.00  0.00     0.004 C 
ENDBRANCH   2   3
ENDBRANCH   1   2
BRANCH   1   5
ATOM      5  C   UNL     1     183.184 191.250 224.065  1.00  0.00     0.080 C 
BRANCH   5   6
ATOM      6  C   UNL     1     182.461 189.923 224.039  1.00  0.00     0.155 C 
ATOM      7  O   UNL     1     181.259 189.865 223.664  1.00  0.00    -0.295 OA
BRANCH   6   8
ATOM      8  C   UNL     1     183.116 188.670 224.468  1.00  0.00     0.039 C 
ATOM      9  C   UNL     1     183.491 187.707 223.625  1.00  0.00     0.012 C 
ENDBRANCH   6   8
ENDBRANCH   5   6
ENDBRANCH   1   5
TORSDOF 5
ENDMDL
