MODEL 1
REMARK VINA RESULT:    -2.712      0.000      0.000
REMARK INTER + INTRA:          -2.806
REMARK INTER:                  -3.267
REMARK INTRA:                   0.461
REMARK UNBOUND:                 0.461
REMARK SMILES O=c1c(O)c(-c2ccc(O)c(O)c2)oc2cc(O)cc(O)c12
REMARK SMILES IDX 5 1 3 2 2 3 1 4 22 5 20 6 19 7 17 8 16 9 15 10 14 11 6 12
REMARK SMILES IDX 7 13 8 14 9 15 13 16 11 17 10 18 12 20 4 22 21 24 18 26
REMARK H PARENT 10 19 12 21 4 23 21 25 18 27
REMARK Flexibility Score: inf
ROOT
ATOM      1  C   UNL     1       9.819   2.193   7.498  1.00  0.00     0.180 A 
ATOM      2  C   UNL     1       9.364   1.888   6.204  1.00  0.00     0.208 A 
ATOM      3  C   UNL     1       8.031   1.484   6.028  1.00  0.00     0.238 A 
ATOM      4  O   UNL     1       7.644   1.159   4.875  1.00  0.00    -0.285 OA
ATOM      5  C   UNL     1       7.165   1.406   7.145  1.00  0.00     0.111 A 
ATOM      6  C   UNL     1       5.785   1.048   7.078  1.00  0.00     0.134 A 
ATOM      7  C   UNL     1       5.058   0.876   8.262  1.00  0.00     0.093 A 
ATOM      8  C   UNL     1       5.640   1.113   9.507  1.00  0.00     0.123 A 
ATOM      9  C   UNL     1       6.973   1.523   9.581  1.00  0.00     0.094 A 
ATOM     10  C   UNL     1       7.735   1.666   8.419  1.00  0.00     0.146 A 
ATOM     11  O   UNL     1       9.001   2.047   8.534  1.00  0.00    -0.452 OA
ENDROOT
BRANCH   1  12
ATOM     12  C   UNL     1      11.203   2.650   7.760  1.00  0.00     0.025 A 
ATOM     13  C   UNL     1      12.100   2.907   6.709  1.00  0.00     0.016 A 
ATOM     14  C   UNL     1      13.394   3.361   6.979  1.00  0.00     0.051 A 
ATOM     15  C   UNL     1      13.806   3.578   8.301  1.00  0.00     0.157 A 
ATOM     16  C   UNL     1      11.614   2.889   9.082  1.00  0.00     0.062 A 
ATOM     17  C   UNL     1      12.909   3.343   9.357  1.00  0.00     0.158 A 
BRANCH  15  18
ATOM     18  O   UNL     1      15.097   4.028   8.567  1.00  0.00    -0.504 OA
ATOM     19  H   UNL     1      15.362   4.367   9.485  1.00  0.00     0.293 HD
ENDBRANCH  15  18
BRANCH  17  20
ATOM     20  O   UNL     1      13.286   3.555  10.682  1.00  0.00    -0.504 OA
ATOM     21  H   UNL     1      13.585   2.798  11.284  1.00  0.00     0.293 HD
ENDBRANCH  17  20
ENDBRANCH   1  12
BRANCH   2  22
ATOM     22  O   UNL     1      10.241   1.950   5.118  1.00  0.00    -0.502 OA
ATOM     23  H   UNL     1      10.719   1.133   4.757  1.00  0.00     0.293 HD
ENDBRANCH   2  22
BRANCH   6  24
ATOM     24  O   UNL     1       5.080   0.876   5.882  1.00  0.00    -0.507 OA
ATOM     25  H   UNL     1       4.536   1.594   5.430  1.00  0.00     0.293 HD
ENDBRANCH   6  24
BRANCH   8  26
ATOM     26  O   UNL     1       4.882   0.948  10.663  1.00  0.00    -0.508 OA
ATOM     27  H   UNL     1       4.447   0.061  10.889  1.00  0.00     0.293 HD
ENDBRANCH   8  26
TORSDOF 6
ENDMDL
MODEL 2
REMARK VINA RESULT:    -2.398      1.701      2.605
REMARK INTER + INTRA:          -2.427
REMARK INTER:                  -2.816
REMARK INTRA:                   0.389
REMARK UNBOUND:                 0.461
REMARK SMILES O=c1c(O)c(-c2ccc(O)c(O)c2)oc2cc(O)cc(O)c12
REMARK SMILES IDX 5 1 3 2 2 3 1 4 22 5 20 6 19 7 17 8 16 9 15 10 14 11 6 12
REMARK SMILES IDX 7 13 8 14 9 15 13 16 11 17 10 18 12 20 4 22 21 24 18 26
REMARK H PARENT 10 19 12 21 4 23 21 25 18 27
REMARK Flexibility Score: inf
ROOT
ATOM      1  C   UNL     1       8.180   1.624   7.496  1.00  0.00     0.180 A 
ATOM      2  C   UNL     1       7.053   1.385   6.693  1.00  0.00     0.208 A 
ATOM      3  C   UNL     1       5.815   1.143   7.311  1.00  0.00     0.238 A 
ATOM      4  O   UNL     1       4.820   0.875   6.588  1.00  0.00    -0.285 OA
ATOM      5  C   UNL     1       5.717   1.161   8.723  1.00  0.00     0.111 A 
ATOM      6  C   UNL     1       4.506   0.969   9.454  1.00  0.00     0.134 A 
ATOM      7  C   UNL     1       4.550   0.876  10.850  1.00  0.00     0.093 A 
ATOM      8  C   UNL     1       5.749   1.034  11.546  1.00  0.00     0.123 A 
ATOM      9  C   UNL     1       6.930   1.282  10.843  1.00  0.00     0.094 A 
ATOM     10  C   UNL     1       6.924   1.342   9.448  1.00  0.00     0.146 A 
ATOM     11  O   UNL     1       8.070   1.569   8.818  1.00  0.00    -0.452 OA
ENDROOT
BRANCH   1  12
ATOM     12  C   UNL     1       9.513   1.911   6.917  1.00  0.00     0.025 A 
ATOM     13  C   UNL     1       9.660   2.296   5.574  1.00  0.00     0.016 A 
ATOM     14  C   UNL     1      10.926   2.585   5.057  1.00  0.00     0.051 A 
ATOM     15  C   UNL     1      12.060   2.508   5.876  1.00  0.00     0.157 A 
ATOM     16  C   UNL     1      10.651   1.855   7.740  1.00  0.00     0.062 A 
ATOM     17  C   UNL     1      11.919   2.144   7.226  1.00  0.00     0.158 A 
BRANCH  15  18
ATOM     18  O   UNL     1      13.321   2.795   5.356  1.00  0.00    -0.504 OA
ATOM     19  H   UNL     1      13.479   3.600   4.761  1.00  0.00     0.293 HD
ENDBRANCH  15  18
BRANCH  17  20
ATOM     20  O   UNL     1      13.027   2.064   8.069  1.00  0.00    -0.504 OA
ATOM     21  H   UNL     1      13.729   1.342   7.968  1.00  0.00     0.293 HD
ENDBRANCH  17  20
ENDBRANCH   1  12
BRANCH   2  22
ATOM     22  O   UNL     1       7.175   1.350   5.301  1.00  0.00    -0.502 OA
ATOM     23  H   UNL     1       8.019   1.639   4.821  1.00  0.00     0.293 HD
ENDBRANCH   2  22
BRANCH   6  24
ATOM     24  O   UNL     1       3.241   0.892   8.863  1.00  0.00    -0.507 OA
ATOM     25  H   UNL     1       2.419   0.520   9.314  1.00  0.00     0.293 HD
ENDBRANCH   6  24
BRANCH   8  26
ATOM     26  O   UNL     1       5.753   0.952  12.936  1.00  0.00    -0.508 OA
ATOM     27  H   UNL     1       4.892   0.870  13.464  1.00  0.00     0.293 HD
ENDBRANCH   8  26
TORSDOF 6
ENDMDL
