MODEL 1
REMARK VINA RESULT:    -4.090      0.000      0.000
REMARK INTER + INTRA:          -1.984
REMARK INTER:                  -5.046
REMARK INTRA:                   3.062
REMARK UNBOUND:                 3.062
REMARK SMILES C=C1CC[C@@H]2[C@H]([C@@H]3[C@H](C)CC[C@H]13)C2(C)C
REMARK SMILES IDX 3 1 2 2 1 3 12 4 9 5 8 6 10 7 7 8 11 9 4 11 5 12 6 13 13 14
REMARK SMILES IDX 14 16 15 17
REMARK H PARENT
REMARK Flexibility Score: 80.00
ROOT
ATOM      1  C   UNL     1       1.521  14.236  17.192  1.00  0.00     0.031 C 
ENDROOT
BRANCH   1   2
ATOM      2  C   UNL     1       1.379  15.727  16.885  1.00  0.00    -0.074 C 
ATOM      3  C   UNL     1       1.737  16.582  17.864  1.00  0.00     0.008 C 
BRANCH   2   4
ATOM      4  C   UNL     1       0.559  16.243  15.689  1.00  0.00     0.018 C 
ATOM      5  C   UNL     1       0.567  16.101  11.876  1.00  0.00     0.008 C 
ATOM      6  C   UNL     1       0.150  16.413  13.321  1.00  0.00    -0.010 C 
ATOM      7  C   UNL     1       0.567  17.809  13.780  1.00  0.00     0.004 C 
ATOM      8  C   UNL     1       0.701  15.445  14.382  1.00  0.00     0.003 CG0
ATOM      9  C   UNL     1       0.869  17.695  15.274  1.00  0.00     0.008 C 
ATOM     10  G   UNL     1       2.196  15.089  14.119  1.00  0.00     0.000 G0
ENDBRANCH   2   4
ENDBRANCH   1   2
BRANCH   1  11
ATOM     11  C   UNL     1       1.851  13.319  16.003  1.00  0.00     0.009 C 
BRANCH  11  12
ATOM     12  C   UNL     1       2.814  13.989  15.006  1.00  0.00    -0.001 C 
ATOM     13  C   UNL     1       2.207  15.090  14.120  1.00  0.00     0.002 CG0
ATOM     14  C   UNL     1       2.654  13.755  13.493  1.00  0.00    -0.029 C 
ATOM     15  G   UNL     1       0.706  15.426  14.368  1.00  0.00     0.000 G0
ATOM     16  C   UNL     1       1.652  12.689  13.011  1.00  0.00     0.011 C 
ATOM     17  C   UNL     1       3.973  13.817  12.715  1.00  0.00     0.011 C 
ENDBRANCH  11  12
ENDBRANCH   1  11
TORSDOF 0
ENDMDL
MODEL 2
REMARK VINA RESULT:    -4.089      1.061      3.526
REMARK INTER + INTRA:          -1.983
REMARK INTER:                  -5.055
REMARK INTRA:                   3.072
REMARK UNBOUND:                 3.062
REMARK SMILES C=C1CC[C@@H]2[C@H]([C@@H]3[C@H](C)CC[C@H]13)C2(C)C
REMARK SMILES IDX 3 1 2 2 1 3 12 4 9 5 8 6 10 7 7 8 11 9 4 11 5 12 6 13 13 14
REMARK SMILES IDX 14 16 15 17
REMARK H PARENT
REMARK Flexibility Score: 80.00
ROOT
ATOM      1  C   UNL     1       1.883  16.222  17.709  1.00  0.00     0.031 C 
ENDROOT
BRANCH   1   2
ATOM      2  C   UNL     1       1.595  14.765  17.345  1.00  0.00    -0.074 C 
ATOM      3  C   UNL     1       1.186  13.961  18.346  1.00  0.00     0.008 C 
BRANCH   2   4
ATOM      4  C   UNL     1       2.066  14.145  16.016  1.00  0.00     0.018 C 
ATOM      5  C   UNL     1       1.490  14.516  12.263  1.00  0.00     0.008 C 
ATOM      6  C   UNL     1       2.041  14.028  13.611  1.00  0.00    -0.010 C 
ATOM      7  C   UNL     1       1.376  12.744  14.104  1.00  0.00     0.004 C 
ATOM      8  C   UNL     1       1.916  15.031  14.769  1.00  0.00     0.003 CG0
ATOM      9  C   UNL     1       1.352  12.835  15.630  1.00  0.00     0.008 C 
ATOM     10  G   UNL     1       0.531  15.745  14.769  1.00  0.00     0.000 G0
ENDBRANCH   2   4
ENDBRANCH   1   2
BRANCH   1  11
ATOM     11  C   UNL     1       1.610  17.269  16.618  1.00  0.00     0.009 C 
BRANCH  11  12
ATOM     12  C   UNL     1       0.368  16.919  15.778  1.00  0.00    -0.001 C 
ATOM     13  C   UNL     1       0.533  15.757  14.785  1.00  0.00     0.002 CG0
ATOM     14  C   UNL     1       0.348  17.196  14.264  1.00  0.00    -0.029 C 
ATOM     15  G   UNL     1       1.920  15.046  14.779  1.00  0.00     0.000 G0
ATOM     16  C   UNL     1       1.502  18.008  13.646  1.00  0.00     0.011 C 
ATOM     17  C   UNL     1      -1.047  17.508  13.711  1.00  0.00     0.011 C 
ENDBRANCH  11  12
ENDBRANCH   1  11
TORSDOF 0
ENDMDL
MODEL 3
REMARK VINA RESULT:    -3.923      1.122      3.340
REMARK INTER + INTRA:          -1.778
REMARK INTER:                  -4.652
REMARK INTRA:                   2.874
REMARK UNBOUND:                 3.062
REMARK SMILES C=C1CC[C@@H]2[C@H]([C@@H]3[C@H](C)CC[C@H]13)C2(C)C
REMARK SMILES IDX 3 1 2 2 1 3 12 4 9 5 8 6 10 7 7 8 11 9 4 11 5 12 6 13 13 14
REMARK SMILES IDX 14 16 15 17
REMARK H PARENT
REMARK Flexibility Score: 80.00
ROOT
ATOM      1  C   UNL     1       1.563  17.620  12.615  1.00  0.00     0.031 C 
ENDROOT
BRANCH   1   2
ATOM      2  C   UNL     1       0.450  17.591  13.663  1.00  0.00    -0.074 C 
ATOM      3  C   UNL     1      -0.664  18.296  13.382  1.00  0.00     0.008 C 
BRANCH   2   4
ATOM      4  C   UNL     1       0.691  17.092  15.100  1.00  0.00     0.018 C 
ATOM      5  C   UNL     1       1.593  13.882  16.954  1.00  0.00     0.008 C 
ATOM      6  C   UNL     1       1.249  15.351  16.668  1.00  0.00    -0.010 C 
ATOM      7  C   UNL     1      -0.221  15.684  16.912  1.00  0.00     0.004 C 
ATOM      8  C   UNL     1       1.551  15.824  15.236  1.00  0.00     0.003 CG0
ATOM      9  C   UNL     1      -0.591  16.759  15.888  1.00  0.00     0.008 C 
ATOM     10  G   UNL     1       1.131  14.762  14.176  1.00  0.00     0.000 G0
ENDBRANCH   2   4
ENDBRANCH   1   2
BRANCH   1  11
ATOM     11  C   UNL     1       2.426  16.354  12.495  1.00  0.00     0.009 C 
BRANCH  11  12
ATOM     12  C   UNL     1       1.601  15.070  12.693  1.00  0.00    -0.001 C 
ATOM     13  C   UNL     1       1.167  14.764  14.136  1.00  0.00     0.002 CG0
ATOM     14  C   UNL     1       2.203  13.864  13.436  1.00  0.00    -0.029 C 
ATOM     15  G   UNL     1       1.576  15.812  15.216  1.00  0.00     0.000 G0
ATOM     16  C   UNL     1       3.701  13.889  13.795  1.00  0.00     0.011 C 
ATOM     17  C   UNL     1       1.664  12.511  12.958  1.00  0.00     0.011 C 
ENDBRANCH  11  12
ENDBRANCH   1  11
TORSDOF 0
ENDMDL
MODEL 4
REMARK VINA RESULT:    -3.871      1.069      1.508
REMARK INTER + INTRA:          -1.714
REMARK INTER:                  -4.739
REMARK INTRA:                   3.025
REMARK UNBOUND:                 3.062
REMARK SMILES C=C1CC[C@@H]2[C@H]([C@@H]3[C@H](C)CC[C@H]13)C2(C)C
REMARK SMILES IDX 3 1 2 2 1 3 12 4 9 5 8 6 10 7 7 8 11 9 4 11 5 12 6 13 13 14
REMARK SMILES IDX 14 16 15 17
REMARK H PARENT
REMARK Flexibility Score: 80.00
ROOT
ATOM      1  C   UNL     1       0.500  12.745  16.208  1.00  0.00     0.031 C 
ENDROOT
BRANCH   1   2
ATOM      2  C   UNL     1       0.796  14.076  16.902  1.00  0.00    -0.074 C 
ATOM      3  C   UNL     1       1.019  14.027  18.231  1.00  0.00     0.008 C 
BRANCH   2   4
ATOM      4  C   UNL     1       0.518  15.431  16.226  1.00  0.00     0.018 C 
ATOM      5  C   UNL     1       1.692  17.488  13.236  1.00  0.00     0.008 C 
ATOM      6  C   UNL     1       0.917  17.048  14.487  1.00  0.00    -0.010 C 
ATOM      7  C   UNL     1       1.449  17.673  15.775  1.00  0.00     0.004 C 
ATOM      8  C   UNL     1       0.895  15.531  14.739  1.00  0.00     0.003 CG0
ATOM      9  C   UNL     1       1.236  16.631  16.874  1.00  0.00     0.008 C 
ATOM     10  G   UNL     1       2.288  14.881  14.483  1.00  0.00     0.000 G0
ENDBRANCH   2   4
ENDBRANCH   1   2
BRANCH   1  11
ATOM     11  C   UNL     1       0.967  12.613  14.750  1.00  0.00     0.009 C 
BRANCH  11  12
ATOM     12  C   UNL     1       2.317  13.313  14.509  1.00  0.00    -0.001 C 
ATOM     13  C   UNL     1       2.281  14.850  14.478  1.00  0.00     0.002 CG0
ATOM     14  C   UNL     1       2.582  14.060  13.189  1.00  0.00    -0.029 C 
ATOM     15  G   UNL     1       0.895  15.514  14.738  1.00  0.00     0.000 G0
ATOM     16  C   UNL     1       1.561  13.923  12.044  1.00  0.00     0.011 C 
ATOM     17  C   UNL     1       4.053  14.058  12.762  1.00  0.00     0.011 C 
ENDBRANCH  11  12
ENDBRANCH   1  11
TORSDOF 0
ENDMDL
MODEL 5
REMARK VINA RESULT:    -3.800      1.240      4.091
REMARK INTER + INTRA:          -1.626
REMARK INTER:                  -4.623
REMARK INTRA:                   2.996
REMARK UNBOUND:                 3.062
REMARK SMILES C=C1CC[C@@H]2[C@H]([C@@H]3[C@H](C)CC[C@H]13)C2(C)C
REMARK SMILES IDX 3 1 2 2 1 3 12 4 9 5 8 6 10 7 7 8 11 9 4 11 5 12 6 13 13 14
REMARK SMILES IDX 14 16 15 17
REMARK H PARENT
REMARK Flexibility Score: 80.00
ROOT
ATOM      1  C   UNL     1       0.517  17.904  13.912  1.00  0.00     0.031 C 
ENDROOT
BRANCH   1   2
ATOM      2  C   UNL     1       1.536  17.018  13.192  1.00  0.00    -0.074 C 
ATOM      3  C   UNL     1       2.402  17.641  12.369  1.00  0.00     0.008 C 
BRANCH   2   4
ATOM      4  C   UNL     1       1.383  15.488  13.119  1.00  0.00     0.018 C 
ATOM      5  C   UNL     1       1.332  12.452  15.429  1.00  0.00     0.008 C 
ATOM      6  C   UNL     1       1.265  13.322  14.165  1.00  0.00    -0.010 C 
ATOM      7  C   UNL     1       2.575  13.341  13.378  1.00  0.00     0.004 C 
ATOM      8  C   UNL     1       0.904  14.797  14.406  1.00  0.00     0.003 CG0
ATOM      9  C   UNL     1       2.674  14.731  12.748  1.00  0.00     0.008 C 
ATOM     10  G   UNL     1       1.645  15.378  15.648  1.00  0.00     0.000 G0
ENDBRANCH   2   4
ENDBRANCH   1   2
BRANCH   1  11
ATOM     11  C   UNL     1       0.087  17.452  15.317  1.00  0.00     0.009 C 
BRANCH  11  12
ATOM     12  C   UNL     1       1.248  16.811  16.100  1.00  0.00    -0.001 C 
ATOM     13  C   UNL     1       1.665  15.401  15.651  1.00  0.00     0.002 CG0
ATOM     14  C   UNL     1       0.994  15.606  17.022  1.00  0.00    -0.029 C 
ATOM     15  G   UNL     1       0.895  14.809  14.432  1.00  0.00     0.000 G0
ATOM     16  C   UNL     1      -0.461  15.185  17.305  1.00  0.00     0.011 C 
ATOM     17  C   UNL     1       1.943  15.535  18.223  1.00  0.00     0.011 C 
ENDBRANCH  11  12
ENDBRANCH   1  11
TORSDOF 0
ENDMDL
MODEL 6
REMARK VINA RESULT:    -3.577      1.105      3.708
REMARK INTER + INTRA:          -1.351
REMARK INTER:                  -4.374
REMARK INTRA:                   3.023
REMARK UNBOUND:                 3.062
REMARK SMILES C=C1CC[C@@H]2[C@H]([C@@H]3[C@H](C)CC[C@H]13)C2(C)C
REMARK SMILES IDX 3 1 2 2 1 3 12 4 9 5 8 6 10 7 7 8 11 9 4 11 5 12 6 13 13 14
REMARK SMILES IDX 14 16 15 17
REMARK H PARENT
REMARK Flexibility Score: 80.00
ROOT
ATOM      1  C   UNL     1       2.688  13.539  14.652  1.00  0.00     0.031 C 
ENDROOT
BRANCH   1   2
ATOM      2  C   UNL     1       1.823  14.049  13.499  1.00  0.00    -0.074 C 
ATOM      3  C   UNL     1       1.597  13.188  12.487  1.00  0.00     0.008 C 
BRANCH   2   4
ATOM      4  C   UNL     1       1.512  15.545  13.308  1.00  0.00     0.018 C 
ATOM      5  C   UNL     1      -0.313  18.388  15.081  1.00  0.00     0.008 C 
ATOM      6  C   UNL     1       0.522  17.610  14.053  1.00  0.00    -0.010 C 
ATOM      7  C   UNL     1      -0.282  17.173  12.830  1.00  0.00     0.004 C 
ATOM      8  C   UNL     1       1.192  16.334  14.589  1.00  0.00     0.003 CG0
ATOM      9  C   UNL     1       0.316  15.839  12.381  1.00  0.00     0.008 C 
ATOM     10  G   UNL     1       0.232  15.520  15.508  1.00  0.00     0.000 G0
ENDBRANCH   2   4
ENDBRANCH   1   2
BRANCH   1  11
ATOM     11  C   UNL     1       2.380  14.109  16.046  1.00  0.00     0.009 C 
BRANCH  11  12
ATOM     12  C   UNL     1       0.870  14.315  16.266  1.00  0.00    -0.001 C 
ATOM     13  C   UNL     1       0.237  15.503  15.522  1.00  0.00     0.002 CG0
ATOM     14  C   UNL     1       0.357  15.531  17.058  1.00  0.00    -0.029 C 
ATOM     15  G   UNL     1       1.188  16.327  14.602  1.00  0.00     0.000 G0
ATOM     16  C   UNL     1       1.379  16.418  17.794  1.00  0.00     0.011 C 
ATOM     17  C   UNL     1      -0.951  15.270  17.812  1.00  0.00     0.011 C 
ENDBRANCH  11  12
ENDBRANCH   1  11
TORSDOF 0
ENDMDL
MODEL 7
REMARK VINA RESULT:    -3.194      1.504      3.264
REMARK INTER + INTRA:          -0.878
REMARK INTER:                  -3.881
REMARK INTRA:                   3.002
REMARK UNBOUND:                 3.062
REMARK SMILES C=C1CC[C@@H]2[C@H]([C@@H]3[C@H](C)CC[C@H]13)C2(C)C
REMARK SMILES IDX 3 1 2 2 1 3 12 4 9 5 8 6 10 7 7 8 11 9 4 11 5 12 6 13 13 14
REMARK SMILES IDX 14 16 15 17
REMARK H PARENT
REMARK Flexibility Score: 80.00
ROOT
ATOM      1  C   UNL     1       3.028  15.463  13.118  1.00  0.00     0.031 C 
ENDROOT
BRANCH   1   2
ATOM      2  C   UNL     1       1.965  16.555  13.249  1.00  0.00    -0.074 C 
ATOM      3  C   UNL     1       1.890  17.449  12.244  1.00  0.00     0.008 C 
BRANCH   2   4
ATOM      4  C   UNL     1       1.255  16.850  14.584  1.00  0.00     0.018 C 
ATOM      5  C   UNL     1      -1.107  15.163  17.060  1.00  0.00     0.008 C 
ATOM      6  C   UNL     1      -0.181  16.198  16.403  1.00  0.00    -0.010 C 
ATOM      7  C   UNL     1      -0.939  17.279  15.634  1.00  0.00     0.004 C 
ATOM      8  C   UNL     1       0.843  15.622  15.412  1.00  0.00     0.003 CG0
ATOM      9  C   UNL     1      -0.047  17.664  14.452  1.00  0.00     0.008 C 
ATOM     10  G   UNL     1       0.210  14.531  14.496  1.00  0.00     0.000 G0
ENDBRANCH   2   4
ENDBRANCH   1   2
BRANCH   1  11
ATOM     11  C   UNL     1       2.697  14.103  13.753  1.00  0.00     0.009 C 
BRANCH  11  12
ATOM     12  C   UNL     1       1.211  13.734  13.588  1.00  0.00    -0.001 C 
ATOM     13  C   UNL     1       0.223  14.511  14.473  1.00  0.00     0.002 CG0
ATOM     14  C   UNL     1       0.460  13.008  14.718  1.00  0.00    -0.029 C 
ATOM     15  G   UNL     1       0.836  15.607  15.395  1.00  0.00     0.000 G0
ATOM     16  C   UNL     1       1.264  12.482  15.922  1.00  0.00     0.011 C 
ATOM     17  C   UNL     1      -0.662  12.089  14.224  1.00  0.00     0.011 C 
ENDBRANCH  11  12
ENDBRANCH   1  11
TORSDOF 0
ENDMDL
MODEL 8
REMARK VINA RESULT:    -3.092      1.850      4.715
REMARK INTER + INTRA:          -0.753
REMARK INTER:                  -3.875
REMARK INTRA:                   3.121
REMARK UNBOUND:                 3.062
REMARK SMILES C=C1CC[C@@H]2[C@H]([C@@H]3[C@H](C)CC[C@H]13)C2(C)C
REMARK SMILES IDX 3 1 2 2 1 3 12 4 9 5 8 6 10 7 7 8 11 9 4 11 5 12 6 13 13 14
REMARK SMILES IDX 14 16 15 17
REMARK H PARENT
REMARK Flexibility Score: 80.00
ROOT
ATOM      1  C   UNL     1       4.099  13.697  12.517  1.00  0.00     0.031 C 
ENDROOT
BRANCH   1   2
ATOM      2  C   UNL     1       3.399  12.342  12.399  1.00  0.00    -0.074 C 
ATOM      3  C   UNL     1       4.154  11.306  11.983  1.00  0.00     0.008 C 
BRANCH   2   4
ATOM      4  C   UNL     1       1.865  12.211  12.405  1.00  0.00     0.018 C 
ATOM      5  C   UNL     1      -1.101  12.825  14.725  1.00  0.00     0.008 C 
ATOM      6  C   UNL     1      -0.274  12.451  13.486  1.00  0.00    -0.010 C 
ATOM      7  C   UNL     1      -0.034  10.948  13.353  1.00  0.00     0.004 C 
ATOM      8  C   UNL     1       1.117  13.102  13.410  1.00  0.00     0.003 CG0
ATOM      9  C   UNL     1       1.343  10.792  12.706  1.00  0.00     0.008 C 
ATOM     10  G   UNL     1       1.837  13.092  14.792  1.00  0.00     0.000 G0
ENDBRANCH   2   4
ENDBRANCH   1   2
BRANCH   1  11
ATOM     11  C   UNL     1       3.581  14.644  13.611  1.00  0.00     0.009 C 
BRANCH  11  12
ATOM     12  C   UNL     1       3.169  13.885  14.886  1.00  0.00    -0.001 C 
ATOM     13  C   UNL     1       1.861  13.080  14.796  1.00  0.00     0.002 CG0
ATOM     14  C   UNL     1       1.936  14.330  15.693  1.00  0.00    -0.029 C 
ATOM     15  G   UNL     1       1.137  13.093  13.416  1.00  0.00     0.000 G0
ATOM     16  C   UNL     1       1.250  15.659  15.322  1.00  0.00     0.011 C 
ATOM     17  C   UNL     1       2.043  14.042  17.194  1.00  0.00     0.011 C 
ENDBRANCH  11  12
ENDBRANCH   1  11
TORSDOF 0
ENDMDL
MODEL 9
REMARK VINA RESULT:    -2.873      1.388      4.397
REMARK INTER + INTRA:          -0.482
REMARK INTER:                  -3.515
REMARK INTRA:                   3.033
REMARK UNBOUND:                 3.062
REMARK SMILES C=C1CC[C@@H]2[C@H]([C@@H]3[C@H](C)CC[C@H]13)C2(C)C
REMARK SMILES IDX 3 1 2 2 1 3 12 4 9 5 8 6 10 7 7 8 11 9 4 11 5 12 6 13 13 14
REMARK SMILES IDX 14 16 15 17
REMARK H PARENT
REMARK Flexibility Score: 80.00
ROOT
ATOM      1  C   UNL     1       2.351  16.373  12.204  1.00  0.00     0.031 C 
ENDROOT
BRANCH   1   2
ATOM      2  C   UNL     1       2.634  14.995  12.804  1.00  0.00    -0.074 C 
ATOM      3  C   UNL     1       3.808  14.421  12.473  1.00  0.00     0.008 C 
BRANCH   2   4
ATOM      4  C   UNL     1       1.529  14.144  13.457  1.00  0.00     0.018 C 
ATOM      5  C   UNL     1      -0.834  14.240  16.451  1.00  0.00     0.008 C 
ATOM      6  C   UNL     1      -0.129  13.781  15.165  1.00  0.00    -0.010 C 
ATOM      7  C   UNL     1       0.968  12.749  15.416  1.00  0.00     0.004 C 
ATOM      8  C   UNL     1       0.533  14.903  14.349  1.00  0.00     0.003 CG0
ATOM      9  C   UNL     1       2.044  13.005  14.359  1.00  0.00     0.008 C 
ATOM     10  G   UNL     1       1.283  15.918  15.264  1.00  0.00     0.000 G0
ENDBRANCH   2   4
ENDBRANCH   1   2
BRANCH   1  11
ATOM     11  C   UNL     1       1.504  17.331  13.055  1.00  0.00     0.009 C 
BRANCH  11  12
ATOM     12  C   UNL     1       1.818  17.203  14.557  1.00  0.00    -0.001 C 
ATOM     13  C   UNL     1       1.282  15.940  15.251  1.00  0.00     0.002 CG0
ATOM     14  C   UNL     1       0.693  17.321  15.601  1.00  0.00    -0.029 C 
ATOM     15  G   UNL     1       0.525  14.923  14.344  1.00  0.00     0.000 G0
ATOM     16  C   UNL     1      -0.705  17.768  15.134  1.00  0.00     0.011 C 
ATOM     17  C   UNL     1       1.153  17.897  16.944  1.00  0.00     0.011 C 
ENDBRANCH  11  12
ENDBRANCH   1  11
TORSDOF 0
ENDMDL
