MODEL 1
REMARK VINA RESULT:    -3.738      0.000      0.000
REMARK INTER + INTRA:          -4.893
REMARK INTER:                  -4.613
REMARK INTRA:                  -0.280
REMARK UNBOUND:                -0.280
REMARK SMILES CCOC(=O)c1ccc(O)c(O)c1
REMARK SMILES IDX 4 1 5 2 3 3 2 4 1 5 6 6 13 7 7 8 11 9 8 10 9 11 12 12 10 14
REMARK H PARENT 12 13 10 15
REMARK Flexibility Score: inf
ROOT
ATOM      1  C   UNL     1      -4.071   2.911  14.975  1.00  0.00     0.338 C 
ATOM      2  O   UNL     1      -3.166   3.429  14.263  1.00  0.00    -0.246 OA
ENDROOT
BRANCH   1   3
ATOM      3  O   UNL     1      -5.264   2.481  14.385  1.00  0.00    -0.462 OA
BRANCH   3   4
ATOM      4  C   UNL     1      -6.244   3.382  13.882  1.00  0.00     0.230 C 
ATOM      5  C   UNL     1      -6.894   4.125  15.039  1.00  0.00     0.049 C 
ENDBRANCH   3   4
ENDBRANCH   1   3
BRANCH   1   6
ATOM      6  C   UNL     1      -3.871   2.757  16.433  1.00  0.00     0.064 A 
ATOM      7  C   UNL     1      -3.681   1.480  16.991  1.00  0.00     0.065 A 
ATOM      8  C   UNL     1      -3.868   3.878  17.280  1.00  0.00     0.020 A 
ATOM      9  C   UNL     1      -3.491   1.325  18.372  1.00  0.00     0.158 A 
ATOM     10  C   UNL     1      -3.678   3.725  18.656  1.00  0.00     0.051 A 
ATOM     11  C   UNL     1      -3.490   2.455  19.208  1.00  0.00     0.157 A 
BRANCH   9  12
ATOM     12  O   UNL     1      -3.304   0.055  18.916  1.00  0.00    -0.504 OA
ATOM     13  H   UNL     1      -3.009  -0.729  18.346  1.00  0.00     0.293 HD
ENDBRANCH   9  12
BRANCH  11  14
ATOM     14  O   UNL     1      -3.304   2.334  20.585  1.00  0.00    -0.504 OA
ATOM     15  H   UNL     1      -3.688   1.561  21.113  1.00  0.00     0.293 HD
ENDBRANCH  11  14
ENDBRANCH   1   6
TORSDOF 5
ENDMDL
MODEL 2
REMARK VINA RESULT:    -3.568      1.004      2.061
REMARK INTER + INTRA:          -4.682
REMARK INTER:                  -4.478
REMARK INTRA:                  -0.204
REMARK UNBOUND:                -0.280
REMARK SMILES CCOC(=O)c1ccc(O)c(O)c1
REMARK SMILES IDX 4 1 5 2 3 3 2 4 1 5 6 6 13 7 7 8 11 9 8 10 9 11 12 12 10 14
REMARK H PARENT 12 13 10 15
REMARK Flexibility Score: inf
ROOT
ATOM      1  C   UNL     1      -3.847   3.283  15.472  1.00  0.00     0.338 C 
ATOM      2  O   UNL     1      -2.954   3.396  14.587  1.00  0.00    -0.246 OA
ENDROOT
BRANCH   1   3
ATOM      3  O   UNL     1      -5.002   4.069  15.406  1.00  0.00    -0.462 OA
BRANCH   3   4
ATOM      4  C   UNL     1      -6.305   3.513  15.262  1.00  0.00     0.230 C 
ATOM      5  C   UNL     1      -6.962   4.075  14.011  1.00  0.00     0.049 C 
ENDBRANCH   3   4
ENDBRANCH   1   3
BRANCH   1   6
ATOM      6  C   UNL     1      -3.675   2.316  16.580  1.00  0.00     0.064 A 
ATOM      7  C   UNL     1      -3.503   2.773  17.899  1.00  0.00     0.065 A 
ATOM      8  C   UNL     1      -3.680   0.933  16.333  1.00  0.00     0.020 A 
ATOM      9  C   UNL     1      -3.339   1.863  18.954  1.00  0.00     0.158 A 
ATOM     10  C   UNL     1      -3.517   0.026  17.383  1.00  0.00     0.051 A 
ATOM     11  C   UNL     1      -3.346   0.483  18.693  1.00  0.00     0.157 A 
BRANCH   9  12
ATOM     12  O   UNL     1      -3.169   2.326  20.258  1.00  0.00    -0.504 OA
ATOM     13  H   UNL     1      -2.935   1.698  21.018  1.00  0.00     0.293 HD
ENDBRANCH   9  12
BRANCH  11  14
ATOM     14  O   UNL     1      -3.185  -0.447  19.720  1.00  0.00    -0.504 OA
ATOM     15  H   UNL     1      -3.271  -1.443  19.562  1.00  0.00     0.293 HD
ENDBRANCH  11  14
ENDBRANCH   1   6
TORSDOF 5
ENDMDL
MODEL 3
REMARK VINA RESULT:    -3.344      1.245      4.836
REMARK INTER + INTRA:          -4.407
REMARK INTER:                  -4.152
REMARK INTRA:                  -0.255
REMARK UNBOUND:                -0.280
REMARK SMILES CCOC(=O)c1ccc(O)c(O)c1
REMARK SMILES IDX 4 1 5 2 3 3 2 4 1 5 6 6 13 7 7 8 11 9 8 10 9 11 12 12 10 14
REMARK H PARENT 12 13 10 15
REMARK Flexibility Score: inf
ROOT
ATOM      1  C   UNL     1      -3.616   0.971  18.210  1.00  0.00     0.338 C 
ATOM      2  O   UNL     1      -3.644  -0.288  18.296  1.00  0.00    -0.246 OA
ENDROOT
BRANCH   1   3
ATOM      3  O   UNL     1      -2.875   1.719  19.132  1.00  0.00    -0.462 OA
BRANCH   3   4
ATOM      4  C   UNL     1      -3.404   2.860  19.800  1.00  0.00     0.230 C 
ATOM      5  C   UNL     1      -2.881   4.125  19.139  1.00  0.00     0.049 C 
ENDBRANCH   3   4
ENDBRANCH   1   3
BRANCH   1   6
ATOM      6  C   UNL     1      -4.365   1.659  17.134  1.00  0.00     0.064 A 
ATOM      7  C   UNL     1      -3.685   2.180  16.019  1.00  0.00     0.065 A 
ATOM      8  C   UNL     1      -5.761   1.802  17.209  1.00  0.00     0.020 A 
ATOM      9  C   UNL     1      -4.387   2.833  14.996  1.00  0.00     0.158 A 
ATOM     10  C   UNL     1      -6.461   2.451  16.190  1.00  0.00     0.051 A 
ATOM     11  C   UNL     1      -5.783   2.969  15.083  1.00  0.00     0.157 A 
BRANCH   9  12
ATOM     12  O   UNL     1      -3.704   3.347  13.894  1.00  0.00    -0.504 OA
ATOM     13  H   UNL     1      -2.709   3.534  13.926  1.00  0.00     0.293 HD
ENDBRANCH   9  12
BRANCH  11  14
ATOM     14  O   UNL     1      -6.509   3.613  14.082  1.00  0.00    -0.504 OA
ATOM     15  H   UNL     1      -6.141   3.740  13.147  1.00  0.00     0.293 HD
ENDBRANCH  11  14
ENDBRANCH   1   6
TORSDOF 5
ENDMDL
MODEL 4
REMARK VINA RESULT:    -2.556      2.420      5.895
REMARK INTER + INTRA:          -3.434
REMARK INTER:                  -3.288
REMARK INTRA:                  -0.146
REMARK UNBOUND:                -0.280
REMARK SMILES CCOC(=O)c1ccc(O)c(O)c1
REMARK SMILES IDX 4 1 5 2 3 3 2 4 1 5 6 6 13 7 7 8 11 9 8 10 9 11 12 12 10 14
REMARK H PARENT 12 13 10 15
REMARK Flexibility Score: inf
ROOT
ATOM      1  C   UNL     1      -3.024  -0.247  20.073  1.00  0.00     0.338 C 
ATOM      2  O   UNL     1      -2.876  -1.497  19.983  1.00  0.00    -0.246 OA
ENDROOT
BRANCH   1   3
ATOM      3  O   UNL     1      -2.875   0.388  21.310  1.00  0.00    -0.462 OA
BRANCH   3   4
ATOM      4  C   UNL     1      -3.146  -0.262  22.547  1.00  0.00     0.230 C 
ATOM      5  C   UNL     1      -2.953   0.720  23.692  1.00  0.00     0.049 C 
ENDBRANCH   3   4
ENDBRANCH   1   3
BRANCH   1   6
ATOM      6  C   UNL     1      -3.353   0.550  18.869  1.00  0.00     0.064 A 
ATOM      7  C   UNL     1      -3.202   1.948  18.882  1.00  0.00     0.065 A 
ATOM      8  C   UNL     1      -3.821  -0.075  17.700  1.00  0.00     0.020 A 
ATOM      9  C   UNL     1      -3.512   2.710  17.746  1.00  0.00     0.158 A 
ATOM     10  C   UNL     1      -4.129   0.683  16.568  1.00  0.00     0.051 A 
ATOM     11  C   UNL     1      -3.977   2.073  16.583  1.00  0.00     0.157 A 
BRANCH   9  12
ATOM     12  O   UNL     1      -3.358   4.095  17.767  1.00  0.00    -0.504 OA
ATOM     13  H   UNL     1      -4.153   4.719  17.695  1.00  0.00     0.293 HD
ENDBRANCH   9  12
BRANCH  11  14
ATOM     14  O   UNL     1      -4.295   2.802  15.438  1.00  0.00    -0.504 OA
ATOM     15  H   UNL     1      -5.095   3.421  15.399  1.00  0.00     0.293 HD
ENDBRANCH  11  14
ENDBRANCH   1   6
TORSDOF 5
ENDMDL
MODEL 5
REMARK VINA RESULT:    -2.223      2.424      4.843
REMARK INTER + INTRA:          -3.023
REMARK INTER:                  -3.110
REMARK INTRA:                   0.087
REMARK UNBOUND:                -0.280
REMARK SMILES CCOC(=O)c1ccc(O)c(O)c1
REMARK SMILES IDX 4 1 5 2 3 3 2 4 1 5 6 6 13 7 7 8 11 9 8 10 9 11 12 12 10 14
REMARK H PARENT 12 13 10 15
REMARK Flexibility Score: inf
ROOT
ATOM      1  C   UNL     1      -3.876  -0.095  16.588  1.00  0.00     0.338 C 
ATOM      2  O   UNL     1      -3.969  -1.197  15.978  1.00  0.00    -0.246 OA
ENDROOT
BRANCH   1   3
ATOM      3  O   UNL     1      -2.878   0.089  17.551  1.00  0.00    -0.462 OA
BRANCH   3   4
ATOM      4  C   UNL     1      -3.107  -0.103  18.943  1.00  0.00     0.230 C 
ATOM      5  C   UNL     1      -2.876   1.205  19.682  1.00  0.00     0.049 C 
ENDBRANCH   3   4
ENDBRANCH   1   3
BRANCH   1   6
ATOM      6  C   UNL     1      -4.819   1.004  16.283  1.00  0.00     0.064 A 
ATOM      7  C   UNL     1      -5.128   1.964  17.263  1.00  0.00     0.065 A 
ATOM      8  C   UNL     1      -5.419   1.105  15.017  1.00  0.00     0.020 A 
ATOM      9  C   UNL     1      -6.022   3.009  16.983  1.00  0.00     0.158 A 
ATOM     10  C   UNL     1      -6.309   2.145  14.736  1.00  0.00     0.051 A 
ATOM     11  C   UNL     1      -6.614   3.099  15.712  1.00  0.00     0.157 A 
BRANCH   9  12
ATOM     12  O   UNL     1      -6.322   3.956  17.960  1.00  0.00    -0.504 OA
ATOM     13  H   UNL     1      -7.012   4.682  17.803  1.00  0.00     0.293 HD
ENDBRANCH   9  12
BRANCH  11  14
ATOM     14  O   UNL     1      -7.506   4.125  15.402  1.00  0.00    -0.504 OA
ATOM     15  H   UNL     1      -7.254   4.890  14.790  1.00  0.00     0.293 HD
ENDBRANCH  11  14
ENDBRANCH   1   6
TORSDOF 5
ENDMDL
MODEL 6
REMARK VINA RESULT:    -1.851      1.406      2.001
REMARK INTER + INTRA:          -2.564
REMARK INTER:                  -2.518
REMARK INTRA:                  -0.046
REMARK UNBOUND:                -0.280
REMARK SMILES CCOC(=O)c1ccc(O)c(O)c1
REMARK SMILES IDX 4 1 5 2 3 3 2 4 1 5 6 6 13 7 7 8 11 9 8 10 9 11 12 12 10 14
REMARK H PARENT 12 13 10 15
REMARK Flexibility Score: inf
ROOT
ATOM      1  C   UNL     1      -6.241   3.406  15.640  1.00  0.00     0.338 C 
ATOM      2  O   UNL     1      -7.321   3.991  15.929  1.00  0.00    -0.246 OA
ENDROOT
BRANCH   1   3
ATOM      3  O   UNL     1      -5.867   3.247  14.301  1.00  0.00    -0.462 OA
BRANCH   3   4
ATOM      4  C   UNL     1      -4.543   2.901  13.907  1.00  0.00     0.230 C 
ATOM      5  C   UNL     1      -3.646   4.125  14.007  1.00  0.00     0.049 C 
ENDBRANCH   3   4
ENDBRANCH   1   3
BRANCH   1   6
ATOM      6  C   UNL     1      -5.366   2.888  16.716  1.00  0.00     0.064 A 
ATOM      7  C   UNL     1      -5.163   1.504  16.861  1.00  0.00     0.065 A 
ATOM      8  C   UNL     1      -4.727   3.767  17.608  1.00  0.00     0.020 A 
ATOM      9  C   UNL     1      -4.336   1.006  17.878  1.00  0.00     0.158 A 
ATOM     10  C   UNL     1      -3.903   3.272  18.621  1.00  0.00     0.051 A 
ATOM     11  C   UNL     1      -3.703   1.896  18.762  1.00  0.00     0.157 A 
BRANCH   9  12
ATOM     12  O   UNL     1      -4.140  -0.368  18.013  1.00  0.00    -0.504 OA
ATOM     13  H   UNL     1      -4.171  -0.990  17.214  1.00  0.00     0.293 HD
ENDBRANCH   9  12
BRANCH  11  14
ATOM     14  O   UNL     1      -2.875   1.432  19.784  1.00  0.00    -0.504 OA
ATOM     15  H   UNL     1      -2.268   0.631  19.662  1.00  0.00     0.293 HD
ENDBRANCH  11  14
ENDBRANCH   1   6
TORSDOF 5
ENDMDL
MODEL 7
REMARK VINA RESULT:    -1.062      1.784      2.157
REMARK INTER + INTRA:          -1.590
REMARK INTER:                  -1.536
REMARK INTRA:                  -0.054
REMARK UNBOUND:                -0.280
REMARK SMILES CCOC(=O)c1ccc(O)c(O)c1
REMARK SMILES IDX 4 1 5 2 3 3 2 4 1 5 6 6 13 7 7 8 11 9 8 10 9 11 12 12 10 14
REMARK H PARENT 12 13 10 15
REMARK Flexibility Score: inf
ROOT
ATOM      1  C   UNL     1      -4.096   2.012  16.809  1.00  0.00     0.338 C 
ATOM      2  O   UNL     1      -3.887   3.147  16.300  1.00  0.00    -0.246 OA
ENDROOT
BRANCH   1   3
ATOM      3  O   UNL     1      -4.624   0.980  16.026  1.00  0.00    -0.462 OA
BRANCH   3   4
ATOM      4  C   UNL     1      -5.726   1.169  15.145  1.00  0.00     0.230 C 
ATOM      5  C   UNL     1      -6.762   2.061  15.809  1.00  0.00     0.049 C 
ENDBRANCH   3   4
ENDBRANCH   1   3
BRANCH   1   6
ATOM      6  C   UNL     1      -3.780   1.768  18.235  1.00  0.00     0.064 A 
ATOM      7  C   UNL     1      -3.585   0.457  18.704  1.00  0.00     0.065 A 
ATOM      8  C   UNL     1      -3.673   2.839  19.139  1.00  0.00     0.020 A 
ATOM      9  C   UNL     1      -3.286   0.218  20.053  1.00  0.00     0.158 A 
ATOM     10  C   UNL     1      -3.374   2.602  20.483  1.00  0.00     0.051 A 
ATOM     11  C   UNL     1      -3.180   1.298  20.947  1.00  0.00     0.157 A 
BRANCH   9  12
ATOM     12  O   UNL     1      -3.093  -1.085  20.509  1.00  0.00    -0.504 OA
ATOM     13  H   UNL     1      -3.733  -1.519  21.163  1.00  0.00     0.293 HD
ENDBRANCH   9  12
BRANCH  11  14
ATOM     14  O   UNL     1      -2.884   1.093  22.294  1.00  0.00    -0.504 OA
ATOM     15  H   UNL     1      -2.717   0.169  22.673  1.00  0.00     0.293 HD
ENDBRANCH  11  14
ENDBRANCH   1   6
TORSDOF 5
ENDMDL
