MODEL 1
REMARK VINA RESULT:     0.053      0.000      0.000
REMARK INTER + INTRA:           0.056
REMARK INTER:                   0.056
REMARK INTRA:                   0.000
REMARK UNBOUND:                 0.000
REMARK SMILES O=c1ccc2cc(O)c(O)cc2o1
REMARK SMILES IDX 4 1 3 2 2 3 1 4 13 5 12 6 11 7 9 8 7 9 6 10 5 11 8 12 10 14
REMARK H PARENT 8 13 10 15
REMARK Flexibility Score: inf
ROOT
ATOM      1  C   UNL     1      27.362  27.065   3.664  1.00  0.00     0.019 A 
ATOM      2  C   UNL     1      27.004  25.929   2.938  1.00  0.00     0.094 A 
ATOM      3  C   UNL     1      26.864  26.028   1.549  1.00  0.00     0.336 A 
ATOM      4  O   UNL     1      26.542  25.015   0.877  1.00  0.00    -0.246 OA
ATOM      5  O   UNL     1      27.069  27.190   0.933  1.00  0.00    -0.423 OA
ATOM      6  C   UNL     1      27.411  28.297   1.588  1.00  0.00     0.142 A 
ATOM      7  C   UNL     1      27.613  29.490   0.886  1.00  0.00     0.098 A 
ATOM      8  C   UNL     1      27.974  30.659   1.572  1.00  0.00     0.161 A 
ATOM      9  C   UNL     1      28.133  30.636   2.965  1.00  0.00     0.158 A 
ATOM     10  C   UNL     1      27.932  29.442   3.673  1.00  0.00     0.062 A 
ATOM     11  C   UNL     1      27.571  28.273   2.990  1.00  0.00     0.022 A 
ENDROOT
BRANCH   9  12
ATOM     12  O   UNL     1      28.492  31.802   3.638  1.00  0.00    -0.504 OA
ATOM     13  H   UNL     1      28.491  31.852   4.651  1.00  0.00     0.293 HD
ENDBRANCH   9  12
BRANCH   8  14
ATOM     14  O   UNL     1      28.177  31.849   0.875  1.00  0.00    -0.504 OA
ATOM     15  H   UNL     1      27.600  32.665   1.042  1.00  0.00     0.293 HD
ENDBRANCH   8  14
TORSDOF 2
ENDMDL
MODEL 2
REMARK VINA RESULT:     2.264      1.405      2.039
REMARK INTER + INTRA:           2.397
REMARK INTER:                   2.397
REMARK INTRA:                   0.000
REMARK UNBOUND:                 0.000
REMARK SMILES O=c1ccc2cc(O)c(O)cc2o1
REMARK SMILES IDX 4 1 3 2 2 3 1 4 13 5 12 6 11 7 9 8 7 9 6 10 5 11 8 12 10 14
REMARK H PARENT 8 13 10 15
REMARK Flexibility Score: inf
ROOT
ATOM      1  C   UNL     1      26.042  27.465   1.222  1.00  0.00     0.019 A 
ATOM      2  C   UNL     1      26.101  26.082   1.396  1.00  0.00     0.094 A 
ATOM      3  C   UNL     1      27.244  25.520   1.975  1.00  0.00     0.336 A 
ATOM      4  O   UNL     1      27.316  24.274   2.140  1.00  0.00    -0.246 OA
ATOM      5  O   UNL     1      28.258  26.294   2.352  1.00  0.00    -0.423 OA
ATOM      6  C   UNL     1      28.243  27.617   2.203  1.00  0.00     0.142 A 
ATOM      7  C   UNL     1      29.339  28.380   2.618  1.00  0.00     0.098 A 
ATOM      8  C   UNL     1      29.327  29.774   2.464  1.00  0.00     0.161 A 
ATOM      9  C   UNL     1      28.215  30.408   1.892  1.00  0.00     0.158 A 
ATOM     10  C   UNL     1      27.112  29.647   1.474  1.00  0.00     0.062 A 
ATOM     11  C   UNL     1      27.123  28.254   1.627  1.00  0.00     0.022 A 
ENDROOT
BRANCH   9  12
ATOM     12  O   UNL     1      28.211  31.793   1.743  1.00  0.00    -0.504 OA
ATOM     13  H   UNL     1      28.598  32.404   2.453  1.00  0.00     0.293 HD
ENDBRANCH   9  12
BRANCH   8  14
ATOM     14  O   UNL     1      30.418  30.537   2.877  1.00  0.00    -0.504 OA
ATOM     15  H   UNL     1      31.343  30.135   2.965  1.00  0.00     0.293 HD
ENDBRANCH   8  14
TORSDOF 2
ENDMDL
