MODEL 1
REMARK VINA RESULT:    -4.317      0.000      0.000
REMARK INTER + INTRA:          -5.269
REMARK INTER:                  -4.948
REMARK INTRA:                  -0.321
REMARK UNBOUND:                -0.321
REMARK SMILES O=C1C[C@H](c2ccc(O)cc2)Oc2cc(O)cc(O)c21
REMARK SMILES IDX 3 1 4 2 12 3 13 4 14 5 15 6 17 7 18 8 20 9 2 10 1 11 5 12
REMARK SMILES IDX 6 13 11 14 7 15 10 16 8 17 9 18 19 20 16 22
REMARK H PARENT 9 19 19 21 16 23
REMARK Flexibility Score: inf
ROOT
ATOM      1  C   UNL     1      34.618  -2.831   4.589  1.00  0.00     0.131 C 
ATOM      2  C   UNL     1      35.280  -4.202   4.786  1.00  0.00     0.211 C 
ATOM      3  O   UNL     1      36.686  -4.121   4.537  1.00  0.00    -0.484 OA
ATOM      4  C   UNL     1      37.228  -3.348   3.500  1.00  0.00     0.138 A 
ATOM      5  C   UNL     1      38.564  -3.535   3.143  1.00  0.00     0.093 A 
ATOM      6  C   UNL     1      39.128  -2.789   2.104  1.00  0.00     0.123 A 
ATOM      7  C   UNL     1      38.357  -1.833   1.439  1.00  0.00     0.093 A 
ATOM      8  C   UNL     1      37.026  -1.600   1.807  1.00  0.00     0.133 A 
ATOM      9  C   UNL     1      36.436  -2.390   2.830  1.00  0.00     0.102 A 
ATOM     10  C   UNL     1      35.018  -2.279   3.253  1.00  0.00     0.174 C 
ATOM     11  O   UNL     1      34.137  -1.787   2.499  1.00  0.00    -0.294 OA
ENDROOT
BRANCH   2  12
ATOM     12  C   UNL     1      35.030  -4.719   6.182  1.00  0.00    -0.007 A 
ATOM     13  C   UNL     1      36.105  -5.093   7.009  1.00  0.00     0.011 A 
ATOM     14  C   UNL     1      33.723  -4.780   6.690  1.00  0.00     0.011 A 
ATOM     15  C   UNL     1      35.871  -5.543   8.311  1.00  0.00     0.046 A 
ATOM     16  C   UNL     1      33.491  -5.231   7.993  1.00  0.00     0.046 A 
ATOM     17  C   UNL     1      34.566  -5.615   8.807  1.00  0.00     0.115 A 
BRANCH  17  18
ATOM     18  O   UNL     1      34.346  -6.065  10.107  1.00  0.00    -0.508 OA
ATOM     19  H   UNL     1      34.314  -7.053  10.327  1.00  0.00     0.293 HD
ENDBRANCH  17  18
ENDBRANCH   2  12
BRANCH   8  20
ATOM     20  O   UNL     1      36.351  -0.564   1.158  1.00  0.00    -0.507 OA
ATOM     21  H   UNL     1      36.129  -0.565   0.174  1.00  0.00     0.293 HD
ENDBRANCH   8  20
BRANCH   6  22
ATOM     22  O   UNL     1      40.456  -2.984   1.728  1.00  0.00    -0.508 OA
ATOM     23  H   UNL     1      41.199  -2.392   2.081  1.00  0.00     0.293 HD
ENDBRANCH   6  22
TORSDOF 4
ENDMDL
MODEL 2
REMARK VINA RESULT:    -4.189     10.312     12.358
REMARK INTER + INTRA:          -5.121
REMARK INTER:                  -4.834
REMARK INTRA:                  -0.287
REMARK UNBOUND:                -0.321
REMARK SMILES O=C1C[C@H](c2ccc(O)cc2)Oc2cc(O)cc(O)c21
REMARK SMILES IDX 3 1 4 2 12 3 13 4 14 5 15 6 17 7 18 8 20 9 2 10 1 11 5 12
REMARK SMILES IDX 6 13 11 14 7 15 10 16 8 17 9 18 19 20 16 22
REMARK H PARENT 9 19 19 21 16 23
REMARK Flexibility Score: inf
ROOT
ATOM      1  C   UNL     1      31.098 -12.136  -1.107  1.00  0.00     0.131 C 
ATOM      2  C   UNL     1      29.756 -11.721  -0.486  1.00  0.00     0.211 C 
ATOM      3  O   UNL     1      29.943 -11.273   0.860  1.00  0.00    -0.484 OA
ATOM      4  C   UNL     1      30.836 -11.891   1.745  1.00  0.00     0.138 A 
ATOM      5  C   UNL     1      30.763 -11.585   3.105  1.00  0.00     0.093 A 
ATOM      6  C   UNL     1      31.631 -12.196   4.014  1.00  0.00     0.123 A 
ATOM      7  C   UNL     1      32.595 -13.097   3.555  1.00  0.00     0.093 A 
ATOM      8  C   UNL     1      32.713 -13.388   2.190  1.00  0.00     0.133 A 
ATOM      9  C   UNL     1      31.802 -12.806   1.270  1.00  0.00     0.102 A 
ATOM     10  C   UNL     1      31.789 -13.096  -0.185  1.00  0.00     0.174 C 
ATOM     11  O   UNL     1      32.293 -14.150  -0.656  1.00  0.00    -0.294 OA
ENDROOT
BRANCH   2  12
ATOM     12  C   UNL     1      29.103 -10.635  -1.307  1.00  0.00    -0.007 A 
ATOM     13  C   UNL     1      27.702 -10.511  -1.343  1.00  0.00     0.011 A 
ATOM     14  C   UNL     1      29.891  -9.702  -2.000  1.00  0.00     0.011 A 
ATOM     15  C   UNL     1      27.103  -9.486  -2.081  1.00  0.00     0.046 A 
ATOM     16  C   UNL     1      29.289  -8.678  -2.738  1.00  0.00     0.046 A 
ATOM     17  C   UNL     1      27.892  -8.568  -2.781  1.00  0.00     0.115 A 
BRANCH  17  18
ATOM     18  O   UNL     1      27.281  -7.552  -3.512  1.00  0.00    -0.508 OA
ATOM     19  H   UNL     1      26.279  -7.408  -3.484  1.00  0.00     0.293 HD
ENDBRANCH  17  18
ENDBRANCH   2  12
BRANCH   8  20
ATOM     20  O   UNL     1      33.762 -14.225   1.801  1.00  0.00    -0.507 OA
ATOM     21  H   UNL     1      34.067 -14.339   0.846  1.00  0.00     0.293 HD
ENDBRANCH   8  20
BRANCH   6  22
ATOM     22  O   UNL     1      31.550 -11.912   5.376  1.00  0.00    -0.508 OA
ATOM     23  H   UNL     1      31.320 -10.983   5.710  1.00  0.00     0.293 HD
ENDBRANCH   6  22
TORSDOF 4
ENDMDL
MODEL 3
REMARK VINA RESULT:    -4.019      3.957      7.197
REMARK INTER + INTRA:          -4.927
REMARK INTER:                  -4.620
REMARK INTRA:                  -0.307
REMARK UNBOUND:                -0.321
REMARK SMILES O=C1C[C@H](c2ccc(O)cc2)Oc2cc(O)cc(O)c21
REMARK SMILES IDX 3 1 4 2 12 3 13 4 14 5 15 6 17 7 18 8 20 9 2 10 1 11 5 12
REMARK SMILES IDX 6 13 11 14 7 15 10 16 8 17 9 18 19 20 16 22
REMARK H PARENT 9 19 19 21 16 23
REMARK Flexibility Score: inf
ROOT
ATOM      1  C   UNL     1      34.895   1.229   3.929  1.00  0.00     0.131 C 
ATOM      2  C   UNL     1      34.293   0.496   2.722  1.00  0.00     0.211 C 
ATOM      3  O   UNL     1      33.933  -0.843   3.075  1.00  0.00    -0.484 OA
ATOM      4  C   UNL     1      34.720  -1.640   3.918  1.00  0.00     0.138 A 
ATOM      5  C   UNL     1      34.458  -3.009   3.993  1.00  0.00     0.093 A 
ATOM      6  C   UNL     1      35.234  -3.832   4.814  1.00  0.00     0.123 A 
ATOM      7  C   UNL     1      36.260  -3.277   5.582  1.00  0.00     0.093 A 
ATOM      8  C   UNL     1      36.514  -1.899   5.553  1.00  0.00     0.133 A 
ATOM      9  C   UNL     1      35.759  -1.068   4.684  1.00  0.00     0.102 A 
ATOM     10  C   UNL     1      35.988   0.389   4.520  1.00  0.00     0.174 C 
ATOM     11  O   UNL     1      37.090   0.925   4.810  1.00  0.00    -0.294 OA
ENDROOT
BRANCH   2  12
ATOM     12  C   UNL     1      33.086   1.235   2.196  1.00  0.00    -0.007 A 
ATOM     13  C   UNL     1      33.242   2.353   1.356  1.00  0.00     0.011 A 
ATOM     14  C   UNL     1      31.792   0.780   2.497  1.00  0.00     0.011 A 
ATOM     15  C   UNL     1      32.121   3.016   0.849  1.00  0.00     0.046 A 
ATOM     16  C   UNL     1      30.673   1.445   1.988  1.00  0.00     0.046 A 
ATOM     17  C   UNL     1      30.835   2.567   1.163  1.00  0.00     0.115 A 
BRANCH  17  18
ATOM     18  O   UNL     1      29.727   3.237   0.650  1.00  0.00    -0.508 OA
ATOM     19  H   UNL     1      29.384   4.093   1.070  1.00  0.00     0.293 HD
ENDBRANCH  17  18
ENDBRANCH   2  12
BRANCH   8  20
ATOM     20  O   UNL     1      37.493  -1.408   6.420  1.00  0.00    -0.507 OA
ATOM     21  H   UNL     1      37.340  -0.657   7.076  1.00  0.00     0.293 HD
ENDBRANCH   8  20
BRANCH   6  22
ATOM     22  O   UNL     1      34.993  -5.203   4.879  1.00  0.00    -0.508 OA
ATOM     23  H   UNL     1      35.746  -5.878   4.795  1.00  0.00     0.293 HD
ENDBRANCH   6  22
TORSDOF 4
ENDMDL
MODEL 4
REMARK VINA RESULT:    -3.946     11.102     13.338
REMARK INTER + INTRA:          -4.843
REMARK INTER:                  -4.535
REMARK INTRA:                  -0.308
REMARK UNBOUND:                -0.321
REMARK SMILES O=C1C[C@H](c2ccc(O)cc2)Oc2cc(O)cc(O)c21
REMARK SMILES IDX 3 1 4 2 12 3 13 4 14 5 15 6 17 7 18 8 20 9 2 10 1 11 5 12
REMARK SMILES IDX 6 13 11 14 7 15 10 16 8 17 9 18 19 20 16 22
REMARK H PARENT 9 19 19 21 16 23
REMARK Flexibility Score: inf
ROOT
ATOM      1  C   UNL     1      30.194  -9.787  -2.005  1.00  0.00     0.131 C 
ATOM      2  C   UNL     1      28.786 -10.276  -2.374  1.00  0.00     0.211 C 
ATOM      3  O   UNL     1      28.041 -10.596  -1.195  1.00  0.00    -0.484 OA
ATOM      4  C   UNL     1      28.616 -11.233  -0.087  1.00  0.00     0.138 A 
ATOM      5  C   UNL     1      27.780 -11.760   0.900  1.00  0.00     0.093 A 
ATOM      6  C   UNL     1      28.324 -12.414   2.010  1.00  0.00     0.123 A 
ATOM      7  C   UNL     1      29.710 -12.515   2.145  1.00  0.00     0.093 A 
ATOM      8  C   UNL     1      30.568 -11.958   1.188  1.00  0.00     0.133 A 
ATOM      9  C   UNL     1      30.019 -11.336   0.035  1.00  0.00     0.102 A 
ATOM     10  C   UNL     1      30.830 -10.775  -1.074  1.00  0.00     0.174 C 
ATOM     11  O   UNL     1      32.014 -11.149  -1.285  1.00  0.00    -0.294 OA
ENDROOT
BRANCH   2  12
ATOM     12  C   UNL     1      28.053  -9.232  -3.182  1.00  0.00    -0.007 A 
ATOM     13  C   UNL     1      26.662  -9.320  -3.370  1.00  0.00     0.011 A 
ATOM     14  C   UNL     1      28.747  -8.131  -3.709  1.00  0.00     0.011 A 
ATOM     15  C   UNL     1      25.984  -8.336  -4.094  1.00  0.00     0.046 A 
ATOM     16  C   UNL     1      28.066  -7.147  -4.433  1.00  0.00     0.046 A 
ATOM     17  C   UNL     1      26.681  -7.248  -4.629  1.00  0.00     0.115 A 
BRANCH  17  18
ATOM     18  O   UNL     1      25.993  -6.274  -5.348  1.00  0.00    -0.508 OA
ATOM     19  H   UNL     1      25.799  -5.362  -4.953  1.00  0.00     0.293 HD
ENDBRANCH  17  18
ENDBRANCH   2  12
BRANCH   8  20
ATOM     20  O   UNL     1      31.940 -12.018   1.442  1.00  0.00    -0.507 OA
ATOM     21  H   UNL     1      32.461 -12.878   1.528  1.00  0.00     0.293 HD
ENDBRANCH   8  20
BRANCH   6  22
ATOM     22  O   UNL     1      27.497 -12.961   2.988  1.00  0.00    -0.508 OA
ATOM     23  H   UNL     1      27.729 -12.899   3.973  1.00  0.00     0.293 HD
ENDBRANCH   6  22
TORSDOF 4
ENDMDL
MODEL 5
REMARK VINA RESULT:    -3.931      2.388      6.611
REMARK INTER + INTRA:          -4.827
REMARK INTER:                  -4.507
REMARK INTRA:                  -0.319
REMARK UNBOUND:                -0.321
REMARK SMILES O=C1C[C@H](c2ccc(O)cc2)Oc2cc(O)cc(O)c21
REMARK SMILES IDX 3 1 4 2 12 3 13 4 14 5 15 6 17 7 18 8 20 9 2 10 1 11 5 12
REMARK SMILES IDX 6 13 11 14 7 15 10 16 8 17 9 18 19 20 16 22
REMARK H PARENT 9 19 19 21 16 23
REMARK Flexibility Score: inf
ROOT
ATOM      1  C   UNL     1      37.898  -2.996   0.900  1.00  0.00     0.131 C 
ATOM      2  C   UNL     1      38.985  -3.162   1.971  1.00  0.00     0.211 C 
ATOM      3  O   UNL     1      38.420  -3.657   3.188  1.00  0.00    -0.484 OA
ATOM      4  C   UNL     1      37.175  -3.231   3.672  1.00  0.00     0.138 A 
ATOM      5  C   UNL     1      36.818  -3.539   4.986  1.00  0.00     0.093 A 
ATOM      6  C   UNL     1      35.589  -3.116   5.501  1.00  0.00     0.123 A 
ATOM      7  C   UNL     1      34.704  -2.406   4.687  1.00  0.00     0.093 A 
ATOM      8  C   UNL     1      35.024  -2.121   3.354  1.00  0.00     0.133 A 
ATOM      9  C   UNL     1      36.291  -2.507   2.842  1.00  0.00     0.102 A 
ATOM     10  C   UNL     1      36.764  -2.197   1.470  1.00  0.00     0.174 C 
ATOM     11  O   UNL     1      36.277  -1.250   0.798  1.00  0.00    -0.294 OA
ENDROOT
BRANCH   2  12
ATOM     12  C   UNL     1      40.072  -4.093   1.488  1.00  0.00    -0.007 A 
ATOM     13  C   UNL     1      40.698  -4.983   2.379  1.00  0.00     0.011 A 
ATOM     14  C   UNL     1      40.430  -4.118   0.131  1.00  0.00     0.011 A 
ATOM     15  C   UNL     1      41.683  -5.863   1.922  1.00  0.00     0.046 A 
ATOM     16  C   UNL     1      41.415  -4.999  -0.324  1.00  0.00     0.046 A 
ATOM     17  C   UNL     1      42.046  -5.874   0.571  1.00  0.00     0.115 A 
BRANCH  17  18
ATOM     18  O   UNL     1      43.028  -6.757   0.129  1.00  0.00    -0.508 OA
ATOM     19  H   UNL     1      43.336  -7.535   0.698  1.00  0.00     0.293 HD
ENDBRANCH  17  18
ENDBRANCH   2  12
BRANCH   8  20
ATOM     20  O   UNL     1      34.048  -1.490   2.579  1.00  0.00    -0.507 OA
ATOM     21  H   UNL     1      33.677  -0.573   2.776  1.00  0.00     0.293 HD
ENDBRANCH   8  20
BRANCH   6  22
ATOM     22  O   UNL     1      35.234  -3.401   6.818  1.00  0.00    -0.508 OA
ATOM     23  H   UNL     1      35.872  -3.875   7.447  1.00  0.00     0.293 HD
ENDBRANCH   6  22
TORSDOF 4
ENDMDL
MODEL 6
REMARK VINA RESULT:    -3.925      9.769     12.692
REMARK INTER + INTRA:          -4.819
REMARK INTER:                  -4.506
REMARK INTRA:                  -0.313
REMARK UNBOUND:                -0.321
REMARK SMILES O=C1C[C@H](c2ccc(O)cc2)Oc2cc(O)cc(O)c21
REMARK SMILES IDX 3 1 4 2 12 3 13 4 14 5 15 6 17 7 18 8 20 9 2 10 1 11 5 12
REMARK SMILES IDX 6 13 11 14 7 15 10 16 8 17 9 18 19 20 16 22
REMARK H PARENT 9 19 19 21 16 23
REMARK Flexibility Score: inf
ROOT
ATOM      1  C   UNL     1      30.722  -2.907  -5.057  1.00  0.00     0.131 C 
ATOM      2  C   UNL     1      31.606  -1.808  -5.664  1.00  0.00     0.211 C 
ATOM      3  O   UNL     1      30.913  -0.557  -5.679  1.00  0.00    -0.484 OA
ATOM      4  C   UNL     1      29.549  -0.451  -5.984  1.00  0.00     0.138 A 
ATOM      5  C   UNL     1      29.010   0.808  -6.252  1.00  0.00     0.093 A 
ATOM      6  C   UNL     1      27.656   0.943  -6.573  1.00  0.00     0.123 A 
ATOM      7  C   UNL     1      26.834  -0.186  -6.597  1.00  0.00     0.093 A 
ATOM      8  C   UNL     1      27.344  -1.454  -6.292  1.00  0.00     0.133 A 
ATOM      9  C   UNL     1      28.729  -1.601  -6.013  1.00  0.00     0.102 A 
ATOM     10  C   UNL     1      29.390  -2.902  -5.746  1.00  0.00     0.174 C 
ATOM     11  O   UNL     1      28.890  -3.992  -6.131  1.00  0.00    -0.294 OA
ENDROOT
BRANCH   2  12
ATOM     12  C   UNL     1      32.897  -1.675  -4.892  1.00  0.00    -0.007 A 
ATOM     13  C   UNL     1      33.633  -0.477  -4.930  1.00  0.00     0.011 A 
ATOM     14  C   UNL     1      33.349  -2.731  -4.083  1.00  0.00     0.011 A 
ATOM     15  C   UNL     1      34.812  -0.349  -4.190  1.00  0.00     0.046 A 
ATOM     16  C   UNL     1      34.528  -2.600  -3.344  1.00  0.00     0.046 A 
ATOM     17  C   UNL     1      35.264  -1.408  -3.397  1.00  0.00     0.115 A 
BRANCH  17  18
ATOM     18  O   UNL     1      36.441  -1.267  -2.665  1.00  0.00    -0.508 OA
ATOM     19  H   UNL     1      36.960  -0.397  -2.659  1.00  0.00     0.293 HD
ENDBRANCH  17  18
ENDBRANCH   2  12
BRANCH   8  20
ATOM     20  O   UNL     1      26.439  -2.517  -6.246  1.00  0.00    -0.507 OA
ATOM     21  H   UNL     1      26.266  -3.144  -7.017  1.00  0.00     0.293 HD
ENDBRANCH   8  20
BRANCH   6  22
ATOM     22  O   UNL     1      27.115   2.194  -6.863  1.00  0.00    -0.508 OA
ATOM     23  H   UNL     1      26.120   2.370  -6.787  1.00  0.00     0.293 HD
ENDBRANCH   6  22
TORSDOF 4
ENDMDL
MODEL 7
REMARK VINA RESULT:    -3.922      4.268      8.427
REMARK INTER + INTRA:          -4.816
REMARK INTER:                  -4.525
REMARK INTRA:                  -0.291
REMARK UNBOUND:                -0.321
REMARK SMILES O=C1C[C@H](c2ccc(O)cc2)Oc2cc(O)cc(O)c21
REMARK SMILES IDX 3 1 4 2 12 3 13 4 14 5 15 6 17 7 18 8 20 9 2 10 1 11 5 12
REMARK SMILES IDX 6 13 11 14 7 15 10 16 8 17 9 18 19 20 16 22
REMARK H PARENT 9 19 19 21 16 23
REMARK Flexibility Score: inf
ROOT
ATOM      1  C   UNL     1      37.473  -3.304  -2.104  1.00  0.00     0.131 C 
ATOM      2  C   UNL     1      36.011  -3.169  -1.652  1.00  0.00     0.211 C 
ATOM      3  O   UNL     1      35.935  -2.482  -0.399  1.00  0.00    -0.484 OA
ATOM      4  C   UNL     1      36.855  -2.694   0.637  1.00  0.00     0.138 A 
ATOM      5  C   UNL     1      36.562  -2.209   1.912  1.00  0.00     0.093 A 
ATOM      6  C   UNL     1      37.454  -2.417   2.968  1.00  0.00     0.123 A 
ATOM      7  C   UNL     1      38.657  -3.088   2.738  1.00  0.00     0.093 A 
ATOM      8  C   UNL     1      38.990  -3.548   1.458  1.00  0.00     0.133 A 
ATOM      9  C   UNL     1      38.065  -3.381   0.393  1.00  0.00     0.102 A 
ATOM     10  C   UNL     1      38.281  -3.888  -0.984  1.00  0.00     0.174 C 
ATOM     11  O   UNL     1      39.081  -4.830  -1.227  1.00  0.00    -0.294 OA
ENDROOT
BRANCH   2  12
ATOM     12  C   UNL     1      35.197  -2.439  -2.693  1.00  0.00    -0.007 A 
ATOM     13  C   UNL     1      34.095  -3.063  -3.306  1.00  0.00     0.011 A 
ATOM     14  C   UNL     1      35.499  -1.107  -3.020  1.00  0.00     0.011 A 
ATOM     15  C   UNL     1      33.327  -2.373  -4.247  1.00  0.00     0.046 A 
ATOM     16  C   UNL     1      34.728  -0.419  -3.963  1.00  0.00     0.046 A 
ATOM     17  C   UNL     1      33.640  -1.051  -4.580  1.00  0.00     0.115 A 
BRANCH  17  18
ATOM     18  O   UNL     1      32.866  -0.375  -5.520  1.00  0.00    -0.508 OA
ATOM     19  H   UNL     1      33.028  -0.480  -6.514  1.00  0.00     0.293 HD
ENDBRANCH  17  18
ENDBRANCH   2  12
BRANCH   8  20
ATOM     20  O   UNL     1      40.251  -4.125   1.290  1.00  0.00    -0.507 OA
ATOM     21  H   UNL     1      40.408  -5.016   0.844  1.00  0.00     0.293 HD
ENDBRANCH   8  20
BRANCH   6  22
ATOM     22  O   UNL     1      37.159  -1.955   4.250  1.00  0.00    -0.508 OA
ATOM     23  H   UNL     1      37.000  -2.596   5.020  1.00  0.00     0.293 HD
ENDBRANCH   6  22
TORSDOF 4
ENDMDL
MODEL 8
REMARK VINA RESULT:    -3.895     10.862     12.846
REMARK INTER + INTRA:          -4.785
REMARK INTER:                  -4.469
REMARK INTRA:                  -0.316
REMARK UNBOUND:                -0.321
REMARK SMILES O=C1C[C@H](c2ccc(O)cc2)Oc2cc(O)cc(O)c21
REMARK SMILES IDX 3 1 4 2 12 3 13 4 14 5 15 6 17 7 18 8 20 9 2 10 1 11 5 12
REMARK SMILES IDX 6 13 11 14 7 15 10 16 8 17 9 18 19 20 16 22
REMARK H PARENT 9 19 19 21 16 23
REMARK Flexibility Score: inf
ROOT
ATOM      1  C   UNL     1      31.468 -11.591  -2.490  1.00  0.00     0.131 C 
ATOM      2  C   UNL     1      30.028 -11.171  -2.158  1.00  0.00     0.211 C 
ATOM      3  O   UNL     1      29.883 -10.942  -0.754  1.00  0.00    -0.484 OA
ATOM      4  C   UNL     1      30.499 -11.750   0.212  1.00  0.00     0.138 A 
ATOM      5  C   UNL     1      30.093 -11.642   1.543  1.00  0.00     0.093 A 
ATOM      6  C   UNL     1      30.679 -12.445   2.527  1.00  0.00     0.123 A 
ATOM      7  C   UNL     1      31.695 -13.338   2.178  1.00  0.00     0.093 A 
ATOM      8  C   UNL     1      32.146 -13.433   0.856  1.00  0.00     0.133 A 
ATOM      9  C   UNL     1      31.520 -12.654  -0.154  1.00  0.00     0.102 A 
ATOM     10  C   UNL     1      31.867 -12.725  -1.595  1.00  0.00     0.174 C 
ATOM     11  O   UNL     1      32.436 -13.733  -2.091  1.00  0.00    -0.294 OA
ENDROOT
BRANCH   2  12
ATOM     12  C   UNL     1      29.644  -9.930  -2.928  1.00  0.00    -0.007 A 
ATOM     13  C   UNL     1      29.984  -9.797  -4.286  1.00  0.00     0.011 A 
ATOM     14  C   UNL     1      28.894  -8.918  -2.308  1.00  0.00     0.011 A 
ATOM     15  C   UNL     1      29.601  -8.659  -5.002  1.00  0.00     0.046 A 
ATOM     16  C   UNL     1      28.512  -7.780  -3.026  1.00  0.00     0.046 A 
ATOM     17  C   UNL     1      28.866  -7.648  -4.376  1.00  0.00     0.115 A 
BRANCH  17  18
ATOM     18  O   UNL     1      28.490  -6.519  -5.101  1.00  0.00    -0.508 OA
ATOM     19  H   UNL     1      27.814  -5.858  -4.738  1.00  0.00     0.293 HD
ENDBRANCH  17  18
ENDBRANCH   2  12
BRANCH   8  20
ATOM     20  O   UNL     1      33.228 -14.280   0.605  1.00  0.00    -0.507 OA
ATOM     21  H   UNL     1      34.194 -14.011   0.723  1.00  0.00     0.293 HD
ENDBRANCH   8  20
BRANCH   6  22
ATOM     22  O   UNL     1      30.265 -12.359   3.854  1.00  0.00    -0.508 OA
ATOM     23  H   UNL     1      29.705 -13.089   4.282  1.00  0.00     0.293 HD
ENDBRANCH   6  22
TORSDOF 4
ENDMDL
MODEL 9
REMARK VINA RESULT:    -3.814     10.474     10.913
REMARK INTER + INTRA:          -4.692
REMARK INTER:                  -4.391
REMARK INTRA:                  -0.301
REMARK UNBOUND:                -0.321
REMARK SMILES O=C1C[C@H](c2ccc(O)cc2)Oc2cc(O)cc(O)c21
REMARK SMILES IDX 3 1 4 2 12 3 13 4 14 5 15 6 17 7 18 8 20 9 2 10 1 11 5 12
REMARK SMILES IDX 6 13 11 14 7 15 10 16 8 17 9 18 19 20 16 22
REMARK H PARENT 9 19 19 21 16 23
REMARK Flexibility Score: inf
ROOT
ATOM      1  C   UNL     1      29.522 -11.249  -0.450  1.00  0.00     0.131 C 
ATOM      2  C   UNL     1      30.751 -12.150  -0.261  1.00  0.00     0.211 C 
ATOM      3  O   UNL     1      31.848 -11.673  -1.045  1.00  0.00    -0.484 OA
ATOM      4  C   UNL     1      31.686 -11.161  -2.339  1.00  0.00     0.138 A 
ATOM      5  C   UNL     1      32.814 -10.978  -3.141  1.00  0.00     0.093 A 
ATOM      6  C   UNL     1      32.683 -10.481  -4.441  1.00  0.00     0.123 A 
ATOM      7  C   UNL     1      31.420 -10.140  -4.929  1.00  0.00     0.093 A 
ATOM      8  C   UNL     1      30.279 -10.277  -4.128  1.00  0.00     0.133 A 
ATOM      9  C   UNL     1      30.403 -10.826  -2.824  1.00  0.00     0.102 A 
ATOM     10  C   UNL     1      29.257 -11.081  -1.916  1.00  0.00     0.174 C 
ATOM     11  O   UNL     1      28.083 -11.213  -2.351  1.00  0.00    -0.294 OA
ENDROOT
BRANCH   2  12
ATOM     12  C   UNL     1      31.145 -12.216   1.195  1.00  0.00    -0.007 A 
ATOM     13  C   UNL     1      32.305 -12.905   1.592  1.00  0.00     0.011 A 
ATOM     14  C   UNL     1      30.384 -11.542   2.165  1.00  0.00     0.011 A 
ATOM     15  C   UNL     1      32.682 -12.938   2.937  1.00  0.00     0.046 A 
ATOM     16  C   UNL     1      30.763 -11.577   3.510  1.00  0.00     0.046 A 
ATOM     17  C   UNL     1      31.913 -12.277   3.900  1.00  0.00     0.115 A 
BRANCH  17  18
ATOM     18  O   UNL     1      32.300 -12.318   5.238  1.00  0.00    -0.508 OA
ATOM     19  H   UNL     1      31.727 -11.911   5.968  1.00  0.00     0.293 HD
ENDBRANCH  17  18
ENDBRANCH   2  12
BRANCH   8  20
ATOM     20  O   UNL     1      29.066  -9.826  -4.654  1.00  0.00    -0.507 OA
ATOM     21  H   UNL     1      28.479  -9.137  -4.208  1.00  0.00     0.293 HD
ENDBRANCH   8  20
BRANCH   6  22
ATOM     22  O   UNL     1      33.802 -10.317  -5.256  1.00  0.00    -0.508 OA
ATOM     23  H   UNL     1      33.824  -9.616  -5.989  1.00  0.00     0.293 HD
ENDBRANCH   6  22
TORSDOF 4
ENDMDL
