MODEL 1
REMARK VINA RESULT:    -4.685      0.000      0.000
REMARK INTER + INTRA:          -5.125
REMARK INTER:                  -5.096
REMARK INTRA:                  -0.029
REMARK UNBOUND:                -0.029
REMARK SMILES COc1ccccc1O
REMARK SMILES IDX 3 1 4 2 5 3 6 4 7 5 8 6 2 7 1 8 9 9
REMARK H PARENT 9 10
REMARK Flexibility Score: inf
ROOT
ATOM      1  C   UNL     1       7.748 -11.212  -1.189  1.00  0.00     0.160 A 
ATOM      2  C   UNL     1       7.038 -11.079  -2.401  1.00  0.00     0.050 A 
ATOM      3  C   UNL     1       6.768 -12.203  -3.186  1.00  0.00     0.004 A 
ATOM      4  C   UNL     1       7.200 -13.466  -2.777  1.00  0.00     0.004 A 
ATOM      5  C   UNL     1       7.904 -13.608  -1.579  1.00  0.00     0.050 A 
ATOM      6  C   UNL     1       8.180 -12.490  -0.784  1.00  0.00     0.157 A 
ENDROOT
BRANCH   1   7
ATOM      7  O   UNL     1       8.038 -10.107  -0.374  1.00  0.00    -0.493 OA
ATOM      8  C   UNL     1       7.143  -9.026  -0.130  1.00  0.00     0.278 C 
ENDBRANCH   1   7
BRANCH   6   9
ATOM      9  O   UNL     1       8.885 -12.667   0.406  1.00  0.00    -0.504 OA
ATOM     10  H   UNL     1       9.802 -13.095   0.432  1.00  0.00     0.293 HD
ENDBRANCH   6   9
TORSDOF 2
ENDMDL
MODEL 2
REMARK VINA RESULT:    -4.550      1.868      3.666
REMARK INTER + INTRA:          -4.978
REMARK INTER:                  -4.950
REMARK INTRA:                  -0.028
REMARK UNBOUND:                -0.029
REMARK SMILES COc1ccccc1O
REMARK SMILES IDX 3 1 4 2 5 3 6 4 7 5 8 6 2 7 1 8 9 9
REMARK H PARENT 9 10
REMARK Flexibility Score: inf
ROOT
ATOM      1  C   UNL     1       7.310 -11.556  -1.878  1.00  0.00     0.160 A 
ATOM      2  C   UNL     1       7.916 -12.639  -1.207  1.00  0.00     0.050 A 
ATOM      3  C   UNL     1       8.716 -12.413  -0.084  1.00  0.00     0.004 A 
ATOM      4  C   UNL     1       8.921 -11.113   0.382  1.00  0.00     0.004 A 
ATOM      5  C   UNL     1       8.325 -10.034  -0.275  1.00  0.00     0.050 A 
ATOM      6  C   UNL     1       7.522 -10.248  -1.401  1.00  0.00     0.157 A 
ENDROOT
BRANCH   1   7
ATOM      7  O   UNL     1       6.500 -11.743  -3.009  1.00  0.00    -0.493 OA
ATOM      8  C   UNL     1       6.701 -12.759  -3.987  1.00  0.00     0.278 C 
ENDBRANCH   1   7
BRANCH   6   9
ATOM      9  O   UNL     1       6.942  -9.149  -2.033  1.00  0.00    -0.504 OA
ATOM     10  H   UNL     1       7.279  -8.204  -1.892  1.00  0.00     0.293 HD
ENDBRANCH   6   9
TORSDOF 2
ENDMDL
MODEL 3
REMARK VINA RESULT:    -4.548      2.200      3.200
REMARK INTER + INTRA:          -4.976
REMARK INTER:                  -4.930
REMARK INTRA:                  -0.046
REMARK UNBOUND:                -0.029
REMARK SMILES COc1ccccc1O
REMARK SMILES IDX 3 1 4 2 5 3 6 4 7 5 8 6 2 7 1 8 9 9
REMARK H PARENT 9 10
REMARK Flexibility Score: inf
ROOT
ATOM      1  C   UNL     1       6.816 -13.383  -2.347  1.00  0.00     0.160 A 
ATOM      2  C   UNL     1       7.329 -13.229  -3.652  1.00  0.00     0.050 A 
ATOM      3  C   UNL     1       6.462 -13.135  -4.743  1.00  0.00     0.004 A 
ATOM      4  C   UNL     1       5.081 -13.194  -4.550  1.00  0.00     0.004 A 
ATOM      5  C   UNL     1       4.563 -13.346  -3.262  1.00  0.00     0.050 A 
ATOM      6  C   UNL     1       5.421 -13.442  -2.161  1.00  0.00     0.157 A 
ENDROOT
BRANCH   1   7
ATOM      7  O   UNL     1       7.656 -13.481  -1.226  1.00  0.00    -0.493 OA
ATOM      8  C   UNL     1       8.216 -12.367  -0.537  1.00  0.00     0.278 C 
ENDBRANCH   1   7
BRANCH   6   9
ATOM      9  O   UNL     1       4.871 -13.594  -0.888  1.00  0.00    -0.504 OA
ATOM     10  H   UNL     1       5.040 -12.930  -0.144  1.00  0.00     0.293 HD
ENDBRANCH   6   9
TORSDOF 2
ENDMDL
MODEL 4
REMARK VINA RESULT:    -4.473      1.271      2.436
REMARK INTER + INTRA:          -4.895
REMARK INTER:                  -4.858
REMARK INTRA:                  -0.037
REMARK UNBOUND:                -0.029
REMARK SMILES COc1ccccc1O
REMARK SMILES IDX 3 1 4 2 5 3 6 4 7 5 8 6 2 7 1 8 9 9
REMARK H PARENT 9 10
REMARK Flexibility Score: inf
ROOT
ATOM      1  C   UNL     1       7.644 -11.734  -1.166  1.00  0.00     0.160 A 
ATOM      2  C   UNL     1       7.947 -13.111  -1.165  1.00  0.00     0.050 A 
ATOM      3  C   UNL     1       7.622 -13.904  -2.269  1.00  0.00     0.004 A 
ATOM      4  C   UNL     1       6.995 -13.338  -3.380  1.00  0.00     0.004 A 
ATOM      5  C   UNL     1       6.692 -11.975  -3.391  1.00  0.00     0.050 A 
ATOM      6  C   UNL     1       7.012 -11.171  -2.291  1.00  0.00     0.157 A 
ENDROOT
BRANCH   1   7
ATOM      7  O   UNL     1       7.955 -10.905  -0.076  1.00  0.00    -0.493 OA
ATOM      8  C   UNL     1       9.262 -10.737   0.463  1.00  0.00     0.278 C 
ENDBRANCH   1   7
BRANCH   6   9
ATOM      9  O   UNL     1       6.695  -9.813  -2.334  1.00  0.00    -0.504 OA
ATOM     10  H   UNL     1       6.801  -9.259  -3.175  1.00  0.00     0.293 HD
ENDBRANCH   6   9
TORSDOF 2
ENDMDL
MODEL 5
REMARK VINA RESULT:    -4.417      2.022      3.089
REMARK INTER + INTRA:          -4.833
REMARK INTER:                  -4.797
REMARK INTRA:                  -0.037
REMARK UNBOUND:                -0.029
REMARK SMILES COc1ccccc1O
REMARK SMILES IDX 3 1 4 2 5 3 6 4 7 5 8 6 2 7 1 8 9 9
REMARK H PARENT 9 10
REMARK Flexibility Score: inf
ROOT
ATOM      1  C   UNL     1       6.850 -11.839  -1.224  1.00  0.00     0.160 A 
ATOM      2  C   UNL     1       6.946 -10.512  -0.758  1.00  0.00     0.050 A 
ATOM      3  C   UNL     1       8.048 -10.110   0.002  1.00  0.00     0.004 A 
ATOM      4  C   UNL     1       9.061 -11.021   0.305  1.00  0.00     0.004 A 
ATOM      5  C   UNL     1       8.975 -12.338  -0.152  1.00  0.00     0.050 A 
ATOM      6  C   UNL     1       7.877 -12.751  -0.914  1.00  0.00     0.157 A 
ENDROOT
BRANCH   1   7
ATOM      7  O   UNL     1       5.758 -12.279  -1.991  1.00  0.00    -0.493 OA
ATOM      8  C   UNL     1       4.555 -12.814  -1.448  1.00  0.00     0.278 C 
ENDBRANCH   1   7
BRANCH   6   9
ATOM      9  O   UNL     1       7.822 -14.074  -1.355  1.00  0.00    -0.504 OA
ATOM     10  H   UNL     1       7.080 -14.413  -1.955  1.00  0.00     0.293 HD
ENDBRANCH   6   9
TORSDOF 2
ENDMDL
MODEL 6
REMARK VINA RESULT:    -4.349      2.550      3.226
REMARK INTER + INTRA:          -4.759
REMARK INTER:                  -4.726
REMARK INTRA:                  -0.033
REMARK UNBOUND:                -0.029
REMARK SMILES COc1ccccc1O
REMARK SMILES IDX 3 1 4 2 5 3 6 4 7 5 8 6 2 7 1 8 9 9
REMARK H PARENT 9 10
REMARK Flexibility Score: inf
ROOT
ATOM      1  C   UNL     1       5.406 -13.110  -2.075  1.00  0.00     0.160 A 
ATOM      2  C   UNL     1       4.722 -13.009  -3.304  1.00  0.00     0.050 A 
ATOM      3  C   UNL     1       5.420 -13.108  -4.510  1.00  0.00     0.004 A 
ATOM      4  C   UNL     1       6.802 -13.308  -4.506  1.00  0.00     0.004 A 
ATOM      5  C   UNL     1       7.489 -13.410  -3.295  1.00  0.00     0.050 A 
ATOM      6  C   UNL     1       6.800 -13.312  -2.081  1.00  0.00     0.157 A 
ENDROOT
BRANCH   1   7
ATOM      7  O   UNL     1       4.739 -13.015  -0.843  1.00  0.00    -0.493 OA
ATOM      8  C   UNL     1       3.564 -13.745  -0.503  1.00  0.00     0.278 C 
ENDBRANCH   1   7
BRANCH   6   9
ATOM      9  O   UNL     1       7.517 -13.417  -0.889  1.00  0.00    -0.504 OA
ATOM     10  H   UNL     1       8.526 -13.489  -0.870  1.00  0.00     0.293 HD
ENDBRANCH   6   9
TORSDOF 2
ENDMDL
MODEL 7
REMARK VINA RESULT:    -4.186      9.583     10.813
REMARK INTER + INTRA:          -4.582
REMARK INTER:                  -4.556
REMARK INTRA:                  -0.026
REMARK UNBOUND:                -0.029
REMARK SMILES COc1ccccc1O
REMARK SMILES IDX 3 1 4 2 5 3 6 4 7 5 8 6 2 7 1 8 9 9
REMARK H PARENT 9 10
REMARK Flexibility Score: inf
ROOT
ATOM      1  C   UNL     1      -0.669  -9.188  -6.986  1.00  0.00     0.160 A 
ATOM      2  C   UNL     1       0.478  -9.264  -6.168  1.00  0.00     0.050 A 
ATOM      3  C   UNL     1       1.712  -8.812  -6.641  1.00  0.00     0.004 A 
ATOM      4  C   UNL     1       1.819  -8.281  -7.928  1.00  0.00     0.004 A 
ATOM      5  C   UNL     1       0.690  -8.200  -8.745  1.00  0.00     0.050 A 
ATOM      6  C   UNL     1      -0.552  -8.650  -8.282  1.00  0.00     0.157 A 
ENDROOT
BRANCH   1   7
ATOM      7  O   UNL     1      -1.926  -9.632  -6.545  1.00  0.00    -0.493 OA
ATOM      8  C   UNL     1      -2.313  -9.732  -5.179  1.00  0.00     0.278 C 
ENDBRANCH   1   7
BRANCH   6   9
ATOM      9  O   UNL     1      -1.660  -8.556  -9.125  1.00  0.00    -0.504 OA
ATOM     10  H   UNL     1      -1.939  -9.312  -9.737  1.00  0.00     0.293 HD
ENDBRANCH   6   9
TORSDOF 2
ENDMDL
MODEL 8
REMARK VINA RESULT:    -4.172      3.285      4.259
REMARK INTER + INTRA:          -4.567
REMARK INTER:                  -4.530
REMARK INTRA:                  -0.037
REMARK UNBOUND:                -0.029
REMARK SMILES COc1ccccc1O
REMARK SMILES IDX 3 1 4 2 5 3 6 4 7 5 8 6 2 7 1 8 9 9
REMARK H PARENT 9 10
REMARK Flexibility Score: inf
ROOT
ATOM      1  C   UNL     1       4.866 -13.284  -3.258  1.00  0.00     0.160 A 
ATOM      2  C   UNL     1       5.727 -13.189  -4.371  1.00  0.00     0.050 A 
ATOM      3  C   UNL     1       7.112 -13.238  -4.196  1.00  0.00     0.004 A 
ATOM      4  C   UNL     1       7.654 -13.382  -2.917  1.00  0.00     0.004 A 
ATOM      5  C   UNL     1       6.810 -13.477  -1.809  1.00  0.00     0.050 A 
ATOM      6  C   UNL     1       5.421 -13.429  -1.971  1.00  0.00     0.157 A 
ENDROOT
BRANCH   1   7
ATOM      7  O   UNL     1       3.469 -13.238  -3.393  1.00  0.00    -0.493 OA
ATOM      8  C   UNL     1       2.708 -14.124  -4.208  1.00  0.00     0.278 C 
ENDBRANCH   1   7
BRANCH   6   9
ATOM      9  O   UNL     1       4.606 -13.526  -0.843  1.00  0.00    -0.504 OA
ATOM     10  H   UNL     1       4.666 -12.869  -0.076  1.00  0.00     0.293 HD
ENDBRANCH   6   9
TORSDOF 2
ENDMDL
MODEL 9
REMARK VINA RESULT:    -4.098      1.593      2.461
REMARK INTER + INTRA:          -4.487
REMARK INTER:                  -4.454
REMARK INTRA:                  -0.032
REMARK UNBOUND:                -0.029
REMARK SMILES COc1ccccc1O
REMARK SMILES IDX 3 1 4 2 5 3 6 4 7 5 8 6 2 7 1 8 9 9
REMARK H PARENT 9 10
REMARK Flexibility Score: inf
ROOT
ATOM      1  C   UNL     1       7.348 -10.815  -1.577  1.00  0.00     0.160 A 
ATOM      2  C   UNL     1       8.215 -11.427  -0.648  1.00  0.00     0.050 A 
ATOM      3  C   UNL     1       8.417 -12.809  -0.677  1.00  0.00     0.004 A 
ATOM      4  C   UNL     1       7.761 -13.595  -1.627  1.00  0.00     0.004 A 
ATOM      5  C   UNL     1       6.902 -12.999  -2.552  1.00  0.00     0.050 A 
ATOM      6  C   UNL     1       6.691 -11.615  -2.533  1.00  0.00     0.157 A 
ENDROOT
BRANCH   1   7
ATOM      7  O   UNL     1       7.119  -9.430  -1.579  1.00  0.00    -0.493 OA
ATOM      8  C   UNL     1       6.822  -8.659  -0.419  1.00  0.00     0.278 C 
ENDBRANCH   1   7
BRANCH   6   9
ATOM      9  O   UNL     1       5.825 -11.052  -3.470  1.00  0.00    -0.504 OA
ATOM     10  H   UNL     1       4.926 -10.666  -3.211  1.00  0.00     0.293 HD
ENDBRANCH   6   9
TORSDOF 2
ENDMDL
