MODEL 1
REMARK VINA RESULT:    -5.083      0.000      0.000
REMARK INTER + INTRA:         -10.100
REMARK INTER:                  -9.243
REMARK INTRA:                  -0.857
REMARK UNBOUND:                -0.857
REMARK SMILES CCCCCCCCCCCCCCCC(=O)[O-]
REMARK SMILES IDX 9 1 10 2 11 3 12 4 13 5 14 6 15 7 16 8 17 9 18 10 8 11 7 12
REMARK SMILES IDX 6 13 5 14 4 15 3 16 2 17 1 18
REMARK H PARENT
REMARK Flexibility Score: inf
ROOT
ATOM      1  C   UNL     1      -8.767  -8.157  -4.893  1.00  0.00     0.000 C 
ENDROOT
BRANCH   1   2
ATOM      2  C   UNL     1      -8.584  -9.661  -5.161  1.00  0.00     0.000 C 
BRANCH   2   3
ATOM      3  C   UNL     1      -7.147 -10.136  -4.893  1.00  0.00     0.000 C 
BRANCH   3   4
ATOM      4  C   UNL     1      -6.256 -10.050  -6.145  1.00  0.00     0.000 C 
BRANCH   4   5
ATOM      5  C   UNL     1      -6.030 -11.422  -6.801  1.00  0.00     0.000 C 
BRANCH   5   6
ATOM      6  C   UNL     1      -4.537 -11.777  -6.925  1.00  0.00     0.006 C 
BRANCH   6   7
ATOM      7  C   UNL     1      -3.679 -11.041  -5.889  1.00  0.00     0.053 C 
BRANCH   7   8
ATOM      8  C   UNL     1      -2.816 -11.987  -5.112  1.00  0.00     0.041 C 
ATOM      9  O   UNL     1      -2.038 -12.776  -5.711  1.00  0.00    -0.550 OA
ATOM     10  O   UNL     1      -2.850 -11.977  -3.723  1.00  0.00    -0.550 OA
ENDBRANCH   7   8
ENDBRANCH   6   7
ENDBRANCH   5   6
ENDBRANCH   4   5
ENDBRANCH   3   4
ENDBRANCH   2   3
ENDBRANCH   1   2
BRANCH   1  11
ATOM     11  C   UNL     1      -9.838  -7.519  -5.793  1.00  0.00     0.000 C 
BRANCH  11  12
ATOM     12  C   UNL     1      -9.386  -6.171  -6.382  1.00  0.00    -0.000 C 
BRANCH  12  13
ATOM     13  C   UNL     1     -10.191  -5.771  -7.629  1.00  0.00    -0.000 C 
BRANCH  13  14
ATOM     14  C   UNL     1     -10.722  -4.328  -7.558  1.00  0.00    -0.000 C 
BRANCH  14  15
ATOM     15  C   UNL     1     -11.449  -4.040  -6.226  1.00  0.00    -0.000 C 
BRANCH  15  16
ATOM     16  C   UNL     1     -12.842  -4.692  -6.128  1.00  0.00    -0.000 C 
BRANCH  16  17
ATOM     17  C   UNL     1     -12.920  -5.894  -5.173  1.00  0.00    -0.003 C 
ATOM     18  C   UNL     1     -13.318  -5.497  -3.751  1.00  0.00     0.004 C 
ENDBRANCH  16  17
ENDBRANCH  15  16
ENDBRANCH  14  15
ENDBRANCH  13  14
ENDBRANCH  12  13
ENDBRANCH  11  12
ENDBRANCH   1  11
TORSDOF 14
ENDMDL
MODEL 2
REMARK VINA RESULT:    -5.072      1.491      2.558
REMARK INTER + INTRA:         -10.079
REMARK INTER:                  -8.418
REMARK INTRA:                  -1.661
REMARK UNBOUND:                -0.857
REMARK SMILES CCCCCCCCCCCCCCCC(=O)[O-]
REMARK SMILES IDX 9 1 10 2 11 3 12 4 13 5 14 6 15 7 16 8 17 9 18 10 8 11 7 12
REMARK SMILES IDX 6 13 5 14 4 15 3 16 2 17 1 18
REMARK H PARENT
REMARK Flexibility Score: inf
ROOT
ATOM      1  C   UNL     1      -9.885  -7.234  -5.546  1.00  0.00     0.000 C 
ENDROOT
BRANCH   1   2
ATOM      2  C   UNL     1     -11.077  -8.066  -6.051  1.00  0.00     0.000 C 
BRANCH   2   3
ATOM      3  C   UNL     1     -10.888  -9.572  -5.807  1.00  0.00     0.000 C 
BRANCH   3   4
ATOM      4  C   UNL     1      -9.677  -9.875  -4.907  1.00  0.00     0.000 C 
BRANCH   4   5
ATOM      5  C   UNL     1      -8.629 -10.754  -5.607  1.00  0.00     0.000 C 
BRANCH   5   6
ATOM      6  C   UNL     1      -7.199 -10.473  -5.113  1.00  0.00     0.006 C 
BRANCH   6   7
ATOM      7  C   UNL     1      -6.274 -10.015  -6.248  1.00  0.00     0.053 C 
BRANCH   7   8
ATOM      8  C   UNL     1      -5.304 -11.087  -6.639  1.00  0.00     0.041 C 
ATOM      9  O   UNL     1      -4.084 -10.980  -6.342  1.00  0.00    -0.550 OA
ATOM     10  O   UNL     1      -5.752 -12.220  -7.307  1.00  0.00    -0.550 OA
ENDBRANCH   7   8
ENDBRANCH   6   7
ENDBRANCH   5   6
ENDBRANCH   4   5
ENDBRANCH   3   4
ENDBRANCH   2   3
ENDBRANCH   1   2
BRANCH   1  11
ATOM     11  C   UNL     1      -9.386  -6.218  -6.587  1.00  0.00     0.000 C 
BRANCH  11  12
ATOM     12  C   UNL     1     -10.155  -6.311  -7.917  1.00  0.00    -0.000 C 
BRANCH  12  13
ATOM     13  C   UNL     1     -10.723  -4.955  -8.367  1.00  0.00    -0.000 C 
BRANCH  13  14
ATOM     14  C   UNL     1     -10.871  -3.956  -7.206  1.00  0.00    -0.000 C 
BRANCH  14  15
ATOM     15  C   UNL     1     -12.347  -3.745  -6.804  1.00  0.00    -0.000 C 
BRANCH  15  16
ATOM     16  C   UNL     1     -12.938  -4.910  -5.986  1.00  0.00    -0.000 C 
BRANCH  16  17
ATOM     17  C   UNL     1     -12.497  -4.947  -4.514  1.00  0.00    -0.003 C 
ATOM     18  C   UNL     1     -13.471  -5.718  -3.622  1.00  0.00     0.004 C 
ENDBRANCH  16  17
ENDBRANCH  15  16
ENDBRANCH  14  15
ENDBRANCH  13  14
ENDBRANCH  12  13
ENDBRANCH  11  12
ENDBRANCH   1  11
TORSDOF 14
ENDMDL
MODEL 3
REMARK VINA RESULT:    -5.043      1.770      3.257
REMARK INTER + INTRA:         -10.028
REMARK INTER:                  -8.807
REMARK INTRA:                  -1.221
REMARK UNBOUND:                -0.857
REMARK SMILES CCCCCCCCCCCCCCCC(=O)[O-]
REMARK SMILES IDX 9 1 10 2 11 3 12 4 13 5 14 6 15 7 16 8 17 9 18 10 8 11 7 12
REMARK SMILES IDX 6 13 5 14 4 15 3 16 2 17 1 18
REMARK H PARENT
REMARK Flexibility Score: inf
ROOT
ATOM      1  C   UNL     1      -9.740  -7.023  -5.408  1.00  0.00     0.000 C 
ENDROOT
BRANCH   1   2
ATOM      2  C   UNL     1      -8.883  -8.189  -4.886  1.00  0.00     0.000 C 
BRANCH   2   3
ATOM      3  C   UNL     1      -9.532  -9.558  -5.147  1.00  0.00     0.000 C 
BRANCH   3   4
ATOM      4  C   UNL     1      -8.492 -10.662  -5.409  1.00  0.00     0.000 C 
BRANCH   4   5
ATOM      5  C   UNL     1      -7.052 -10.187  -5.158  1.00  0.00     0.000 C 
BRANCH   5   6
ATOM      6  C   UNL     1      -6.237 -10.063  -6.457  1.00  0.00     0.006 C 
BRANCH   6   7
ATOM      7  C   UNL     1      -5.058 -11.044  -6.496  1.00  0.00     0.053 C 
BRANCH   7   8
ATOM      8  C   UNL     1      -5.330 -12.200  -7.410  1.00  0.00     0.041 C 
ATOM      9  O   UNL     1      -6.395 -12.243  -8.080  1.00  0.00    -0.550 OA
ATOM     10  O   UNL     1      -4.392 -13.217  -7.541  1.00  0.00    -0.550 OA
ENDBRANCH   7   8
ENDBRANCH   6   7
ENDBRANCH   5   6
ENDBRANCH   4   5
ENDBRANCH   3   4
ENDBRANCH   2   3
ENDBRANCH   1   2
BRANCH   1  11
ATOM     11  C   UNL     1     -11.081  -7.489  -6.001  1.00  0.00     0.000 C 
BRANCH  11  12
ATOM     12  C   UNL     1     -12.291  -6.908  -5.249  1.00  0.00    -0.000 C 
BRANCH  12  13
ATOM     13  C   UNL     1     -12.191  -5.386  -5.054  1.00  0.00    -0.000 C 
BRANCH  13  14
ATOM     14  C   UNL     1     -12.513  -4.600  -6.338  1.00  0.00    -0.000 C 
BRANCH  14  15
ATOM     15  C   UNL     1     -11.318  -3.744  -6.811  1.00  0.00    -0.000 C 
BRANCH  15  16
ATOM     16  C   UNL     1     -11.125  -3.744  -8.340  1.00  0.00    -0.000 C 
BRANCH  16  17
ATOM     17  C   UNL     1     -11.061  -5.141  -8.977  1.00  0.00    -0.003 C 
ATOM     18  C   UNL     1     -11.148  -5.101 -10.503  1.00  0.00     0.004 C 
ENDBRANCH  16  17
ENDBRANCH  15  16
ENDBRANCH  14  15
ENDBRANCH  13  14
ENDBRANCH  12  13
ENDBRANCH  11  12
ENDBRANCH   1  11
TORSDOF 14
ENDMDL
MODEL 4
REMARK VINA RESULT:    -5.017      1.327      2.594
REMARK INTER + INTRA:          -9.980
REMARK INTER:                  -9.427
REMARK INTRA:                  -0.553
REMARK UNBOUND:                -0.857
REMARK SMILES CCCCCCCCCCCCCCCC(=O)[O-]
REMARK SMILES IDX 9 1 10 2 11 3 12 4 13 5 14 6 15 7 16 8 17 9 18 10 8 11 7 12
REMARK SMILES IDX 6 13 5 14 4 15 3 16 2 17 1 18
REMARK H PARENT
REMARK Flexibility Score: inf
ROOT
ATOM      1  C   UNL     1      -8.487  -8.498  -4.755  1.00  0.00     0.000 C 
ENDROOT
BRANCH   1   2
ATOM      2  C   UNL     1      -8.412  -9.980  -5.162  1.00  0.00     0.000 C 
BRANCH   2   3
ATOM      3  C   UNL     1      -6.992 -10.555  -5.029  1.00  0.00     0.000 C 
BRANCH   3   4
ATOM      4  C   UNL     1      -6.054 -10.070  -6.148  1.00  0.00     0.000 C 
BRANCH   4   5
ATOM      5  C   UNL     1      -5.035 -11.142  -6.567  1.00  0.00     0.000 C 
BRANCH   5   6
ATOM      6  C   UNL     1      -3.657 -10.932  -5.914  1.00  0.00     0.006 C 
BRANCH   6   7
ATOM      7  C   UNL     1      -2.957 -12.260  -5.601  1.00  0.00     0.053 C 
BRANCH   7   8
ATOM      8  C   UNL     1      -1.923 -12.103  -4.528  1.00  0.00     0.041 C 
ATOM      9  O   UNL     1      -0.802 -11.596  -4.796  1.00  0.00    -0.550 OA
ATOM     10  O   UNL     1      -2.210 -12.491  -3.225  1.00  0.00    -0.550 OA
ENDBRANCH   7   8
ENDBRANCH   6   7
ENDBRANCH   5   6
ENDBRANCH   4   5
ENDBRANCH   3   4
ENDBRANCH   2   3
ENDBRANCH   1   2
BRANCH   1  11
ATOM     11  C   UNL     1      -9.613  -7.740  -5.479  1.00  0.00     0.000 C 
BRANCH  11  12
ATOM     12  C   UNL     1      -9.678  -6.257  -5.075  1.00  0.00    -0.000 C 
BRANCH  12  13
ATOM     13  C   UNL     1     -10.998  -5.588  -5.493  1.00  0.00    -0.000 C 
BRANCH  13  14
ATOM     14  C   UNL     1     -11.385  -5.893  -6.951  1.00  0.00    -0.000 C 
BRANCH  14  15
ATOM     15  C   UNL     1     -10.419  -5.233  -7.959  1.00  0.00    -0.000 C 
BRANCH  15  16
ATOM     16  C   UNL     1     -10.780  -3.773  -8.297  1.00  0.00    -0.000 C 
BRANCH  16  17
ATOM     17  C   UNL     1     -11.503  -3.587  -9.640  1.00  0.00    -0.003 C 
ATOM     18  C   UNL     1     -10.916  -4.453 -10.755  1.00  0.00     0.004 C 
ENDBRANCH  16  17
ENDBRANCH  15  16
ENDBRANCH  14  15
ENDBRANCH  13  14
ENDBRANCH  12  13
ENDBRANCH  11  12
ENDBRANCH   1  11
TORSDOF 14
ENDMDL
MODEL 5
REMARK VINA RESULT:    -5.013      4.129      8.448
REMARK INTER + INTRA:          -9.972
REMARK INTER:                  -8.643
REMARK INTRA:                  -1.329
REMARK UNBOUND:                -0.857
REMARK SMILES CCCCCCCCCCCCCCCC(=O)[O-]
REMARK SMILES IDX 9 1 10 2 11 3 12 4 13 5 14 6 15 7 16 8 17 9 18 10 8 11 7 12
REMARK SMILES IDX 6 13 5 14 4 15 3 16 2 17 1 18
REMARK H PARENT
REMARK Flexibility Score: inf
ROOT
ATOM      1  C   UNL     1      -9.848  -7.386  -5.894  1.00  0.00     0.000 C 
ENDROOT
BRANCH   1   2
ATOM      2  C   UNL     1      -9.517  -6.220  -6.843  1.00  0.00     0.000 C 
BRANCH   2   3
ATOM      3  C   UNL     1     -10.366  -6.245  -8.124  1.00  0.00     0.000 C 
BRANCH   3   4
ATOM      4  C   UNL     1     -10.936  -4.861  -8.479  1.00  0.00     0.000 C 
BRANCH   4   5
ATOM      5  C   UNL     1     -10.819  -3.860  -7.318  1.00  0.00     0.000 C 
BRANCH   5   6
ATOM      6  C   UNL     1     -12.172  -3.587  -6.636  1.00  0.00     0.006 C 
BRANCH   6   7
ATOM      7  C   UNL     1     -12.769  -4.853  -6.009  1.00  0.00     0.053 C 
BRANCH   7   8
ATOM      8  C   UNL     1     -12.446  -4.954  -4.549  1.00  0.00     0.041 C 
ATOM      9  O   UNL     1     -11.270  -4.760  -4.144  1.00  0.00    -0.550 OA
ATOM     10  O   UNL     1     -13.452  -5.234  -3.633  1.00  0.00    -0.550 OA
ENDBRANCH   7   8
ENDBRANCH   6   7
ENDBRANCH   5   6
ENDBRANCH   4   5
ENDBRANCH   3   4
ENDBRANCH   2   3
ENDBRANCH   1   2
BRANCH   1  11
ATOM     11  C   UNL     1     -11.245  -7.979  -6.147  1.00  0.00     0.000 C 
BRANCH  11  12
ATOM     12  C   UNL     1     -11.302  -9.491  -5.866  1.00  0.00    -0.000 C 
BRANCH  12  13
ATOM     13  C   UNL     1     -10.024 -10.015  -5.191  1.00  0.00    -0.000 C 
BRANCH  13  14
ATOM     14  C   UNL     1      -9.670 -11.451  -5.619  1.00  0.00    -0.000 C 
BRANCH  14  15
ATOM     15  C   UNL     1      -8.147 -11.657  -5.764  1.00  0.00    -0.000 C 
BRANCH  15  16
ATOM     16  C   UNL     1      -7.318 -10.409  -5.404  1.00  0.00    -0.000 C 
BRANCH  16  17
ATOM     17  C   UNL     1      -6.262 -10.019  -6.451  1.00  0.00    -0.003 C 
ATOM     18  C   UNL     1      -4.952 -10.790  -6.288  1.00  0.00     0.004 C 
ENDBRANCH  16  17
ENDBRANCH  15  16
ENDBRANCH  14  15
ENDBRANCH  13  14
ENDBRANCH  12  13
ENDBRANCH  11  12
ENDBRANCH   1  11
TORSDOF 14
ENDMDL
MODEL 6
REMARK VINA RESULT:    -4.912      4.146      8.878
REMARK INTER + INTRA:          -9.789
REMARK INTER:                  -8.801
REMARK INTRA:                  -0.988
REMARK UNBOUND:                -0.857
REMARK SMILES CCCCCCCCCCCCCCCC(=O)[O-]
REMARK SMILES IDX 9 1 10 2 11 3 12 4 13 5 14 6 15 7 16 8 17 9 18 10 8 11 7 12
REMARK SMILES IDX 6 13 5 14 4 15 3 16 2 17 1 18
REMARK H PARENT
REMARK Flexibility Score: inf
ROOT
ATOM      1  C   UNL     1      -9.895  -7.467  -5.606  1.00  0.00     0.000 C 
ENDROOT
BRANCH   1   2
ATOM      2  C   UNL     1      -9.310  -6.429  -6.581  1.00  0.00     0.000 C 
BRANCH   2   3
ATOM      3  C   UNL     1     -10.341  -5.945  -7.612  1.00  0.00     0.000 C 
BRANCH   3   4
ATOM      4  C   UNL     1     -10.382  -4.411  -7.728  1.00  0.00     0.000 C 
BRANCH   4   5
ATOM      5  C   UNL     1     -11.771  -3.833  -7.412  1.00  0.00     0.000 C 
BRANCH   5   6
ATOM      6  C   UNL     1     -12.633  -4.795  -6.576  1.00  0.00     0.006 C 
BRANCH   6   7
ATOM      7  C   UNL     1     -12.315  -4.704  -5.078  1.00  0.00     0.053 C 
BRANCH   7   8
ATOM      8  C   UNL     1     -13.086  -5.714  -4.285  1.00  0.00     0.041 C 
ATOM      9  O   UNL     1     -13.585  -5.402  -3.172  1.00  0.00    -0.550 OA
ATOM     10  O   UNL     1     -13.278  -6.994  -4.790  1.00  0.00    -0.550 OA
ENDBRANCH   7   8
ENDBRANCH   6   7
ENDBRANCH   5   6
ENDBRANCH   4   5
ENDBRANCH   3   4
ENDBRANCH   2   3
ENDBRANCH   1   2
BRANCH   1  11
ATOM     11  C   UNL     1      -8.822  -8.394  -5.011  1.00  0.00     0.000 C 
BRANCH  11  12
ATOM     12  C   UNL     1      -9.268  -9.866  -4.978  1.00  0.00    -0.000 C 
BRANCH  12  13
ATOM     13  C   UNL     1      -8.128 -10.837  -5.327  1.00  0.00    -0.000 C 
BRANCH  13  14
ATOM     14  C   UNL     1      -6.737 -10.186  -5.222  1.00  0.00    -0.000 C 
BRANCH  14  15
ATOM     15  C   UNL     1      -5.964 -10.246  -6.558  1.00  0.00    -0.000 C 
BRANCH  15  16
ATOM     16  C   UNL     1      -4.679 -11.094  -6.490  1.00  0.00    -0.000 C 
BRANCH  16  17
ATOM     17  C   UNL     1      -4.740 -12.412  -7.277  1.00  0.00    -0.003 C 
ATOM     18  C   UNL     1      -5.971 -12.508  -8.180  1.00  0.00     0.004 C 
ENDBRANCH  16  17
ENDBRANCH  15  16
ENDBRANCH  14  15
ENDBRANCH  13  14
ENDBRANCH  12  13
ENDBRANCH  11  12
ENDBRANCH   1  11
TORSDOF 14
ENDMDL
MODEL 7
REMARK VINA RESULT:    -4.876      4.131      9.295
REMARK INTER + INTRA:          -9.724
REMARK INTER:                  -8.911
REMARK INTRA:                  -0.813
REMARK UNBOUND:                -0.857
REMARK SMILES CCCCCCCCCCCCCCCC(=O)[O-]
REMARK SMILES IDX 9 1 10 2 11 3 12 4 13 5 14 6 15 7 16 8 17 9 18 10 8 11 7 12
REMARK SMILES IDX 6 13 5 14 4 15 3 16 2 17 1 18
REMARK H PARENT
REMARK Flexibility Score: inf
ROOT
ATOM      1  C   UNL     1      -8.525  -8.496  -5.028  1.00  0.00     0.000 C 
ENDROOT
BRANCH   1   2
ATOM      2  C   UNL     1      -9.663  -7.517  -5.365  1.00  0.00     0.000 C 
BRANCH   2   3
ATOM      3  C   UNL     1      -9.202  -6.372  -6.280  1.00  0.00     0.000 C 
BRANCH   3   4
ATOM      4  C   UNL     1     -10.153  -6.148  -7.468  1.00  0.00     0.000 C 
BRANCH   4   5
ATOM      5  C   UNL     1     -10.608  -4.685  -7.592  1.00  0.00     0.000 C 
BRANCH   5   6
ATOM      6  C   UNL     1     -12.038  -4.466  -7.068  1.00  0.00     0.006 C 
BRANCH   6   7
ATOM      7  C   UNL     1     -12.072  -4.247  -5.551  1.00  0.00     0.053 C 
BRANCH   7   8
ATOM      8  C   UNL     1     -12.796  -5.353  -4.847  1.00  0.00     0.041 C 
ATOM      9  O   UNL     1     -13.020  -6.442  -5.438  1.00  0.00    -0.550 OA
ATOM     10  O   UNL     1     -13.199  -5.190  -3.527  1.00  0.00    -0.550 OA
ENDBRANCH   7   8
ENDBRANCH   6   7
ENDBRANCH   5   6
ENDBRANCH   4   5
ENDBRANCH   3   4
ENDBRANCH   2   3
ENDBRANCH   1   2
BRANCH   1  11
ATOM     11  C   UNL     1      -8.984  -9.964  -5.032  1.00  0.00     0.000 C 
BRANCH  11  12
ATOM     12  C   UNL     1      -7.862 -10.931  -5.448  1.00  0.00    -0.000 C 
BRANCH  12  13
ATOM     13  C   UNL     1      -6.521 -10.216  -5.681  1.00  0.00    -0.000 C 
BRANCH  13  14
ATOM     14  C   UNL     1      -5.529 -11.061  -6.499  1.00  0.00    -0.000 C 
BRANCH  14  15
ATOM     15  C   UNL     1      -4.060 -10.744  -6.141  1.00  0.00    -0.000 C 
BRANCH  15  16
ATOM     16  C   UNL     1      -3.220 -11.995  -5.818  1.00  0.00    -0.000 C 
BRANCH  16  17
ATOM     17  C   UNL     1      -2.172 -11.794  -4.712  1.00  0.00    -0.003 C 
ATOM     18  C   UNL     1      -0.975 -12.735  -4.850  1.00  0.00     0.004 C 
ENDBRANCH  16  17
ENDBRANCH  15  16
ENDBRANCH  14  15
ENDBRANCH  13  14
ENDBRANCH  12  13
ENDBRANCH  11  12
ENDBRANCH   1  11
TORSDOF 14
ENDMDL
MODEL 8
REMARK VINA RESULT:    -4.805      4.572      9.150
REMARK INTER + INTRA:          -9.593
REMARK INTER:                  -8.822
REMARK INTRA:                  -0.771
REMARK UNBOUND:                -0.857
REMARK SMILES CCCCCCCCCCCCCCCC(=O)[O-]
REMARK SMILES IDX 9 1 10 2 11 3 12 4 13 5 14 6 15 7 16 8 17 9 18 10 8 11 7 12
REMARK SMILES IDX 6 13 5 14 4 15 3 16 2 17 1 18
REMARK H PARENT
REMARK Flexibility Score: inf
ROOT
ATOM      1  C   UNL     1      -8.193  -9.244  -4.768  1.00  0.00     0.000 C 
ENDROOT
BRANCH   1   2
ATOM      2  C   UNL     1      -9.662  -9.500  -5.146  1.00  0.00     0.000 C 
BRANCH   2   3
ATOM      3  C   UNL     1     -10.394  -8.214  -5.563  1.00  0.00     0.000 C 
BRANCH   3   4
ATOM      4  C   UNL     1      -9.551  -6.951  -5.315  1.00  0.00     0.000 C 
BRANCH   4   5
ATOM      5  C   UNL     1      -9.220  -6.199  -6.614  1.00  0.00     0.000 C 
BRANCH   5   6
ATOM      6  C   UNL     1     -10.441  -5.468  -7.200  1.00  0.00     0.006 C 
BRANCH   6   7
ATOM      7  C   UNL     1     -10.666  -5.810  -8.678  1.00  0.00     0.053 C 
BRANCH   7   8
ATOM      8  C   UNL     1     -10.774  -4.576  -9.522  1.00  0.00     0.041 C 
ATOM      9  O   UNL     1     -10.665  -4.652 -10.775  1.00  0.00    -0.550 OA
ATOM     10  O   UNL     1     -11.023  -3.346  -8.926  1.00  0.00    -0.550 OA
ENDBRANCH   7   8
ENDBRANCH   6   7
ENDBRANCH   5   6
ENDBRANCH   4   5
ENDBRANCH   3   4
ENDBRANCH   2   3
ENDBRANCH   1   2
BRANCH   1  11
ATOM     11  C   UNL     1      -7.280 -10.439  -5.091  1.00  0.00     0.000 C 
BRANCH  11  12
ATOM     12  C   UNL     1      -6.158 -10.074  -6.079  1.00  0.00    -0.000 C 
BRANCH  12  13
ATOM     13  C   UNL     1      -5.861 -11.203  -7.079  1.00  0.00    -0.000 C 
BRANCH  13  14
ATOM     14  C   UNL     1      -4.537 -11.930  -6.781  1.00  0.00    -0.000 C 
BRANCH  14  15
ATOM     15  C   UNL     1      -3.616 -11.105  -5.856  1.00  0.00    -0.000 C 
BRANCH  15  16
ATOM     16  C   UNL     1      -2.492 -11.935  -5.205  1.00  0.00    -0.000 C 
BRANCH  16  17
ATOM     17  C   UNL     1      -2.621 -12.105  -3.683  1.00  0.00    -0.003 C 
ATOM     18  C   UNL     1      -1.674 -13.166  -3.123  1.00  0.00     0.004 C 
ENDBRANCH  16  17
ENDBRANCH  15  16
ENDBRANCH  14  15
ENDBRANCH  13  14
ENDBRANCH  12  13
ENDBRANCH  11  12
ENDBRANCH   1  11
TORSDOF 14
ENDMDL
MODEL 9
REMARK VINA RESULT:    -4.767      4.083      8.696
REMARK INTER + INTRA:          -9.526
REMARK INTER:                  -8.504
REMARK INTRA:                  -1.021
REMARK UNBOUND:                -0.857
REMARK SMILES CCCCCCCCCCCCCCCC(=O)[O-]
REMARK SMILES IDX 9 1 10 2 11 3 12 4 13 5 14 6 15 7 16 8 17 9 18 10 8 11 7 12
REMARK SMILES IDX 6 13 5 14 4 15 3 16 2 17 1 18
REMARK H PARENT
REMARK Flexibility Score: inf
ROOT
ATOM      1  C   UNL     1      -9.962  -6.725  -5.394  1.00  0.00     0.000 C 
ENDROOT
BRANCH   1   2
ATOM      2  C   UNL     1     -11.369  -7.174  -5.827  1.00  0.00     0.000 C 
BRANCH   2   3
ATOM      3  C   UNL     1     -12.471  -6.232  -5.316  1.00  0.00     0.000 C 
BRANCH   3   4
ATOM      4  C   UNL     1     -11.975  -4.785  -5.146  1.00  0.00     0.000 C 
BRANCH   4   5
ATOM      5  C   UNL     1     -12.260  -3.916  -6.381  1.00  0.00     0.000 C 
BRANCH   5   6
ATOM      6  C   UNL     1     -11.011  -3.706  -7.255  1.00  0.00     0.006 C 
BRANCH   6   7
ATOM      7  C   UNL     1     -11.352  -3.650  -8.749  1.00  0.00     0.053 C 
BRANCH   7   8
ATOM      8  C   UNL     1     -10.757  -4.803  -9.497  1.00  0.00     0.041 C 
ATOM      9  O   UNL     1     -10.601  -4.738 -10.745  1.00  0.00    -0.550 OA
ATOM     10  O   UNL     1     -10.347  -5.939  -8.811  1.00  0.00    -0.550 OA
ENDBRANCH   7   8
ENDBRANCH   6   7
ENDBRANCH   5   6
ENDBRANCH   4   5
ENDBRANCH   3   4
ENDBRANCH   2   3
ENDBRANCH   1   2
BRANCH   1  11
ATOM     11  C   UNL     1      -8.959  -7.889  -5.334  1.00  0.00     0.000 C 
BRANCH  11  12
ATOM     12  C   UNL     1      -9.648  -9.251  -5.139  1.00  0.00    -0.000 C 
BRANCH  12  13
ATOM     13  C   UNL     1      -8.656 -10.425  -5.173  1.00  0.00    -0.000 C 
BRANCH  13  14
ATOM     14  C   UNL     1      -7.187  -9.965  -5.149  1.00  0.00    -0.000 C 
BRANCH  14  15
ATOM     15  C   UNL     1      -6.423 -10.390  -6.422  1.00  0.00    -0.000 C 
BRANCH  15  16
ATOM     16  C   UNL     1      -4.970 -10.827  -6.154  1.00  0.00    -0.000 C 
BRANCH  16  17
ATOM     17  C   UNL     1      -4.431 -11.888  -7.127  1.00  0.00    -0.003 C 
ATOM     18  C   UNL     1      -5.541 -12.697  -7.796  1.00  0.00     0.004 C 
ENDBRANCH  16  17
ENDBRANCH  15  16
ENDBRANCH  14  15
ENDBRANCH  13  14
ENDBRANCH  12  13
ENDBRANCH  11  12
ENDBRANCH   1  11
TORSDOF 14
ENDMDL
