MODEL 1
REMARK VINA RESULT:    -4.062      0.000      0.000
REMARK INTER + INTRA:          -5.152
REMARK INTER:                  -4.893
REMARK INTRA:                  -0.258
REMARK UNBOUND:                -0.258
REMARK SMILES NC(=O)C[C@@H]([NH3+])C(=O)[O-]
REMARK SMILES IDX 4 1 5 2 6 3 7 7 8 8 9 9 2 10 3 11 1 12
REMARK H PARENT 6 4 6 5 6 6 1 13 1 14
REMARK Flexibility Score: inf
ROOT
ATOM      1  C   UNL     1     122.860 130.629 145.565  1.00  0.00     0.171 C 
ENDROOT
BRANCH   1   2
ATOM      2  C   UNL     1     123.800 131.471 146.450  1.00  0.00     0.237 C 
BRANCH   2   3
ATOM      3  N   UNL     1     123.726 132.899 146.110  1.00  0.00    -0.350 N 
ATOM      4  H   UNL     1     124.536 133.410 146.531  1.00  0.00     0.345 HD
ATOM      5  H   UNL     1     123.737 133.034 145.072  1.00  0.00     0.345 HD
ATOM      6  H   UNL     1     122.849 133.313 146.501  1.00  0.00     0.345 HD
ENDBRANCH   2   3
BRANCH   2   7
ATOM      7  C   UNL     1     123.456 131.263 147.902  1.00  0.00     0.100 C 
ATOM      8  O   UNL     1     122.258 131.322 148.289  1.00  0.00    -0.544 OA
ATOM      9  O   UNL     1     124.460 130.987 148.821  1.00  0.00    -0.544 OA
ENDBRANCH   2   7
ENDBRANCH   1   2
BRANCH   1  10
ATOM     10  C   UNL     1     123.301 130.630 144.130  1.00  0.00     0.223 C 
ATOM     11  O   UNL     1     123.148 131.665 143.429  1.00  0.00    -0.275 OA
ATOM     12  N   UNL     1     123.859 129.453 143.543  1.00  0.00    -0.369 N 
ATOM     13  H   UNL     1     123.971 128.579 144.102  1.00  0.00     0.159 HD
ATOM     14  H   UNL     1     124.154 129.454 142.541  1.00  0.00     0.159 HD
ENDBRANCH   1  10
TORSDOF 4
ENDMDL
MODEL 2
REMARK VINA RESULT:    -3.956      2.658      3.049
REMARK INTER + INTRA:          -5.024
REMARK INTER:                  -4.682
REMARK INTRA:                  -0.342
REMARK UNBOUND:                -0.258
REMARK SMILES NC(=O)C[C@@H]([NH3+])C(=O)[O-]
REMARK SMILES IDX 4 1 5 2 6 3 7 7 8 8 9 9 2 10 3 11 1 12
REMARK H PARENT 6 4 6 5 6 6 1 13 1 14
REMARK Flexibility Score: inf
ROOT
ATOM      1  C   UNL     1     122.030 130.735 144.497  1.00  0.00     0.171 C 
ENDROOT
BRANCH   1   2
ATOM      2  C   UNL     1     122.268 132.007 145.336  1.00  0.00     0.237 C 
BRANCH   2   3
ATOM      3  N   UNL     1     123.664 132.458 145.249  1.00  0.00    -0.350 N 
ATOM      4  H   UNL     1     123.859 132.836 144.293  1.00  0.00     0.345 HD
ATOM      5  H   UNL     1     123.859 133.201 145.959  1.00  0.00     0.345 HD
ATOM      6  H   UNL     1     124.309 131.651 145.411  1.00  0.00     0.345 HD
ENDBRANCH   2   3
BRANCH   2   7
ATOM      7  C   UNL     1     121.338 133.100 144.881  1.00  0.00     0.100 C 
ATOM      8  O   UNL     1     121.210 133.360 143.654  1.00  0.00    -0.544 OA
ATOM      9  O   UNL     1     120.600 133.817 145.814  1.00  0.00    -0.544 OA
ENDBRANCH   2   7
ENDBRANCH   1   2
BRANCH   1  10
ATOM     10  C   UNL     1     123.216 130.408 143.638  1.00  0.00     0.223 C 
ATOM     11  O   UNL     1     123.567 131.203 142.726  1.00  0.00    -0.275 OA
ATOM     12  N   UNL     1     123.929 129.184 143.822  1.00  0.00    -0.369 N 
ATOM     13  H   UNL     1     123.638 128.502 144.557  1.00  0.00     0.159 HD
ATOM     14  H   UNL     1     124.747 128.954 143.214  1.00  0.00     0.159 HD
ENDBRANCH   1  10
TORSDOF 4
ENDMDL
MODEL 3
REMARK VINA RESULT:    -3.870      1.616      2.548
REMARK INTER + INTRA:          -4.920
REMARK INTER:                  -4.437
REMARK INTRA:                  -0.484
REMARK UNBOUND:                -0.258
REMARK SMILES NC(=O)C[C@@H]([NH3+])C(=O)[O-]
REMARK SMILES IDX 4 1 5 2 6 3 7 7 8 8 9 9 2 10 3 11 1 12
REMARK H PARENT 6 4 6 5 6 6 1 13 1 14
REMARK Flexibility Score: inf
ROOT
ATOM      1  C   UNL     1     122.386 130.941 145.861  1.00  0.00     0.171 C 
ENDROOT
BRANCH   1   2
ATOM      2  C   UNL     1     122.804 129.458 145.918  1.00  0.00     0.237 C 
BRANCH   2   3
ATOM      3  N   UNL     1     123.557 129.063 144.720  1.00  0.00    -0.350 N 
ATOM      4  H   UNL     1     123.368 129.733 143.940  1.00  0.00     0.345 HD
ATOM      5  H   UNL     1     124.585 129.047 144.917  1.00  0.00     0.345 HD
ATOM      6  H   UNL     1     123.253 128.113 144.406  1.00  0.00     0.345 HD
ENDBRANCH   2   3
BRANCH   2   7
ATOM      7  C   UNL     1     123.624 129.207 147.156  1.00  0.00     0.100 C 
ATOM      8  O   UNL     1     123.952 128.033 147.478  1.00  0.00    -0.544 OA
ATOM      9  O   UNL     1     124.039 130.274 147.942  1.00  0.00    -0.544 OA
ENDBRANCH   2   7
ENDBRANCH   1   2
BRANCH   1  10
ATOM     10  C   UNL     1     123.317 131.747 145.002  1.00  0.00     0.223 C 
ATOM     11  O   UNL     1     123.129 131.804 143.757  1.00  0.00    -0.275 OA
ATOM     12  N   UNL     1     124.436 132.421 145.580  1.00  0.00    -0.369 N 
ATOM     13  H   UNL     1     124.622 132.365 146.605  1.00  0.00     0.159 HD
ATOM     14  H   UNL     1     125.088 132.971 144.977  1.00  0.00     0.159 HD
ENDBRANCH   1  10
TORSDOF 4
ENDMDL
MODEL 4
REMARK VINA RESULT:    -3.847      3.169      4.262
REMARK INTER + INTRA:          -4.893
REMARK INTER:                  -4.564
REMARK INTRA:                  -0.328
REMARK UNBOUND:                -0.258
REMARK SMILES NC(=O)C[C@@H]([NH3+])C(=O)[O-]
REMARK SMILES IDX 4 1 5 2 6 3 7 7 8 8 9 9 2 10 3 11 1 12
REMARK H PARENT 6 4 6 5 6 6 1 13 1 14
REMARK Flexibility Score: inf
ROOT
ATOM      1  C   UNL     1     123.614 128.151 147.907  1.00  0.00     0.171 C 
ENDROOT
BRANCH   1   2
ATOM      2  C   UNL     1     123.265 129.187 146.820  1.00  0.00     0.237 C 
BRANCH   2   3
ATOM      3  N   UNL     1     121.942 128.930 146.235  1.00  0.00    -0.350 N 
ATOM      4  H   UNL     1     121.407 129.825 146.151  1.00  0.00     0.345 HD
ATOM      5  H   UNL     1     122.033 128.494 145.287  1.00  0.00     0.345 HD
ATOM      6  H   UNL     1     121.397 128.289 146.856  1.00  0.00     0.345 HD
ENDBRANCH   2   3
BRANCH   2   7
ATOM      7  C   UNL     1     123.317 130.575 147.402  1.00  0.00     0.100 C 
ATOM      8  O   UNL     1     124.402 131.042 147.843  1.00  0.00    -0.544 OA
ATOM      9  O   UNL     1     122.169 131.356 147.439  1.00  0.00    -0.544 OA
ENDBRANCH   2   7
ENDBRANCH   1   2
BRANCH   1  10
ATOM     10  C   UNL     1     122.382 127.539 148.506  1.00  0.00     0.223 C 
ATOM     11  O   UNL     1     121.585 128.256 149.168  1.00  0.00    -0.275 OA
ATOM     12  N   UNL     1     122.123 126.141 148.361  1.00  0.00    -0.369 N 
ATOM     13  H   UNL     1     122.784 125.528 147.836  1.00  0.00     0.159 HD
ATOM     14  H   UNL     1     121.270 125.717 148.789  1.00  0.00     0.159 HD
ENDBRANCH   1  10
TORSDOF 4
ENDMDL
MODEL 5
REMARK VINA RESULT:    -3.839      1.188      4.002
REMARK INTER + INTRA:          -4.883
REMARK INTER:                  -4.706
REMARK INTRA:                  -0.177
REMARK UNBOUND:                -0.258
REMARK SMILES NC(=O)C[C@@H]([NH3+])C(=O)[O-]
REMARK SMILES IDX 4 1 5 2 6 3 7 7 8 8 9 9 2 10 3 11 1 12
REMARK H PARENT 6 4 6 5 6 6 1 13 1 14
REMARK Flexibility Score: inf
ROOT
ATOM      1  C   UNL     1     123.359 130.226 146.079  1.00  0.00     0.171 C 
ENDROOT
BRANCH   1   2
ATOM      2  C   UNL     1     123.440 130.600 144.586  1.00  0.00     0.237 C 
BRANCH   2   3
ATOM      3  N   UNL     1     123.740 129.428 143.752  1.00  0.00    -0.350 N 
ATOM      4  H   UNL     1     123.663 128.554 144.322  1.00  0.00     0.345 HD
ATOM      5  H   UNL     1     123.079 129.370 142.943  1.00  0.00     0.345 HD
ATOM      6  H   UNL     1     124.720 129.489 143.392  1.00  0.00     0.345 HD
ENDBRANCH   2   3
BRANCH   2   7
ATOM      7  C   UNL     1     122.146 131.234 144.148  1.00  0.00     0.100 C 
ATOM      8  O   UNL     1     122.092 132.469 143.901  1.00  0.00    -0.544 OA
ATOM      9  O   UNL     1     121.007 130.454 143.997  1.00  0.00    -0.544 OA
ENDBRANCH   2   7
ENDBRANCH   1   2
BRANCH   1  10
ATOM     10  C   UNL     1     123.592 131.417 146.963  1.00  0.00     0.223 C 
ATOM     11  O   UNL     1     123.208 131.390 148.163  1.00  0.00    -0.275 OA
ATOM     12  N   UNL     1     124.213 132.594 146.445  1.00  0.00    -0.369 N 
ATOM     13  H   UNL     1     124.515 132.643 145.448  1.00  0.00     0.159 HD
ATOM     14  H   UNL     1     124.363 133.425 147.060  1.00  0.00     0.159 HD
ENDBRANCH   1  10
TORSDOF 4
ENDMDL
MODEL 6
REMARK VINA RESULT:    -3.835      1.626      3.462
REMARK INTER + INTRA:          -4.877
REMARK INTER:                  -4.376
REMARK INTRA:                  -0.501
REMARK UNBOUND:                -0.258
REMARK SMILES NC(=O)C[C@@H]([NH3+])C(=O)[O-]
REMARK SMILES IDX 4 1 5 2 6 3 7 7 8 8 9 9 2 10 3 11 1 12
REMARK H PARENT 6 4 6 5 6 6 1 13 1 14
REMARK Flexibility Score: inf
ROOT
ATOM      1  C   UNL     1     122.264 131.407 146.550  1.00  0.00     0.171 C 
ENDROOT
BRANCH   1   2
ATOM      2  C   UNL     1     122.910 132.489 145.661  1.00  0.00     0.237 C 
BRANCH   2   3
ATOM      3  N   UNL     1     124.377 132.436 145.726  1.00  0.00    -0.350 N 
ATOM      4  H   UNL     1     124.685 131.511 146.105  1.00  0.00     0.345 HD
ATOM      5  H   UNL     1     124.795 132.575 144.776  1.00  0.00     0.345 HD
ATOM      6  H   UNL     1     124.731 133.180 146.369  1.00  0.00     0.345 HD
ENDBRANCH   2   3
BRANCH   2   7
ATOM      7  C   UNL     1     122.444 132.323 144.238  1.00  0.00     0.100 C 
ATOM      8  O   UNL     1     121.472 132.996 143.803  1.00  0.00    -0.544 OA
ATOM      9  O   UNL     1     123.099 131.437 143.392  1.00  0.00    -0.544 OA
ENDBRANCH   2   7
ENDBRANCH   1   2
BRANCH   1  10
ATOM     10  C   UNL     1     123.118 130.175 146.634  1.00  0.00     0.223 C 
ATOM     11  O   UNL     1     123.948 130.052 147.574  1.00  0.00    -0.275 OA
ATOM     12  N   UNL     1     123.023 129.158 145.636  1.00  0.00    -0.369 N 
ATOM     13  H   UNL     1     122.359 129.254 144.837  1.00  0.00     0.159 HD
ATOM     14  H   UNL     1     123.627 128.308 145.691  1.00  0.00     0.159 HD
ENDBRANCH   1  10
TORSDOF 4
ENDMDL
MODEL 7
REMARK VINA RESULT:    -3.802      3.044      4.041
REMARK INTER + INTRA:          -4.838
REMARK INTER:                  -4.339
REMARK INTRA:                  -0.500
REMARK UNBOUND:                -0.258
REMARK SMILES NC(=O)C[C@@H]([NH3+])C(=O)[O-]
REMARK SMILES IDX 4 1 5 2 6 3 7 7 8 8 9 9 2 10 3 11 1 12
REMARK H PARENT 6 4 6 5 6 6 1 13 1 14
REMARK Flexibility Score: inf
ROOT
ATOM      1  C   UNL     1     122.338 130.080 147.870  1.00  0.00     0.171 C 
ENDROOT
BRANCH   1   2
ATOM      2  C   UNL     1     122.184 128.912 146.875  1.00  0.00     0.237 C 
BRANCH   2   3
ATOM      3  N   UNL     1     123.111 129.042 145.742  1.00  0.00    -0.350 N 
ATOM      4  H   UNL     1     122.578 129.231 144.863  1.00  0.00     0.345 HD
ATOM      5  H   UNL     1     123.790 129.821 145.907  1.00  0.00     0.345 HD
ATOM      6  H   UNL     1     123.639 128.149 145.611  1.00  0.00     0.345 HD
ENDBRANCH   2   3
BRANCH   2   7
ATOM      7  C   UNL     1     122.410 127.604 147.586  1.00  0.00     0.100 C 
ATOM      8  O   UNL     1     123.575 127.240 147.899  1.00  0.00    -0.544 OA
ATOM      9  O   UNL     1     121.328 126.797 147.916  1.00  0.00    -0.544 OA
ENDBRANCH   2   7
ENDBRANCH   1   2
BRANCH   1  10
ATOM     10  C   UNL     1     123.722 130.659 147.836  1.00  0.00     0.223 C 
ATOM     11  O   UNL     1     123.974 131.634 147.080  1.00  0.00    -0.275 OA
ATOM     12  N   UNL     1     124.765 130.089 148.628  1.00  0.00    -0.369 N 
ATOM     13  H   UNL     1     124.581 129.266 149.242  1.00  0.00     0.159 HD
ATOM     14  H   UNL     1     125.730 130.488 148.593  1.00  0.00     0.159 HD
ENDBRANCH   1  10
TORSDOF 4
ENDMDL
MODEL 8
REMARK VINA RESULT:    -3.797      2.854      3.612
REMARK INTER + INTRA:          -4.832
REMARK INTER:                  -4.445
REMARK INTRA:                  -0.387
REMARK UNBOUND:                -0.258
REMARK SMILES NC(=O)C[C@@H]([NH3+])C(=O)[O-]
REMARK SMILES IDX 4 1 5 2 6 3 7 7 8 8 9 9 2 10 3 11 1 12
REMARK H PARENT 6 4 6 5 6 6 1 13 1 14
REMARK Flexibility Score: inf
ROOT
ATOM      1  C   UNL     1     122.830 128.980 148.930  1.00  0.00     0.171 C 
ENDROOT
BRANCH   1   2
ATOM      2  C   UNL     1     123.523 130.355 149.017  1.00  0.00     0.237 C 
BRANCH   2   3
ATOM      3  N   UNL     1     124.986 130.224 148.991  1.00  0.00    -0.350 N 
ATOM      4  H   UNL     1     125.262 129.239 149.208  1.00  0.00     0.345 HD
ATOM      5  H   UNL     1     125.366 130.489 148.052  1.00  0.00     0.345 HD
ATOM      6  H   UNL     1     125.411 130.843 149.720  1.00  0.00     0.345 HD
ENDBRANCH   2   3
BRANCH   2   7
ATOM      7  C   UNL     1     123.058 131.232 147.884  1.00  0.00     0.100 C 
ATOM      8  O   UNL     1     123.888 131.711 147.065  1.00  0.00    -0.544 OA
ATOM      9  O   UNL     1     121.705 131.503 147.726  1.00  0.00    -0.544 OA
ENDBRANCH   2   7
ENDBRANCH   1   2
BRANCH   1  10
ATOM     10  C   UNL     1     123.196 128.252 147.670  1.00  0.00     0.223 C 
ATOM     11  O   UNL     1     124.393 127.915 147.467  1.00  0.00    -0.275 OA
ATOM     12  N   UNL     1     122.204 127.970 146.682  1.00  0.00    -0.369 N 
ATOM     13  H   UNL     1     121.212 128.262 146.822  1.00  0.00     0.159 HD
ATOM     14  H   UNL     1     122.465 127.473 145.801  1.00  0.00     0.159 HD
ENDBRANCH   1  10
TORSDOF 4
ENDMDL
MODEL 9
REMARK VINA RESULT:    -3.765      2.305      2.471
REMARK INTER + INTRA:          -4.793
REMARK INTER:                  -4.382
REMARK INTRA:                  -0.411
REMARK UNBOUND:                -0.258
REMARK SMILES NC(=O)C[C@@H]([NH3+])C(=O)[O-]
REMARK SMILES IDX 4 1 5 2 6 3 7 7 8 8 9 9 2 10 3 11 1 12
REMARK H PARENT 6 4 6 5 6 6 1 13 1 14
REMARK Flexibility Score: inf
ROOT
ATOM      1  C   UNL     1     123.307 130.807 145.716  1.00  0.00     0.171 C 
ENDROOT
BRANCH   1   2
ATOM      2  C   UNL     1     122.089 130.074 146.313  1.00  0.00     0.237 C 
BRANCH   2   3
ATOM      3  N   UNL     1     121.011 129.927 145.325  1.00  0.00    -0.350 N 
ATOM      4  H   UNL     1     120.087 130.134 145.770  1.00  0.00     0.345 HD
ATOM      5  H   UNL     1     121.157 130.577 144.518  1.00  0.00     0.345 HD
ATOM      6  H   UNL     1     120.983 128.943 144.973  1.00  0.00     0.345 HD
ENDBRANCH   2   3
BRANCH   2   7
ATOM      7  C   UNL     1     122.510 128.723 146.830  1.00  0.00     0.100 C 
ATOM      8  O   UNL     1     121.654 127.920 147.287  1.00  0.00    -0.544 OA
ATOM      9  O   UNL     1     123.847 128.350 146.788  1.00  0.00    -0.544 OA
ENDBRANCH   2   7
ENDBRANCH   1   2
BRANCH   1  10
ATOM     10  C   UNL     1     123.401 130.609 144.231  1.00  0.00     0.223 C 
ATOM     11  O   UNL     1     122.985 131.508 143.453  1.00  0.00    -0.275 OA
ATOM     12  N   UNL     1     123.926 129.394 143.693  1.00  0.00    -0.369 N 
ATOM     13  H   UNL     1     124.253 128.629 144.322  1.00  0.00     0.159 HD
ATOM     14  H   UNL     1     123.979 129.256 142.659  1.00  0.00     0.159 HD
ENDBRANCH   1  10
TORSDOF 4
ENDMDL
