MODEL 1
REMARK VINA RESULT:    -4.781      0.000      0.000
REMARK INTER + INTRA:          -7.078
REMARK INTER:                  -6.458
REMARK INTRA:                  -0.620
REMARK UNBOUND:                -0.620
REMARK SMILES CCCCCCC=CC(=O)[O-]
REMARK SMILES IDX 5 1 6 2 7 3 8 4 9 5 10 6 11 7 4 8 3 9 2 10 1 11
REMARK H PARENT
REMARK Flexibility Score: inf
ROOT
ATOM      1  C   UNL     1     -44.753  12.581   0.927  1.00  0.00     0.004 C 
ENDROOT
BRANCH   1   2
ATOM      2  C   UNL     1     -43.415  11.823   0.980  1.00  0.00     0.027 C 
BRANCH   2   3
ATOM      3  C   UNL     1     -42.346  12.589   1.708  1.00  0.00    -0.025 C 
ATOM      4  C   UNL     1     -41.053  12.451   1.399  1.00  0.00     0.020 C 
BRANCH   4   5
ATOM      5  C   UNL     1     -40.000  13.198   2.101  1.00  0.00     0.064 C 
ATOM      6  O   UNL     1     -40.316  14.024   2.998  1.00  0.00    -0.545 OA
ATOM      7  O   UNL     1     -38.657  13.009   1.792  1.00  0.00    -0.545 OA
ENDBRANCH   4   5
ENDBRANCH   2   3
ENDBRANCH   1   2
BRANCH   1   8
ATOM      8  C   UNL     1     -44.904  13.521  -0.286  1.00  0.00     0.000 C 
BRANCH   8   9
ATOM      9  C   UNL     1     -44.024  13.166  -1.501  1.00  0.00    -0.000 C 
BRANCH   9  10
ATOM     10  C   UNL     1     -43.282  14.357  -2.135  1.00  0.00    -0.003 C 
ATOM     11  C   UNL     1     -41.858  14.522  -1.602  1.00  0.00     0.004 C 
ENDBRANCH   9  10
ENDBRANCH   8   9
ENDBRANCH   1   8
TORSDOF 6
ENDMDL
MODEL 2
REMARK VINA RESULT:    -4.524      1.841      3.688
REMARK INTER + INTRA:          -6.731
REMARK INTER:                  -6.038
REMARK INTRA:                  -0.692
REMARK UNBOUND:                -0.620
REMARK SMILES CCCCCCC=CC(=O)[O-]
REMARK SMILES IDX 5 1 6 2 7 3 8 4 9 5 10 6 11 7 4 8 3 9 2 10 1 11
REMARK H PARENT
REMARK Flexibility Score: inf
ROOT
ATOM      1  C   UNL     1     -44.365  13.274  -1.457  1.00  0.00     0.004 C 
ENDROOT
BRANCH   1   2
ATOM      2  C   UNL     1     -43.717  14.564  -1.991  1.00  0.00     0.027 C 
BRANCH   2   3
ATOM      3  C   UNL     1     -42.217  14.529  -1.923  1.00  0.00    -0.025 C 
ATOM      4  C   UNL     1     -41.541  13.376  -1.972  1.00  0.00     0.020 C 
BRANCH   4   5
ATOM      5  C   UNL     1     -40.073  13.330  -1.912  1.00  0.00     0.064 C 
ATOM      6  O   UNL     1     -39.411  13.222  -2.977  1.00  0.00    -0.545 OA
ATOM      7  O   UNL     1     -39.402  13.403  -0.696  1.00  0.00    -0.545 OA
ENDBRANCH   4   5
ENDBRANCH   2   3
ENDBRANCH   1   2
BRANCH   1   8
ATOM      8  C   UNL     1     -45.139  13.452  -0.135  1.00  0.00     0.000 C 
BRANCH   8   9
ATOM      9  C   UNL     1     -44.760  12.461   0.983  1.00  0.00    -0.000 C 
BRANCH   9  10
ATOM     10  C   UNL     1     -43.381  11.797   0.820  1.00  0.00    -0.003 C 
ATOM     11  C   UNL     1     -42.285  12.496   1.625  1.00  0.00     0.004 C 
ENDBRANCH   9  10
ENDBRANCH   8   9
ENDBRANCH   1   8
TORSDOF 6
ENDMDL
MODEL 3
REMARK VINA RESULT:    -4.499      2.080      2.767
REMARK INTER + INTRA:          -6.696
REMARK INTER:                  -6.179
REMARK INTRA:                  -0.518
REMARK UNBOUND:                -0.620
REMARK SMILES CCCCCCC=CC(=O)[O-]
REMARK SMILES IDX 5 1 6 2 7 3 8 4 9 5 10 6 11 7 4 8 3 9 2 10 1 11
REMARK H PARENT
REMARK Flexibility Score: inf
ROOT
ATOM      1  C   UNL     1     -42.817  12.617   1.708  1.00  0.00     0.004 C 
ENDROOT
BRANCH   1   2
ATOM      2  C   UNL     1     -41.493  12.127   1.096  1.00  0.00     0.027 C 
BRANCH   2   3
ATOM      3  C   UNL     1     -40.860  13.147   0.193  1.00  0.00    -0.025 C 
ATOM      4  C   UNL     1     -39.898  13.967   0.629  1.00  0.00     0.020 C 
BRANCH   4   5
ATOM      5  C   UNL     1     -39.268  14.965  -0.247  1.00  0.00     0.064 C 
ATOM      6  O   UNL     1     -39.984  15.644  -1.030  1.00  0.00    -0.545 OA
ATOM      7  O   UNL     1     -37.894  15.174  -0.226  1.00  0.00    -0.545 OA
ENDBRANCH   4   5
ENDBRANCH   2   3
ENDBRANCH   1   2
BRANCH   1   8
ATOM      8  C   UNL     1     -44.080  12.088   0.996  1.00  0.00     0.000 C 
BRANCH   8   9
ATOM      9  C   UNL     1     -44.514  12.892  -0.245  1.00  0.00    -0.000 C 
BRANCH   9  10
ATOM     10  C   UNL     1     -44.047  12.309  -1.591  1.00  0.00    -0.003 C 
ATOM     11  C   UNL     1     -43.918  10.786  -1.567  1.00  0.00     0.004 C 
ENDBRANCH   9  10
ENDBRANCH   8   9
ENDBRANCH   1   8
TORSDOF 6
ENDMDL
MODEL 4
REMARK VINA RESULT:    -4.494      1.568      2.123
REMARK INTER + INTRA:          -6.690
REMARK INTER:                  -5.983
REMARK INTRA:                  -0.708
REMARK UNBOUND:                -0.620
REMARK SMILES CCCCCCC=CC(=O)[O-]
REMARK SMILES IDX 5 1 6 2 7 3 8 4 9 5 10 6 11 7 4 8 3 9 2 10 1 11
REMARK H PARENT
REMARK Flexibility Score: inf
ROOT
ATOM      1  C   UNL     1     -43.627  11.503   0.712  1.00  0.00     0.004 C 
ENDROOT
BRANCH   1   2
ATOM      2  C   UNL     1     -42.307  11.799   1.446  1.00  0.00     0.027 C 
BRANCH   2   3
ATOM      3  C   UNL     1     -41.193  12.165   0.507  1.00  0.00    -0.025 C 
ATOM      4  C   UNL     1     -40.543  13.328   0.611  1.00  0.00     0.020 C 
BRANCH   4   5
ATOM      5  C   UNL     1     -39.449  13.694  -0.300  1.00  0.00     0.064 C 
ATOM      6  O   UNL     1     -38.406  14.226   0.165  1.00  0.00    -0.545 OA
ATOM      7  O   UNL     1     -39.546  13.464  -1.667  1.00  0.00    -0.545 OA
ENDBRANCH   4   5
ENDBRANCH   2   3
ENDBRANCH   1   2
BRANCH   1   8
ATOM      8  C   UNL     1     -44.730  12.557   0.941  1.00  0.00     0.000 C 
BRANCH   8   9
ATOM      9  C   UNL     1     -44.971  13.517  -0.241  1.00  0.00    -0.000 C 
BRANCH   9  10
ATOM     10  C   UNL     1     -44.258  13.127  -1.548  1.00  0.00    -0.003 C 
ATOM     11  C   UNL     1     -43.241  14.173  -2.006  1.00  0.00     0.004 C 
ENDBRANCH   9  10
ENDBRANCH   8   9
ENDBRANCH   1   8
TORSDOF 6
ENDMDL
MODEL 5
REMARK VINA RESULT:    -4.487      3.197      4.433
REMARK INTER + INTRA:          -6.681
REMARK INTER:                  -5.995
REMARK INTRA:                  -0.686
REMARK UNBOUND:                -0.620
REMARK SMILES CCCCCCC=CC(=O)[O-]
REMARK SMILES IDX 5 1 6 2 7 3 8 4 9 5 10 6 11 7 4 8 3 9 2 10 1 11
REMARK H PARENT
REMARK Flexibility Score: inf
ROOT
ATOM      1  C   UNL     1     -43.620  11.498   0.806  1.00  0.00     0.004 C 
ENDROOT
BRANCH   1   2
ATOM      2  C   UNL     1     -44.771  12.498   0.598  1.00  0.00     0.027 C 
BRANCH   2   3
ATOM      3  C   UNL     1     -44.362  13.687  -0.224  1.00  0.00    -0.025 C 
ATOM      4  C   UNL     1     -44.400  13.662  -1.560  1.00  0.00     0.020 C 
BRANCH   4   5
ATOM      5  C   UNL     1     -44.007  14.822  -2.373  1.00  0.00     0.064 C 
ATOM      6  O   UNL     1     -44.739  15.846  -2.389  1.00  0.00    -0.545 OA
ATOM      7  O   UNL     1     -42.838  14.807  -3.126  1.00  0.00    -0.545 OA
ENDBRANCH   4   5
ENDBRANCH   2   3
ENDBRANCH   1   2
BRANCH   1   8
ATOM      8  C   UNL     1     -42.330  12.124   1.375  1.00  0.00     0.000 C 
BRANCH   8   9
ATOM      9  C   UNL     1     -41.069  11.916   0.514  1.00  0.00    -0.000 C 
BRANCH   9  10
ATOM     10  C   UNL     1     -41.339  11.530  -0.951  1.00  0.00    -0.003 C 
ATOM     11  C   UNL     1     -40.549  12.380  -1.947  1.00  0.00     0.004 C 
ENDBRANCH   9  10
ENDBRANCH   8   9
ENDBRANCH   1   8
TORSDOF 6
ENDMDL
MODEL 6
REMARK VINA RESULT:    -4.481      1.106      2.767
REMARK INTER + INTRA:          -6.673
REMARK INTER:                  -5.891
REMARK INTRA:                  -0.781
REMARK UNBOUND:                -0.620
REMARK SMILES CCCCCCC=CC(=O)[O-]
REMARK SMILES IDX 5 1 6 2 7 3 8 4 9 5 10 6 11 7 4 8 3 9 2 10 1 11
REMARK H PARENT
REMARK Flexibility Score: inf
ROOT
ATOM      1  C   UNL     1     -43.020  14.234  -1.761  1.00  0.00     0.004 C 
ENDROOT
BRANCH   1   2
ATOM      2  C   UNL     1     -41.645  13.603  -2.041  1.00  0.00     0.027 C 
BRANCH   2   3
ATOM      3  C   UNL     1     -41.124  12.812  -0.875  1.00  0.00    -0.025 C 
ATOM      4  C   UNL     1     -40.842  13.392   0.296  1.00  0.00     0.020 C 
BRANCH   4   5
ATOM      5  C   UNL     1     -40.336  12.627   1.445  1.00  0.00     0.064 C 
ATOM      6  O   UNL     1     -40.978  12.635   2.527  1.00  0.00    -0.545 OA
ATOM      7  O   UNL     1     -39.158  11.893   1.356  1.00  0.00    -0.545 OA
ENDBRANCH   4   5
ENDBRANCH   2   3
ENDBRANCH   1   2
BRANCH   1   8
ATOM      8  C   UNL     1     -44.147  13.213  -1.504  1.00  0.00     0.000 C 
BRANCH   8   9
ATOM      9  C   UNL     1     -44.924  13.414  -0.189  1.00  0.00    -0.000 C 
BRANCH   9  10
ATOM     10  C   UNL     1     -44.403  12.595   1.005  1.00  0.00    -0.003 C 
ATOM     11  C   UNL     1     -44.082  11.146   0.638  1.00  0.00     0.004 C 
ENDBRANCH   9  10
ENDBRANCH   8   9
ENDBRANCH   1   8
TORSDOF 6
ENDMDL
MODEL 7
REMARK VINA RESULT:    -4.433      3.077      4.684
REMARK INTER + INTRA:          -6.607
REMARK INTER:                  -6.330
REMARK INTRA:                  -0.277
REMARK UNBOUND:                -0.620
REMARK SMILES CCCCCCC=CC(=O)[O-]
REMARK SMILES IDX 5 1 6 2 7 3 8 4 9 5 10 6 11 7 4 8 3 9 2 10 1 11
REMARK H PARENT
REMARK Flexibility Score: inf
ROOT
ATOM      1  C   UNL     1     -43.098  11.613   1.149  1.00  0.00     0.004 C 
ENDROOT
BRANCH   1   2
ATOM      2  C   UNL     1     -44.513  12.059   0.741  1.00  0.00     0.027 C 
BRANCH   2   3
ATOM      3  C   UNL     1     -44.517  13.369   0.005  1.00  0.00    -0.025 C 
ATOM      4  C   UNL     1     -44.198  13.445  -1.291  1.00  0.00     0.020 C 
BRANCH   4   5
ATOM      5  C   UNL     1     -44.203  14.720  -2.022  1.00  0.00     0.064 C 
ATOM      6  O   UNL     1     -45.002  15.630  -1.678  1.00  0.00    -0.545 OA
ATOM      7  O   UNL     1     -43.340  14.939  -3.090  1.00  0.00    -0.545 OA
ENDBRANCH   4   5
ENDBRANCH   2   3
ENDBRANCH   1   2
BRANCH   1   8
ATOM      8  C   UNL     1     -42.269  12.703   1.860  1.00  0.00     0.000 C 
BRANCH   8   9
ATOM      9  C   UNL     1     -40.747  12.614   1.640  1.00  0.00    -0.000 C 
BRANCH   9  10
ATOM     10  C   UNL     1     -39.942  13.808   2.183  1.00  0.00    -0.003 C 
ATOM     11  C   UNL     1     -39.267  14.622   1.078  1.00  0.00     0.004 C 
ENDBRANCH   9  10
ENDBRANCH   8   9
ENDBRANCH   1   8
TORSDOF 6
ENDMDL
MODEL 8
REMARK VINA RESULT:    -4.316      3.423      5.018
REMARK INTER + INTRA:          -6.450
REMARK INTER:                  -6.056
REMARK INTRA:                  -0.394
REMARK UNBOUND:                -0.620
REMARK SMILES CCCCCCC=CC(=O)[O-]
REMARK SMILES IDX 5 1 6 2 7 3 8 4 9 5 10 6 11 7 4 8 3 9 2 10 1 11
REMARK H PARENT
REMARK Flexibility Score: inf
ROOT
ATOM      1  C   UNL     1     -44.770  12.608   0.667  1.00  0.00     0.004 C 
ENDROOT
BRANCH   1   2
ATOM      2  C   UNL     1     -45.493  13.711  -0.125  1.00  0.00     0.027 C 
BRANCH   2   3
ATOM      3  C   UNL     1     -44.821  14.018  -1.434  1.00  0.00    -0.025 C 
ATOM      4  C   UNL     1     -44.581  15.275  -1.820  1.00  0.00     0.020 C 
BRANCH   4   5
ATOM      5  C   UNL     1     -43.920  15.586  -3.096  1.00  0.00     0.064 C 
ATOM      6  O   UNL     1     -44.516  16.298  -3.946  1.00  0.00    -0.545 OA
ATOM      7  O   UNL     1     -42.646  15.107  -3.380  1.00  0.00    -0.545 OA
ENDBRANCH   4   5
ENDBRANCH   2   3
ENDBRANCH   1   2
BRANCH   1   8
ATOM      8  C   UNL     1     -43.633  11.910  -0.107  1.00  0.00     0.000 C 
BRANCH   8   9
ATOM      9  C   UNL     1     -42.269  11.894   0.609  1.00  0.00    -0.000 C 
BRANCH   9  10
ATOM     10  C   UNL     1     -42.197  12.748   1.888  1.00  0.00    -0.003 C 
ATOM     11  C   UNL     1     -40.766  12.966   2.378  1.00  0.00     0.004 C 
ENDBRANCH   9  10
ENDBRANCH   8   9
ENDBRANCH   1   8
TORSDOF 6
ENDMDL
MODEL 9
REMARK VINA RESULT:    -4.228     11.106     12.127
REMARK INTER + INTRA:          -6.330
REMARK INTER:                  -5.614
REMARK INTRA:                  -0.717
REMARK UNBOUND:                -0.620
REMARK SMILES CCCCCCC=CC(=O)[O-]
REMARK SMILES IDX 5 1 6 2 7 3 8 4 9 5 10 6 11 7 4 8 3 9 2 10 1 11
REMARK H PARENT
REMARK Flexibility Score: inf
ROOT
ATOM      1  C   UNL     1     -41.955  24.625   2.387  1.00  0.00     0.004 C 
ENDROOT
BRANCH   1   2
ATOM      2  C   UNL     1     -41.906  26.015   1.727  1.00  0.00     0.027 C 
BRANCH   2   3
ATOM      3  C   UNL     1     -40.531  26.375   1.240  1.00  0.00    -0.025 C 
ATOM      4  C   UNL     1     -39.621  25.438   0.956  1.00  0.00     0.020 C 
BRANCH   4   5
ATOM      5  C   UNL     1     -38.274  25.779   0.475  1.00  0.00     0.064 C 
ATOM      6  O   UNL     1     -37.300  25.732   1.271  1.00  0.00    -0.545 OA
ATOM      7  O   UNL     1     -38.058  26.154  -0.846  1.00  0.00    -0.545 OA
ENDBRANCH   4   5
ENDBRANCH   2   3
ENDBRANCH   1   2
BRANCH   1   8
ATOM      8  C   UNL     1     -42.877  23.615   1.674  1.00  0.00     0.000 C 
BRANCH   8   9
ATOM      9  C   UNL     1     -43.173  23.933   0.195  1.00  0.00    -0.000 C 
BRANCH   9  10
ATOM     10  C   UNL     1     -42.314  23.156  -0.820  1.00  0.00    -0.003 C 
ATOM     11  C   UNL     1     -41.577  24.070  -1.798  1.00  0.00     0.004 C 
ENDBRANCH   9  10
ENDBRANCH   8   9
ENDBRANCH   1   8
TORSDOF 6
ENDMDL
