MODEL 1
REMARK VINA RESULT:    -5.108      0.000      0.000
REMARK INTER + INTRA:         -10.723
REMARK INTER:                  -8.990
REMARK INTRA:                  -1.733
REMARK UNBOUND:                -1.733
REMARK SMILES CCCCCCC=CCCCCCCCC(=O)[O-]
REMARK SMILES IDX 10 1 11 2 12 3 13 4 14 5 15 6 16 7 17 8 18 9 9 10 8 11 7 12
REMARK SMILES IDX 6 13 5 14 4 15 3 16 2 17 1 18
REMARK H PARENT
REMARK Flexibility Score: inf
ROOT
ATOM      1  C   UNL     1     -12.129 -38.403   3.103  1.00  0.00     0.004 C 
ENDROOT
BRANCH   1   2
ATOM      2  C   UNL     1     -11.591 -39.804   3.436  1.00  0.00     0.000 C 
BRANCH   2   3
ATOM      3  C   UNL     1     -10.853 -39.802   4.783  1.00  0.00     0.000 C 
BRANCH   3   4
ATOM      4  C   UNL     1     -11.407 -40.850   5.761  1.00  0.00     0.000 C 
BRANCH   4   5
ATOM      5  C   UNL     1     -12.015 -42.067   5.043  1.00  0.00     0.006 C 
BRANCH   5   6
ATOM      6  C   UNL     1     -10.969 -43.153   4.757  1.00  0.00     0.053 C 
BRANCH   6   7
ATOM      7  C   UNL     1     -10.403 -43.725   6.021  1.00  0.00     0.041 C 
ATOM      8  O   UNL     1     -11.148 -44.338   6.829  1.00  0.00    -0.550 OA
ATOM      9  O   UNL     1      -9.045 -43.607   6.292  1.00  0.00    -0.550 OA
ENDBRANCH   6   7
ENDBRANCH   5   6
ENDBRANCH   4   5
ENDBRANCH   3   4
ENDBRANCH   2   3
ENDBRANCH   1   2
BRANCH   1  10
ATOM     10  C   UNL     1     -13.664 -38.365   3.076  1.00  0.00     0.027 C 
BRANCH  10  11
ATOM     11  C   UNL     1     -14.270 -39.743   3.203  1.00  0.00    -0.031 C 
ATOM     12  C   UNL     1     -15.037 -40.157   4.229  1.00  0.00    -0.031 C 
BRANCH  12  13
ATOM     13  C   UNL     1     -15.465 -39.300   5.396  1.00  0.00     0.027 C 
BRANCH  13  14
ATOM     14  C   UNL     1     -14.841 -39.790   6.708  1.00  0.00     0.004 C 
BRANCH  14  15
ATOM     15  C   UNL     1     -14.692 -38.656   7.738  1.00  0.00     0.000 C 
BRANCH  15  16
ATOM     16  C   UNL     1     -15.737 -37.538   7.530  1.00  0.00    -0.000 C 
BRANCH  16  17
ATOM     17  C   UNL     1     -15.634 -36.401   8.559  1.00  0.00    -0.003 C 
ATOM     18  C   UNL     1     -14.556 -36.646   9.613  1.00  0.00     0.004 C 
ENDBRANCH  16  17
ENDBRANCH  15  16
ENDBRANCH  14  15
ENDBRANCH  13  14
ENDBRANCH  12  13
ENDBRANCH  10  11
ENDBRANCH   1  10
TORSDOF 13
ENDMDL
MODEL 2
REMARK VINA RESULT:    -5.035      3.194      6.027
REMARK INTER + INTRA:         -10.594
REMARK INTER:                  -8.781
REMARK INTRA:                  -1.814
REMARK UNBOUND:                -1.733
REMARK SMILES CCCCCCC=CCCCCCCCC(=O)[O-]
REMARK SMILES IDX 10 1 11 2 12 3 13 4 14 5 15 6 16 7 17 8 18 9 9 10 8 11 7 12
REMARK SMILES IDX 6 13 5 14 4 15 3 16 2 17 1 18
REMARK H PARENT
REMARK Flexibility Score: inf
ROOT
ATOM      1  C   UNL     1     -14.008 -40.243   3.481  1.00  0.00     0.004 C 
ENDROOT
BRANCH   1   2
ATOM      2  C   UNL     1     -15.405 -39.625   3.314  1.00  0.00     0.000 C 
BRANCH   2   3
ATOM      3  C   UNL     1     -15.676 -38.579   4.405  1.00  0.00     0.000 C 
BRANCH   3   4
ATOM      4  C   UNL     1     -15.499 -39.143   5.823  1.00  0.00     0.000 C 
BRANCH   4   5
ATOM      5  C   UNL     1     -15.710 -38.080   6.914  1.00  0.00     0.006 C 
BRANCH   5   6
ATOM      6  C   UNL     1     -14.825 -38.328   8.143  1.00  0.00     0.053 C 
BRANCH   6   7
ATOM      7  C   UNL     1     -14.862 -37.173   9.097  1.00  0.00     0.041 C 
ATOM      8  O   UNL     1     -14.460 -37.316  10.281  1.00  0.00    -0.550 OA
ATOM      9  O   UNL     1     -15.312 -35.930   8.668  1.00  0.00    -0.550 OA
ENDBRANCH   6   7
ENDBRANCH   5   6
ENDBRANCH   4   5
ENDBRANCH   3   4
ENDBRANCH   2   3
ENDBRANCH   1   2
BRANCH   1  10
ATOM     10  C   UNL     1     -14.073 -41.756   3.737  1.00  0.00     0.027 C 
BRANCH  10  11
ATOM     11  C   UNL     1     -12.713 -42.342   4.034  1.00  0.00    -0.031 C 
ATOM     12  C   UNL     1     -12.035 -42.175   5.186  1.00  0.00    -0.031 C 
BRANCH  12  13
ATOM     13  C   UNL     1     -12.543 -41.419   6.391  1.00  0.00     0.027 C 
BRANCH  13  14
ATOM     14  C   UNL     1     -11.843 -40.062   6.536  1.00  0.00     0.004 C 
BRANCH  14  15
ATOM     15  C   UNL     1     -10.600 -39.953   5.635  1.00  0.00     0.000 C 
BRANCH  15  16
ATOM     16  C   UNL     1     -10.753 -38.856   4.560  1.00  0.00    -0.000 C 
BRANCH  16  17
ATOM     17  C   UNL     1     -10.371 -39.323   3.146  1.00  0.00    -0.003 C 
ATOM     18  C   UNL     1     -10.852 -38.371   2.052  1.00  0.00     0.004 C 
ENDBRANCH  16  17
ENDBRANCH  15  16
ENDBRANCH  14  15
ENDBRANCH  13  14
ENDBRANCH  12  13
ENDBRANCH  10  11
ENDBRANCH   1  10
TORSDOF 13
ENDMDL
MODEL 3
REMARK VINA RESULT:    -5.033      1.517      2.189
REMARK INTER + INTRA:         -10.591
REMARK INTER:                  -9.062
REMARK INTRA:                  -1.529
REMARK UNBOUND:                -1.733
REMARK SMILES CCCCCCC=CCCCCCCCC(=O)[O-]
REMARK SMILES IDX 10 1 11 2 12 3 13 4 14 5 15 6 16 7 17 8 18 9 9 10 8 11 7 12
REMARK SMILES IDX 6 13 5 14 4 15 3 16 2 17 1 18
REMARK H PARENT
REMARK Flexibility Score: inf
ROOT
ATOM      1  C   UNL     1     -14.209 -37.598   2.238  1.00  0.00     0.004 C 
ENDROOT
BRANCH   1   2
ATOM      2  C   UNL     1     -12.948 -38.464   2.088  1.00  0.00     0.000 C 
BRANCH   2   3
ATOM      3  C   UNL     1     -11.768 -37.852   2.858  1.00  0.00     0.000 C 
BRANCH   3   4
ATOM      4  C   UNL     1     -10.897 -38.914   3.546  1.00  0.00     0.000 C 
BRANCH   4   5
ATOM      5  C   UNL     1     -11.651 -39.674   4.651  1.00  0.00     0.006 C 
BRANCH   5   6
ATOM      6  C   UNL     1     -11.467 -41.193   4.538  1.00  0.00     0.053 C 
BRANCH   6   7
ATOM      7  C   UNL     1     -10.026 -41.567   4.376  1.00  0.00     0.041 C 
ATOM      8  O   UNL     1      -9.223 -41.425   5.335  1.00  0.00    -0.550 OA
ATOM      9  O   UNL     1      -9.575 -42.102   3.175  1.00  0.00    -0.550 OA
ENDBRANCH   6   7
ENDBRANCH   5   6
ENDBRANCH   4   5
ENDBRANCH   3   4
ENDBRANCH   2   3
ENDBRANCH   1   2
BRANCH   1  10
ATOM     10  C   UNL     1     -15.419 -38.417   2.712  1.00  0.00     0.027 C 
BRANCH  10  11
ATOM     11  C   UNL     1     -15.024 -39.798   3.179  1.00  0.00    -0.031 C 
ATOM     12  C   UNL     1     -15.185 -40.264   4.432  1.00  0.00    -0.031 C 
BRANCH  12  13
ATOM     13  C   UNL     1     -15.835 -39.505   5.565  1.00  0.00     0.027 C 
BRANCH  13  14
ATOM     14  C   UNL     1     -14.816 -39.139   6.651  1.00  0.00     0.004 C 
BRANCH  14  15
ATOM     15  C   UNL     1     -15.348 -38.055   7.604  1.00  0.00     0.000 C 
BRANCH  15  16
ATOM     16  C   UNL     1     -14.690 -38.129   8.998  1.00  0.00    -0.000 C 
BRANCH  16  17
ATOM     17  C   UNL     1     -14.565 -36.764   9.693  1.00  0.00    -0.003 C 
ATOM     18  C   UNL     1     -15.366 -35.665   8.998  1.00  0.00     0.004 C 
ENDBRANCH  16  17
ENDBRANCH  15  16
ENDBRANCH  14  15
ENDBRANCH  13  14
ENDBRANCH  12  13
ENDBRANCH  10  11
ENDBRANCH   1  10
TORSDOF 13
ENDMDL
MODEL 4
REMARK VINA RESULT:    -4.990      1.448      2.503
REMARK INTER + INTRA:         -10.514
REMARK INTER:                  -9.087
REMARK INTRA:                  -1.428
REMARK UNBOUND:                -1.733
REMARK SMILES CCCCCCC=CCCCCCCCC(=O)[O-]
REMARK SMILES IDX 10 1 11 2 12 3 13 4 14 5 15 6 16 7 17 8 18 9 9 10 8 11 7 12
REMARK SMILES IDX 6 13 5 14 4 15 3 16 2 17 1 18
REMARK H PARENT
REMARK Flexibility Score: inf
ROOT
ATOM      1  C   UNL     1     -11.404 -41.140   3.260  1.00  0.00     0.004 C 
ENDROOT
BRANCH   1   2
ATOM      2  C   UNL     1     -12.660 -41.918   2.837  1.00  0.00     0.000 C 
BRANCH   2   3
ATOM      3  C   UNL     1     -12.890 -43.128   3.754  1.00  0.00     0.000 C 
BRANCH   3   4
ATOM      4  C   UNL     1     -11.808 -44.207   3.592  1.00  0.00     0.000 C 
BRANCH   4   5
ATOM      5  C   UNL     1     -11.314 -44.757   4.942  1.00  0.00     0.006 C 
BRANCH   5   6
ATOM      6  C   UNL     1     -10.935 -43.636   5.919  1.00  0.00     0.053 C 
BRANCH   6   7
ATOM      7  C   UNL     1      -9.452 -43.433   5.983  1.00  0.00     0.041 C 
ATOM      8  O   UNL     1      -8.936 -42.382   5.520  1.00  0.00    -0.550 OA
ATOM      9  O   UNL     1      -8.643 -44.390   6.583  1.00  0.00    -0.550 OA
ENDBRANCH   6   7
ENDBRANCH   5   6
ENDBRANCH   4   5
ENDBRANCH   3   4
ENDBRANCH   2   3
ENDBRANCH   1   2
BRANCH   1  10
ATOM     10  C   UNL     1     -11.752 -39.843   4.007  1.00  0.00     0.027 C 
BRANCH  10  11
ATOM     11  C   UNL     1     -11.391 -39.915   5.471  1.00  0.00    -0.031 C 
ATOM     12  C   UNL     1     -12.245 -40.234   6.462  1.00  0.00    -0.031 C 
BRANCH  12  13
ATOM     13  C   UNL     1     -13.692 -40.624   6.271  1.00  0.00     0.027 C 
BRANCH  13  14
ATOM     14  C   UNL     1     -14.497 -39.490   5.627  1.00  0.00     0.004 C 
BRANCH  14  15
ATOM     15  C   UNL     1     -15.525 -38.884   6.599  1.00  0.00     0.000 C 
BRANCH  15  16
ATOM     16  C   UNL     1     -14.902 -38.546   7.970  1.00  0.00    -0.000 C 
BRANCH  16  17
ATOM     17  C   UNL     1     -15.501 -37.292   8.626  1.00  0.00    -0.003 C 
ATOM     18  C   UNL     1     -14.534 -36.599   9.585  1.00  0.00     0.004 C 
ENDBRANCH  16  17
ENDBRANCH  15  16
ENDBRANCH  14  15
ENDBRANCH  13  14
ENDBRANCH  12  13
ENDBRANCH  10  11
ENDBRANCH   1  10
TORSDOF 13
ENDMDL
MODEL 5
REMARK VINA RESULT:    -4.955      1.432      2.167
REMARK INTER + INTRA:         -10.454
REMARK INTER:                  -9.330
REMARK INTRA:                  -1.124
REMARK UNBOUND:                -1.733
REMARK SMILES CCCCCCC=CCCCCCCCC(=O)[O-]
REMARK SMILES IDX 10 1 11 2 12 3 13 4 14 5 15 6 16 7 17 8 18 9 9 10 8 11 7 12
REMARK SMILES IDX 6 13 5 14 4 15 3 16 2 17 1 18
REMARK H PARENT
REMARK Flexibility Score: inf
ROOT
ATOM      1  C   UNL     1     -11.980 -40.210   5.479  1.00  0.00     0.004 C 
ENDROOT
BRANCH   1   2
ATOM      2  C   UNL     1     -12.361 -41.688   5.655  1.00  0.00     0.000 C 
BRANCH   2   3
ATOM      3  C   UNL     1     -11.209 -42.608   5.223  1.00  0.00     0.000 C 
BRANCH   3   4
ATOM      4  C   UNL     1      -9.934 -41.829   4.865  1.00  0.00     0.000 C 
BRANCH   4   5
ATOM      5  C   UNL     1      -8.678 -42.410   5.537  1.00  0.00     0.006 C 
BRANCH   5   6
ATOM      6  C   UNL     1      -8.877 -43.866   5.977  1.00  0.00     0.053 C 
BRANCH   6   7
ATOM      7  C   UNL     1      -8.081 -44.190   7.204  1.00  0.00     0.041 C 
ATOM      8  O   UNL     1      -8.663 -44.546   8.262  1.00  0.00    -0.550 OA
ATOM      9  O   UNL     1      -6.693 -44.127   7.171  1.00  0.00    -0.550 OA
ENDBRANCH   6   7
ENDBRANCH   5   6
ENDBRANCH   4   5
ENDBRANCH   3   4
ENDBRANCH   2   3
ENDBRANCH   1   2
BRANCH   1  10
ATOM     10  C   UNL     1     -12.655 -39.582   4.251  1.00  0.00     0.027 C 
BRANCH  10  11
ATOM     11  C   UNL     1     -13.851 -40.380   3.789  1.00  0.00    -0.031 C 
ATOM     12  C   UNL     1     -15.133 -40.088   4.080  1.00  0.00    -0.031 C 
BRANCH  12  13
ATOM     13  C   UNL     1     -15.593 -38.886   4.871  1.00  0.00     0.027 C 
BRANCH  13  14
ATOM     14  C   UNL     1     -15.775 -39.230   6.354  1.00  0.00     0.004 C 
BRANCH  14  15
ATOM     15  C   UNL     1     -15.554 -38.007   7.263  1.00  0.00     0.000 C 
BRANCH  15  16
ATOM     16  C   UNL     1     -14.676 -38.342   8.488  1.00  0.00    -0.000 C 
BRANCH  16  17
ATOM     17  C   UNL     1     -14.667 -37.239   9.558  1.00  0.00    -0.003 C 
ATOM     18  C   UNL     1     -15.274 -35.926   9.067  1.00  0.00     0.004 C 
ENDBRANCH  16  17
ENDBRANCH  15  16
ENDBRANCH  14  15
ENDBRANCH  13  14
ENDBRANCH  12  13
ENDBRANCH  10  11
ENDBRANCH   1  10
TORSDOF 13
ENDMDL
MODEL 6
REMARK VINA RESULT:    -4.949      3.125      4.517
REMARK INTER + INTRA:         -10.444
REMARK INTER:                  -9.054
REMARK INTRA:                  -1.390
REMARK UNBOUND:                -1.733
REMARK SMILES CCCCCCC=CCCCCCCCC(=O)[O-]
REMARK SMILES IDX 10 1 11 2 12 3 13 4 14 5 15 6 16 7 17 8 18 9 9 10 8 11 7 12
REMARK SMILES IDX 6 13 5 14 4 15 3 16 2 17 1 18
REMARK H PARENT
REMARK Flexibility Score: inf
ROOT
ATOM      1  C   UNL     1     -10.337 -40.567   4.828  1.00  0.00     0.004 C 
ENDROOT
BRANCH   1   2
ATOM      2  C   UNL     1     -10.238 -39.910   3.442  1.00  0.00     0.000 C 
BRANCH   2   3
ATOM      3  C   UNL     1     -11.018 -38.587   3.404  1.00  0.00     0.000 C 
BRANCH   3   4
ATOM      4  C   UNL     1     -11.158 -38.023   1.982  1.00  0.00     0.000 C 
BRANCH   4   5
ATOM      5  C   UNL     1     -12.535 -37.386   1.731  1.00  0.00     0.006 C 
BRANCH   5   6
ATOM      6  C   UNL     1     -13.630 -38.010   2.608  1.00  0.00     0.053 C 
BRANCH   6   7
ATOM      7  C   UNL     1     -14.582 -38.839   1.802  1.00  0.00     0.041 C 
ATOM      8  O   UNL     1     -14.231 -39.300   0.684  1.00  0.00    -0.550 OA
ATOM      9  O   UNL     1     -15.847 -39.128   2.299  1.00  0.00    -0.550 OA
ENDBRANCH   6   7
ENDBRANCH   5   6
ENDBRANCH   4   5
ENDBRANCH   3   4
ENDBRANCH   2   3
ENDBRANCH   1   2
BRANCH   1  10
ATOM     10  C   UNL     1     -11.751 -41.087   5.120  1.00  0.00     0.027 C 
BRANCH  10  11
ATOM     11  C   UNL     1     -12.278 -40.592   6.446  1.00  0.00    -0.031 C 
ATOM     12  C   UNL     1     -13.492 -40.041   6.637  1.00  0.00    -0.031 C 
BRANCH  12  13
ATOM     13  C   UNL     1     -14.549 -39.875   5.571  1.00  0.00     0.027 C 
BRANCH  13  14
ATOM     14  C   UNL     1     -15.609 -38.848   5.989  1.00  0.00     0.004 C 
BRANCH  14  15
ATOM     15  C   UNL     1     -15.388 -38.340   7.425  1.00  0.00     0.000 C 
BRANCH  15  16
ATOM     16  C   UNL     1     -15.938 -36.913   7.630  1.00  0.00    -0.000 C 
BRANCH  16  17
ATOM     17  C   UNL     1     -15.358 -36.200   8.862  1.00  0.00    -0.003 C 
ATOM     18  C   UNL     1     -14.574 -37.138   9.779  1.00  0.00     0.004 C 
ENDBRANCH  16  17
ENDBRANCH  15  16
ENDBRANCH  14  15
ENDBRANCH  13  14
ENDBRANCH  12  13
ENDBRANCH  10  11
ENDBRANCH   1  10
TORSDOF 13
ENDMDL
MODEL 7
REMARK VINA RESULT:    -4.898      3.309      6.320
REMARK INTER + INTRA:         -10.353
REMARK INTER:                  -8.741
REMARK INTRA:                  -1.612
REMARK UNBOUND:                -1.733
REMARK SMILES CCCCCCC=CCCCCCCCC(=O)[O-]
REMARK SMILES IDX 10 1 11 2 12 3 13 4 14 5 15 6 16 7 17 8 18 9 9 10 8 11 7 12
REMARK SMILES IDX 6 13 5 14 4 15 3 16 2 17 1 18
REMARK H PARENT
REMARK Flexibility Score: inf
ROOT
ATOM      1  C   UNL     1     -15.374 -39.329   3.115  1.00  0.00     0.004 C 
ENDROOT
BRANCH   1   2
ATOM      2  C   UNL     1     -15.360 -40.134   4.424  1.00  0.00     0.000 C 
BRANCH   2   3
ATOM      3  C   UNL     1     -15.463 -39.203   5.642  1.00  0.00     0.000 C 
BRANCH   3   4
ATOM      4  C   UNL     1     -14.462 -39.566   6.750  1.00  0.00     0.000 C 
BRANCH   4   5
ATOM      5  C   UNL     1     -14.721 -38.796   8.057  1.00  0.00     0.006 C 
BRANCH   5   6
ATOM      6  C   UNL     1     -15.555 -37.528   7.826  1.00  0.00     0.053 C 
BRANCH   6   7
ATOM      7  C   UNL     1     -15.352 -36.524   8.919  1.00  0.00     0.041 C 
ATOM      8  O   UNL     1     -14.866 -36.881  10.025  1.00  0.00    -0.550 OA
ATOM      9  O   UNL     1     -15.671 -35.189   8.707  1.00  0.00    -0.550 OA
ENDBRANCH   6   7
ENDBRANCH   5   6
ENDBRANCH   4   5
ENDBRANCH   3   4
ENDBRANCH   2   3
ENDBRANCH   1   2
BRANCH   1  10
ATOM     10  C   UNL     1     -14.563 -38.029   3.228  1.00  0.00     0.027 C 
BRANCH  10  11
ATOM     11  C   UNL     1     -13.297 -38.076   2.407  1.00  0.00    -0.031 C 
ATOM     12  C   UNL     1     -12.138 -38.632   2.807  1.00  0.00    -0.031 C 
BRANCH  12  13
ATOM     13  C   UNL     1     -11.924 -39.348   4.120  1.00  0.00     0.027 C 
BRANCH  13  14
ATOM     14  C   UNL     1     -11.367 -40.760   3.903  1.00  0.00     0.004 C 
BRANCH  14  15
ATOM     15  C   UNL     1     -12.186 -41.828   4.649  1.00  0.00     0.000 C 
BRANCH  15  16
ATOM     16  C   UNL     1     -11.685 -42.042   6.094  1.00  0.00    -0.000 C 
BRANCH  16  17
ATOM     17  C   UNL     1     -10.972 -43.387   6.304  1.00  0.00    -0.003 C 
ATOM     18  C   UNL     1     -11.269 -44.400   5.199  1.00  0.00     0.004 C 
ENDBRANCH  16  17
ENDBRANCH  15  16
ENDBRANCH  14  15
ENDBRANCH  13  14
ENDBRANCH  12  13
ENDBRANCH  10  11
ENDBRANCH   1  10
TORSDOF 13
ENDMDL
MODEL 8
REMARK VINA RESULT:    -4.892      1.902      2.111
REMARK INTER + INTRA:         -10.342
REMARK INTER:                  -8.538
REMARK INTRA:                  -1.803
REMARK UNBOUND:                -1.733
REMARK SMILES CCCCCCC=CCCCCCCCC(=O)[O-]
REMARK SMILES IDX 10 1 11 2 12 3 13 4 14 5 15 6 16 7 17 8 18 9 9 10 8 11 7 12
REMARK SMILES IDX 6 13 5 14 4 15 3 16 2 17 1 18
REMARK H PARENT
REMARK Flexibility Score: inf
ROOT
ATOM      1  C   UNL     1     -11.605 -39.064   2.871  1.00  0.00     0.004 C 
ENDROOT
BRANCH   1   2
ATOM      2  C   UNL     1     -10.586 -39.089   4.021  1.00  0.00     0.000 C 
BRANCH   2   3
ATOM      3  C   UNL     1      -9.830 -40.426   4.055  1.00  0.00     0.000 C 
BRANCH   3   4
ATOM      4  C   UNL     1     -10.221 -41.296   5.260  1.00  0.00     0.000 C 
BRANCH   4   5
ATOM      5  C   UNL     1     -10.310 -42.791   4.908  1.00  0.00     0.006 C 
BRANCH   5   6
ATOM      6  C   UNL     1     -11.706 -43.185   4.407  1.00  0.00     0.053 C 
BRANCH   6   7
ATOM      7  C   UNL     1     -11.720 -43.417   2.927  1.00  0.00     0.041 C 
ATOM      8  O   UNL     1     -12.325 -42.616   2.167  1.00  0.00    -0.550 OA
ATOM      9  O   UNL     1     -11.039 -44.499   2.384  1.00  0.00    -0.550 OA
ENDBRANCH   6   7
ENDBRANCH   5   6
ENDBRANCH   4   5
ENDBRANCH   3   4
ENDBRANCH   2   3
ENDBRANCH   1   2
BRANCH   1  10
ATOM     10  C   UNL     1     -13.018 -38.711   3.359  1.00  0.00     0.027 C 
BRANCH  10  11
ATOM     11  C   UNL     1     -13.864 -39.941   3.587  1.00  0.00    -0.031 C 
ATOM     12  C   UNL     1     -14.072 -40.524   4.783  1.00  0.00    -0.031 C 
BRANCH  12  13
ATOM     13  C   UNL     1     -13.537 -40.017   6.102  1.00  0.00     0.027 C 
BRANCH  13  14
ATOM     14  C   UNL     1     -14.675 -39.676   7.072  1.00  0.00     0.004 C 
BRANCH  14  15
ATOM     15  C   UNL     1     -15.708 -38.726   6.441  1.00  0.00     0.000 C 
BRANCH  15  16
ATOM     16  C   UNL     1     -15.849 -37.408   7.233  1.00  0.00    -0.000 C 
BRANCH  16  17
ATOM     17  C   UNL     1     -15.151 -37.437   8.602  1.00  0.00    -0.003 C 
ATOM     18  C   UNL     1     -15.105 -36.067   9.277  1.00  0.00     0.004 C 
ENDBRANCH  16  17
ENDBRANCH  15  16
ENDBRANCH  14  15
ENDBRANCH  13  14
ENDBRANCH  12  13
ENDBRANCH  10  11
ENDBRANCH   1  10
TORSDOF 13
ENDMDL
MODEL 9
REMARK VINA RESULT:    -4.815      1.532      2.207
REMARK INTER + INTRA:         -10.207
REMARK INTER:                  -9.033
REMARK INTRA:                  -1.174
REMARK UNBOUND:                -1.733
REMARK SMILES CCCCCCC=CCCCCCCCC(=O)[O-]
REMARK SMILES IDX 10 1 11 2 12 3 13 4 14 5 15 6 16 7 17 8 18 9 9 10 8 11 7 12
REMARK SMILES IDX 6 13 5 14 4 15 3 16 2 17 1 18
REMARK H PARENT
REMARK Flexibility Score: inf
ROOT
ATOM      1  C   UNL     1     -11.908 -39.964   5.727  1.00  0.00     0.004 C 
ENDROOT
BRANCH   1   2
ATOM      2  C   UNL     1     -11.430 -40.190   4.284  1.00  0.00     0.000 C 
BRANCH   2   3
ATOM      3  C   UNL     1      -9.959 -40.632   4.256  1.00  0.00     0.000 C 
BRANCH   3   4
ATOM      4  C   UNL     1      -9.729 -41.968   4.980  1.00  0.00     0.000 C 
BRANCH   4   5
ATOM      5  C   UNL     1      -9.041 -43.014   4.086  1.00  0.00     0.006 C 
BRANCH   5   6
ATOM      6  C   UNL     1     -10.049 -43.809   3.244  1.00  0.00     0.053 C 
BRANCH   6   7
ATOM      7  C   UNL     1     -11.165 -44.353   4.082  1.00  0.00     0.041 C 
ATOM      8  O   UNL     1     -10.917 -45.125   5.045  1.00  0.00    -0.550 OA
ATOM      9  O   UNL     1     -12.478 -43.982   3.820  1.00  0.00    -0.550 OA
ENDBRANCH   6   7
ENDBRANCH   5   6
ENDBRANCH   4   5
ENDBRANCH   3   4
ENDBRANCH   2   3
ENDBRANCH   1   2
BRANCH   1  10
ATOM     10  C   UNL     1     -13.186 -40.756   6.043  1.00  0.00     0.027 C 
BRANCH  10  11
ATOM     11  C   UNL     1     -13.997 -41.046   4.803  1.00  0.00    -0.031 C 
ATOM     12  C   UNL     1     -14.932 -40.227   4.283  1.00  0.00    -0.031 C 
BRANCH  12  13
ATOM     13  C   UNL     1     -15.287 -38.861   4.821  1.00  0.00     0.027 C 
BRANCH  13  14
ATOM     14  C   UNL     1     -16.091 -38.964   6.123  1.00  0.00     0.004 C 
BRANCH  14  15
ATOM     15  C   UNL     1     -15.754 -37.827   7.104  1.00  0.00     0.000 C 
BRANCH  15  16
ATOM     16  C   UNL     1     -14.899 -38.316   8.292  1.00  0.00    -0.000 C 
BRANCH  16  17
ATOM     17  C   UNL     1     -14.568 -37.210   9.307  1.00  0.00    -0.003 C 
ATOM     18  C   UNL     1     -15.316 -35.906   9.035  1.00  0.00     0.004 C 
ENDBRANCH  16  17
ENDBRANCH  15  16
ENDBRANCH  14  15
ENDBRANCH  13  14
ENDBRANCH  12  13
ENDBRANCH  10  11
ENDBRANCH   1  10
TORSDOF 13
ENDMDL
