MODEL 1
REMARK VINA RESULT:    -2.143      0.000      0.000
REMARK INTER + INTRA:          -2.143
REMARK INTER:                  -2.143
REMARK INTRA:                   0.000
REMARK UNBOUND:                 0.000
REMARK SMILES CC(=O)[O-]
REMARK SMILES IDX 1 1 2 2 3 3 4 4
REMARK H PARENT
REMARK Flexibility Score: inf
ROOT
ATOM      1  C   UNL     1       4.526   0.341   0.185  1.00  0.00     0.063 C 
ATOM      2  C   UNL     1       4.418  -0.167  -1.213  1.00  0.00     0.038 C 
ATOM      3  O   UNL     1       4.774  -1.343  -1.486  1.00  0.00    -0.550 OA
ATOM      4  O   UNL     1       3.923   0.654  -2.218  1.00  0.00    -0.550 OA
ENDROOT
TORSDOF 0
ENDMDL
MODEL 2
REMARK VINA RESULT:    -2.131      8.152      8.514
REMARK INTER + INTRA:          -2.131
REMARK INTER:                  -2.131
REMARK INTRA:                   0.000
REMARK UNBOUND:                 0.000
REMARK SMILES CC(=O)[O-]
REMARK SMILES IDX 1 1 2 2 3 3 4 4
REMARK H PARENT
REMARK Flexibility Score: inf
ROOT
ATOM      1  C   UNL     1      -4.505   1.387   0.339  1.00  0.00     0.063 C 
ATOM      2  C   UNL     1      -3.371   2.342   0.186  1.00  0.00     0.038 C 
ATOM      3  O   UNL     1      -2.994   2.695  -0.962  1.00  0.00    -0.550 OA
ATOM      4  O   UNL     1      -2.726   2.847   1.308  1.00  0.00    -0.550 OA
ENDROOT
TORSDOF 0
ENDMDL
MODEL 3
REMARK VINA RESULT:    -2.031      1.941      2.185
REMARK INTER + INTRA:          -2.031
REMARK INTER:                  -2.031
REMARK INTRA:                   0.000
REMARK UNBOUND:                 0.000
REMARK SMILES CC(=O)[O-]
REMARK SMILES IDX 1 1 2 2 3 3 4 4
REMARK H PARENT
REMARK Flexibility Score: inf
ROOT
ATOM      1  C   UNL     1       4.526  -0.379  -1.172  1.00  0.00     0.063 C 
ATOM      2  C   UNL     1       4.561   0.669  -0.112  1.00  0.00     0.038 C 
ATOM      3  O   UNL     1       4.643   0.337   1.099  1.00  0.00    -0.550 OA
ATOM      4  O   UNL     1       4.505   2.014  -0.456  1.00  0.00    -0.550 OA
ENDROOT
TORSDOF 0
ENDMDL
MODEL 4
REMARK VINA RESULT:    -2.003      1.832      2.003
REMARK INTER + INTRA:          -2.003
REMARK INTER:                  -2.003
REMARK INTRA:                   0.000
REMARK UNBOUND:                 0.000
REMARK SMILES CC(=O)[O-]
REMARK SMILES IDX 1 1 2 2 3 3 4 4
REMARK H PARENT
REMARK Flexibility Score: inf
ROOT
ATOM      1  C   UNL     1       4.405   2.447  -1.613  1.00  0.00     0.063 C 
ATOM      2  C   UNL     1       3.820   1.218  -2.221  1.00  0.00     0.038 C 
ATOM      3  O   UNL     1       4.140   0.083  -1.781  1.00  0.00    -0.550 OA
ATOM      4  O   UNL     1       2.920   1.319  -3.274  1.00  0.00    -0.550 OA
ENDROOT
TORSDOF 0
ENDMDL
MODEL 5
REMARK VINA RESULT:    -1.982      1.782      2.037
REMARK INTER + INTRA:          -1.982
REMARK INTER:                  -1.982
REMARK INTRA:                   0.000
REMARK UNBOUND:                 0.000
REMARK SMILES CC(=O)[O-]
REMARK SMILES IDX 1 1 2 2 3 3 4 4
REMARK H PARENT
REMARK Flexibility Score: inf
ROOT
ATOM      1  C   UNL     1       4.198   1.758  -1.587  1.00  0.00     0.063 C 
ATOM      2  C   UNL     1       4.326   0.522  -0.763  1.00  0.00     0.038 C 
ATOM      3  O   UNL     1       4.395   0.605   0.491  1.00  0.00    -0.550 OA
ATOM      4  O   UNL     1       4.367  -0.725  -1.374  1.00  0.00    -0.550 OA
ENDROOT
TORSDOF 0
ENDMDL
MODEL 6
REMARK VINA RESULT:    -1.965      8.389      8.588
REMARK INTER + INTRA:          -1.965
REMARK INTER:                  -1.965
REMARK INTRA:                   0.000
REMARK UNBOUND:                 0.000
REMARK SMILES CC(=O)[O-]
REMARK SMILES IDX 1 1 2 2 3 3 4 4
REMARK H PARENT
REMARK Flexibility Score: inf
ROOT
ATOM      1  C   UNL     1      -3.413   3.052  -1.111  1.00  0.00     0.063 C 
ATOM      2  C   UNL     1      -3.474   2.354   0.205  1.00  0.00     0.038 C 
ATOM      3  O   UNL     1      -4.196   1.332   0.344  1.00  0.00    -0.550 OA
ATOM      4  O   UNL     1      -2.735   2.828   1.282  1.00  0.00    -0.550 OA
ENDROOT
TORSDOF 0
ENDMDL
MODEL 7
REMARK VINA RESULT:    -1.886      7.820      8.333
REMARK INTER + INTRA:          -1.886
REMARK INTER:                  -1.886
REMARK INTRA:                   0.000
REMARK UNBOUND:                 0.000
REMARK SMILES CC(=O)[O-]
REMARK SMILES IDX 1 1 2 2 3 3 4 4
REMARK H PARENT
REMARK Flexibility Score: inf
ROOT
ATOM      1  C   UNL     1       2.686   6.412   5.646  1.00  0.00     0.063 C 
ATOM      2  C   UNL     1       3.336   5.750   4.480  1.00  0.00     0.038 C 
ATOM      3  O   UNL     1       4.592   5.700   4.402  1.00  0.00    -0.550 OA
ATOM      4  O   UNL     1       2.561   5.184   3.475  1.00  0.00    -0.550 OA
ENDROOT
TORSDOF 0
ENDMDL
MODEL 8
REMARK VINA RESULT:    -1.826      8.782      9.031
REMARK INTER + INTRA:          -1.826
REMARK INTER:                  -1.826
REMARK INTRA:                   0.000
REMARK UNBOUND:                 0.000
REMARK SMILES CC(=O)[O-]
REMARK SMILES IDX 1 1 2 2 3 3 4 4
REMARK H PARENT
REMARK Flexibility Score: inf
ROOT
ATOM      1  C   UNL     1      -3.372   2.316   0.319  1.00  0.00     0.063 C 
ATOM      2  C   UNL     1      -3.323   3.593   1.087  1.00  0.00     0.038 C 
ATOM      3  O   UNL     1      -2.904   3.599   2.274  1.00  0.00    -0.550 OA
ATOM      4  O   UNL     1      -3.737   4.780   0.496  1.00  0.00    -0.550 OA
ENDROOT
TORSDOF 0
ENDMDL
MODEL 9
REMARK VINA RESULT:    -1.761     10.063     10.518
REMARK INTER + INTRA:          -1.761
REMARK INTER:                  -1.761
REMARK INTRA:                   0.000
REMARK UNBOUND:                 0.000
REMARK SMILES CC(=O)[O-]
REMARK SMILES IDX 1 1 2 2 3 3 4 4
REMARK H PARENT
REMARK Flexibility Score: inf
ROOT
ATOM      1  C   UNL     1      -5.404   3.150   2.593  1.00  0.00     0.063 C 
ATOM      2  C   UNL     1      -4.163   3.878   2.980  1.00  0.00     0.038 C 
ATOM      3  O   UNL     1      -4.155   4.612   4.003  1.00  0.00    -0.550 OA
ATOM      4  O   UNL     1      -3.010   3.751   2.215  1.00  0.00    -0.550 OA
ENDROOT
TORSDOF 0
ENDMDL
