MODEL 1
REMARK VINA RESULT:    -4.582      0.000      0.000
REMARK INTER + INTRA:          -9.861
REMARK INTER:                  -6.457
REMARK INTRA:                  -3.404
REMARK UNBOUND:                -3.404
REMARK SMILES C=C(CC[C@@H](C(=O)[O-])[C@@H]1[C@@H](O)C[C@@]2(C)C3=C(CC[C@@]12C)[C@]1(C)CC[C@@H](O)C(C)(C)[C@@H]1CC3)C(C)C
REMARK SMILES IDX 4 1 5 2 6 3 7 4 8 5 9 6 10 7 19 8 12 9 13 10 18 11 20 12
REMARK SMILES IDX 14 13 15 14 17 15 16 16 32 17 21 18 31 19 30 20 23 21 22 22
REMARK SMILES IDX 27 23 24 24 25 25 28 26 29 27 11 28 26 30 3 32 2 33 1 34
REMARK SMILES IDX 33 35 34 36 35 37
REMARK H PARENT 11 29 26 31
REMARK Flexibility Score: inf
ROOT
ATOM      1  C   UNL     1      18.463 -12.536  41.863  1.00  0.00     0.014 C 
ENDROOT
BRANCH   1   2
ATOM      2  C   UNL     1      19.885 -13.006  42.273  1.00  0.00     0.042 C 
BRANCH   2   3
ATOM      3  C   UNL     1      20.672 -11.922  42.966  1.00  0.00     0.045 C 
ATOM      4  O   UNL     1      21.840 -11.636  42.600  1.00  0.00    -0.550 OA
ATOM      5  O   UNL     1      20.108 -11.235  44.034  1.00  0.00    -0.550 OA
ENDBRANCH   2   3
BRANCH   2   6
ATOM      6  C   UNL     1      19.938 -14.429  42.958  1.00  0.00     0.033 C 
ATOM      7  C   UNL     1      20.647 -14.548  44.323  1.00  0.00     0.119 C 
ATOM      8  C   UNL     1      20.580 -15.564  42.094  1.00  0.00    -0.017 C 
ATOM      9  C   UNL     1      21.028 -16.025  44.483  1.00  0.00     0.043 C 
ATOM     10  C   UNL     1      20.727 -16.752  43.130  1.00  0.00    -0.003 C 
ATOM     11  C   UNL     1      19.634 -15.893  40.891  1.00  0.00     0.012 C 
ATOM     12  C   UNL     1      21.974 -15.136  41.539  1.00  0.00     0.013 C 
ATOM     13  C   UNL     1      21.908 -17.735  42.868  1.00  0.00     0.017 C 
ATOM     14  C   UNL     1      19.438 -17.618  43.125  1.00  0.00    -0.064 C 
ATOM     15  C   UNL     1      19.472 -17.389  40.660  1.00  0.00     0.032 C 
ATOM     16  C   UNL     1      18.964 -18.077  41.926  1.00  0.00    -0.064 C 
ATOM     17  C   UNL     1      18.833 -18.079  44.428  1.00  0.00     0.032 C 
ATOM     18  C   UNL     1      17.962 -19.262  41.797  1.00  0.00    -0.008 C 
ATOM     19  C   UNL     1      17.540 -18.862  44.273  1.00  0.00     0.009 C 
ATOM     20  C   UNL     1      17.681 -19.960  43.193  1.00  0.00     0.007 C 
ATOM     21  C   UNL     1      16.634 -18.717  41.199  1.00  0.00     0.014 C 
ATOM     22  C   UNL     1      18.622 -20.275  40.815  1.00  0.00     0.016 C 
ATOM     23  C   UNL     1      16.458 -20.983  43.208  1.00  0.00    -0.006 C 
ATOM     24  C   UNL     1      15.493 -19.741  41.166  1.00  0.00     0.033 C 
ATOM     25  C   UNL     1      15.205 -20.333  42.552  1.00  0.00     0.120 C 
ATOM     26  C   UNL     1      16.080 -21.381  44.666  1.00  0.00     0.014 C 
ATOM     27  C   UNL     1      16.831 -22.324  42.493  1.00  0.00     0.014 C 
BRANCH   7  28
ATOM     28  O   UNL     1      19.858 -14.102  45.396  1.00  0.00    -0.393 OA
ATOM     29  H   UNL     1      19.704 -14.872  46.003  1.00  0.00     0.210 HD
ENDBRANCH   7  28
BRANCH  25  30
ATOM     30  O   UNL     1      14.173 -21.283  42.443  1.00  0.00    -0.393 OA
ATOM     31  H   UNL     1      13.503 -20.918  41.804  1.00  0.00     0.210 HD
ENDBRANCH  25  30
ENDBRANCH   2   6
ENDBRANCH   1   2
BRANCH   1  32
ATOM     32  C   UNL     1      17.279 -13.043  42.718  1.00  0.00     0.031 C 
BRANCH  32  33
ATOM     33  C   UNL     1      16.599 -14.284  42.164  1.00  0.00    -0.075 C 
ATOM     34  C   UNL     1      16.346 -14.363  40.842  1.00  0.00     0.008 C 
BRANCH  33  35
ATOM     35  C   UNL     1      16.378 -15.490  43.069  1.00  0.00     0.008 C 
ATOM     36  C   UNL     1      16.652 -15.180  44.551  1.00  0.00     0.012 C 
ATOM     37  C   UNL     1      14.959 -16.038  42.883  1.00  0.00     0.012 C 
ENDBRANCH  33  35
ENDBRANCH  32  33
ENDBRANCH   1  32
TORSDOF 8
ENDMDL
MODEL 2
REMARK VINA RESULT:    -4.496      3.145      8.569
REMARK INTER + INTRA:          -9.740
REMARK INTER:                  -6.413
REMARK INTRA:                  -3.327
REMARK UNBOUND:                -3.404
REMARK SMILES C=C(CC[C@@H](C(=O)[O-])[C@@H]1[C@@H](O)C[C@@]2(C)C3=C(CC[C@@]12C)[C@]1(C)CC[C@@H](O)C(C)(C)[C@@H]1CC3)C(C)C
REMARK SMILES IDX 4 1 5 2 6 3 7 4 8 5 9 6 10 7 19 8 12 9 13 10 18 11 20 12
REMARK SMILES IDX 14 13 15 14 17 15 16 16 32 17 21 18 31 19 30 20 23 21 22 22
REMARK SMILES IDX 27 23 24 24 25 25 28 26 29 27 11 28 26 30 3 32 2 33 1 34
REMARK SMILES IDX 33 35 34 36 35 37
REMARK H PARENT 11 29 26 31
REMARK Flexibility Score: inf
ROOT
ATOM      1  C   UNL     1      11.810 -22.986  41.925  1.00  0.00     0.014 C 
ENDROOT
BRANCH   1   2
ATOM      2  C   UNL     1      10.998 -21.665  41.867  1.00  0.00     0.042 C 
BRANCH   2   3
ATOM      3  C   UNL     1       9.615 -21.811  42.450  1.00  0.00     0.045 C 
ATOM      4  O   UNL     1       9.443 -22.320  43.587  1.00  0.00    -0.550 OA
ATOM      5  O   UNL     1       8.510 -21.391  41.719  1.00  0.00    -0.550 OA
ENDBRANCH   2   3
BRANCH   2   6
ATOM      6  C   UNL     1      11.795 -20.379  42.324  1.00  0.00     0.033 C 
ATOM      7  C   UNL     1      11.130 -19.445  43.356  1.00  0.00     0.119 C 
ATOM      8  C   UNL     1      12.237 -19.420  41.170  1.00  0.00    -0.017 C 
ATOM      9  C   UNL     1      11.815 -18.081  43.208  1.00  0.00     0.043 C 
ATOM     10  C   UNL     1      12.750 -18.143  41.954  1.00  0.00    -0.003 C 
ATOM     11  C   UNL     1      13.346 -20.118  40.315  1.00  0.00     0.012 C 
ATOM     12  C   UNL     1      11.036 -19.057  40.243  1.00  0.00     0.013 C 
ATOM     13  C   UNL     1      12.597 -16.784  41.204  1.00  0.00     0.017 C 
ATOM     14  C   UNL     1      14.263 -18.291  42.271  1.00  0.00    -0.064 C 
ATOM     15  C   UNL     1      14.503 -19.189  39.976  1.00  0.00     0.032 C 
ATOM     16  C   UNL     1      15.116 -18.608  41.248  1.00  0.00    -0.064 C 
ATOM     17  C   UNL     1      14.787 -17.924  43.637  1.00  0.00     0.032 C 
ATOM     18  C   UNL     1      16.656 -18.386  41.318  1.00  0.00    -0.008 C 
ATOM     19  C   UNL     1      16.273 -18.180  43.824  1.00  0.00     0.009 C 
ATOM     20  C   UNL     1      17.089 -17.619  42.637  1.00  0.00     0.007 C 
ATOM     21  C   UNL     1      17.354 -19.774  41.258  1.00  0.00     0.014 C 
ATOM     22  C   UNL     1      17.023 -17.541  40.061  1.00  0.00     0.016 C 
ATOM     23  C   UNL     1      18.656 -17.605  42.932  1.00  0.00    -0.006 C 
ATOM     24  C   UNL     1      18.870 -19.725  41.481  1.00  0.00     0.033 C 
ATOM     25  C   UNL     1      19.239 -19.043  42.806  1.00  0.00     0.120 C 
ATOM     26  C   UNL     1      18.949 -17.098  44.376  1.00  0.00     0.014 C 
ATOM     27  C   UNL     1      19.405 -16.613  41.982  1.00  0.00     0.014 C 
BRANCH   7  28
ATOM     28  O   UNL     1      11.221 -19.925  44.674  1.00  0.00    -0.393 OA
ATOM     29  H   UNL     1      11.001 -20.892  44.663  1.00  0.00     0.210 HD
ENDBRANCH   7  28
BRANCH  25  30
ATOM     30  O   UNL     1      20.640 -19.005  42.930  1.00  0.00    -0.393 OA
ATOM     31  H   UNL     1      21.017 -19.525  42.170  1.00  0.00     0.210 HD
ENDBRANCH  25  30
ENDBRANCH   2   6
ENDBRANCH   1   2
BRANCH   1  32
ATOM     32  C   UNL     1      12.850 -23.125  43.060  1.00  0.00     0.031 C 
BRANCH  32  33
ATOM     33  C   UNL     1      14.261 -22.720  42.664  1.00  0.00    -0.075 C 
ATOM     34  C   UNL     1      14.754 -23.125  41.477  1.00  0.00     0.008 C 
BRANCH  33  35
ATOM     35  C   UNL     1      15.026 -21.718  43.521  1.00  0.00     0.008 C 
ATOM     36  C   UNL     1      14.337 -21.439  44.868  1.00  0.00     0.012 C 
ATOM     37  C   UNL     1      16.465 -22.199  43.737  1.00  0.00     0.012 C 
ENDBRANCH  33  35
ENDBRANCH  32  33
ENDBRANCH   1  32
TORSDOF 8
ENDMDL
MODEL 3
REMARK VINA RESULT:    -4.353      1.846      7.035
REMARK INTER + INTRA:          -9.539
REMARK INTER:                  -6.213
REMARK INTRA:                  -3.326
REMARK UNBOUND:                -3.404
REMARK SMILES C=C(CC[C@@H](C(=O)[O-])[C@@H]1[C@@H](O)C[C@@]2(C)C3=C(CC[C@@]12C)[C@]1(C)CC[C@@H](O)C(C)(C)[C@@H]1CC3)C(C)C
REMARK SMILES IDX 4 1 5 2 6 3 7 4 8 5 9 6 10 7 19 8 12 9 13 10 18 11 20 12
REMARK SMILES IDX 14 13 15 14 17 15 16 16 32 17 21 18 31 19 30 20 23 21 22 22
REMARK SMILES IDX 27 23 24 24 25 25 28 26 29 27 11 28 26 30 3 32 2 33 1 34
REMARK SMILES IDX 33 35 34 36 35 37
REMARK H PARENT 11 29 26 31
REMARK Flexibility Score: inf
ROOT
ATOM      1  C   UNL     1      15.070 -18.111  40.137  1.00  0.00     0.014 C 
ENDROOT
BRANCH   1   2
ATOM      2  C   UNL     1      14.829 -18.665  41.566  1.00  0.00     0.042 C 
BRANCH   2   3
ATOM      3  C   UNL     1      14.012 -19.932  41.563  1.00  0.00     0.045 C 
ATOM      4  O   UNL     1      14.291 -20.880  40.786  1.00  0.00    -0.550 OA
ATOM      5  O   UNL     1      12.926 -20.055  42.422  1.00  0.00    -0.550 OA
ENDBRANCH   2   3
BRANCH   2   6
ATOM      6  C   UNL     1      16.110 -18.684  42.492  1.00  0.00     0.033 C 
ATOM      7  C   UNL     1      16.540 -20.034  43.102  1.00  0.00     0.119 C 
ATOM      8  C   UNL     1      16.066 -17.709  43.715  1.00  0.00    -0.017 C 
ATOM      9  C   UNL     1      17.405 -19.698  44.323  1.00  0.00     0.043 C 
ATOM     10  C   UNL     1      17.328 -18.154  44.561  1.00  0.00    -0.003 C 
ATOM     11  C   UNL     1      16.144 -16.233  43.200  1.00  0.00     0.012 C 
ATOM     12  C   UNL     1      14.754 -17.890  44.538  1.00  0.00     0.013 C 
ATOM     13  C   UNL     1      17.219 -17.935  46.101  1.00  0.00     0.017 C 
ATOM     14  C   UNL     1      18.579 -17.356  44.101  1.00  0.00    -0.064 C 
ATOM     15  C   UNL     1      17.099 -15.373  44.015  1.00  0.00     0.032 C 
ATOM     16  C   UNL     1      18.496 -15.992  44.035  1.00  0.00    -0.064 C 
ATOM     17  C   UNL     1      19.895 -18.066  43.903  1.00  0.00     0.032 C 
ATOM     18  C   UNL     1      19.742 -15.058  44.000  1.00  0.00    -0.008 C 
ATOM     19  C   UNL     1      21.013 -17.174  43.390  1.00  0.00     0.009 C 
ATOM     20  C   UNL     1      21.094 -15.861  44.201  1.00  0.00     0.007 C 
ATOM     21  C   UNL     1      19.761 -14.320  42.632  1.00  0.00     0.014 C 
ATOM     22  C   UNL     1      19.545 -14.039  45.162  1.00  0.00     0.016 C 
ATOM     23  C   UNL     1      22.426 -15.039  43.891  1.00  0.00    -0.006 C 
ATOM     24  C   UNL     1      21.024 -13.486  42.386  1.00  0.00     0.033 C 
ATOM     25  C   UNL     1      22.305 -14.321  42.516  1.00  0.00     0.120 C 
ATOM     26  C   UNL     1      23.663 -15.983  43.828  1.00  0.00     0.014 C 
ATOM     27  C   UNL     1      22.740 -14.015  45.032  1.00  0.00     0.014 C 
BRANCH   7  28
ATOM     28  O   UNL     1      17.230 -20.855  42.194  1.00  0.00    -0.393 OA
ATOM     29  H   UNL     1      17.630 -20.272  41.498  1.00  0.00     0.210 HD
ENDBRANCH   7  28
BRANCH  25  30
ATOM     30  O   UNL     1      23.421 -13.489  42.310  1.00  0.00    -0.393 OA
ATOM     31  H   UNL     1      23.756 -13.218  43.207  1.00  0.00     0.210 HD
ENDBRANCH  25  30
ENDBRANCH   2   6
ENDBRANCH   1   2
BRANCH   1  32
ATOM     32  C   UNL     1      16.501 -18.236  39.565  1.00  0.00     0.031 C 
BRANCH  32  33
ATOM     33  C   UNL     1      17.366 -17.005  39.778  1.00  0.00    -0.075 C 
ATOM     34  C   UNL     1      16.827 -15.782  39.609  1.00  0.00     0.008 C 
BRANCH  33  35
ATOM     35  C   UNL     1      18.769 -17.161  40.356  1.00  0.00     0.008 C 
ATOM     36  C   UNL     1      19.217 -18.630  40.440  1.00  0.00     0.012 C 
ATOM     37  C   UNL     1      19.769 -16.334  39.541  1.00  0.00     0.012 C 
ENDBRANCH  33  35
ENDBRANCH  32  33
ENDBRANCH   1  32
TORSDOF 8
ENDMDL
MODEL 4
REMARK VINA RESULT:    -4.353      1.710      3.506
REMARK INTER + INTRA:          -9.539
REMARK INTER:                  -6.201
REMARK INTRA:                  -3.338
REMARK UNBOUND:                -3.404
REMARK SMILES C=C(CC[C@@H](C(=O)[O-])[C@@H]1[C@@H](O)C[C@@]2(C)C3=C(CC[C@@]12C)[C@]1(C)CC[C@@H](O)C(C)(C)[C@@H]1CC3)C(C)C
REMARK SMILES IDX 4 1 5 2 6 3 7 4 8 5 9 6 10 7 19 8 12 9 13 10 18 11 20 12
REMARK SMILES IDX 14 13 15 14 17 15 16 16 32 17 21 18 31 19 30 20 23 21 22 22
REMARK SMILES IDX 27 23 24 24 25 25 28 26 29 27 11 28 26 30 3 32 2 33 1 34
REMARK SMILES IDX 33 35 34 36 35 37
REMARK H PARENT 11 29 26 31
REMARK Flexibility Score: inf
ROOT
ATOM      1  C   UNL     1      18.803 -13.793  43.637  1.00  0.00     0.014 C 
ENDROOT
BRANCH   1   2
ATOM      2  C   UNL     1      18.911 -13.827  42.089  1.00  0.00     0.042 C 
BRANCH   2   3
ATOM      3  C   UNL     1      20.019 -12.949  41.568  1.00  0.00     0.045 C 
ATOM      4  O   UNL     1      19.810 -12.122  40.644  1.00  0.00    -0.550 OA
ATOM      5  O   UNL     1      21.297 -13.057  42.105  1.00  0.00    -0.550 OA
ENDBRANCH   2   3
BRANCH   2   6
ATOM      6  C   UNL     1      18.833 -15.273  41.453  1.00  0.00     0.033 C 
ATOM      7  C   UNL     1      19.999 -15.729  40.552  1.00  0.00     0.119 C 
ATOM      8  C   UNL     1      17.554 -15.561  40.599  1.00  0.00    -0.017 C 
ATOM      9  C   UNL     1      19.447 -16.857  39.672  1.00  0.00     0.043 C 
ATOM     10  C   UNL     1      17.902 -16.941  39.906  1.00  0.00    -0.003 C 
ATOM     11  C   UNL     1      16.309 -15.629  41.544  1.00  0.00     0.012 C 
ATOM     12  C   UNL     1      17.321 -14.447  39.533  1.00  0.00     0.013 C 
ATOM     13  C   UNL     1      17.243 -17.181  38.513  1.00  0.00     0.017 C 
ATOM     14  C   UNL     1      17.438 -18.116  40.809  1.00  0.00    -0.064 C 
ATOM     15  C   UNL     1      15.385 -16.795  41.220  1.00  0.00     0.032 C 
ATOM     16  C   UNL     1      16.149 -18.116  41.270  1.00  0.00    -0.064 C 
ATOM     17  C   UNL     1      18.340 -19.307  41.021  1.00  0.00     0.032 C 
ATOM     18  C   UNL     1      15.435 -19.388  41.817  1.00  0.00    -0.008 C 
ATOM     19  C   UNL     1      17.784 -20.348  41.977  1.00  0.00     0.009 C 
ATOM     20  C   UNL     1      16.317 -20.693  41.634  1.00  0.00     0.007 C 
ATOM     21  C   UNL     1      15.124 -19.164  43.324  1.00  0.00     0.014 C 
ATOM     22  C   UNL     1      14.111 -19.516  41.005  1.00  0.00     0.016 C 
ATOM     23  C   UNL     1      15.798 -21.980  42.419  1.00  0.00    -0.006 C 
ATOM     24  C   UNL     1      14.566 -20.399  44.040  1.00  0.00     0.033 C 
ATOM     25  C   UNL     1      15.489 -21.617  43.901  1.00  0.00     0.120 C 
ATOM     26  C   UNL     1      16.874 -23.106  42.419  1.00  0.00     0.014 C 
ATOM     27  C   UNL     1      14.543 -22.602  41.723  1.00  0.00     0.014 C 
BRANCH   7  28
ATOM     28  O   UNL     1      21.126 -16.149  41.278  1.00  0.00    -0.393 OA
ATOM     29  H   UNL     1      21.130 -17.141  41.291  1.00  0.00     0.210 HD
ENDBRANCH   7  28
BRANCH  25  30
ATOM     30  O   UNL     1      14.903 -22.718  44.553  1.00  0.00    -0.393 OA
ATOM     31  H   UNL     1      15.045 -23.514  43.972  1.00  0.00     0.210 HD
ENDBRANCH  25  30
ENDBRANCH   2   6
ENDBRANCH   1   2
BRANCH   1  32
ATOM     32  C   UNL     1      19.309 -15.034  44.406  1.00  0.00     0.031 C 
BRANCH  32  33
ATOM     33  C   UNL     1      18.226 -16.052  44.725  1.00  0.00    -0.075 C 
ATOM     34  C   UNL     1      17.042 -15.626  45.209  1.00  0.00     0.008 C 
BRANCH  33  35
ATOM     35  C   UNL     1      18.422 -17.510  44.326  1.00  0.00     0.008 C 
ATOM     36  C   UNL     1      19.863 -17.818  43.883  1.00  0.00     0.012 C 
ATOM     37  C   UNL     1      17.998 -18.433  45.474  1.00  0.00     0.012 C 
ENDBRANCH  33  35
ENDBRANCH  32  33
ENDBRANCH   1  32
TORSDOF 8
ENDMDL
MODEL 5
REMARK VINA RESULT:    -4.353      2.565      3.952
REMARK INTER + INTRA:          -9.538
REMARK INTER:                  -6.735
REMARK INTRA:                  -2.804
REMARK UNBOUND:                -3.404
REMARK SMILES C=C(CC[C@@H](C(=O)[O-])[C@@H]1[C@@H](O)C[C@@]2(C)C3=C(CC[C@@]12C)[C@]1(C)CC[C@@H](O)C(C)(C)[C@@H]1CC3)C(C)C
REMARK SMILES IDX 4 1 5 2 6 3 7 4 8 5 9 6 10 7 19 8 12 9 13 10 18 11 20 12
REMARK SMILES IDX 14 13 15 14 17 15 16 16 32 17 21 18 31 19 30 20 23 21 22 22
REMARK SMILES IDX 27 23 24 24 25 25 28 26 29 27 11 28 26 30 3 32 2 33 1 34
REMARK SMILES IDX 33 35 34 36 35 37
REMARK H PARENT 11 29 26 31
REMARK Flexibility Score: inf
ROOT
ATOM      1  C   UNL     1      17.706 -16.510  38.513  1.00  0.00     0.014 C 
ENDROOT
BRANCH   1   2
ATOM      2  C   UNL     1      18.649 -16.409  39.742  1.00  0.00     0.042 C 
BRANCH   2   3
ATOM      3  C   UNL     1      19.420 -15.113  39.772  1.00  0.00     0.045 C 
ATOM      4  O   UNL     1      20.671 -15.108  39.890  1.00  0.00    -0.550 OA
ATOM      5  O   UNL     1      18.741 -13.904  39.679  1.00  0.00    -0.550 OA
ENDBRANCH   2   3
BRANCH   2   6
ATOM      6  C   UNL     1      17.995 -16.843  41.114  1.00  0.00     0.033 C 
ATOM      7  C   UNL     1      17.857 -15.775  42.218  1.00  0.00     0.119 C 
ATOM      8  C   UNL     1      18.686 -18.049  41.833  1.00  0.00    -0.017 C 
ATOM      9  C   UNL     1      17.728 -16.539  43.542  1.00  0.00     0.043 C 
ATOM     10  C   UNL     1      17.988 -18.055  43.254  1.00  0.00    -0.003 C 
ATOM     11  C   UNL     1      18.436 -19.353  41.005  1.00  0.00     0.012 C 
ATOM     12  C   UNL     1      20.223 -17.823  41.970  1.00  0.00     0.013 C 
ATOM     13  C   UNL     1      18.856 -18.600  44.430  1.00  0.00     0.017 C 
ATOM     14  C   UNL     1      16.715 -18.942  43.212  1.00  0.00    -0.064 C 
ATOM     15  C   UNL     1      18.053 -20.541  41.877  1.00  0.00     0.032 C 
ATOM     16  C   UNL     1      16.821 -20.215  42.719  1.00  0.00    -0.064 C 
ATOM     17  C   UNL     1      15.439 -18.463  43.861  1.00  0.00     0.032 C 
ATOM     18  C   UNL     1      15.768 -21.330  42.991  1.00  0.00    -0.008 C 
ATOM     19  C   UNL     1      14.260 -19.404  43.686  1.00  0.00     0.009 C 
ATOM     20  C   UNL     1      14.655 -20.861  44.019  1.00  0.00     0.007 C 
ATOM     21  C   UNL     1      15.110 -21.722  41.638  1.00  0.00     0.014 C 
ATOM     22  C   UNL     1      16.564 -22.535  43.574  1.00  0.00     0.016 C 
ATOM     23  C   UNL     1      13.387 -21.822  44.132  1.00  0.00    -0.006 C 
ATOM     24  C   UNL     1      13.935 -22.696  41.770  1.00  0.00     0.033 C 
ATOM     25  C   UNL     1      12.846 -22.168  42.715  1.00  0.00     0.120 C 
ATOM     26  C   UNL     1      12.236 -21.136  44.927  1.00  0.00     0.014 C 
ATOM     27  C   UNL     1      13.729 -23.122  44.933  1.00  0.00     0.014 C 
BRANCH   7  28
ATOM     28  O   UNL     1      16.770 -14.909  42.017  1.00  0.00    -0.393 OA
ATOM     29  H   UNL     1      16.165 -14.991  42.799  1.00  0.00     0.210 HD
ENDBRANCH   7  28
BRANCH  25  30
ATOM     30  O   UNL     1      11.817 -23.122  42.813  1.00  0.00    -0.393 OA
ATOM     31  H   UNL     1      11.440 -23.054  43.731  1.00  0.00     0.210 HD
ENDBRANCH  25  30
ENDBRANCH   2   6
ENDBRANCH   1   2
BRANCH   1  32
ATOM     32  C   UNL     1      16.224 -16.126  38.729  1.00  0.00     0.031 C 
BRANCH  32  33
ATOM     33  C   UNL     1      15.265 -17.304  38.691  1.00  0.00    -0.075 C 
ATOM     34  C   UNL     1      14.977 -17.883  37.508  1.00  0.00     0.008 C 
BRANCH  33  35
ATOM     35  C   UNL     1      14.786 -17.928  39.997  1.00  0.00     0.008 C 
ATOM     36  C   UNL     1      14.119 -16.908  40.935  1.00  0.00     0.012 C 
ATOM     37  C   UNL     1      13.840 -19.098  39.707  1.00  0.00     0.012 C 
ENDBRANCH  33  35
ENDBRANCH  32  33
ENDBRANCH   1  32
TORSDOF 8
ENDMDL
MODEL 6
REMARK VINA RESULT:    -4.308     10.675     12.793
REMARK INTER + INTRA:          -9.475
REMARK INTER:                  -6.676
REMARK INTRA:                  -2.799
REMARK UNBOUND:                -3.404
REMARK SMILES C=C(CC[C@@H](C(=O)[O-])[C@@H]1[C@@H](O)C[C@@]2(C)C3=C(CC[C@@]12C)[C@]1(C)CC[C@@H](O)C(C)(C)[C@@H]1CC3)C(C)C
REMARK SMILES IDX 4 1 5 2 6 3 7 4 8 5 9 6 10 7 19 8 12 9 13 10 18 11 20 12
REMARK SMILES IDX 14 13 15 14 17 15 16 16 32 17 21 18 31 19 30 20 23 21 22 22
REMARK SMILES IDX 27 23 24 24 25 25 28 26 29 27 11 28 26 30 3 32 2 33 1 34
REMARK SMILES IDX 33 35 34 36 35 37
REMARK H PARENT 11 29 26 31
REMARK Flexibility Score: inf
ROOT
ATOM      1  C   UNL     1       9.146  -6.508  45.222  1.00  0.00     0.014 C 
ENDROOT
BRANCH   1   2
ATOM      2  C   UNL     1       9.426  -6.055  43.764  1.00  0.00     0.042 C 
BRANCH   2   3
ATOM      3  C   UNL     1      10.446  -4.947  43.690  1.00  0.00     0.045 C 
ATOM      4  O   UNL     1      10.131  -3.805  43.270  1.00  0.00    -0.550 OA
ATOM      5  O   UNL     1      11.758  -5.188  44.081  1.00  0.00    -0.550 OA
ENDBRANCH   2   3
BRANCH   2   6
ATOM      6  C   UNL     1       9.630  -7.236  42.733  1.00  0.00     0.033 C 
ATOM      7  C   UNL     1      11.024  -7.405  42.094  1.00  0.00     0.119 C 
ATOM      8  C   UNL     1       8.649  -7.238  41.515  1.00  0.00    -0.017 C 
ATOM      9  C   UNL     1      10.812  -8.205  40.803  1.00  0.00     0.043 C 
ATOM     10  C   UNL     1       9.271  -8.343  40.567  1.00  0.00    -0.003 C 
ATOM     11  C   UNL     1       7.206  -7.582  42.016  1.00  0.00     0.012 C 
ATOM     12  C   UNL     1       8.621  -5.849  40.806  1.00  0.00     0.013 C 
ATOM     13  C   UNL     1       9.024  -8.140  39.041  1.00  0.00     0.017 C 
ATOM     14  C   UNL     1       8.676  -9.734  40.917  1.00  0.00    -0.064 C 
ATOM     15  C   UNL     1       6.493  -8.585  41.121  1.00  0.00     0.032 C 
ATOM     16  C   UNL     1       7.315  -9.865  40.985  1.00  0.00    -0.064 C 
ATOM     17  C   UNL     1       9.579 -10.940  41.007  1.00  0.00     0.032 C 
ATOM     18  C   UNL     1       6.581 -11.236  40.912  1.00  0.00    -0.008 C 
ATOM     19  C   UNL     1       8.871 -12.219  41.420  1.00  0.00     0.009 C 
ATOM     20  C   UNL     1       7.577 -12.430  40.601  1.00  0.00     0.007 C 
ATOM     21  C   UNL     1       5.867 -11.482  42.272  1.00  0.00     0.014 C 
ATOM     22  C   UNL     1       5.533 -11.099  39.768  1.00  0.00     0.016 C 
ATOM     23  C   UNL     1       6.970 -13.891  40.795  1.00  0.00    -0.006 C 
ATOM     24  C   UNL     1       5.236 -12.872  42.407  1.00  0.00     0.033 C 
ATOM     25  C   UNL     1       6.254 -13.997  42.172  1.00  0.00     0.120 C 
ATOM     26  C   UNL     1       8.090 -14.973  40.756  1.00  0.00     0.014 C 
ATOM     27  C   UNL     1       5.994 -14.260  39.628  1.00  0.00     0.014 C 
BRANCH   7  28
ATOM     28  O   UNL     1      11.948  -8.036  42.943  1.00  0.00    -0.393 OA
ATOM     29  H   UNL     1      11.448  -8.416  43.712  1.00  0.00     0.210 HD
ENDBRANCH   7  28
BRANCH  25  30
ATOM     30  O   UNL     1       5.602 -15.239  42.281  1.00  0.00    -0.393 OA
ATOM     31  H   UNL     1       5.199 -15.281  43.190  1.00  0.00     0.210 HD
ENDBRANCH  25  30
ENDBRANCH   2   6
ENDBRANCH   1   2
BRANCH   1  32
ATOM     32  C   UNL     1       9.222  -8.023  45.516  1.00  0.00     0.031 C 
BRANCH  32  33
ATOM     33  C   UNL     1       7.869  -8.709  45.601  1.00  0.00    -0.075 C 
ATOM     34  C   UNL     1       6.822  -8.041  46.125  1.00  0.00     0.008 C 
BRANCH  33  35
ATOM     35  C   UNL     1       7.668 -10.064  44.931  1.00  0.00     0.008 C 
ATOM     36  C   UNL     1       8.995 -10.786  44.638  1.00  0.00     0.012 C 
ATOM     37  C   UNL     1       6.750 -10.944  45.786  1.00  0.00     0.012 C 
ENDBRANCH  33  35
ENDBRANCH  32  33
ENDBRANCH   1  32
TORSDOF 8
ENDMDL
MODEL 7
REMARK VINA RESULT:    -4.265      2.218      4.827
REMARK INTER + INTRA:          -9.414
REMARK INTER:                  -6.568
REMARK INTRA:                  -2.846
REMARK UNBOUND:                -3.404
REMARK SMILES C=C(CC[C@@H](C(=O)[O-])[C@@H]1[C@@H](O)C[C@@]2(C)C3=C(CC[C@@]12C)[C@]1(C)CC[C@@H](O)C(C)(C)[C@@H]1CC3)C(C)C
REMARK SMILES IDX 4 1 5 2 6 3 7 4 8 5 9 6 10 7 19 8 12 9 13 10 18 11 20 12
REMARK SMILES IDX 14 13 15 14 17 15 16 16 32 17 21 18 31 19 30 20 23 21 22 22
REMARK SMILES IDX 27 23 24 24 25 25 28 26 29 27 11 28 26 30 3 32 2 33 1 34
REMARK SMILES IDX 33 35 34 36 35 37
REMARK H PARENT 11 29 26 31
REMARK Flexibility Score: inf
ROOT
ATOM      1  C   UNL     1      23.333 -12.479  43.576  1.00  0.00     0.014 C 
ENDROOT
BRANCH   1   2
ATOM      2  C   UNL     1      22.811 -11.937  42.218  1.00  0.00     0.042 C 
BRANCH   2   3
ATOM      3  C   UNL     1      23.838 -11.100  41.499  1.00  0.00     0.045 C 
ATOM      4  O   UNL     1      23.550  -9.956  41.063  1.00  0.00    -0.550 OA
ATOM      5  O   UNL     1      25.120 -11.598  41.301  1.00  0.00    -0.550 OA
ENDBRANCH   2   3
BRANCH   2   6
ATOM      6  C   UNL     1      22.058 -13.003  41.326  1.00  0.00     0.033 C 
ATOM      7  C   UNL     1      22.574 -13.240  39.893  1.00  0.00     0.119 C 
ATOM      8  C   UNL     1      20.523 -12.759  41.145  1.00  0.00    -0.017 C 
ATOM      9  C   UNL     1      21.407 -13.856  39.111  1.00  0.00     0.043 C 
ATOM     10  C   UNL     1      20.135 -13.803  40.020  1.00  0.00    -0.003 C 
ATOM     11  C   UNL     1      19.797 -13.006  42.509  1.00  0.00     0.012 C 
ATOM     12  C   UNL     1      20.233 -11.301  40.673  1.00  0.00     0.013 C 
ATOM     13  C   UNL     1      18.938 -13.397  39.106  1.00  0.00     0.017 C 
ATOM     14  C   UNL     1      19.738 -15.156  40.671  1.00  0.00    -0.064 C 
ATOM     15  C   UNL     1      18.517 -13.817  42.358  1.00  0.00     0.032 C 
ATOM     16  C   UNL     1      18.803 -15.150  41.671  1.00  0.00    -0.064 C 
ATOM     17  C   UNL     1      20.247 -16.452  40.089  1.00  0.00     0.032 C 
ATOM     18  C   UNL     1      18.019 -16.420  42.118  1.00  0.00    -0.008 C 
ATOM     19  C   UNL     1      19.832 -17.690  40.865  1.00  0.00     0.009 C 
ATOM     20  C   UNL     1      18.319 -17.666  41.184  1.00  0.00     0.007 C 
ATOM     21  C   UNL     1      18.414 -16.748  43.585  1.00  0.00     0.014 C 
ATOM     22  C   UNL     1      16.510 -16.040  42.037  1.00  0.00     0.016 C 
ATOM     23  C   UNL     1      17.794 -19.068  41.732  1.00  0.00    -0.006 C 
ATOM     24  C   UNL     1      17.843 -18.071  44.108  1.00  0.00     0.033 C 
ATOM     25  C   UNL     1      18.223 -19.260  43.216  1.00  0.00     0.120 C 
ATOM     26  C   UNL     1      18.389 -20.249  40.908  1.00  0.00     0.014 C 
ATOM     27  C   UNL     1      16.242 -19.193  41.579  1.00  0.00     0.014 C 
BRANCH   7  28
ATOM     28  O   UNL     1      23.714 -14.060  39.844  1.00  0.00    -0.393 OA
ATOM     29  H   UNL     1      23.832 -14.365  38.907  1.00  0.00     0.210 HD
ENDBRANCH   7  28
BRANCH  25  30
ATOM     30  O   UNL     1      17.643 -20.432  43.736  1.00  0.00    -0.393 OA
ATOM     31  H   UNL     1      17.788 -21.154  43.067  1.00  0.00     0.210 HD
ENDBRANCH  25  30
ENDBRANCH   2   6
ENDBRANCH   1   2
BRANCH   1  32
ATOM     32  C   UNL     1      23.910 -13.913  43.587  1.00  0.00     0.031 C 
BRANCH  32  33
ATOM     33  C   UNL     1      23.542 -14.722  44.820  1.00  0.00    -0.075 C 
ATOM     34  C   UNL     1      24.208 -14.509  45.972  1.00  0.00     0.008 C 
BRANCH  33  35
ATOM     35  C   UNL     1      22.313 -15.624  44.790  1.00  0.00     0.008 C 
ATOM     36  C   UNL     1      21.059 -14.941  45.364  1.00  0.00     0.012 C 
ATOM     37  C   UNL     1      22.056 -16.119  43.363  1.00  0.00     0.012 C 
ENDBRANCH  33  35
ENDBRANCH  32  33
ENDBRANCH   1  32
TORSDOF 8
ENDMDL
MODEL 8
REMARK VINA RESULT:    -4.187      2.755      4.786
REMARK INTER + INTRA:          -9.305
REMARK INTER:                  -5.972
REMARK INTRA:                  -3.333
REMARK UNBOUND:                -3.404
REMARK SMILES C=C(CC[C@@H](C(=O)[O-])[C@@H]1[C@@H](O)C[C@@]2(C)C3=C(CC[C@@]12C)[C@]1(C)CC[C@@H](O)C(C)(C)[C@@H]1CC3)C(C)C
REMARK SMILES IDX 4 1 5 2 6 3 7 4 8 5 9 6 10 7 19 8 12 9 13 10 18 11 20 12
REMARK SMILES IDX 14 13 15 14 17 15 16 16 32 17 21 18 31 19 30 20 23 21 22 22
REMARK SMILES IDX 27 23 24 24 25 25 28 26 29 27 11 28 26 30 3 32 2 33 1 34
REMARK SMILES IDX 33 35 34 36 35 37
REMARK H PARENT 11 29 26 31
REMARK Flexibility Score: inf
ROOT
ATOM      1  C   UNL     1      22.001  -9.419  42.674  1.00  0.00     0.014 C 
ENDROOT
BRANCH   1   2
ATOM      2  C   UNL     1      23.218  -9.959  41.876  1.00  0.00     0.042 C 
BRANCH   2   3
ATOM      3  C   UNL     1      24.487  -9.204  42.179  1.00  0.00     0.045 C 
ATOM      4  O   UNL     1      25.114  -8.601  41.271  1.00  0.00    -0.550 OA
ATOM      5  O   UNL     1      24.984  -9.180  43.477  1.00  0.00    -0.550 OA
ENDBRANCH   2   3
BRANCH   2   6
ATOM      6  C   UNL     1      23.351 -11.534  41.860  1.00  0.00     0.033 C 
ATOM      7  C   UNL     1      24.669 -12.153  42.370  1.00  0.00     0.119 C 
ATOM      8  C   UNL     1      23.125 -12.211  40.468  1.00  0.00    -0.017 C 
ATOM      9  C   UNL     1      24.750 -13.557  41.759  1.00  0.00     0.043 C 
ATOM     10  C   UNL     1      23.583 -13.704  40.727  1.00  0.00    -0.003 C 
ATOM     11  C   UNL     1      21.617 -12.077  40.069  1.00  0.00     0.012 C 
ATOM     12  C   UNL     1      24.002 -11.545  39.364  1.00  0.00     0.013 C 
ATOM     13  C   UNL     1      24.161 -14.457  39.490  1.00  0.00     0.017 C 
ATOM     14  C   UNL     1      22.375 -14.548  41.219  1.00  0.00    -0.064 C 
ATOM     15  C   UNL     1      21.040 -13.366  39.502  1.00  0.00     0.032 C 
ATOM     16  C   UNL     1      21.216 -14.516  40.491  1.00  0.00    -0.064 C 
ATOM     17  C   UNL     1      22.545 -15.508  42.370  1.00  0.00     0.032 C 
ATOM     18  C   UNL     1      20.098 -15.593  40.613  1.00  0.00    -0.008 C 
ATOM     19  C   UNL     1      21.267 -16.218  42.784  1.00  0.00     0.009 C 
ATOM     20  C   UNL     1      20.527 -16.794  41.555  1.00  0.00     0.007 C 
ATOM     21  C   UNL     1      18.819 -14.909  41.174  1.00  0.00     0.014 C 
ATOM     22  C   UNL     1      19.844 -16.110  39.166  1.00  0.00     0.016 C 
ATOM     23  C   UNL     1      19.351 -17.788  41.968  1.00  0.00    -0.006 C 
ATOM     24  C   UNL     1      17.680 -15.881  41.503  1.00  0.00     0.033 C 
ATOM     25  C   UNL     1      18.120 -16.982  42.477  1.00  0.00     0.120 C 
ATOM     26  C   UNL     1      19.801 -18.743  43.114  1.00  0.00     0.014 C 
ATOM     27  C   UNL     1      18.953 -18.724  40.779  1.00  0.00     0.014 C 
BRANCH   7  28
ATOM     28  O   UNL     1      24.753 -12.197  43.771  1.00  0.00    -0.393 OA
ATOM     29  H   UNL     1      25.177 -11.354  44.079  1.00  0.00     0.210 HD
ENDBRANCH   7  28
BRANCH  25  30
ATOM     30  O   UNL     1      17.039 -17.852  42.709  1.00  0.00    -0.393 OA
ATOM     31  H   UNL     1      16.618 -17.576  43.568  1.00  0.00     0.210 HD
ENDBRANCH  25  30
ENDBRANCH   2   6
ENDBRANCH   1   2
BRANCH   1  32
ATOM     32  C   UNL     1      21.465 -10.302  43.824  1.00  0.00     0.031 C 
BRANCH  32  33
ATOM     33  C   UNL     1      20.329 -11.228  43.419  1.00  0.00    -0.075 C 
ATOM     34  C   UNL     1      19.348 -10.759  42.623  1.00  0.00     0.008 C 
BRANCH  33  35
ATOM     35  C   UNL     1      20.407 -12.711  43.763  1.00  0.00     0.008 C 
ATOM     36  C   UNL     1      21.527 -13.031  44.768  1.00  0.00     0.012 C 
ATOM     37  C   UNL     1      19.053 -13.204  44.284  1.00  0.00     0.012 C 
ENDBRANCH  33  35
ENDBRANCH  32  33
ENDBRANCH   1  32
TORSDOF 8
ENDMDL
