MODEL 1
REMARK VINA RESULT:    -4.321      0.000      0.000
REMARK INTER + INTRA:          -5.734
REMARK INTER:                  -5.583
REMARK INTRA:                  -0.150
REMARK UNBOUND:                -0.150
REMARK SMILES CCCCCCC(=O)[O-]
REMARK SMILES IDX 5 1 6 2 7 3 8 4 9 5 4 6 3 7 2 8 1 9
REMARK H PARENT
REMARK Flexibility Score: inf
ROOT
ATOM      1  C   UNL     1       9.431   5.882 -11.346  1.00  0.00     0.006 C 
ENDROOT
BRANCH   1   2
ATOM      2  C   UNL     1       9.283   7.042 -12.339  1.00  0.00     0.053 C 
BRANCH   2   3
ATOM      3  C   UNL     1       7.876   7.555 -12.386  1.00  0.00     0.041 C 
ATOM      4  O   UNL     1       6.907   6.752 -12.416  1.00  0.00    -0.550 OA
ATOM      5  O   UNL     1       7.636   8.923 -12.428  1.00  0.00    -0.550 OA
ENDBRANCH   2   3
ENDBRANCH   1   2
BRANCH   1   6
ATOM      6  C   UNL     1      10.619   6.082 -10.393  1.00  0.00     0.000 C 
BRANCH   6   7
ATOM      7  C   UNL     1      11.937   6.184 -11.171  1.00  0.00    -0.000 C 
BRANCH   7   8
ATOM      8  C   UNL     1      13.117   6.430 -10.225  1.00  0.00    -0.003 C 
ATOM      9  C   UNL     1      12.916   5.708  -8.895  1.00  0.00     0.004 C 
ENDBRANCH   7   8
ENDBRANCH   6   7
ENDBRANCH   1   6
TORSDOF 5
ENDMDL
MODEL 2
REMARK VINA RESULT:    -4.286     10.492     11.979
REMARK INTER + INTRA:          -5.689
REMARK INTER:                  -5.515
REMARK INTRA:                  -0.175
REMARK UNBOUND:                -0.150
REMARK SMILES CCCCCCC(=O)[O-]
REMARK SMILES IDX 5 1 6 2 7 3 8 4 9 5 4 6 3 7 2 8 1 9
REMARK H PARENT
REMARK Flexibility Score: inf
ROOT
ATOM      1  C   UNL     1       5.329  -3.089 -12.396  1.00  0.00     0.006 C 
ENDROOT
BRANCH   1   2
ATOM      2  C   UNL     1       6.612  -2.604 -11.708  1.00  0.00     0.053 C 
BRANCH   2   3
ATOM      3  C   UNL     1       6.793  -3.238 -10.362  1.00  0.00     0.041 C 
ATOM      4  O   UNL     1       7.800  -3.955 -10.129  1.00  0.00    -0.550 OA
ATOM      5  O   UNL     1       5.832  -3.060  -9.376  1.00  0.00    -0.550 OA
ENDBRANCH   2   3
ENDBRANCH   1   2
BRANCH   1   6
ATOM      6  C   UNL     1       5.013  -2.288 -13.667  1.00  0.00     0.000 C 
BRANCH   6   7
ATOM      7  C   UNL     1       3.549  -2.474 -14.085  1.00  0.00    -0.000 C 
BRANCH   7   8
ATOM      8  C   UNL     1       2.816  -3.410 -13.118  1.00  0.00    -0.003 C 
ATOM      9  C   UNL     1       1.503  -2.794 -12.644  1.00  0.00     0.004 C 
ENDBRANCH   7   8
ENDBRANCH   6   7
ENDBRANCH   1   6
TORSDOF 5
ENDMDL
MODEL 3
REMARK VINA RESULT:    -4.225      3.346      3.747
REMARK INTER + INTRA:          -5.610
REMARK INTER:                  -5.308
REMARK INTRA:                  -0.302
REMARK UNBOUND:                -0.150
REMARK SMILES CCCCCCC(=O)[O-]
REMARK SMILES IDX 5 1 6 2 7 3 8 4 9 5 4 6 3 7 2 8 1 9
REMARK H PARENT
REMARK Flexibility Score: inf
ROOT
ATOM      1  C   UNL     1      10.745   6.434 -12.141  1.00  0.00     0.006 C 
ENDROOT
BRANCH   1   2
ATOM      2  C   UNL     1      10.737   5.401 -13.275  1.00  0.00     0.053 C 
BRANCH   2   3
ATOM      3  C   UNL     1      12.126   5.042 -13.708  1.00  0.00     0.041 C 
ATOM      4  O   UNL     1      12.353   4.708 -14.900  1.00  0.00    -0.550 OA
ATOM      5  O   UNL     1      13.164   5.047 -12.786  1.00  0.00    -0.550 OA
ENDBRANCH   2   3
ENDBRANCH   1   2
BRANCH   1   6
ATOM      6  C   UNL     1       9.867   6.003 -10.957  1.00  0.00     0.000 C 
BRANCH   6   7
ATOM      7  C   UNL     1      10.662   6.026  -9.646  1.00  0.00    -0.000 C 
BRANCH   7   8
ATOM      8  C   UNL     1      12.075   6.574  -9.869  1.00  0.00    -0.003 C 
ATOM      9  C   UNL     1      13.113   5.747  -9.116  1.00  0.00     0.004 C 
ENDBRANCH   7   8
ENDBRANCH   6   7
ENDBRANCH   1   6
TORSDOF 5
ENDMDL
MODEL 4
REMARK VINA RESULT:    -4.195     10.164     11.109
REMARK INTER + INTRA:          -5.571
REMARK INTER:                  -5.408
REMARK INTRA:                  -0.163
REMARK UNBOUND:                -0.150
REMARK SMILES CCCCCCC(=O)[O-]
REMARK SMILES IDX 5 1 6 2 7 3 8 4 9 5 4 6 3 7 2 8 1 9
REMARK H PARENT
REMARK Flexibility Score: inf
ROOT
ATOM      1  C   UNL     1       5.312  -2.603 -13.000  1.00  0.00     0.006 C 
ENDROOT
BRANCH   1   2
ATOM      2  C   UNL     1       4.206  -3.494 -13.578  1.00  0.00     0.053 C 
BRANCH   2   3
ATOM      3  C   UNL     1       2.872  -3.189 -12.966  1.00  0.00     0.041 C 
ATOM      4  O   UNL     1       2.097  -2.361 -13.513  1.00  0.00    -0.550 OA
ATOM      5  O   UNL     1       2.498  -3.797 -11.775  1.00  0.00    -0.550 OA
ENDBRANCH   2   3
ENDBRANCH   1   2
BRANCH   1   6
ATOM      6  C   UNL     1       6.002  -3.245 -11.787  1.00  0.00     0.000 C 
BRANCH   6   7
ATOM      7  C   UNL     1       7.220  -2.424 -11.349  1.00  0.00    -0.000 C 
BRANCH   7   8
ATOM      8  C   UNL     1       7.475  -2.578  -9.846  1.00  0.00    -0.003 C 
ATOM      9  C   UNL     1       6.291  -3.245  -9.151  1.00  0.00     0.004 C 
ENDBRANCH   7   8
ENDBRANCH   6   7
ENDBRANCH   1   6
TORSDOF 5
ENDMDL
MODEL 5
REMARK VINA RESULT:    -4.187      5.739      7.444
REMARK INTER + INTRA:          -5.561
REMARK INTER:                  -5.379
REMARK INTRA:                  -0.181
REMARK UNBOUND:                -0.150
REMARK SMILES CCCCCCC(=O)[O-]
REMARK SMILES IDX 5 1 6 2 7 3 8 4 9 5 4 6 3 7 2 8 1 9
REMARK H PARENT
REMARK Flexibility Score: inf
ROOT
ATOM      1  C   UNL     1      13.141   8.235 -16.251  1.00  0.00     0.006 C 
ENDROOT
BRANCH   1   2
ATOM      2  C   UNL     1      12.973   8.515 -14.752  1.00  0.00     0.053 C 
BRANCH   2   3
ATOM      3  C   UNL     1      14.220   9.092 -14.152  1.00  0.00     0.041 C 
ATOM      4  O   UNL     1      14.145   9.966 -13.251  1.00  0.00    -0.550 OA
ATOM      5  O   UNL     1      15.465   8.684 -14.613  1.00  0.00    -0.550 OA
ENDBRANCH   2   3
ENDBRANCH   1   2
BRANCH   1   6
ATOM      6  C   UNL     1      11.895   8.625 -17.058  1.00  0.00     0.000 C 
BRANCH   6   7
ATOM      7  C   UNL     1      10.644   8.630 -16.170  1.00  0.00    -0.000 C 
BRANCH   7   8
ATOM      8  C   UNL     1       9.407   8.192 -16.960  1.00  0.00    -0.003 C 
ATOM      9  C   UNL     1       9.472   8.684 -18.403  1.00  0.00     0.004 C 
ENDBRANCH   7   8
ENDBRANCH   6   7
ENDBRANCH   1   6
TORSDOF 5
ENDMDL
MODEL 6
REMARK VINA RESULT:    -4.147     14.184     15.245
REMARK INTER + INTRA:          -5.509
REMARK INTER:                  -5.350
REMARK INTRA:                  -0.159
REMARK UNBOUND:                -0.150
REMARK SMILES CCCCCCC(=O)[O-]
REMARK SMILES IDX 5 1 6 2 7 3 8 4 9 5 4 6 3 7 2 8 1 9
REMARK H PARENT
REMARK Flexibility Score: inf
ROOT
ATOM      1  C   UNL     1      19.104   1.473 -19.797  1.00  0.00     0.006 C 
ENDROOT
BRANCH   1   2
ATOM      2  C   UNL     1      20.603   1.176 -19.930  1.00  0.00     0.053 C 
BRANCH   2   3
ATOM      3  C   UNL     1      20.860  -0.281 -20.170  1.00  0.00     0.041 C 
ATOM      4  O   UNL     1      21.093  -1.052 -19.203  1.00  0.00    -0.550 OA
ATOM      5  O   UNL     1      20.872  -0.780 -21.466  1.00  0.00    -0.550 OA
ENDBRANCH   2   3
ENDBRANCH   1   2
BRANCH   1   6
ATOM      6  C   UNL     1      18.442   1.742 -21.156  1.00  0.00     0.000 C 
BRANCH   6   7
ATOM      7  C   UNL     1      17.002   2.239 -20.978  1.00  0.00    -0.000 C 
BRANCH   7   8
ATOM      8  C   UNL     1      16.479   2.883 -22.266  1.00  0.00    -0.003 C 
ATOM      9  C   UNL     1      17.609   3.117 -23.264  1.00  0.00     0.004 C 
ENDBRANCH   7   8
ENDBRANCH   6   7
ENDBRANCH   1   6
TORSDOF 5
ENDMDL
MODEL 7
REMARK VINA RESULT:    -4.124      1.552      1.839
REMARK INTER + INTRA:          -5.480
REMARK INTER:                  -5.308
REMARK INTRA:                  -0.172
REMARK UNBOUND:                -0.150
REMARK SMILES CCCCCCC(=O)[O-]
REMARK SMILES IDX 5 1 6 2 7 3 8 4 9 5 4 6 3 7 2 8 1 9
REMARK H PARENT
REMARK Flexibility Score: inf
ROOT
ATOM      1  C   UNL     1       9.591   5.794 -11.249  1.00  0.00     0.006 C 
ENDROOT
BRANCH   1   2
ATOM      2  C   UNL     1       8.771   6.798 -12.070  1.00  0.00     0.053 C 
BRANCH   2   3
ATOM      3  C   UNL     1       9.495   7.222 -13.311  1.00  0.00     0.041 C 
ATOM      4  O   UNL     1       9.776   6.379 -14.202  1.00  0.00    -0.550 OA
ATOM      5  O   UNL     1       9.888   8.545 -13.468  1.00  0.00    -0.550 OA
ENDBRANCH   2   3
ENDBRANCH   1   2
BRANCH   1   6
ATOM      6  C   UNL     1      10.967   6.351 -10.858  1.00  0.00     0.000 C 
BRANCH   6   7
ATOM      7  C   UNL     1      11.210   6.208  -9.350  1.00  0.00    -0.000 C 
BRANCH   7   8
ATOM      8  C   UNL     1      12.644   5.752  -9.065  1.00  0.00    -0.003 C 
ATOM      9  C   UNL     1      13.639   6.453  -9.987  1.00  0.00     0.004 C 
ENDBRANCH   7   8
ENDBRANCH   6   7
ENDBRANCH   1   6
TORSDOF 5
ENDMDL
MODEL 8
REMARK VINA RESULT:    -4.064      4.670      6.304
REMARK INTER + INTRA:          -5.403
REMARK INTER:                  -5.110
REMARK INTRA:                  -0.293
REMARK UNBOUND:                -0.150
REMARK SMILES CCCCCCC(=O)[O-]
REMARK SMILES IDX 5 1 6 2 7 3 8 4 9 5 4 6 3 7 2 8 1 9
REMARK H PARENT
REMARK Flexibility Score: inf
ROOT
ATOM      1  C   UNL     1      12.052   7.099 -15.831  1.00  0.00     0.006 C 
ENDROOT
BRANCH   1   2
ATOM      2  C   UNL     1      12.409   7.058 -14.339  1.00  0.00     0.053 C 
BRANCH   2   3
ATOM      3  C   UNL     1      11.329   7.660 -13.494  1.00  0.00     0.041 C 
ATOM      4  O   UNL     1      11.028   8.876 -13.619  1.00  0.00    -0.550 OA
ATOM      5  O   UNL     1      10.675   6.884 -12.545  1.00  0.00    -0.550 OA
ENDBRANCH   2   3
ENDBRANCH   1   2
BRANCH   1   6
ATOM      6  C   UNL     1      12.747   8.256 -16.562  1.00  0.00     0.000 C 
BRANCH   6   7
ATOM      7  C   UNL     1      11.766   8.991 -17.485  1.00  0.00    -0.000 C 
BRANCH   7   8
ATOM      8  C   UNL     1      10.315   8.659 -17.121  1.00  0.00    -0.003 C 
ATOM      9  C   UNL     1       9.422   8.659 -18.359  1.00  0.00     0.004 C 
ENDBRANCH   7   8
ENDBRANCH   6   7
ENDBRANCH   1   6
TORSDOF 5
ENDMDL
MODEL 9
REMARK VINA RESULT:    -3.975      2.143      2.820
REMARK INTER + INTRA:          -5.287
REMARK INTER:                  -4.851
REMARK INTRA:                  -0.436
REMARK UNBOUND:                -0.150
REMARK SMILES CCCCCCC(=O)[O-]
REMARK SMILES IDX 5 1 6 2 7 3 8 4 9 5 4 6 3 7 2 8 1 9
REMARK H PARENT
REMARK Flexibility Score: inf
ROOT
ATOM      1  C   UNL     1      12.201   5.347 -13.456  1.00  0.00     0.006 C 
ENDROOT
BRANCH   1   2
ATOM      2  C   UNL     1      10.788   5.025 -12.954  1.00  0.00     0.053 C 
BRANCH   2   3
ATOM      3  C   UNL     1      10.201   6.166 -12.179  1.00  0.00     0.041 C 
ATOM      4  O   UNL     1      10.369   7.351 -12.568  1.00  0.00    -0.550 OA
ATOM      5  O   UNL     1       9.494   5.920 -11.009  1.00  0.00    -0.550 OA
ENDBRANCH   2   3
ENDBRANCH   1   2
BRANCH   1   6
ATOM      6  C   UNL     1      13.245   5.282 -12.332  1.00  0.00     0.000 C 
BRANCH   6   7
ATOM      7  C   UNL     1      13.893   6.654 -12.104  1.00  0.00    -0.000 C 
BRANCH   7   8
ATOM      8  C   UNL     1      13.814   7.061 -10.630  1.00  0.00    -0.003 C 
ATOM      9  C   UNL     1      13.121   5.986  -9.797  1.00  0.00     0.004 C 
ENDBRANCH   7   8
ENDBRANCH   6   7
ENDBRANCH   1   6
TORSDOF 5
ENDMDL
