MODEL 1
REMARK VINA RESULT:    -4.816      0.000      0.000
REMARK INTER + INTRA:          -6.773
REMARK INTER:                  -6.505
REMARK INTRA:                  -0.267
REMARK UNBOUND:                -0.267
REMARK SMILES [NH3+]CCCC[C@@H]([NH3+])C(=O)[O-]
REMARK SMILES IDX 4 1 3 2 2 3 1 4 5 8 6 9 7 10 8 14 9 15 10 16
REMARK H PARENT 1 5 1 6 1 7 7 11 7 12 7 13
REMARK Flexibility Score: inf
ROOT
ATOM      1  C   UNL     1       7.355   5.554  20.290  1.00  0.00     0.012 C 
ENDROOT
BRANCH   1   2
ATOM      2  C   UNL     1       7.712   6.654  19.281  1.00  0.00     0.061 C 
BRANCH   2   3
ATOM      3  C   UNL     1       7.025   6.454  17.920  1.00  0.00     0.258 C 
BRANCH   3   4
ATOM      4  N   UNL     1       5.731   5.780  18.048  1.00  0.00    -0.358 N 
ATOM      5  H   UNL     1       5.808   4.964  18.695  1.00  0.00     0.344 HD
ATOM      6  H   UNL     1       5.438   5.428  17.108  1.00  0.00     0.344 HD
ATOM      7  H   UNL     1       5.004   6.448  18.396  1.00  0.00     0.344 HD
ENDBRANCH   3   4
ENDBRANCH   2   3
ENDBRANCH   1   2
BRANCH   1   8
ATOM      8  C   UNL     1       8.399   4.423  20.260  1.00  0.00     0.072 C 
BRANCH   8   9
ATOM      9  C   UNL     1       9.813   4.874  19.827  1.00  0.00     0.227 C 
BRANCH   9  10
ATOM     10  N   UNL     1      10.796   4.736  20.911  1.00  0.00    -0.350 N 
ATOM     11  H   UNL     1      11.418   5.575  20.975  1.00  0.00     0.345 HD
ATOM     12  H   UNL     1      11.384   3.885  20.753  1.00  0.00     0.345 HD
ATOM     13  H   UNL     1      10.295   4.622  21.822  1.00  0.00     0.345 HD
ENDBRANCH   9  10
BRANCH   9  14
ATOM     14  C   UNL     1      10.264   4.162  18.577  1.00  0.00     0.099 C 
ATOM     15  O   UNL     1      11.489   4.010  18.323  1.00  0.00    -0.544 OA
ATOM     16  O   UNL     1       9.318   3.621  17.715  1.00  0.00    -0.544 OA
ENDBRANCH   9  14
ENDBRANCH   8   9
ENDBRANCH   1   8
TORSDOF 7
ENDMDL
MODEL 2
REMARK VINA RESULT:    -4.588      2.086      3.980
REMARK INTER + INTRA:          -6.464
REMARK INTER:                  -5.976
REMARK INTRA:                  -0.488
REMARK UNBOUND:                -0.267
REMARK SMILES [NH3+]CCCC[C@@H]([NH3+])C(=O)[O-]
REMARK SMILES IDX 4 1 3 2 2 3 1 4 5 8 6 9 7 10 8 14 9 15 10 16
REMARK H PARENT 1 5 1 6 1 7 7 11 7 12 7 13
REMARK Flexibility Score: inf
ROOT
ATOM      1  C   UNL     1       8.052   4.704  20.744  1.00  0.00     0.012 C 
ENDROOT
BRANCH   1   2
ATOM      2  C   UNL     1       8.991   4.077  19.703  1.00  0.00     0.061 C 
BRANCH   2   3
ATOM      3  C   UNL     1      10.449   4.538  19.869  1.00  0.00     0.258 C 
BRANCH   3   4
ATOM      4  N   UNL     1      11.014   5.046  18.617  1.00  0.00    -0.358 N 
ATOM      5  H   UNL     1      11.996   4.712  18.499  1.00  0.00     0.344 HD
ATOM      6  H   UNL     1      11.024   6.091  18.649  1.00  0.00     0.344 HD
ATOM      7  H   UNL     1      10.431   4.742  17.803  1.00  0.00     0.344 HD
ENDBRANCH   3   4
ENDBRANCH   2   3
ENDBRANCH   1   2
BRANCH   1   8
ATOM      8  C   UNL     1       7.230   5.847  20.121  1.00  0.00     0.072 C 
BRANCH   8   9
ATOM      9  C   UNL     1       7.059   5.746  18.587  1.00  0.00     0.227 C 
BRANCH   9  10
ATOM     10  N   UNL     1       5.648   5.621  18.193  1.00  0.00    -0.350 N 
ATOM     11  H   UNL     1       5.487   5.979  17.224  1.00  0.00     0.345 HD
ATOM     12  H   UNL     1       5.044   6.156  18.860  1.00  0.00     0.345 HD
ATOM     13  H   UNL     1       5.364   4.615  18.230  1.00  0.00     0.345 HD
ENDBRANCH   9  10
BRANCH   9  14
ATOM     14  C   UNL     1       7.734   6.891  17.877  1.00  0.00     0.099 C 
ATOM     15  O   UNL     1       8.860   7.313  18.253  1.00  0.00    -0.544 OA
ATOM     16  O   UNL     1       7.130   7.460  16.762  1.00  0.00    -0.544 OA
ENDBRANCH   9  14
ENDBRANCH   8   9
ENDBRANCH   1   8
TORSDOF 7
ENDMDL
MODEL 3
REMARK VINA RESULT:    -4.493      2.873      4.457
REMARK INTER + INTRA:          -6.337
REMARK INTER:                  -6.100
REMARK INTRA:                  -0.236
REMARK UNBOUND:                -0.267
REMARK SMILES [NH3+]CCCC[C@@H]([NH3+])C(=O)[O-]
REMARK SMILES IDX 4 1 3 2 2 3 1 4 5 8 6 9 7 10 8 14 9 15 10 16
REMARK H PARENT 1 5 1 6 1 7 7 11 7 12 7 13
REMARK Flexibility Score: inf
ROOT
ATOM      1  C   UNL     1       9.661   4.115  18.756  1.00  0.00     0.012 C 
ENDROOT
BRANCH   1   2
ATOM      2  C   UNL     1      10.989   3.765  18.069  1.00  0.00     0.061 C 
BRANCH   2   3
ATOM      3  C   UNL     1      12.188   3.832  19.030  1.00  0.00     0.258 C 
BRANCH   3   4
ATOM      4  N   UNL     1      13.361   4.451  18.409  1.00  0.00    -0.358 N 
ATOM      5  H   UNL     1      13.174   5.457  18.201  1.00  0.00     0.344 HD
ATOM      6  H   UNL     1      13.565   3.962  17.508  1.00  0.00     0.344 HD
ATOM      7  H   UNL     1      14.195   4.362  19.034  1.00  0.00     0.344 HD
ENDBRANCH   3   4
ENDBRANCH   2   3
ENDBRANCH   1   2
BRANCH   1   8
ATOM      8  C   UNL     1       9.885   5.118  19.901  1.00  0.00     0.072 C 
BRANCH   8   9
ATOM      9  C   UNL     1       9.334   6.536  19.622  1.00  0.00     0.227 C 
BRANCH   9  10
ATOM     10  N   UNL     1      10.054   7.205  18.529  1.00  0.00    -0.350 N 
ATOM     11  H   UNL     1      10.215   8.217  18.738  1.00  0.00     0.345 HD
ATOM     12  H   UNL     1       9.508   7.122  17.640  1.00  0.00     0.345 HD
ATOM     13  H   UNL     1      10.981   6.742  18.387  1.00  0.00     0.345 HD
ENDBRANCH   9  10
BRANCH   9  14
ATOM     14  C   UNL     1       7.847   6.515  19.376  1.00  0.00     0.099 C 
ATOM     15  O   UNL     1       7.047   6.142  20.274  1.00  0.00    -0.544 OA
ATOM     16  O   UNL     1       7.346   6.960  18.159  1.00  0.00    -0.544 OA
ENDBRANCH   9  14
ENDBRANCH   8   9
ENDBRANCH   1   8
TORSDOF 7
ENDMDL
MODEL 4
REMARK VINA RESULT:    -4.466      1.815      2.153
REMARK INTER + INTRA:          -6.300
REMARK INTER:                  -5.858
REMARK INTRA:                  -0.442
REMARK UNBOUND:                -0.267
REMARK SMILES [NH3+]CCCC[C@@H]([NH3+])C(=O)[O-]
REMARK SMILES IDX 4 1 3 2 2 3 1 4 5 8 6 9 7 10 8 14 9 15 10 16
REMARK H PARENT 1 5 1 6 1 7 7 11 7 12 7 13
REMARK Flexibility Score: inf
ROOT
ATOM      1  C   UNL     1       8.278   7.074  18.886  1.00  0.00     0.012 C 
ENDROOT
BRANCH   1   2
ATOM      2  C   UNL     1       7.636   7.056  17.491  1.00  0.00     0.061 C 
BRANCH   2   3
ATOM      3  C   UNL     1       6.697   5.855  17.287  1.00  0.00     0.258 C 
BRANCH   3   4
ATOM      4  N   UNL     1       5.921   5.549  18.490  1.00  0.00    -0.358 N 
ATOM      5  H   UNL     1       6.267   4.669  18.932  1.00  0.00     0.344 HD
ATOM      6  H   UNL     1       4.920   5.411  18.222  1.00  0.00     0.344 HD
ATOM      7  H   UNL     1       5.978   6.340  19.173  1.00  0.00     0.344 HD
ENDBRANCH   3   4
ENDBRANCH   2   3
ENDBRANCH   1   2
BRANCH   1   8
ATOM      8  C   UNL     1       9.745   6.612  18.819  1.00  0.00     0.072 C 
BRANCH   8   9
ATOM      9  C   UNL     1       9.933   5.079  18.888  1.00  0.00     0.227 C 
BRANCH   9  10
ATOM     10  N   UNL     1      11.340   4.685  18.722  1.00  0.00    -0.350 N 
ATOM     11  H   UNL     1      11.969   5.233  19.354  1.00  0.00     0.345 HD
ATOM     12  H   UNL     1      11.637   4.835  17.730  1.00  0.00     0.345 HD
ATOM     13  H   UNL     1      11.446   3.669  18.945  1.00  0.00     0.345 HD
ENDBRANCH   9  10
BRANCH   9  14
ATOM     14  C   UNL     1       9.341   4.503  20.149  1.00  0.00     0.099 C 
ATOM     15  O   UNL     1       9.982   4.525  21.233  1.00  0.00    -0.544 OA
ATOM     16  O   UNL     1       8.052   3.986  20.129  1.00  0.00    -0.544 OA
ENDBRANCH   9  14
ENDBRANCH   8   9
ENDBRANCH   1   8
TORSDOF 7
ENDMDL
MODEL 5
REMARK VINA RESULT:    -4.343      2.075      2.750
REMARK INTER + INTRA:          -6.133
REMARK INTER:                  -6.006
REMARK INTRA:                  -0.128
REMARK UNBOUND:                -0.267
REMARK SMILES [NH3+]CCCC[C@@H]([NH3+])C(=O)[O-]
REMARK SMILES IDX 4 1 3 2 2 3 1 4 5 8 6 9 7 10 8 14 9 15 10 16
REMARK H PARENT 1 5 1 6 1 7 7 11 7 12 7 13
REMARK Flexibility Score: inf
ROOT
ATOM      1  C   UNL     1       6.879   6.142  17.222  1.00  0.00     0.012 C 
ENDROOT
BRANCH   1   2
ATOM      2  C   UNL     1       6.554   7.281  16.245  1.00  0.00     0.061 C 
BRANCH   2   3
ATOM      3  C   UNL     1       5.111   7.217  15.720  1.00  0.00     0.258 C 
BRANCH   3   4
ATOM      4  N   UNL     1       4.978   6.317  14.573  1.00  0.00    -0.358 N 
ATOM      5  H   UNL     1       4.560   5.407  14.871  1.00  0.00     0.344 HD
ATOM      6  H   UNL     1       5.928   6.128  14.179  1.00  0.00     0.344 HD
ATOM      7  H   UNL     1       4.389   6.756  13.829  1.00  0.00     0.344 HD
ENDBRANCH   3   4
ENDBRANCH   2   3
ENDBRANCH   1   2
BRANCH   1   8
ATOM      8  C   UNL     1       7.607   6.679  18.467  1.00  0.00     0.072 C 
BRANCH   8   9
ATOM      9  C   UNL     1       8.989   6.034  18.725  1.00  0.00     0.227 C 
BRANCH   9  10
ATOM     10  N   UNL     1       9.680   6.643  19.870  1.00  0.00    -0.350 N 
ATOM     11  H   UNL     1       9.705   5.996  20.691  1.00  0.00     0.345 HD
ATOM     12  H   UNL     1       9.198   7.529  20.147  1.00  0.00     0.345 HD
ATOM     13  H   UNL     1      10.663   6.878  19.599  1.00  0.00     0.345 HD
ENDBRANCH   9  10
BRANCH   9  14
ATOM     14  C   UNL     1       8.883   4.538  18.872  1.00  0.00     0.099 C 
ATOM     15  O   UNL     1       8.334   4.024  19.882  1.00  0.00    -0.544 OA
ATOM     16  O   UNL     1       9.354   3.712  17.858  1.00  0.00    -0.544 OA
ENDBRANCH   9  14
ENDBRANCH   8   9
ENDBRANCH   1   8
TORSDOF 7
ENDMDL
MODEL 6
REMARK VINA RESULT:    -4.329      2.157      2.634
REMARK INTER + INTRA:          -6.115
REMARK INTER:                  -6.006
REMARK INTRA:                  -0.109
REMARK UNBOUND:                -0.267
REMARK SMILES [NH3+]CCCC[C@@H]([NH3+])C(=O)[O-]
REMARK SMILES IDX 4 1 3 2 2 3 1 4 5 8 6 9 7 10 8 14 9 15 10 16
REMARK H PARENT 1 5 1 6 1 7 7 11 7 12 7 13
REMARK Flexibility Score: inf
ROOT
ATOM      1  C   UNL     1       8.665   4.538  20.774  1.00  0.00     0.012 C 
ENDROOT
BRANCH   1   2
ATOM      2  C   UNL     1       7.130   4.588  20.764  1.00  0.00     0.061 C 
BRANCH   2   3
ATOM      3  C   UNL     1       6.515   4.155  22.104  1.00  0.00     0.258 C 
BRANCH   3   4
ATOM      4  N   UNL     1       5.112   3.759  21.967  1.00  0.00    -0.358 N 
ATOM      5  H   UNL     1       4.932   2.872  22.487  1.00  0.00     0.344 HD
ATOM      6  H   UNL     1       4.903   3.596  20.956  1.00  0.00     0.344 HD
ATOM      7  H   UNL     1       4.483   4.517  22.321  1.00  0.00     0.344 HD
ENDBRANCH   3   4
ENDBRANCH   2   3
ENDBRANCH   1   2
BRANCH   1   8
ATOM      8  C   UNL     1       9.259   5.840  20.207  1.00  0.00     0.072 C 
BRANCH   8   9
ATOM      9  C   UNL     1       9.642   5.766  18.710  1.00  0.00     0.227 C 
BRANCH   9  10
ATOM     10  N   UNL     1      10.507   6.883  18.303  1.00  0.00    -0.350 N 
ATOM     11  H   UNL     1      11.519   6.644  18.412  1.00  0.00     0.345 HD
ATOM     12  H   UNL     1      10.291   7.729  18.880  1.00  0.00     0.345 HD
ATOM     13  H   UNL     1      10.324   7.117  17.300  1.00  0.00     0.345 HD
ENDBRANCH   9  10
BRANCH   9  14
ATOM     14  C   UNL     1      10.255   4.434  18.360  1.00  0.00     0.099 C 
ATOM     15  O   UNL     1      11.415   4.132  18.749  1.00  0.00    -0.544 OA
ATOM     16  O   UNL     1       9.514   3.504  17.640  1.00  0.00    -0.544 OA
ENDBRANCH   9  14
ENDBRANCH   8   9
ENDBRANCH   1   8
TORSDOF 7
ENDMDL
MODEL 7
REMARK VINA RESULT:    -4.236      2.420      4.379
REMARK INTER + INTRA:          -5.989
REMARK INTER:                  -5.885
REMARK INTRA:                  -0.104
REMARK UNBOUND:                -0.267
REMARK SMILES [NH3+]CCCC[C@@H]([NH3+])C(=O)[O-]
REMARK SMILES IDX 4 1 3 2 2 3 1 4 5 8 6 9 7 10 8 14 9 15 10 16
REMARK H PARENT 1 5 1 6 1 7 7 11 7 12 7 13
REMARK Flexibility Score: inf
ROOT
ATOM      1  C   UNL     1       9.604   3.834  18.213  1.00  0.00     0.012 C 
ENDROOT
BRANCH   1   2
ATOM      2  C   UNL     1      10.897   4.641  18.403  1.00  0.00     0.061 C 
BRANCH   2   3
ATOM      3  C   UNL     1      12.135   3.745  18.565  1.00  0.00     0.258 C 
BRANCH   3   4
ATOM      4  N   UNL     1      13.384   4.503  18.463  1.00  0.00    -0.358 N 
ATOM      5  H   UNL     1      13.241   5.485  18.787  1.00  0.00     0.344 HD
ATOM      6  H   UNL     1      13.684   4.527  17.462  1.00  0.00     0.344 HD
ATOM      7  H   UNL     1      14.136   4.045  19.027  1.00  0.00     0.344 HD
ENDBRANCH   3   4
ENDBRANCH   2   3
ENDBRANCH   1   2
BRANCH   1   8
ATOM      8  C   UNL     1       8.379   4.765  18.168  1.00  0.00     0.072 C 
BRANCH   8   9
ATOM      9  C   UNL     1       8.116   5.535  19.483  1.00  0.00     0.227 C 
BRANCH   9  10
ATOM     10  N   UNL     1       6.936   6.407  19.389  1.00  0.00    -0.350 N 
ATOM     11  H   UNL     1       7.015   7.230  20.030  1.00  0.00     0.345 HD
ATOM     12  H   UNL     1       6.074   5.866  19.631  1.00  0.00     0.345 HD
ATOM     13  H   UNL     1       6.838   6.756  18.408  1.00  0.00     0.345 HD
ENDBRANCH   9  10
BRANCH   9  14
ATOM     14  C   UNL     1       8.023   4.602  20.663  1.00  0.00     0.099 C 
ATOM     15  O   UNL     1       9.001   4.442  21.441  1.00  0.00    -0.544 OA
ATOM     16  O   UNL     1       6.827   3.945  20.928  1.00  0.00    -0.544 OA
ENDBRANCH   9  14
ENDBRANCH   8   9
ENDBRANCH   1   8
TORSDOF 7
ENDMDL
MODEL 8
REMARK VINA RESULT:    -4.219      2.924      3.739
REMARK INTER + INTRA:          -5.966
REMARK INTER:                  -5.776
REMARK INTRA:                  -0.191
REMARK UNBOUND:                -0.267
REMARK SMILES [NH3+]CCCC[C@@H]([NH3+])C(=O)[O-]
REMARK SMILES IDX 4 1 3 2 2 3 1 4 5 8 6 9 7 10 8 14 9 15 10 16
REMARK H PARENT 1 5 1 6 1 7 7 11 7 12 7 13
REMARK Flexibility Score: inf
ROOT
ATOM      1  C   UNL     1       9.350   4.021  17.727  1.00  0.00     0.012 C 
ENDROOT
BRANCH   1   2
ATOM      2  C   UNL     1       8.603   3.062  16.790  1.00  0.00     0.061 C 
BRANCH   2   3
ATOM      3  C   UNL     1       7.659   3.795  15.823  1.00  0.00     0.258 C 
BRANCH   3   4
ATOM      4  N   UNL     1       7.447   3.046  14.583  1.00  0.00    -0.358 N 
ATOM      5  H   UNL     1       6.723   2.307  14.724  1.00  0.00     0.344 HD
ATOM      6  H   UNL     1       8.342   2.581  14.310  1.00  0.00     0.344 HD
ATOM      7  H   UNL     1       7.156   3.691  13.812  1.00  0.00     0.344 HD
ENDBRANCH   3   4
ENDBRANCH   2   3
ENDBRANCH   1   2
BRANCH   1   8
ATOM      8  C   UNL     1       8.636   4.126  19.087  1.00  0.00     0.072 C 
BRANCH   8   9
ATOM      9  C   UNL     1       7.594   5.266  19.173  1.00  0.00     0.227 C 
BRANCH   9  10
ATOM     10  N   UNL     1       6.960   5.340  20.497  1.00  0.00    -0.350 N 
ATOM     11  H   UNL     1       7.370   6.108  21.076  1.00  0.00     0.345 HD
ATOM     12  H   UNL     1       7.080   4.430  21.000  1.00  0.00     0.345 HD
ATOM     13  H   UNL     1       5.936   5.517  20.383  1.00  0.00     0.345 HD
ENDBRANCH   9  10
BRANCH   9  14
ATOM     14  C   UNL     1       8.188   6.591  18.768  1.00  0.00     0.099 C 
ATOM     15  O   UNL     1       7.862   7.142  17.682  1.00  0.00    -0.544 OA
ATOM     16  O   UNL     1       9.069   7.241  19.624  1.00  0.00    -0.544 OA
ENDBRANCH   9  14
ENDBRANCH   8   9
ENDBRANCH   1   8
TORSDOF 7
ENDMDL
MODEL 9
REMARK VINA RESULT:    -4.205      2.636      4.630
REMARK INTER + INTRA:          -5.947
REMARK INTER:                  -5.791
REMARK INTRA:                  -0.156
REMARK UNBOUND:                -0.267
REMARK SMILES [NH3+]CCCC[C@@H]([NH3+])C(=O)[O-]
REMARK SMILES IDX 4 1 3 2 2 3 1 4 5 8 6 9 7 10 8 14 9 15 10 16
REMARK H PARENT 1 5 1 6 1 7 7 11 7 12 7 13
REMARK Flexibility Score: inf
ROOT
ATOM      1  C   UNL     1       9.179   6.310  18.418  1.00  0.00     0.012 C 
ENDROOT
BRANCH   1   2
ATOM      2  C   UNL     1       9.066   4.807  18.708  1.00  0.00     0.061 C 
BRANCH   2   3
ATOM      3  C   UNL     1       9.163   4.485  20.208  1.00  0.00     0.258 C 
BRANCH   3   4
ATOM      4  N   UNL     1      10.471   4.833  20.766  1.00  0.00    -0.358 N 
ATOM      5  H   UNL     1      11.195   4.850  20.012  1.00  0.00     0.344 HD
ATOM      6  H   UNL     1      10.745   4.108  21.467  1.00  0.00     0.344 HD
ATOM      7  H   UNL     1      10.429   5.762  21.244  1.00  0.00     0.344 HD
ENDBRANCH   3   4
ENDBRANCH   2   3
ENDBRANCH   1   2
BRANCH   1   8
ATOM      8  C   UNL     1       7.794   6.919  18.133  1.00  0.00     0.072 C 
BRANCH   8   9
ATOM      9  C   UNL     1       6.830   5.979  17.372  1.00  0.00     0.227 C 
BRANCH   9  10
ATOM     10  N   UNL     1       5.628   5.663  18.158  1.00  0.00    -0.350 N 
ATOM     11  H   UNL     1       5.045   4.931  17.689  1.00  0.00     0.345 HD
ATOM     12  H   UNL     1       5.052   6.526  18.290  1.00  0.00     0.345 HD
ATOM     13  H   UNL     1       5.911   5.312  19.101  1.00  0.00     0.345 HD
ENDBRANCH   9  10
BRANCH   9  14
ATOM     14  C   UNL     1       6.476   6.528  16.014  1.00  0.00     0.099 C 
ATOM     15  O   UNL     1       6.221   7.752  15.857  1.00  0.00    -0.544 OA
ATOM     16  O   UNL     1       6.480   5.686  14.909  1.00  0.00    -0.544 OA
ENDBRANCH   9  14
ENDBRANCH   8   9
ENDBRANCH   1   8
TORSDOF 7
ENDMDL
