MODEL 1
REMARK VINA RESULT:    -4.720      0.000      0.000
REMARK INTER + INTRA:          -8.125
REMARK INTER:                  -7.480
REMARK INTRA:                  -0.646
REMARK UNBOUND:                -0.646
REMARK SMILES CCCCCCCCCCCC(=O)[O-]
REMARK SMILES IDX 7 1 8 2 9 3 10 4 11 5 12 6 13 7 14 8 6 9 5 10 4 11 3 12 2 13
REMARK SMILES IDX 1 14
REMARK H PARENT
REMARK Flexibility Score: inf
ROOT
ATOM      1  C   UNL     1     -10.381  -6.008  -7.790  1.00  0.00     0.000 C 
ENDROOT
BRANCH   1   2
ATOM      2  C   UNL     1     -10.637  -4.525  -8.116  1.00  0.00     0.000 C 
BRANCH   2   3
ATOM      3  C   UNL     1     -11.411  -3.748  -7.034  1.00  0.00     0.000 C 
BRANCH   3   4
ATOM      4  C   UNL     1     -12.529  -4.571  -6.359  1.00  0.00     0.006 C 
BRANCH   4   5
ATOM      5  C   UNL     1     -12.320  -4.718  -4.847  1.00  0.00     0.053 C 
BRANCH   5   6
ATOM      6  C   UNL     1     -13.184  -5.810  -4.302  1.00  0.00     0.041 C 
ATOM      7  O   UNL     1     -13.766  -5.665  -3.195  1.00  0.00    -0.550 OA
ATOM      8  O   UNL     1     -13.387  -6.970  -5.039  1.00  0.00    -0.550 OA
ENDBRANCH   5   6
ENDBRANCH   4   5
ENDBRANCH   3   4
ENDBRANCH   2   3
ENDBRANCH   1   2
BRANCH   1   9
ATOM      9  C   UNL     1      -9.412  -6.259  -6.616  1.00  0.00     0.000 C 
BRANCH   9  10
ATOM     10  C   UNL     1      -9.897  -7.289  -5.578  1.00  0.00    -0.000 C 
BRANCH  10  11
ATOM     11  C   UNL     1      -8.779  -7.986  -4.775  1.00  0.00    -0.000 C 
BRANCH  11  12
ATOM     12  C   UNL     1      -8.633  -9.494  -5.041  1.00  0.00    -0.000 C 
BRANCH  12  13
ATOM     13  C   UNL     1      -7.187  -9.907  -5.355  1.00  0.00    -0.003 C 
ATOM     14  C   UNL     1      -7.149 -11.167  -6.214  1.00  0.00     0.004 C 
ENDBRANCH  12  13
ENDBRANCH  11  12
ENDBRANCH  10  11
ENDBRANCH   9  10
ENDBRANCH   1   9
TORSDOF 10
ENDMDL
MODEL 2
REMARK VINA RESULT:    -4.640      3.133      6.020
REMARK INTER + INTRA:          -7.999
REMARK INTER:                  -7.118
REMARK INTRA:                  -0.881
REMARK UNBOUND:                -0.646
REMARK SMILES CCCCCCCCCCCC(=O)[O-]
REMARK SMILES IDX 7 1 8 2 9 3 10 4 11 5 12 6 13 7 14 8 6 9 5 10 4 11 3 12 2 13
REMARK SMILES IDX 1 14
REMARK H PARENT
REMARK Flexibility Score: inf
ROOT
ATOM      1  C   UNL     1     -12.204  -6.900  -5.505  1.00  0.00     0.000 C 
ENDROOT
BRANCH   1   2
ATOM      2  C   UNL     1     -11.020  -7.819  -5.860  1.00  0.00     0.000 C 
BRANCH   2   3
ATOM      3  C   UNL     1      -9.630  -7.241  -5.532  1.00  0.00     0.000 C 
BRANCH   3   4
ATOM      4  C   UNL     1      -8.691  -8.242  -4.826  1.00  0.00     0.006 C 
BRANCH   4   5
ATOM      5  C   UNL     1      -9.109  -9.700  -5.053  1.00  0.00     0.053 C 
BRANCH   5   6
ATOM      6  C   UNL     1      -7.928 -10.528  -5.448  1.00  0.00     0.041 C 
ATOM      7  O   UNL     1      -8.074 -11.744  -5.737  1.00  0.00    -0.550 OA
ATOM      8  O   UNL     1      -6.671  -9.944  -5.545  1.00  0.00    -0.550 OA
ENDBRANCH   5   6
ENDBRANCH   4   5
ENDBRANCH   3   4
ENDBRANCH   2   3
ENDBRANCH   1   2
BRANCH   1   9
ATOM      9  C   UNL     1     -11.851  -5.405  -5.372  1.00  0.00     0.000 C 
BRANCH   9  10
ATOM     10  C   UNL     1     -12.653  -4.460  -6.288  1.00  0.00    -0.000 C 
BRANCH  10  11
ATOM     11  C   UNL     1     -11.855  -3.849  -7.458  1.00  0.00    -0.000 C 
BRANCH  11  12
ATOM     12  C   UNL     1     -10.556  -4.593  -7.817  1.00  0.00    -0.000 C 
BRANCH  12  13
ATOM     13  C   UNL     1     -10.660  -5.374  -9.134  1.00  0.00    -0.003 C 
ATOM     14  C   UNL     1     -11.094  -4.466 -10.280  1.00  0.00     0.004 C 
ENDBRANCH  12  13
ENDBRANCH  11  12
ENDBRANCH  10  11
ENDBRANCH   9  10
ENDBRANCH   1   9
TORSDOF 10
ENDMDL
MODEL 3
REMARK VINA RESULT:    -4.633      3.026      6.335
REMARK INTER + INTRA:          -7.988
REMARK INTER:                  -7.244
REMARK INTRA:                  -0.744
REMARK UNBOUND:                -0.646
REMARK SMILES CCCCCCCCCCCC(=O)[O-]
REMARK SMILES IDX 7 1 8 2 9 3 10 4 11 5 12 6 13 7 14 8 6 9 5 10 4 11 3 12 2 13
REMARK SMILES IDX 1 14
REMARK H PARENT
REMARK Flexibility Score: inf
ROOT
ATOM      1  C   UNL     1      -9.345  -6.215  -6.520  1.00  0.00     0.000 C 
ENDROOT
BRANCH   1   2
ATOM      2  C   UNL     1      -9.828  -7.243  -5.479  1.00  0.00     0.000 C 
BRANCH   2   3
ATOM      3  C   UNL     1      -8.714  -8.101  -4.851  1.00  0.00     0.000 C 
BRANCH   3   4
ATOM      4  C   UNL     1      -8.864  -9.613  -5.124  1.00  0.00     0.006 C 
BRANCH   4   5
ATOM      5  C   UNL     1      -7.514 -10.312  -5.322  1.00  0.00     0.053 C 
BRANCH   5   6
ATOM      6  C   UNL     1      -7.650 -11.450  -6.283  1.00  0.00     0.041 C 
ATOM      7  O   UNL     1      -6.677 -11.787  -7.008  1.00  0.00    -0.550 OA
ATOM      8  O   UNL     1      -8.835 -12.172  -6.344  1.00  0.00    -0.550 OA
ENDBRANCH   5   6
ENDBRANCH   4   5
ENDBRANCH   3   4
ENDBRANCH   2   3
ENDBRANCH   1   2
BRANCH   1   9
ATOM      9  C   UNL     1     -10.253  -6.067  -7.758  1.00  0.00     0.000 C 
BRANCH   9  10
ATOM     10  C   UNL     1     -10.797  -4.646  -8.003  1.00  0.00    -0.000 C 
BRANCH  10  11
ATOM     11  C   UNL     1     -11.369  -3.940  -6.756  1.00  0.00    -0.000 C 
BRANCH  11  12
ATOM     12  C   UNL     1     -12.737  -4.464  -6.284  1.00  0.00    -0.000 C 
BRANCH  12  13
ATOM     13  C   UNL     1     -12.683  -5.092  -4.883  1.00  0.00    -0.003 C 
ATOM     14  C   UNL     1     -13.205  -6.525  -4.902  1.00  0.00     0.004 C 
ENDBRANCH  12  13
ENDBRANCH  11  12
ENDBRANCH  10  11
ENDBRANCH   9  10
ENDBRANCH   1   9
TORSDOF 10
ENDMDL
MODEL 4
REMARK VINA RESULT:    -4.586      3.369      6.454
REMARK INTER + INTRA:          -7.913
REMARK INTER:                  -7.150
REMARK INTRA:                  -0.763
REMARK UNBOUND:                -0.646
REMARK SMILES CCCCCCCCCCCC(=O)[O-]
REMARK SMILES IDX 7 1 8 2 9 3 10 4 11 5 12 6 13 7 14 8 6 9 5 10 4 11 3 12 2 13
REMARK SMILES IDX 1 14
REMARK H PARENT
REMARK Flexibility Score: inf
ROOT
ATOM      1  C   UNL     1     -11.087  -7.173  -5.740  1.00  0.00     0.000 C 
ENDROOT
BRANCH   1   2
ATOM      2  C   UNL     1      -9.548  -7.155  -5.804  1.00  0.00     0.000 C 
BRANCH   2   3
ATOM      3  C   UNL     1      -8.845  -8.012  -4.734  1.00  0.00     0.000 C 
BRANCH   3   4
ATOM      4  C   UNL     1      -8.611  -9.476  -5.165  1.00  0.00     0.006 C 
BRANCH   4   5
ATOM      5  C   UNL     1      -7.161  -9.927  -4.951  1.00  0.00     0.053 C 
BRANCH   5   6
ATOM      6  C   UNL     1      -6.649 -10.638  -6.164  1.00  0.00     0.041 C 
ATOM      7  O   UNL     1      -5.498 -10.388  -6.607  1.00  0.00    -0.550 OA
ATOM      8  O   UNL     1      -7.425 -11.613  -6.777  1.00  0.00    -0.550 OA
ENDBRANCH   5   6
ENDBRANCH   4   5
ENDBRANCH   3   4
ENDBRANCH   2   3
ENDBRANCH   1   2
BRANCH   1   9
ATOM      9  C   UNL     1     -11.725  -5.943  -5.063  1.00  0.00     0.000 C 
BRANCH   9  10
ATOM     10  C   UNL     1     -12.659  -5.113  -5.965  1.00  0.00    -0.000 C 
BRANCH  10  11
ATOM     11  C   UNL     1     -12.102  -3.742  -6.400  1.00  0.00    -0.000 C 
BRANCH  11  12
ATOM     12  C   UNL     1     -10.889  -3.805  -7.346  1.00  0.00    -0.000 C 
BRANCH  12  13
ATOM     13  C   UNL     1     -11.266  -4.236  -8.771  1.00  0.00    -0.003 C 
ATOM     14  C   UNL     1     -10.720  -5.624  -9.088  1.00  0.00     0.004 C 
ENDBRANCH  12  13
ENDBRANCH  11  12
ENDBRANCH  10  11
ENDBRANCH   9  10
ENDBRANCH   1   9
TORSDOF 10
ENDMDL
MODEL 5
REMARK VINA RESULT:    -4.581      2.377      3.358
REMARK INTER + INTRA:          -7.905
REMARK INTER:                  -7.131
REMARK INTRA:                  -0.774
REMARK UNBOUND:                -0.646
REMARK SMILES CCCCCCCCCCCC(=O)[O-]
REMARK SMILES IDX 7 1 8 2 9 3 10 4 11 5 12 6 13 7 14 8 6 9 5 10 4 11 3 12 2 13
REMARK SMILES IDX 1 14
REMARK H PARENT
REMARK Flexibility Score: inf
ROOT
ATOM      1  C   UNL     1     -11.097  -7.673  -5.878  1.00  0.00     0.000 C 
ENDROOT
BRANCH   1   2
ATOM      2  C   UNL     1     -12.164  -6.616  -5.535  1.00  0.00     0.000 C 
BRANCH   2   3
ATOM      3  C   UNL     1     -11.661  -5.160  -5.546  1.00  0.00     0.000 C 
BRANCH   3   4
ATOM      4  C   UNL     1     -12.119  -4.353  -6.780  1.00  0.00     0.006 C 
BRANCH   4   5
ATOM      5  C   UNL     1     -10.941  -3.845  -7.619  1.00  0.00     0.053 C 
BRANCH   5   6
ATOM      6  C   UNL     1     -10.805  -4.649  -8.873  1.00  0.00     0.041 C 
ATOM      7  O   UNL     1     -10.566  -5.883  -8.812  1.00  0.00    -0.550 OA
ATOM      8  O   UNL     1     -10.993  -4.046 -10.110  1.00  0.00    -0.550 OA
ENDBRANCH   5   6
ENDBRANCH   4   5
ENDBRANCH   3   4
ENDBRANCH   2   3
ENDBRANCH   1   2
BRANCH   1   9
ATOM      9  C   UNL     1      -9.642  -7.238  -5.610  1.00  0.00     0.000 C 
BRANCH   9  10
ATOM     10  C   UNL     1      -8.754  -8.305  -4.940  1.00  0.00    -0.000 C 
BRANCH  10  11
ATOM     11  C   UNL     1      -9.246  -9.758  -5.097  1.00  0.00    -0.000 C 
BRANCH  11  12
ATOM     12  C   UNL     1      -8.145 -10.787  -5.408  1.00  0.00    -0.000 C 
BRANCH  12  13
ATOM     13  C   UNL     1      -6.729 -10.218  -5.229  1.00  0.00    -0.003 C 
ATOM     14  C   UNL     1      -5.888 -10.431  -6.483  1.00  0.00     0.004 C 
ENDBRANCH  12  13
ENDBRANCH  11  12
ENDBRANCH  10  11
ENDBRANCH   9  10
ENDBRANCH   1   9
TORSDOF 10
ENDMDL
MODEL 6
REMARK VINA RESULT:    -4.552      4.376      7.510
REMARK INTER + INTRA:          -7.859
REMARK INTER:                  -7.558
REMARK INTRA:                  -0.301
REMARK UNBOUND:                -0.646
REMARK SMILES CCCCCCCCCCCC(=O)[O-]
REMARK SMILES IDX 7 1 8 2 9 3 10 4 11 5 12 6 13 7 14 8 6 9 5 10 4 11 3 12 2 13
REMARK SMILES IDX 1 14
REMARK H PARENT
REMARK Flexibility Score: inf
ROOT
ATOM      1  C   UNL     1      -9.879  -7.956  -5.469  1.00  0.00     0.000 C 
ENDROOT
BRANCH   1   2
ATOM      2  C   UNL     1      -8.527  -8.475  -4.946  1.00  0.00     0.000 C 
BRANCH   2   3
ATOM      3  C   UNL     1      -8.293  -9.985  -5.138  1.00  0.00     0.000 C 
BRANCH   3   4
ATOM      4  C   UNL     1      -6.804 -10.391  -5.118  1.00  0.00     0.006 C 
BRANCH   4   5
ATOM      5  C   UNL     1      -6.149 -10.289  -6.501  1.00  0.00     0.053 C 
BRANCH   5   6
ATOM      6  C   UNL     1      -4.907 -11.121  -6.555  1.00  0.00     0.041 C 
ATOM      7  O   UNL     1      -3.910 -10.818  -5.848  1.00  0.00    -0.550 OA
ATOM      8  O   UNL     1      -4.867 -12.260  -7.348  1.00  0.00    -0.550 OA
ENDBRANCH   5   6
ENDBRANCH   4   5
ENDBRANCH   3   4
ENDBRANCH   2   3
ENDBRANCH   1   2
BRANCH   1   9
ATOM      9  C   UNL     1      -9.986  -6.422  -5.587  1.00  0.00     0.000 C 
BRANCH   9  10
ATOM     10  C   UNL     1      -9.639  -5.848  -6.975  1.00  0.00    -0.000 C 
BRANCH  10  11
ATOM     11  C   UNL     1     -10.853  -5.494  -7.859  1.00  0.00    -0.000 C 
BRANCH  11  12
ATOM     12  C   UNL     1     -11.129  -3.988  -8.011  1.00  0.00    -0.000 C 
BRANCH  12  13
ATOM     13  C   UNL     1     -11.267  -3.551  -9.477  1.00  0.00    -0.003 C 
ATOM     14  C   UNL     1     -11.044  -4.725 -10.424  1.00  0.00     0.004 C 
ENDBRANCH  12  13
ENDBRANCH  11  12
ENDBRANCH  10  11
ENDBRANCH   9  10
ENDBRANCH   1   9
TORSDOF 10
ENDMDL
MODEL 7
REMARK VINA RESULT:    -4.518      4.252      7.603
REMARK INTER + INTRA:          -7.805
REMARK INTER:                  -7.329
REMARK INTRA:                  -0.475
REMARK UNBOUND:                -0.646
REMARK SMILES CCCCCCCCCCCC(=O)[O-]
REMARK SMILES IDX 7 1 8 2 9 3 10 4 11 5 12 6 13 7 14 8 6 9 5 10 4 11 3 12 2 13
REMARK SMILES IDX 1 14
REMARK H PARENT
REMARK Flexibility Score: inf
ROOT
ATOM      1  C   UNL     1      -8.726  -8.339  -5.045  1.00  0.00     0.000 C 
ENDROOT
BRANCH   1   2
ATOM      2  C   UNL     1      -9.265  -9.781  -5.078  1.00  0.00     0.000 C 
BRANCH   2   3
ATOM      3  C   UNL     1      -8.221 -10.855  -5.439  1.00  0.00     0.000 C 
BRANCH   3   4
ATOM      4  C   UNL     1      -6.761 -10.385  -5.264  1.00  0.00     0.006 C 
BRANCH   4   5
ATOM      5  C   UNL     1      -6.016 -10.273  -6.600  1.00  0.00     0.053 C 
BRANCH   5   6
ATOM      6  C   UNL     1      -4.803 -11.150  -6.598  1.00  0.00     0.041 C 
ATOM      7  O   UNL     1      -4.755 -12.167  -7.338  1.00  0.00    -0.550 OA
ATOM      8  O   UNL     1      -3.706 -10.818  -5.814  1.00  0.00    -0.550 OA
ENDBRANCH   5   6
ENDBRANCH   4   5
ENDBRANCH   3   4
ENDBRANCH   2   3
ENDBRANCH   1   2
BRANCH   1   9
ATOM      9  C   UNL     1      -9.746  -7.253  -5.446  1.00  0.00     0.000 C 
BRANCH   9  10
ATOM     10  C   UNL     1      -9.249  -6.249  -6.504  1.00  0.00    -0.000 C 
BRANCH  10  11
ATOM     11  C   UNL     1     -10.296  -5.836  -7.558  1.00  0.00    -0.000 C 
BRANCH  11  12
ATOM     12  C   UNL     1     -10.575  -4.325  -7.640  1.00  0.00    -0.000 C 
BRANCH  12  13
ATOM     13  C   UNL     1     -12.068  -3.986  -7.517  1.00  0.00    -0.003 C 
ATOM     14  C   UNL     1     -12.618  -4.407  -6.159  1.00  0.00     0.004 C 
ENDBRANCH  12  13
ENDBRANCH  11  12
ENDBRANCH  10  11
ENDBRANCH   9  10
ENDBRANCH   1   9
TORSDOF 10
ENDMDL
MODEL 8
REMARK VINA RESULT:    -4.374      2.589      4.197
REMARK INTER + INTRA:          -7.577
REMARK INTER:                  -7.212
REMARK INTRA:                  -0.365
REMARK UNBOUND:                -0.646
REMARK SMILES CCCCCCCCCCCC(=O)[O-]
REMARK SMILES IDX 7 1 8 2 9 3 10 4 11 5 12 6 13 7 14 8 6 9 5 10 4 11 3 12 2 13
REMARK SMILES IDX 1 14
REMARK H PARENT
REMARK Flexibility Score: inf
ROOT
ATOM      1  C   UNL     1      -8.645  -8.219  -4.971  1.00  0.00     0.000 C 
ENDROOT
BRANCH   1   2
ATOM      2  C   UNL     1      -9.643  -7.072  -5.223  1.00  0.00     0.000 C 
BRANCH   2   3
ATOM      3  C   UNL     1      -9.434  -6.311  -6.546  1.00  0.00     0.000 C 
BRANCH   3   4
ATOM      4  C   UNL     1     -10.732  -6.105  -7.356  1.00  0.00     0.006 C 
BRANCH   4   5
ATOM      5  C   UNL     1     -10.476  -5.460  -8.723  1.00  0.00     0.053 C 
BRANCH   5   6
ATOM      6  C   UNL     1     -10.888  -4.022  -8.710  1.00  0.00     0.041 C 
ATOM      7  O   UNL     1     -11.039  -3.396  -9.792  1.00  0.00    -0.550 OA
ATOM      8  O   UNL     1     -11.155  -3.386  -7.504  1.00  0.00    -0.550 OA
ENDBRANCH   5   6
ENDBRANCH   4   5
ENDBRANCH   3   4
ENDBRANCH   2   3
ENDBRANCH   1   2
BRANCH   1   9
ATOM      9  C   UNL     1      -9.257  -9.634  -5.011  1.00  0.00     0.000 C 
BRANCH   9  10
ATOM     10  C   UNL     1      -8.312 -10.740  -5.520  1.00  0.00    -0.000 C 
BRANCH  10  11
ATOM     11  C   UNL     1      -6.822 -10.537  -5.177  1.00  0.00    -0.000 C 
BRANCH  11  12
ATOM     12  C   UNL     1      -5.915 -10.224  -6.380  1.00  0.00    -0.000 C 
BRANCH  12  13
ATOM     13  C   UNL     1      -4.841 -11.297  -6.612  1.00  0.00    -0.003 C 
ATOM     14  C   UNL     1      -3.563 -10.971  -5.847  1.00  0.00     0.004 C 
ENDBRANCH  12  13
ENDBRANCH  11  12
ENDBRANCH  10  11
ENDBRANCH   9  10
ENDBRANCH   1   9
TORSDOF 10
ENDMDL
MODEL 9
REMARK VINA RESULT:    -4.289      2.923      4.047
REMARK INTER + INTRA:          -7.442
REMARK INTER:                  -6.851
REMARK INTRA:                  -0.591
REMARK UNBOUND:                -0.646
REMARK SMILES CCCCCCCCCCCC(=O)[O-]
REMARK SMILES IDX 7 1 8 2 9 3 10 4 11 5 12 6 13 7 14 8 6 9 5 10 4 11 3 12 2 13
REMARK SMILES IDX 1 14
REMARK H PARENT
REMARK Flexibility Score: inf
ROOT
ATOM      1  C   UNL     1     -11.376  -7.783  -6.130  1.00  0.00     0.000 C 
ENDROOT
BRANCH   1   2
ATOM      2  C   UNL     1     -10.163  -6.997  -5.596  1.00  0.00     0.000 C 
BRANCH   2   3
ATOM      3  C   UNL     1      -9.416  -6.162  -6.653  1.00  0.00     0.000 C 
BRANCH   3   4
ATOM      4  C   UNL     1     -10.331  -5.207  -7.450  1.00  0.00     0.006 C 
BRANCH   4   5
ATOM      5  C   UNL     1     -10.516  -5.650  -8.907  1.00  0.00     0.053 C 
BRANCH   5   6
ATOM      6  C   UNL     1     -10.934  -4.491  -9.757  1.00  0.00     0.041 C 
ATOM      7  O   UNL     1     -11.490  -3.490  -9.235  1.00  0.00    -0.550 OA
ATOM      8  O   UNL     1     -10.664  -4.496 -11.119  1.00  0.00    -0.550 OA
ENDBRANCH   5   6
ENDBRANCH   4   5
ENDBRANCH   3   4
ENDBRANCH   2   3
ENDBRANCH   1   2
BRANCH   1   9
ATOM      9  C   UNL     1     -11.315  -9.307  -5.903  1.00  0.00     0.000 C 
BRANCH   9  10
ATOM     10  C   UNL     1     -10.043  -9.811  -5.193  1.00  0.00    -0.000 C 
BRANCH  10  11
ATOM     11  C   UNL     1      -9.653 -11.271  -5.504  1.00  0.00    -0.000 C 
BRANCH  11  12
ATOM     12  C   UNL     1      -8.155 -11.501  -5.767  1.00  0.00    -0.000 C 
BRANCH  12  13
ATOM     13  C   UNL     1      -7.285 -10.305  -5.352  1.00  0.00    -0.003 C 
ATOM     14  C   UNL     1      -6.218 -10.010  -6.400  1.00  0.00     0.004 C 
ENDBRANCH  12  13
ENDBRANCH  11  12
ENDBRANCH  10  11
ENDBRANCH   9  10
ENDBRANCH   1   9
TORSDOF 10
ENDMDL
