MODEL 1
REMARK VINA RESULT:    -5.151      0.000      0.000
REMARK INTER + INTRA:          -5.151
REMARK INTER:                  -5.151
REMARK INTRA:                   0.000
REMARK UNBOUND:                 0.000
REMARK SMILES CC(C)=C1CC[C@H](C)CC1=O
REMARK SMILES IDX 8 1 7 2 6 3 5 4 4 5 2 6 1 7 3 8 10 9 11 10 9 11
REMARK H PARENT
REMARK Flexibility Score: inf
ROOT
ATOM      1  C   UNL     1       3.370  17.199  -6.119  1.00  0.00     0.008 C 
ATOM      2  C   UNL     1       3.704  15.707  -6.236  1.00  0.00    -0.006 C 
ATOM      3  C   UNL     1       2.421  14.861  -6.204  1.00  0.00     0.008 C 
ATOM      4  C   UNL     1       2.742  13.361  -6.217  1.00  0.00     0.039 C 
ATOM      5  C   UNL     1       3.670  12.972  -7.359  1.00  0.00    -0.006 C 
ATOM      6  C   UNL     1       3.589  11.745  -7.954  1.00  0.00    -0.070 C 
ATOM      7  C   UNL     1       2.586  10.715  -7.489  1.00  0.00     0.039 C 
ATOM      8  C   UNL     1       4.467  11.368  -9.125  1.00  0.00     0.039 C 
ATOM      9  C   UNL     1       4.736  13.960  -7.703  1.00  0.00     0.159 C 
ATOM     10  O   UNL     1       5.859  13.588  -8.137  1.00  0.00    -0.295 OA
ATOM     11  C   UNL     1       4.484  15.430  -7.530  1.00  0.00     0.084 C 
ENDROOT
TORSDOF 0
ENDMDL
MODEL 2
REMARK VINA RESULT:    -4.520      1.623      2.109
REMARK INTER + INTRA:          -4.520
REMARK INTER:                  -4.520
REMARK INTRA:                   0.000
REMARK UNBOUND:                 0.000
REMARK SMILES CC(C)=C1CC[C@H](C)CC1=O
REMARK SMILES IDX 8 1 7 2 6 3 5 4 4 5 2 6 1 7 3 8 10 9 11 10 9 11
REMARK H PARENT
REMARK Flexibility Score: inf
ROOT
ATOM      1  C   UNL     1       3.443  17.334  -5.751  1.00  0.00     0.008 C 
ATOM      2  C   UNL     1       3.806  16.225  -6.746  1.00  0.00    -0.006 C 
ATOM      3  C   UNL     1       4.793  15.232  -6.112  1.00  0.00     0.008 C 
ATOM      4  C   UNL     1       5.246  14.173  -7.126  1.00  0.00     0.039 C 
ATOM      5  C   UNL     1       4.076  13.480  -7.809  1.00  0.00    -0.006 C 
ATOM      6  C   UNL     1       4.158  12.176  -8.209  1.00  0.00    -0.070 C 
ATOM      7  C   UNL     1       5.423  11.374  -8.007  1.00  0.00     0.039 C 
ATOM      8  C   UNL     1       2.985  11.461  -8.837  1.00  0.00     0.039 C 
ATOM      9  C   UNL     1       2.892  14.338  -8.114  1.00  0.00     0.159 C 
ATOM     10  O   UNL     1       2.171  14.124  -9.125  1.00  0.00    -0.295 OA
ATOM     11  C   UNL     1       2.543  15.486  -7.212  1.00  0.00     0.084 C 
ENDROOT
TORSDOF 0
ENDMDL
MODEL 3
REMARK VINA RESULT:    -4.389      1.285      4.118
REMARK INTER + INTRA:          -4.389
REMARK INTER:                  -4.389
REMARK INTRA:                   0.000
REMARK UNBOUND:                 0.000
REMARK SMILES CC(C)=C1CC[C@H](C)CC1=O
REMARK SMILES IDX 8 1 7 2 6 3 5 4 4 5 2 6 1 7 3 8 10 9 11 10 9 11
REMARK H PARENT
REMARK Flexibility Score: inf
ROOT
ATOM      1  C   UNL     1       4.499  11.333  -9.125  1.00  0.00     0.008 C 
ATOM      2  C   UNL     1       3.777  12.607  -8.669  1.00  0.00    -0.006 C 
ATOM      3  C   UNL     1       3.153  12.406  -7.279  1.00  0.00     0.008 C 
ATOM      4  C   UNL     1       2.339  13.635  -6.851  1.00  0.00     0.039 C 
ATOM      5  C   UNL     1       3.136  14.927  -6.953  1.00  0.00    -0.006 C 
ATOM      6  C   UNL     1       2.917  15.967  -6.094  1.00  0.00    -0.070 C 
ATOM      7  C   UNL     1       1.859  15.883  -5.018  1.00  0.00     0.039 C 
ATOM      8  C   UNL     1       3.739  17.233  -6.150  1.00  0.00     0.039 C 
ATOM      9  C   UNL     1       4.077  15.028  -8.109  1.00  0.00     0.159 C 
ATOM     10  O   UNL     1       4.322  16.135  -8.659  1.00  0.00    -0.295 OA
ATOM     11  C   UNL     1       4.748  13.796  -8.643  1.00  0.00     0.084 C 
ENDROOT
TORSDOF 0
ENDMDL
MODEL 4
REMARK VINA RESULT:    -4.246      1.473      4.494
REMARK INTER + INTRA:          -4.246
REMARK INTER:                  -4.246
REMARK INTRA:                   0.000
REMARK UNBOUND:                 0.000
REMARK SMILES CC(C)=C1CC[C@H](C)CC1=O
REMARK SMILES IDX 8 1 7 2 6 3 5 4 4 5 2 6 1 7 3 8 10 9 11 10 9 11
REMARK H PARENT
REMARK Flexibility Score: inf
ROOT
ATOM      1  C   UNL     1       2.625  10.249  -8.130  1.00  0.00     0.008 C 
ATOM      2  C   UNL     1       3.402  11.547  -7.876  1.00  0.00    -0.006 C 
ATOM      3  C   UNL     1       3.381  12.443  -9.125  1.00  0.00     0.008 C 
ATOM      4  C   UNL     1       4.238  13.699  -8.923  1.00  0.00     0.039 C 
ATOM      5  C   UNL     1       3.875  14.456  -7.654  1.00  0.00    -0.006 C 
ATOM      6  C   UNL     1       3.992  15.816  -7.580  1.00  0.00    -0.070 C 
ATOM      7  C   UNL     1       4.507  16.622  -8.750  1.00  0.00     0.039 C 
ATOM      8  C   UNL     1       3.581  16.584  -6.345  1.00  0.00     0.039 C 
ATOM      9  C   UNL     1       3.499  13.620  -6.475  1.00  0.00     0.159 C 
ATOM     10  O   UNL     1       3.754  13.993  -5.299  1.00  0.00    -0.295 OA
ATOM     11  C   UNL     1       2.808  12.302  -6.677  1.00  0.00     0.084 C 
ENDROOT
TORSDOF 0
ENDMDL
MODEL 5
REMARK VINA RESULT:    -4.042      1.663      2.519
REMARK INTER + INTRA:          -4.042
REMARK INTER:                  -4.042
REMARK INTRA:                   0.000
REMARK UNBOUND:                 0.000
REMARK SMILES CC(C)=C1CC[C@H](C)CC1=O
REMARK SMILES IDX 8 1 7 2 6 3 5 4 4 5 2 6 1 7 3 8 10 9 11 10 9 11
REMARK H PARENT
REMARK Flexibility Score: inf
ROOT
ATOM      1  C   UNL     1       3.688  17.887  -5.750  1.00  0.00     0.008 C 
ATOM      2  C   UNL     1       3.330  16.651  -6.584  1.00  0.00    -0.006 C 
ATOM      3  C   UNL     1       4.551  16.164  -7.381  1.00  0.00     0.008 C 
ATOM      4  C   UNL     1       4.185  14.990  -8.299  1.00  0.00     0.039 C 
ATOM      5  C   UNL     1       3.486  13.862  -7.553  1.00  0.00    -0.006 C 
ATOM      6  C   UNL     1       3.638  12.559  -7.932  1.00  0.00    -0.070 C 
ATOM      7  C   UNL     1       4.492  12.184  -9.122  1.00  0.00     0.039 C 
ATOM      8  C   UNL     1       2.995  11.426  -7.166  1.00  0.00     0.039 C 
ATOM      9  C   UNL     1       2.545  14.276  -6.469  1.00  0.00     0.159 C 
ATOM     10  O   UNL     1       1.516  13.599  -6.201  1.00  0.00    -0.295 OA
ATOM     11  C   UNL     1       2.811  15.524  -5.678  1.00  0.00     0.084 C 
ENDROOT
TORSDOF 0
ENDMDL
