MODEL 1
REMARK VINA RESULT:    -6.477      0.000      0.000
REMARK INTER + INTRA:         -13.320
REMARK INTER:                 -11.778
REMARK INTRA:                  -1.543
REMARK UNBOUND:                -1.543
REMARK SMILES CCCCCCCCCCCCCCCC(=O)[O-]
REMARK SMILES IDX 9 1 10 2 11 3 12 4 13 5 14 6 15 7 16 8 17 9 18 10 8 11 7 12
REMARK SMILES IDX 6 13 5 14 4 15 3 16 2 17 1 18
REMARK H PARENT
REMARK Flexibility Score: inf
ROOT
ATOM      1  C   UNL     1      19.836  70.885  72.631  1.00  0.00     0.000 C 
ENDROOT
BRANCH   1   2
ATOM      2  C   UNL     1      19.959  70.737  71.100  1.00  0.00     0.000 C 
BRANCH   2   3
ATOM      3  C   UNL     1      21.357  71.041  70.526  1.00  0.00     0.000 C 
BRANCH   3   4
ATOM      4  C   UNL     1      21.613  72.524  70.188  1.00  0.00     0.000 C 
BRANCH   4   5
ATOM      5  C   UNL     1      22.241  73.352  71.326  1.00  0.00     0.000 C 
BRANCH   5   6
ATOM      6  C   UNL     1      23.316  72.618  72.149  1.00  0.00     0.006 C 
BRANCH   6   7
ATOM      7  C   UNL     1      22.986  72.564  73.645  1.00  0.00     0.053 C 
BRANCH   7   8
ATOM      8  C   UNL     1      23.297  71.210  74.201  1.00  0.00     0.041 C 
ATOM      9  O   UNL     1      23.335  70.207  73.441  1.00  0.00    -0.550 OA
ATOM     10  O   UNL     1      23.594  71.064  75.550  1.00  0.00    -0.550 OA
ENDBRANCH   7   8
ENDBRANCH   6   7
ENDBRANCH   5   6
ENDBRANCH   4   5
ENDBRANCH   3   4
ENDBRANCH   2   3
ENDBRANCH   1   2
BRANCH   1  11
ATOM     11  C   UNL     1      19.140  72.173  73.103  1.00  0.00     0.000 C 
BRANCH  11  12
ATOM     12  C   UNL     1      18.380  72.888  71.972  1.00  0.00    -0.000 C 
BRANCH  12  13
ATOM     13  C   UNL     1      16.856  72.835  72.154  1.00  0.00    -0.000 C 
BRANCH  13  14
ATOM     14  C   UNL     1      16.310  71.395  72.134  1.00  0.00    -0.000 C 
BRANCH  14  15
ATOM     15  C   UNL     1      14.811  71.328  72.468  1.00  0.00    -0.000 C 
BRANCH  15  16
ATOM     16  C   UNL     1      14.345  69.901  72.807  1.00  0.00    -0.000 C 
BRANCH  16  17
ATOM     17  C   UNL     1      13.941  69.749  74.281  1.00  0.00    -0.003 C 
ATOM     18  C   UNL     1      14.854  70.523  75.231  1.00  0.00     0.004 C 
ENDBRANCH  16  17
ENDBRANCH  15  16
ENDBRANCH  14  15
ENDBRANCH  13  14
ENDBRANCH  12  13
ENDBRANCH  11  12
ENDBRANCH   1  11
TORSDOF 14
ENDMDL
MODEL 2
REMARK VINA RESULT:    -6.437      7.944     11.856
REMARK INTER + INTRA:         -13.248
REMARK INTER:                 -11.834
REMARK INTRA:                  -1.414
REMARK UNBOUND:                -1.543
REMARK SMILES CCCCCCCCCCCCCCCC(=O)[O-]
REMARK SMILES IDX 9 1 10 2 11 3 12 4 13 5 14 6 15 7 16 8 17 9 18 10 8 11 7 12
REMARK SMILES IDX 6 13 5 14 4 15 3 16 2 17 1 18
REMARK H PARENT
REMARK Flexibility Score: inf
ROOT
ATOM      1  C   UNL     1      11.379  72.615  73.859  1.00  0.00     0.000 C 
ENDROOT
BRANCH   1   2
ATOM      2  C   UNL     1      10.939  71.997  75.202  1.00  0.00     0.000 C 
BRANCH   2   3
ATOM      3  C   UNL     1       9.443  72.163  75.537  1.00  0.00     0.000 C 
BRANCH   3   4
ATOM      4  C   UNL     1       9.088  71.991  77.028  1.00  0.00     0.000 C 
BRANCH   4   5
ATOM      5  C   UNL     1       8.705  73.292  77.761  1.00  0.00     0.000 C 
BRANCH   5   6
ATOM      6  C   UNL     1       7.260  73.340  78.288  1.00  0.00     0.006 C 
BRANCH   6   7
ATOM      7  C   UNL     1       6.282  73.964  77.285  1.00  0.00     0.053 C 
BRANCH   7   8
ATOM      8  C   UNL     1       5.323  72.931  76.779  1.00  0.00     0.041 C 
ATOM      9  O   UNL     1       5.686  72.106  75.901  1.00  0.00    -0.550 OA
ATOM     10  O   UNL     1       4.044  72.850  77.315  1.00  0.00    -0.550 OA
ENDBRANCH   7   8
ENDBRANCH   6   7
ENDBRANCH   5   6
ENDBRANCH   4   5
ENDBRANCH   3   4
ENDBRANCH   2   3
ENDBRANCH   1   2
BRANCH   1  11
ATOM     11  C   UNL     1      11.154  71.718  72.629  1.00  0.00     0.000 C 
BRANCH  11  12
ATOM     12  C   UNL     1      12.397  71.623  71.726  1.00  0.00    -0.000 C 
BRANCH  12  13
ATOM     13  C   UNL     1      13.239  72.907  71.740  1.00  0.00    -0.000 C 
BRANCH  13  14
ATOM     14  C   UNL     1      14.677  72.664  72.234  1.00  0.00    -0.000 C 
BRANCH  14  15
ATOM     15  C   UNL     1      14.921  71.203  72.645  1.00  0.00    -0.000 C 
BRANCH  15  16
ATOM     16  C   UNL     1      14.963  71.017  74.172  1.00  0.00    -0.000 C 
BRANCH  16  17
ATOM     17  C   UNL     1      14.027  69.899  74.655  1.00  0.00    -0.003 C 
ATOM     18  C   UNL     1      13.982  69.779  76.178  1.00  0.00     0.004 C 
ENDBRANCH  16  17
ENDBRANCH  15  16
ENDBRANCH  14  15
ENDBRANCH  13  14
ENDBRANCH  12  13
ENDBRANCH  11  12
ENDBRANCH   1  11
TORSDOF 14
ENDMDL
MODEL 3
REMARK VINA RESULT:    -6.391      1.511      2.298
REMARK INTER + INTRA:         -13.163
REMARK INTER:                 -11.948
REMARK INTRA:                  -1.215
REMARK UNBOUND:                -1.543
REMARK SMILES CCCCCCCCCCCCCCCC(=O)[O-]
REMARK SMILES IDX 9 1 10 2 11 3 12 4 13 5 14 6 15 7 16 8 17 9 18 10 8 11 7 12
REMARK SMILES IDX 6 13 5 14 4 15 3 16 2 17 1 18
REMARK H PARENT
REMARK Flexibility Score: inf
ROOT
ATOM      1  C   UNL     1      19.793  73.467  70.517  1.00  0.00     0.000 C 
ENDROOT
BRANCH   1   2
ATOM      2  C   UNL     1      21.329  73.447  70.667  1.00  0.00     0.000 C 
BRANCH   2   3
ATOM      3  C   UNL     1      21.999  72.100  70.333  1.00  0.00     0.000 C 
BRANCH   3   4
ATOM      4  C   UNL     1      21.055  70.882  70.352  1.00  0.00     0.000 C 
BRANCH   4   5
ATOM      5  C   UNL     1      21.148  70.005  71.616  1.00  0.00     0.000 C 
BRANCH   5   6
ATOM      6  C   UNL     1      21.352  70.779  72.931  1.00  0.00     0.006 C 
BRANCH   6   7
ATOM      7  C   UNL     1      20.386  70.338  74.037  1.00  0.00     0.053 C 
BRANCH   7   8
ATOM      8  C   UNL     1      21.131  70.076  75.308  1.00  0.00     0.041 C 
ATOM      9  O   UNL     1      20.514  70.020  76.404  1.00  0.00    -0.550 OA
ATOM     10  O   UNL     1      22.500  69.845  75.276  1.00  0.00    -0.550 OA
ENDBRANCH   7   8
ENDBRANCH   6   7
ENDBRANCH   5   6
ENDBRANCH   4   5
ENDBRANCH   3   4
ENDBRANCH   2   3
ENDBRANCH   1   2
BRANCH   1  11
ATOM     11  C   UNL     1      19.013  73.374  71.840  1.00  0.00     0.000 C 
BRANCH  11  12
ATOM     12  C   UNL     1      17.511  73.109  71.627  1.00  0.00    -0.000 C 
BRANCH  12  13
ATOM     13  C   UNL     1      17.089  71.701  72.073  1.00  0.00    -0.000 C 
BRANCH  13  14
ATOM     14  C   UNL     1      15.734  71.696  72.805  1.00  0.00    -0.000 C 
BRANCH  14  15
ATOM     15  C   UNL     1      14.843  70.514  72.390  1.00  0.00    -0.000 C 
BRANCH  15  16
ATOM     16  C   UNL     1      14.027  69.948  73.565  1.00  0.00    -0.000 C 
BRANCH  16  17
ATOM     17  C   UNL     1      14.420  70.575  74.911  1.00  0.00    -0.003 C 
ATOM     18  C   UNL     1      13.990  69.730  76.110  1.00  0.00     0.004 C 
ENDBRANCH  16  17
ENDBRANCH  15  16
ENDBRANCH  14  15
ENDBRANCH  13  14
ENDBRANCH  12  13
ENDBRANCH  11  12
ENDBRANCH   1  11
TORSDOF 14
ENDMDL
MODEL 4
REMARK VINA RESULT:    -6.360      3.600      5.970
REMARK INTER + INTRA:         -13.108
REMARK INTER:                 -11.801
REMARK INTRA:                  -1.307
REMARK UNBOUND:                -1.543
REMARK SMILES CCCCCCCCCCCCCCCC(=O)[O-]
REMARK SMILES IDX 9 1 10 2 11 3 12 4 13 5 14 6 15 7 16 8 17 9 18 10 8 11 7 12
REMARK SMILES IDX 6 13 5 14 4 15 3 16 2 17 1 18
REMARK H PARENT
REMARK Flexibility Score: inf
ROOT
ATOM      1  C   UNL     1      16.364  70.924  78.594  1.00  0.00     0.000 C 
ENDROOT
BRANCH   1   2
ATOM      2  C   UNL     1      16.997  69.772  79.400  1.00  0.00     0.000 C 
BRANCH   2   3
ATOM      3  C   UNL     1      18.096  70.197  80.395  1.00  0.00     0.000 C 
BRANCH   3   4
ATOM      4  C   UNL     1      19.540  70.004  79.890  1.00  0.00     0.000 C 
BRANCH   4   5
ATOM      5  C   UNL     1      19.753  68.780  78.978  1.00  0.00     0.000 C 
BRANCH   5   6
ATOM      6  C   UNL     1      20.862  68.940  77.923  1.00  0.00     0.006 C 
BRANCH   6   7
ATOM      7  C   UNL     1      20.397  69.716  76.685  1.00  0.00     0.053 C 
BRANCH   7   8
ATOM      8  C   UNL     1      21.571  70.103  75.840  1.00  0.00     0.041 C 
ATOM      9  O   UNL     1      22.710  69.625  76.082  1.00  0.00    -0.550 OA
ATOM     10  O   UNL     1      21.396  70.952  74.755  1.00  0.00    -0.550 OA
ENDBRANCH   7   8
ENDBRANCH   6   7
ENDBRANCH   5   6
ENDBRANCH   4   5
ENDBRANCH   3   4
ENDBRANCH   2   3
ENDBRANCH   1   2
BRANCH   1  11
ATOM     11  C   UNL     1      17.029  71.206  77.235  1.00  0.00     0.000 C 
BRANCH  11  12
ATOM     12  C   UNL     1      16.053  71.065  76.054  1.00  0.00    -0.000 C 
BRANCH  12  13
ATOM     13  C   UNL     1      14.719  70.419  76.461  1.00  0.00    -0.000 C 
BRANCH  13  14
ATOM     14  C   UNL     1      14.016  69.724  75.281  1.00  0.00    -0.000 C 
BRANCH  14  15
ATOM     15  C   UNL     1      13.643  70.703  74.156  1.00  0.00    -0.000 C 
BRANCH  15  16
ATOM     16  C   UNL     1      14.160  70.246  72.780  1.00  0.00    -0.000 C 
BRANCH  16  17
ATOM     17  C   UNL     1      15.460  70.956  72.374  1.00  0.00    -0.003 C 
ATOM     18  C   UNL     1      15.337  72.480  72.394  1.00  0.00     0.004 C 
ENDBRANCH  16  17
ENDBRANCH  15  16
ENDBRANCH  14  15
ENDBRANCH  13  14
ENDBRANCH  12  13
ENDBRANCH  11  12
ENDBRANCH   1  11
TORSDOF 14
ENDMDL
MODEL 5
REMARK VINA RESULT:    -6.314      1.444      2.487
REMARK INTER + INTRA:         -13.024
REMARK INTER:                 -11.763
REMARK INTRA:                  -1.260
REMARK UNBOUND:                -1.543
REMARK SMILES CCCCCCCCCCCCCCCC(=O)[O-]
REMARK SMILES IDX 9 1 10 2 11 3 12 4 13 5 14 6 15 7 16 8 17 9 18 10 8 11 7 12
REMARK SMILES IDX 6 13 5 14 4 15 3 16 2 17 1 18
REMARK H PARENT
REMARK Flexibility Score: inf
ROOT
ATOM      1  C   UNL     1      17.156  71.771  73.048  1.00  0.00     0.000 C 
ENDROOT
BRANCH   1   2
ATOM      2  C   UNL     1      18.137  71.588  71.871  1.00  0.00     0.000 C 
BRANCH   2   3
ATOM      3  C   UNL     1      19.205  72.691  71.735  1.00  0.00     0.000 C 
BRANCH   3   4
ATOM      4  C   UNL     1      20.619  72.187  71.384  1.00  0.00     0.000 C 
BRANCH   4   5
ATOM      5  C   UNL     1      20.708  70.689  71.028  1.00  0.00     0.000 C 
BRANCH   5   6
ATOM      6  C   UNL     1      21.397  69.809  72.087  1.00  0.00     0.006 C 
BRANCH   6   7
ATOM      7  C   UNL     1      21.220  70.345  73.513  1.00  0.00     0.053 C 
BRANCH   7   8
ATOM      8  C   UNL     1      22.547  70.469  74.193  1.00  0.00     0.041 C 
ATOM      9  O   UNL     1      22.661  70.188  75.415  1.00  0.00    -0.550 OA
ATOM     10  O   UNL     1      23.668  70.848  73.465  1.00  0.00    -0.550 OA
ENDBRANCH   7   8
ENDBRANCH   6   7
ENDBRANCH   5   6
ENDBRANCH   4   5
ENDBRANCH   3   4
ENDBRANCH   2   3
ENDBRANCH   1   2
BRANCH   1  11
ATOM     11  C   UNL     1      16.221  72.986  72.928  1.00  0.00     0.000 C 
BRANCH  11  12
ATOM     12  C   UNL     1      15.072  72.758  71.930  1.00  0.00    -0.000 C 
BRANCH  12  13
ATOM     13  C   UNL     1      13.688  72.993  72.555  1.00  0.00    -0.000 C 
BRANCH  13  14
ATOM     14  C   UNL     1      12.850  71.704  72.635  1.00  0.00    -0.000 C 
BRANCH  14  15
ATOM     15  C   UNL     1      13.688  70.439  72.390  1.00  0.00    -0.000 C 
BRANCH  15  16
ATOM     16  C   UNL     1      14.178  69.792  73.698  1.00  0.00    -0.000 C 
BRANCH  16  17
ATOM     17  C   UNL     1      13.618  70.491  74.946  1.00  0.00    -0.003 C 
ATOM     18  C   UNL     1      14.320  70.062  76.234  1.00  0.00     0.004 C 
ENDBRANCH  16  17
ENDBRANCH  15  16
ENDBRANCH  14  15
ENDBRANCH  13  14
ENDBRANCH  12  13
ENDBRANCH  11  12
ENDBRANCH   1  11
TORSDOF 14
ENDMDL
MODEL 6
REMARK VINA RESULT:    -6.307      2.918      6.989
REMARK INTER + INTRA:         -13.011
REMARK INTER:                 -11.658
REMARK INTRA:                  -1.353
REMARK UNBOUND:                -1.543
REMARK SMILES CCCCCCCCCCCCCCCC(=O)[O-]
REMARK SMILES IDX 9 1 10 2 11 3 12 4 13 5 14 6 15 7 16 8 17 9 18 10 8 11 7 12
REMARK SMILES IDX 6 13 5 14 4 15 3 16 2 17 1 18
REMARK H PARENT
REMARK Flexibility Score: inf
ROOT
ATOM      1  C   UNL     1      17.192  71.865  72.082  1.00  0.00     0.000 C 
ENDROOT
BRANCH   1   2
ATOM      2  C   UNL     1      15.931  72.730  72.285  1.00  0.00     0.000 C 
BRANCH   2   3
ATOM      3  C   UNL     1      14.611  71.943  72.395  1.00  0.00     0.000 C 
BRANCH   3   4
ATOM      4  C   UNL     1      14.765  70.409  72.371  1.00  0.00     0.000 C 
BRANCH   4   5
ATOM      5  C   UNL     1      14.128  69.671  73.565  1.00  0.00     0.000 C 
BRANCH   5   6
ATOM      6  C   UNL     1      13.725  70.572  74.747  1.00  0.00     0.006 C 
BRANCH   6   7
ATOM      7  C   UNL     1      14.169  70.008  76.103  1.00  0.00     0.053 C 
BRANCH   7   8
ATOM      8  C   UNL     1      15.429  70.676  76.558  1.00  0.00     0.041 C 
ATOM      9  O   UNL     1      16.089  71.394  75.762  1.00  0.00    -0.550 OA
ATOM     10  O   UNL     1      15.847  70.544  77.876  1.00  0.00    -0.550 OA
ENDBRANCH   7   8
ENDBRANCH   6   7
ENDBRANCH   5   6
ENDBRANCH   4   5
ENDBRANCH   3   4
ENDBRANCH   2   3
ENDBRANCH   1   2
BRANCH   1  11
ATOM     11  C   UNL     1      18.447  72.368  72.817  1.00  0.00     0.000 C 
BRANCH  11  12
ATOM     12  C   UNL     1      18.897  71.421  73.944  1.00  0.00    -0.000 C 
BRANCH  12  13
ATOM     13  C   UNL     1      20.410  71.484  74.203  1.00  0.00    -0.000 C 
BRANCH  13  14
ATOM     14  C   UNL     1      21.191  70.430  73.398  1.00  0.00    -0.000 C 
BRANCH  14  15
ATOM     15  C   UNL     1      21.883  71.025  72.161  1.00  0.00    -0.000 C 
BRANCH  15  16
ATOM     16  C   UNL     1      21.176  70.645  70.848  1.00  0.00    -0.000 C 
BRANCH  16  17
ATOM     17  C   UNL     1      20.683  69.190  70.845  1.00  0.00    -0.003 C 
ATOM     18  C   UNL     1      20.031  68.786  69.523  1.00  0.00     0.004 C 
ENDBRANCH  16  17
ENDBRANCH  15  16
ENDBRANCH  14  15
ENDBRANCH  13  14
ENDBRANCH  12  13
ENDBRANCH  11  12
ENDBRANCH   1  11
TORSDOF 14
ENDMDL
MODEL 7
REMARK VINA RESULT:    -6.276      4.789      8.259
REMARK INTER + INTRA:         -12.955
REMARK INTER:                 -11.767
REMARK INTRA:                  -1.188
REMARK UNBOUND:                -1.543
REMARK SMILES CCCCCCCCCCCCCCCC(=O)[O-]
REMARK SMILES IDX 9 1 10 2 11 3 12 4 13 5 14 6 15 7 16 8 17 9 18 10 8 11 7 12
REMARK SMILES IDX 6 13 5 14 4 15 3 16 2 17 1 18
REMARK H PARENT
REMARK Flexibility Score: inf
ROOT
ATOM      1  C   UNL     1      16.317  72.650  73.911  1.00  0.00     0.000 C 
ENDROOT
BRANCH   1   2
ATOM      2  C   UNL     1      16.320  71.183  74.390  1.00  0.00     0.000 C 
BRANCH   2   3
ATOM      3  C   UNL     1      15.157  70.801  75.326  1.00  0.00     0.000 C 
BRANCH   3   4
ATOM      4  C   UNL     1      14.062  69.928  74.680  1.00  0.00     0.000 C 
BRANCH   4   5
ATOM      5  C   UNL     1      14.153  69.799  73.146  1.00  0.00     0.000 C 
BRANCH   5   6
ATOM      6  C   UNL     1      13.122  70.629  72.361  1.00  0.00     0.006 C 
BRANCH   6   7
ATOM      7  C   UNL     1      12.460  71.717  73.215  1.00  0.00     0.053 C 
BRANCH   7   8
ATOM      8  C   UNL     1      10.982  71.742  72.976  1.00  0.00     0.041 C 
ATOM      9  O   UNL     1      10.521  71.469  71.837  1.00  0.00    -0.550 OA
ATOM     10  O   UNL     1      10.113  72.019  74.023  1.00  0.00    -0.550 OA
ENDBRANCH   7   8
ENDBRANCH   6   7
ENDBRANCH   5   6
ENDBRANCH   4   5
ENDBRANCH   3   4
ENDBRANCH   2   3
ENDBRANCH   1   2
BRANCH   1  11
ATOM     11  C   UNL     1      16.001  72.842  72.417  1.00  0.00     0.000 C 
BRANCH  11  12
ATOM     12  C   UNL     1      17.219  73.326  71.609  1.00  0.00    -0.000 C 
BRANCH  12  13
ATOM     13  C   UNL     1      18.555  72.959  72.273  1.00  0.00    -0.000 C 
BRANCH  13  14
ATOM     14  C   UNL     1      19.202  71.712  71.644  1.00  0.00    -0.000 C 
BRANCH  14  15
ATOM     15  C   UNL     1      20.574  72.010  71.018  1.00  0.00    -0.000 C 
BRANCH  15  16
ATOM     16  C   UNL     1      21.176  70.788  70.304  1.00  0.00    -0.000 C 
BRANCH  16  17
ATOM     17  C   UNL     1      20.469  69.477  70.681  1.00  0.00    -0.003 C 
ATOM     18  C   UNL     1      20.071  68.644  69.463  1.00  0.00     0.004 C 
ENDBRANCH  16  17
ENDBRANCH  15  16
ENDBRANCH  14  15
ENDBRANCH  13  14
ENDBRANCH  12  13
ENDBRANCH  11  12
ENDBRANCH   1  11
TORSDOF 14
ENDMDL
MODEL 8
REMARK VINA RESULT:    -6.265      2.379      6.456
REMARK INTER + INTRA:         -12.934
REMARK INTER:                 -11.775
REMARK INTRA:                  -1.159
REMARK UNBOUND:                -1.543
REMARK SMILES CCCCCCCCCCCCCCCC(=O)[O-]
REMARK SMILES IDX 9 1 10 2 11 3 12 4 13 5 14 6 15 7 16 8 17 9 18 10 8 11 7 12
REMARK SMILES IDX 6 13 5 14 4 15 3 16 2 17 1 18
REMARK H PARENT
REMARK Flexibility Score: inf
ROOT
ATOM      1  C   UNL     1      15.668  71.010  72.343  1.00  0.00     0.000 C 
ENDROOT
BRANCH   1   2
ATOM      2  C   UNL     1      14.273  70.373  72.513  1.00  0.00     0.000 C 
BRANCH   2   3
ATOM      3  C   UNL     1      14.044  69.652  73.856  1.00  0.00     0.000 C 
BRANCH   3   4
ATOM      4  C   UNL     1      13.777  70.583  75.056  1.00  0.00     0.000 C 
BRANCH   4   5
ATOM      5  C   UNL     1      14.732  70.398  76.250  1.00  0.00     0.000 C 
BRANCH   5   6
ATOM      6  C   UNL     1      16.093  71.105  76.111  1.00  0.00     0.006 C 
BRANCH   6   7
ATOM      7  C   UNL     1      16.895  71.114  77.418  1.00  0.00     0.053 C 
BRANCH   7   8
ATOM      8  C   UNL     1      18.192  71.838  77.230  1.00  0.00     0.041 C 
ATOM      9  O   UNL     1      18.549  72.721  78.052  1.00  0.00    -0.550 OA
ATOM     10  O   UNL     1      19.029  71.500  76.175  1.00  0.00    -0.550 OA
ENDBRANCH   7   8
ENDBRANCH   6   7
ENDBRANCH   5   6
ENDBRANCH   4   5
ENDBRANCH   3   4
ENDBRANCH   2   3
ENDBRANCH   1   2
BRANCH   1  11
ATOM     11  C   UNL     1      15.695  72.545  72.448  1.00  0.00     0.000 C 
BRANCH  11  12
ATOM     12  C   UNL     1      17.073  73.140  72.107  1.00  0.00    -0.000 C 
BRANCH  12  13
ATOM     13  C   UNL     1      18.129  72.063  71.816  1.00  0.00    -0.000 C 
BRANCH  13  14
ATOM     14  C   UNL     1      19.401  72.240  72.664  1.00  0.00    -0.000 C 
BRANCH  14  15
ATOM     15  C   UNL     1      20.501  71.230  72.298  1.00  0.00    -0.000 C 
BRANCH  15  16
ATOM     16  C   UNL     1      20.381  70.726  70.849  1.00  0.00    -0.000 C 
BRANCH  16  17
ATOM     17  C   UNL     1      20.590  69.208  70.735  1.00  0.00    -0.003 C 
ATOM     18  C   UNL     1      20.085  68.636  69.410  1.00  0.00     0.004 C 
ENDBRANCH  16  17
ENDBRANCH  15  16
ENDBRANCH  14  15
ENDBRANCH  13  14
ENDBRANCH  12  13
ENDBRANCH  11  12
ENDBRANCH   1  11
TORSDOF 14
ENDMDL
MODEL 9
REMARK VINA RESULT:    -6.184      2.496      3.166
REMARK INTER + INTRA:         -12.789
REMARK INTER:                 -11.247
REMARK INTRA:                  -1.542
REMARK UNBOUND:                -1.543
REMARK SMILES CCCCCCCCCCCCCCCC(=O)[O-]
REMARK SMILES IDX 9 1 10 2 11 3 12 4 13 5 14 6 15 7 16 8 17 9 18 10 8 11 7 12
REMARK SMILES IDX 6 13 5 14 4 15 3 16 2 17 1 18
REMARK H PARENT
REMARK Flexibility Score: inf
ROOT
ATOM      1  C   UNL     1      19.184  72.676  71.509  1.00  0.00     0.000 C 
ENDROOT
BRANCH   1   2
ATOM      2  C   UNL     1      19.297  71.138  71.548  1.00  0.00     0.000 C 
BRANCH   2   3
ATOM      3  C   UNL     1      20.519  70.593  72.314  1.00  0.00     0.000 C 
BRANCH   3   4
ATOM      4  C   UNL     1      21.292  71.643  73.137  1.00  0.00     0.000 C 
BRANCH   4   5
ATOM      5  C   UNL     1      20.846  71.776  74.607  1.00  0.00     0.000 C 
BRANCH   5   6
ATOM      6  C   UNL     1      20.055  70.575  75.158  1.00  0.00     0.006 C 
BRANCH   6   7
ATOM      7  C   UNL     1      20.819  69.808  76.245  1.00  0.00     0.053 C 
BRANCH   7   8
ATOM      8  C   UNL     1      19.975  69.665  77.473  1.00  0.00     0.041 C 
ATOM      9  O   UNL     1      18.972  70.406  77.642  1.00  0.00    -0.550 OA
ATOM     10  O   UNL     1      20.268  68.679  78.405  1.00  0.00    -0.550 OA
ENDBRANCH   7   8
ENDBRANCH   6   7
ENDBRANCH   5   6
ENDBRANCH   4   5
ENDBRANCH   3   4
ENDBRANCH   2   3
ENDBRANCH   1   2
BRANCH   1  11
ATOM     11  C   UNL     1      17.843  73.239  72.010  1.00  0.00     0.000 C 
BRANCH  11  12
ATOM     12  C   UNL     1      17.250  72.422  73.172  1.00  0.00    -0.000 C 
BRANCH  12  13
ATOM     13  C   UNL     1      15.744  72.166  73.009  1.00  0.00    -0.000 C 
BRANCH  13  14
ATOM     14  C   UNL     1      15.447  70.913  72.165  1.00  0.00    -0.000 C 
BRANCH  14  15
ATOM     15  C   UNL     1      14.297  70.072  72.742  1.00  0.00    -0.000 C 
BRANCH  15  16
ATOM     16  C   UNL     1      13.763  70.633  74.072  1.00  0.00    -0.000 C 
BRANCH  16  17
ATOM     17  C   UNL     1      14.046  69.702  75.260  1.00  0.00    -0.003 C 
ATOM     18  C   UNL     1      14.667  70.430  76.452  1.00  0.00     0.004 C 
ENDBRANCH  16  17
ENDBRANCH  15  16
ENDBRANCH  14  15
ENDBRANCH  13  14
ENDBRANCH  12  13
ENDBRANCH  11  12
ENDBRANCH   1  11
TORSDOF 14
ENDMDL
