MODEL 1
REMARK VINA RESULT:    -3.046      0.000      0.000
REMARK INTER + INTRA:          -3.593
REMARK INTER:                  -3.491
REMARK INTRA:                  -0.103
REMARK UNBOUND:                -0.103
REMARK SMILES COc1cc(C(=O)[O-])ccc1O
REMARK SMILES IDX 5 1 9 2 4 3 10 4 3 5 11 6 6 7 7 8 8 9 2 10 1 11 12 12
REMARK H PARENT 12 13
REMARK Flexibility Score: inf
ROOT
ATOM      1  C   UNL     1     200.831 194.445 197.695  1.00  0.00     0.001 A 
ATOM      2  C   UNL     1     202.150 194.776 198.048  1.00  0.00     0.014 A 
ATOM      3  C   UNL     1     199.973 195.459 197.232  1.00  0.00     0.060 A 
ATOM      4  C   UNL     1     202.602 196.092 197.942  1.00  0.00     0.051 A 
ATOM      5  C   UNL     1     200.425 196.789 197.123  1.00  0.00     0.161 A 
ATOM      6  C   UNL     1     201.745 197.098 197.481  1.00  0.00     0.157 A 
ENDROOT
BRANCH   1   7
ATOM      7  C   UNL     1     200.348 193.050 197.806  1.00  0.00     0.072 C 
ATOM      8  O   UNL     1     199.133 192.776 197.610  1.00  0.00    -0.545 OA
ATOM      9  O   UNL     1     201.226 192.022 198.125  1.00  0.00    -0.545 OA
ENDBRANCH   1   7
BRANCH   5  10
ATOM     10  O   UNL     1     199.598 197.827 196.666  1.00  0.00    -0.493 OA
ATOM     11  C   UNL     1     198.629 198.499 197.466  1.00  0.00     0.278 C 
ENDBRANCH   5  10
BRANCH   6  12
ATOM     12  O   UNL     1     202.198 198.412 197.375  1.00  0.00    -0.504 OA
ATOM     13  H   UNL     1     201.726 199.176 197.844  1.00  0.00     0.293 HD
ENDBRANCH   6  12
TORSDOF 3
ENDMDL
MODEL 2
REMARK VINA RESULT:    -3.013      2.437      3.027
REMARK INTER + INTRA:          -3.556
REMARK INTER:                  -3.464
REMARK INTRA:                  -0.092
REMARK UNBOUND:                -0.103
REMARK SMILES COc1cc(C(=O)[O-])ccc1O
REMARK SMILES IDX 5 1 9 2 4 3 10 4 3 5 11 6 6 7 7 8 8 9 2 10 1 11 12 12
REMARK H PARENT 12 13
REMARK Flexibility Score: inf
ROOT
ATOM      1  C   UNL     1     202.733 195.050 196.723  1.00  0.00     0.001 A 
ATOM      2  C   UNL     1     202.616 195.917 197.821  1.00  0.00     0.014 A 
ATOM      3  C   UNL     1     201.928 195.270 195.590  1.00  0.00     0.060 A 
ATOM      4  C   UNL     1     201.713 196.982 197.790  1.00  0.00     0.051 A 
ATOM      5  C   UNL     1     201.015 196.344 195.554  1.00  0.00     0.161 A 
ATOM      6  C   UNL     1     200.914 197.197 196.661  1.00  0.00     0.157 A 
ENDROOT
BRANCH   1   7
ATOM      7  C   UNL     1     203.689 193.921 196.752  1.00  0.00     0.072 C 
ATOM      8  O   UNL     1     204.125 193.423 195.679  1.00  0.00    -0.545 OA
ATOM      9  O   UNL     1     204.121 193.393 197.962  1.00  0.00    -0.545 OA
ENDBRANCH   1   7
BRANCH   5  10
ATOM     10  O   UNL     1     200.197 196.594 194.442  1.00  0.00    -0.493 OA
ATOM     11  C   UNL     1     200.669 196.716 193.103  1.00  0.00     0.278 C 
ENDBRANCH   5  10
BRANCH   6  12
ATOM     12  O   UNL     1     200.014 198.261 196.631  1.00  0.00    -0.504 OA
ATOM     13  H   UNL     1     199.275 198.312 195.940  1.00  0.00     0.293 HD
ENDBRANCH   6  12
TORSDOF 3
ENDMDL
MODEL 3
REMARK VINA RESULT:    -2.982      2.155      3.724
REMARK INTER + INTRA:          -3.520
REMARK INTER:                  -3.428
REMARK INTRA:                  -0.092
REMARK UNBOUND:                -0.103
REMARK SMILES COc1cc(C(=O)[O-])ccc1O
REMARK SMILES IDX 5 1 9 2 4 3 10 4 3 5 11 6 6 7 7 8 8 9 2 10 1 11 12 12
REMARK H PARENT 12 13
REMARK Flexibility Score: inf
ROOT
ATOM      1  C   UNL     1     198.326 196.594 197.399  1.00  0.00     0.001 A 
ATOM      2  C   UNL     1     198.484 197.989 197.370  1.00  0.00     0.014 A 
ATOM      3  C   UNL     1     199.471 195.778 197.443  1.00  0.00     0.060 A 
ATOM      4  C   UNL     1     199.759 198.557 197.384  1.00  0.00     0.051 A 
ATOM      5  C   UNL     1     200.760 196.347 197.457  1.00  0.00     0.161 A 
ATOM      6  C   UNL     1     200.896 197.741 197.427  1.00  0.00     0.157 A 
ENDROOT
BRANCH   1   7
ATOM      7  C   UNL     1     196.976 195.987 197.385  1.00  0.00     0.072 C 
ATOM      8  O   UNL     1     196.063 196.441 198.125  1.00  0.00    -0.545 OA
ATOM      9  O   UNL     1     196.695 194.909 196.554  1.00  0.00    -0.545 OA
ENDBRANCH   1   7
BRANCH   5  10
ATOM     10  O   UNL     1     201.925 195.564 197.500  1.00  0.00    -0.493 OA
ATOM     11  C   UNL     1     202.554 194.989 196.359  1.00  0.00     0.278 C 
ENDBRANCH   5  10
BRANCH   6  12
ATOM     12  O   UNL     1     202.168 198.311 197.441  1.00  0.00    -0.504 OA
ATOM     13  H   UNL     1     202.334 199.230 197.836  1.00  0.00     0.293 HD
ENDBRANCH   6  12
TORSDOF 3
ENDMDL
MODEL 4
REMARK VINA RESULT:    -2.791      2.456      4.342
REMARK INTER + INTRA:          -3.301
REMARK INTER:                  -3.215
REMARK INTRA:                  -0.086
REMARK UNBOUND:                -0.103
REMARK SMILES COc1cc(C(=O)[O-])ccc1O
REMARK SMILES IDX 5 1 9 2 4 3 10 4 3 5 11 6 6 7 7 8 8 9 2 10 1 11 12 12
REMARK H PARENT 12 13
REMARK Flexibility Score: inf
ROOT
ATOM      1  C   UNL     1     200.872 196.872 196.869  1.00  0.00     0.001 A 
ATOM      2  C   UNL     1     201.614 196.682 198.047  1.00  0.00     0.014 A 
ATOM      3  C   UNL     1     201.204 196.123 195.726  1.00  0.00     0.060 A 
ATOM      4  C   UNL     1     202.665 195.764 198.081  1.00  0.00     0.051 A 
ATOM      5  C   UNL     1     202.264 195.196 195.755  1.00  0.00     0.161 A 
ATOM      6  C   UNL     1     202.992 195.021 196.941  1.00  0.00     0.157 A 
ENDROOT
BRANCH   1   7
ATOM      7  C   UNL     1     199.757 197.844 196.829  1.00  0.00     0.072 C 
ATOM      8  O   UNL     1     199.671 198.756 197.695  1.00  0.00    -0.545 OA
ATOM      9  O   UNL     1     198.788 197.766 195.836  1.00  0.00    -0.545 OA
ENDBRANCH   1   7
BRANCH   5  10
ATOM     10  O   UNL     1     202.623 194.431 194.634  1.00  0.00    -0.493 OA
ATOM     11  C   UNL     1     202.572 194.898 193.289  1.00  0.00     0.278 C 
ENDBRANCH   5  10
BRANCH   6  12
ATOM     12  O   UNL     1     204.041 194.105 196.977  1.00  0.00    -0.504 OA
ATOM     13  H   UNL     1     204.909 194.271 196.481  1.00  0.00     0.293 HD
ENDBRANCH   6  12
TORSDOF 3
ENDMDL
MODEL 5
REMARK VINA RESULT:    -2.785      2.504      3.308
REMARK INTER + INTRA:          -3.295
REMARK INTER:                  -3.211
REMARK INTRA:                  -0.083
REMARK UNBOUND:                -0.103
REMARK SMILES COc1cc(C(=O)[O-])ccc1O
REMARK SMILES IDX 5 1 9 2 4 3 10 4 3 5 11 6 6 7 7 8 8 9 2 10 1 11 12 12
REMARK H PARENT 12 13
REMARK Flexibility Score: inf
ROOT
ATOM      1  C   UNL     1     198.174 196.647 197.407  1.00  0.00     0.001 A 
ATOM      2  C   UNL     1     199.328 195.855 197.525  1.00  0.00     0.014 A 
ATOM      3  C   UNL     1     198.312 198.043 197.303  1.00  0.00     0.060 A 
ATOM      4  C   UNL     1     200.593 196.446 197.541  1.00  0.00     0.051 A 
ATOM      5  C   UNL     1     199.586 198.644 197.318  1.00  0.00     0.161 A 
ATOM      6  C   UNL     1     200.725 197.835 197.437  1.00  0.00     0.157 A 
ENDROOT
BRANCH   1   7
ATOM      7  C   UNL     1     196.831 196.025 197.390  1.00  0.00     0.072 C 
ATOM      8  O   UNL     1     195.896 196.503 198.086  1.00  0.00    -0.545 OA
ATOM      9  O   UNL     1     196.582 194.906 196.606  1.00  0.00    -0.545 OA
ENDBRANCH   1   7
BRANCH   5  10
ATOM     10  O   UNL     1     199.762 200.032 197.216  1.00  0.00    -0.493 OA
ATOM     11  C   UNL     1     198.969 200.889 196.399  1.00  0.00     0.278 C 
ENDBRANCH   5  10
BRANCH   6  12
ATOM     12  O   UNL     1     201.989 198.423 197.452  1.00  0.00    -0.504 OA
ATOM     13  H   UNL     1     202.220 199.201 196.846  1.00  0.00     0.293 HD
ENDBRANCH   6  12
TORSDOF 3
ENDMDL
MODEL 6
REMARK VINA RESULT:    -2.772      1.573      2.140
REMARK INTER + INTRA:          -3.279
REMARK INTER:                  -3.185
REMARK INTRA:                  -0.094
REMARK UNBOUND:                -0.103
REMARK SMILES COc1cc(C(=O)[O-])ccc1O
REMARK SMILES IDX 5 1 9 2 4 3 10 4 3 5 11 6 6 7 7 8 8 9 2 10 1 11 12 12
REMARK H PARENT 12 13
REMARK Flexibility Score: inf
ROOT
ATOM      1  C   UNL     1     201.873 194.749 197.930  1.00  0.00     0.001 A 
ATOM      2  C   UNL     1     202.557 195.965 197.773  1.00  0.00     0.014 A 
ATOM      3  C   UNL     1     200.471 194.764 198.048  1.00  0.00     0.060 A 
ATOM      4  C   UNL     1     201.856 197.172 197.735  1.00  0.00     0.051 A 
ATOM      5  C   UNL     1     199.759 195.979 198.010  1.00  0.00     0.161 A 
ATOM      6  C   UNL     1     200.461 197.182 197.853  1.00  0.00     0.157 A 
ENDROOT
BRANCH   1   7
ATOM      7  C   UNL     1     202.613 193.467 197.970  1.00  0.00     0.072 C 
ATOM      8  O   UNL     1     201.998 192.378 198.125  1.00  0.00    -0.545 OA
ATOM      9  O   UNL     1     203.996 193.446 197.835  1.00  0.00    -0.545 OA
ENDBRANCH   1   7
BRANCH   5  10
ATOM     10  O   UNL     1     198.361 196.032 198.124  1.00  0.00    -0.493 OA
ATOM     11  C   UNL     1     197.456 195.870 197.036  1.00  0.00     0.278 C 
ENDBRANCH   5  10
BRANCH   6  12
ATOM     12  O   UNL     1     199.762 198.388 197.814  1.00  0.00    -0.504 OA
ATOM     13  H   UNL     1     198.886 198.478 197.313  1.00  0.00     0.293 HD
ENDBRANCH   6  12
TORSDOF 3
ENDMDL
MODEL 7
REMARK VINA RESULT:    -2.731      3.341      4.588
REMARK INTER + INTRA:          -3.233
REMARK INTER:                  -3.137
REMARK INTRA:                  -0.096
REMARK UNBOUND:                -0.103
REMARK SMILES COc1cc(C(=O)[O-])ccc1O
REMARK SMILES IDX 5 1 9 2 4 3 10 4 3 5 11 6 6 7 7 8 8 9 2 10 1 11 12 12
REMARK H PARENT 12 13
REMARK Flexibility Score: inf
ROOT
ATOM      1  C   UNL     1     201.986 195.782 196.578  1.00  0.00     0.001 A 
ATOM      2  C   UNL     1     202.913 194.917 197.182  1.00  0.00     0.014 A 
ATOM      3  C   UNL     1     201.781 195.701 195.188  1.00  0.00     0.060 A 
ATOM      4  C   UNL     1     203.621 193.991 196.415  1.00  0.00     0.051 A 
ATOM      5  C   UNL     1     202.494 194.768 194.410  1.00  0.00     0.161 A 
ATOM      6  C   UNL     1     203.415 193.914 195.032  1.00  0.00     0.157 A 
ENDROOT
BRANCH   1   7
ATOM      7  C   UNL     1     201.232 196.765 197.388  1.00  0.00     0.072 C 
ATOM      8  O   UNL     1     201.586 197.974 197.419  1.00  0.00    -0.545 OA
ATOM      9  O   UNL     1     200.122 196.370 198.125  1.00  0.00    -0.545 OA
ENDBRANCH   1   7
BRANCH   5  10
ATOM     10  O   UNL     1     202.316 194.658 193.022  1.00  0.00    -0.493 OA
ATOM     11  C   UNL     1     202.840 195.575 192.066  1.00  0.00     0.278 C 
ENDBRANCH   5  10
BRANCH   6  12
ATOM     12  O   UNL     1     204.123 192.988 194.268  1.00  0.00    -0.504 OA
ATOM     13  H   UNL     1     203.651 192.338 193.650  1.00  0.00     0.293 HD
ENDBRANCH   6  12
TORSDOF 3
ENDMDL
MODEL 8
REMARK VINA RESULT:    -2.717      1.753      3.295
REMARK INTER + INTRA:          -3.217
REMARK INTER:                  -3.134
REMARK INTRA:                  -0.082
REMARK UNBOUND:                -0.103
REMARK SMILES COc1cc(C(=O)[O-])ccc1O
REMARK SMILES IDX 5 1 9 2 4 3 10 4 3 5 11 6 6 7 7 8 8 9 2 10 1 11 12 12
REMARK H PARENT 12 13
REMARK Flexibility Score: inf
ROOT
ATOM      1  C   UNL     1     199.215 195.301 196.770  1.00  0.00     0.001 A 
ATOM      2  C   UNL     1     198.866 196.651 196.940  1.00  0.00     0.014 A 
ATOM      3  C   UNL     1     200.573 194.935 196.823  1.00  0.00     0.060 A 
ATOM      4  C   UNL     1     199.852 197.615 197.157  1.00  0.00     0.051 A 
ATOM      5  C   UNL     1     201.571 195.905 197.043  1.00  0.00     0.161 A 
ATOM      6  C   UNL     1     201.201 197.247 197.209  1.00  0.00     0.157 A 
ENDROOT
BRANCH   1   7
ATOM      7  C   UNL     1     198.173 194.276 196.540  1.00  0.00     0.072 C 
ATOM      8  O   UNL     1     198.455 193.050 196.610  1.00  0.00    -0.545 OA
ATOM      9  O   UNL     1     196.868 194.650 196.244  1.00  0.00    -0.545 OA
ENDBRANCH   1   7
BRANCH   5  10
ATOM     10  O   UNL     1     202.934 195.577 197.102  1.00  0.00    -0.493 OA
ATOM     11  C   UNL     1     203.485 194.334 196.676  1.00  0.00     0.278 C 
ENDBRANCH   5  10
BRANCH   6  12
ATOM     12  O   UNL     1     202.184 198.211 197.427  1.00  0.00    -0.504 OA
ATOM     13  H   UNL     1     202.001 199.197 197.285  1.00  0.00     0.293 HD
ENDBRANCH   6  12
TORSDOF 3
ENDMDL
MODEL 9
REMARK VINA RESULT:    -2.621      1.203      4.262
REMARK INTER + INTRA:          -3.107
REMARK INTER:                  -3.004
REMARK INTRA:                  -0.103
REMARK UNBOUND:                -0.103
REMARK SMILES COc1cc(C(=O)[O-])ccc1O
REMARK SMILES IDX 5 1 9 2 4 3 10 4 3 5 11 6 6 7 7 8 8 9 2 10 1 11 12 12
REMARK H PARENT 12 13
REMARK Flexibility Score: inf
ROOT
ATOM      1  C   UNL     1     200.225 196.673 197.798  1.00  0.00     0.001 A 
ATOM      2  C   UNL     1     201.603 196.940 197.771  1.00  0.00     0.014 A 
ATOM      3  C   UNL     1     199.789 195.341 197.915  1.00  0.00     0.060 A 
ATOM      4  C   UNL     1     202.528 195.897 197.858  1.00  0.00     0.051 A 
ATOM      5  C   UNL     1     200.718 194.285 198.004  1.00  0.00     0.161 A 
ATOM      6  C   UNL     1     202.089 194.572 197.975  1.00  0.00     0.157 A 
ENDROOT
BRANCH   1   7
ATOM      7  C   UNL     1     199.242 197.776 197.706  1.00  0.00     0.072 C 
ATOM      8  O   UNL     1     198.013 197.554 197.877  1.00  0.00    -0.545 OA
ATOM      9  O   UNL     1     199.659 199.072 197.431  1.00  0.00    -0.545 OA
ENDBRANCH   1   7
BRANCH   5  10
ATOM     10  O   UNL     1     200.319 192.944 198.122  1.00  0.00    -0.493 OA
ATOM     11  C   UNL     1     199.748 192.176 197.067  1.00  0.00     0.278 C 
ENDBRANCH   5  10
BRANCH   6  12
ATOM     12  O   UNL     1     203.014 193.533 198.063  1.00  0.00    -0.504 OA
ATOM     13  H   UNL     1     203.617 193.425 198.870  1.00  0.00     0.293 HD
ENDBRANCH   6  12
TORSDOF 3
ENDMDL
