MODEL 1
REMARK VINA RESULT:    -5.143      0.000      0.000
REMARK INTER + INTRA:          -5.980
REMARK INTER:                  -5.745
REMARK INTRA:                  -0.236
REMARK UNBOUND:                -0.236
REMARK SMILES O=C([O-])C=Cc1ccccc1
REMARK SMILES IDX 4 1 5 2 2 3 1 4 3 5 6 6 7 7 11 8 8 9 10 10 9 11
REMARK H PARENT
REMARK Flexibility Score: inf
ROOT
ATOM      1  C   UNL     1      -4.850 -26.893  20.687  1.00  0.00     0.025 C 
ATOM      2  C   UNL     1      -4.743 -28.079  20.069  1.00  0.00     0.010 C 
ENDROOT
BRANCH   1   3
ATOM      3  C   UNL     1      -3.747 -26.171  21.349  1.00  0.00     0.064 C 
ATOM      4  O   UNL     1      -3.398 -26.510  22.510  1.00  0.00    -0.545 OA
ATOM      5  O   UNL     1      -3.131 -25.078  20.750  1.00  0.00    -0.545 OA
ENDBRANCH   1   3
BRANCH   2   6
ATOM      6  C   UNL     1      -3.557 -28.959  20.104  1.00  0.00    -0.026 A 
ATOM      7  C   UNL     1      -2.607 -28.872  19.075  1.00  0.00     0.008 A 
ATOM      8  C   UNL     1      -3.412 -29.950  21.092  1.00  0.00     0.008 A 
ATOM      9  C   UNL     1      -1.501 -29.730  19.062  1.00  0.00     0.001 A 
ATOM     10  C   UNL     1      -2.306 -30.805  21.075  1.00  0.00     0.001 A 
ATOM     11  C   UNL     1      -1.349 -30.692  20.063  1.00  0.00     0.000 A 
ENDBRANCH   2   6
TORSDOF 2
ENDMDL
MODEL 2
REMARK VINA RESULT:    -4.837      1.977      2.771
REMARK INTER + INTRA:          -5.638
REMARK INTER:                  -5.442
REMARK INTRA:                  -0.197
REMARK UNBOUND:                -0.236
REMARK SMILES O=C([O-])C=Cc1ccccc1
REMARK SMILES IDX 4 1 5 2 2 3 1 4 3 5 6 6 7 7 11 8 8 9 10 10 9 11
REMARK H PARENT
REMARK Flexibility Score: inf
ROOT
ATOM      1  C   UNL     1      -3.126 -24.841  20.525  1.00  0.00     0.025 C 
ATOM      2  C   UNL     1      -3.311 -25.847  21.395  1.00  0.00     0.010 C 
ENDROOT
BRANCH   1   3
ATOM      3  C   UNL     1      -2.832 -24.996  19.088  1.00  0.00     0.064 C 
ATOM      4  O   UNL     1      -3.785 -25.055  18.267  1.00  0.00    -0.545 OA
ATOM      5  O   UNL     1      -1.530 -25.150  18.626  1.00  0.00    -0.545 OA
ENDBRANCH   1   3
BRANCH   2   6
ATOM      6  C   UNL     1      -3.065 -27.276  21.114  1.00  0.00    -0.026 A 
ATOM      7  C   UNL     1      -4.147 -28.170  21.103  1.00  0.00     0.008 A 
ATOM      8  C   UNL     1      -1.759 -27.776  20.959  1.00  0.00     0.008 A 
ATOM      9  C   UNL     1      -3.932 -29.535  20.888  1.00  0.00     0.001 A 
ATOM     10  C   UNL     1      -1.548 -29.141  20.745  1.00  0.00     0.001 A 
ATOM     11  C   UNL     1      -2.634 -30.020  20.705  1.00  0.00     0.000 A 
ENDBRANCH   2   6
TORSDOF 2
ENDMDL
MODEL 3
REMARK VINA RESULT:    -4.782      2.454      4.308
REMARK INTER + INTRA:          -5.577
REMARK INTER:                  -5.422
REMARK INTRA:                  -0.155
REMARK UNBOUND:                -0.236
REMARK SMILES O=C([O-])C=Cc1ccccc1
REMARK SMILES IDX 4 1 5 2 2 3 1 4 3 5 6 6 7 7 11 8 8 9 10 10 9 11
REMARK H PARENT
REMARK Flexibility Score: inf
ROOT
ATOM      1  C   UNL     1      -2.808 -30.411  21.008  1.00  0.00     0.025 C 
ATOM      2  C   UNL     1      -3.689 -29.432  21.267  1.00  0.00     0.010 C 
ENDROOT
BRANCH   1   3
ATOM      3  C   UNL     1      -1.498 -30.232  20.353  1.00  0.00     0.064 C 
ATOM      4  O   UNL     1      -0.520 -29.828  21.035  1.00  0.00    -0.545 OA
ATOM      5  O   UNL     1      -1.335 -30.431  18.987  1.00  0.00    -0.545 OA
ENDBRANCH   1   3
BRANCH   2   6
ATOM      6  C   UNL     1      -3.590 -28.041  20.778  1.00  0.00    -0.026 A 
ATOM      7  C   UNL     1      -3.520 -26.990  21.706  1.00  0.00     0.008 A 
ATOM      8  C   UNL     1      -3.669 -27.743  19.406  1.00  0.00     0.008 A 
ATOM      9  C   UNL     1      -3.476 -25.663  21.266  1.00  0.00     0.001 A 
ATOM     10  C   UNL     1      -3.625 -26.415  18.970  1.00  0.00     0.001 A 
ATOM     11  C   UNL     1      -3.524 -25.376  19.899  1.00  0.00     0.000 A 
ENDBRANCH   2   6
TORSDOF 2
ENDMDL
MODEL 4
REMARK VINA RESULT:    -4.773     13.560     14.418
REMARK INTER + INTRA:          -5.567
REMARK INTER:                  -5.304
REMARK INTRA:                  -0.263
REMARK UNBOUND:                -0.236
REMARK SMILES O=C([O-])C=Cc1ccccc1
REMARK SMILES IDX 4 1 5 2 2 3 1 4 3 5 6 6 7 7 11 8 8 9 10 10 9 11
REMARK H PARENT
REMARK Flexibility Score: inf
ROOT
ATOM      1  C   UNL     1       7.260 -18.035  23.693  1.00  0.00     0.025 C 
ATOM      2  C   UNL     1       7.071 -17.047  22.804  1.00  0.00     0.010 C 
ENDROOT
BRANCH   1   3
ATOM      3  C   UNL     1       6.587 -19.347  23.669  1.00  0.00     0.064 C 
ATOM      4  O   UNL     1       5.750 -19.626  24.567  1.00  0.00    -0.545 OA
ATOM      5  O   UNL     1       6.908 -20.311  22.721  1.00  0.00    -0.545 OA
ENDBRANCH   1   3
BRANCH   2   6
ATOM      6  C   UNL     1       6.024 -17.023  21.762  1.00  0.00    -0.026 A 
ATOM      7  C   UNL     1       6.364 -17.343  20.439  1.00  0.00     0.008 A 
ATOM      8  C   UNL     1       4.718 -16.586  22.050  1.00  0.00     0.008 A 
ATOM      9  C   UNL     1       5.400 -17.278  19.427  1.00  0.00     0.001 A 
ATOM     10  C   UNL     1       3.757 -16.522  21.036  1.00  0.00     0.001 A 
ATOM     11  C   UNL     1       4.097 -16.872  19.726  1.00  0.00     0.000 A 
ENDBRANCH   2   6
TORSDOF 2
ENDMDL
MODEL 5
REMARK VINA RESULT:    -4.764      1.956      2.622
REMARK INTER + INTRA:          -5.557
REMARK INTER:                  -5.387
REMARK INTRA:                  -0.170
REMARK UNBOUND:                -0.236
REMARK SMILES O=C([O-])C=Cc1ccccc1
REMARK SMILES IDX 4 1 5 2 2 3 1 4 3 5 6 6 7 7 11 8 8 9 10 10 9 11
REMARK H PARENT
REMARK Flexibility Score: inf
ROOT
ATOM      1  C   UNL     1      -3.116 -24.799  20.527  1.00  0.00     0.025 C 
ATOM      2  C   UNL     1      -3.313 -25.774  21.429  1.00  0.00     0.010 C 
ENDROOT
BRANCH   1   3
ATOM      3  C   UNL     1      -2.834 -25.004  19.094  1.00  0.00     0.064 C 
ATOM      4  O   UNL     1      -3.794 -25.095  18.284  1.00  0.00    -0.545 OA
ATOM      5  O   UNL     1      -1.536 -25.171  18.625  1.00  0.00    -0.545 OA
ENDBRANCH   1   3
BRANCH   2   6
ATOM      6  C   UNL     1      -3.095 -27.216  21.191  1.00  0.00    -0.026 A 
ATOM      7  C   UNL     1      -1.789 -27.692  21.003  1.00  0.00     0.008 A 
ATOM      8  C   UNL     1      -4.178 -28.103  21.046  1.00  0.00     0.008 A 
ATOM      9  C   UNL     1      -1.563 -29.045  20.727  1.00  0.00     0.001 A 
ATOM     10  C   UNL     1      -3.949 -29.454  20.769  1.00  0.00     0.001 A 
ATOM     11  C   UNL     1      -2.643 -29.926  20.614  1.00  0.00     0.000 A 
ENDBRANCH   2   6
TORSDOF 2
ENDMDL
MODEL 6
REMARK VINA RESULT:    -4.750     13.618     14.683
REMARK INTER + INTRA:          -5.542
REMARK INTER:                  -5.267
REMARK INTRA:                  -0.275
REMARK UNBOUND:                -0.236
REMARK SMILES O=C([O-])C=Cc1ccccc1
REMARK SMILES IDX 4 1 5 2 2 3 1 4 3 5 6 6 7 7 11 8 8 9 10 10 9 11
REMARK H PARENT
REMARK Flexibility Score: inf
ROOT
ATOM      1  C   UNL     1       7.013 -18.256  23.650  1.00  0.00     0.025 C 
ATOM      2  C   UNL     1       6.307 -18.785  22.638  1.00  0.00     0.010 C 
ENDROOT
BRANCH   1   3
ATOM      3  C   UNL     1       7.072 -16.823  23.996  1.00  0.00     0.064 C 
ATOM      4  O   UNL     1       6.118 -16.303  24.631  1.00  0.00    -0.545 OA
ATOM      5  O   UNL     1       8.123 -16.017  23.575  1.00  0.00    -0.545 OA
ENDBRANCH   1   3
BRANCH   2   6
ATOM      6  C   UNL     1       5.620 -18.014  21.581  1.00  0.00    -0.026 A 
ATOM      7  C   UNL     1       4.245 -17.762  21.699  1.00  0.00     0.008 A 
ATOM      8  C   UNL     1       6.295 -17.619  20.411  1.00  0.00     0.008 A 
ATOM      9  C   UNL     1       3.564 -17.078  20.686  1.00  0.00     0.001 A 
ATOM     10  C   UNL     1       5.611 -16.936  19.401  1.00  0.00     0.001 A 
ATOM     11  C   UNL     1       4.248 -16.662  19.540  1.00  0.00     0.000 A 
ENDBRANCH   2   6
TORSDOF 2
ENDMDL
MODEL 7
REMARK VINA RESULT:    -4.744     12.851     14.016
REMARK INTER + INTRA:          -5.535
REMARK INTER:                  -5.276
REMARK INTRA:                  -0.259
REMARK UNBOUND:                -0.236
REMARK SMILES O=C([O-])C=Cc1ccccc1
REMARK SMILES IDX 4 1 5 2 2 3 1 4 3 5 6 6 7 7 11 8 8 9 10 10 9 11
REMARK H PARENT
REMARK Flexibility Score: inf
ROOT
ATOM      1  C   UNL     1       4.270 -17.466  19.875  1.00  0.00     0.025 C 
ATOM      2  C   UNL     1       5.576 -17.684  20.099  1.00  0.00     0.010 C 
ENDROOT
BRANCH   1   3
ATOM      3  C   UNL     1       3.263 -17.166  20.910  1.00  0.00     0.064 C 
ATOM      4  O   UNL     1       3.164 -15.991  21.352  1.00  0.00    -0.545 OA
ATOM      5  O   UNL     1       2.470 -18.165  21.463  1.00  0.00    -0.545 OA
ENDBRANCH   1   3
BRANCH   2   6
ATOM      6  C   UNL     1       6.199 -17.850  21.428  1.00  0.00    -0.026 A 
ATOM      7  C   UNL     1       6.285 -19.133  21.990  1.00  0.00     0.008 A 
ATOM      8  C   UNL     1       6.615 -16.739  22.184  1.00  0.00     0.008 A 
ATOM      9  C   UNL     1       6.826 -19.308  23.269  1.00  0.00     0.001 A 
ATOM     10  C   UNL     1       7.155 -16.917  23.461  1.00  0.00     0.001 A 
ATOM     11  C   UNL     1       7.265 -18.202  24.001  1.00  0.00     0.000 A 
ENDBRANCH   2   6
TORSDOF 2
ENDMDL
MODEL 8
REMARK VINA RESULT:    -4.670      1.221      1.792
REMARK INTER + INTRA:          -5.452
REMARK INTER:                  -5.201
REMARK INTRA:                  -0.252
REMARK UNBOUND:                -0.236
REMARK SMILES O=C([O-])C=Cc1ccccc1
REMARK SMILES IDX 4 1 5 2 2 3 1 4 3 5 6 6 7 7 11 8 8 9 10 10 9 11
REMARK H PARENT
REMARK Flexibility Score: inf
ROOT
ATOM      1  C   UNL     1      -3.342 -26.155  18.785  1.00  0.00     0.025 C 
ATOM      2  C   UNL     1      -3.137 -27.451  18.504  1.00  0.00     0.010 C 
ENDROOT
BRANCH   1   3
ATOM      3  C   UNL     1      -3.211 -25.537  20.118  1.00  0.00     0.064 C 
ATOM      4  O   UNL     1      -2.077 -25.162  20.514  1.00  0.00    -0.545 OA
ATOM      5  O   UNL     1      -4.299 -25.426  20.977  1.00  0.00    -0.545 OA
ENDBRANCH   1   3
BRANCH   2   6
ATOM      6  C   UNL     1      -2.933 -28.521  19.502  1.00  0.00    -0.026 A 
ATOM      7  C   UNL     1      -1.655 -29.080  19.658  1.00  0.00     0.008 A 
ATOM      8  C   UNL     1      -4.012 -29.060  20.226  1.00  0.00     0.008 A 
ATOM      9  C   UNL     1      -1.449 -30.128  20.561  1.00  0.00     0.001 A 
ATOM     10  C   UNL     1      -3.803 -30.107  21.128  1.00  0.00     0.001 A 
ATOM     11  C   UNL     1      -2.521 -30.638  21.299  1.00  0.00     0.000 A 
ENDBRANCH   2   6
TORSDOF 2
ENDMDL
MODEL 9
REMARK VINA RESULT:    -4.643      2.358      4.245
REMARK INTER + INTRA:          -5.422
REMARK INTER:                  -5.152
REMARK INTRA:                  -0.270
REMARK UNBOUND:                -0.236
REMARK SMILES O=C([O-])C=Cc1ccccc1
REMARK SMILES IDX 4 1 5 2 2 3 1 4 3 5 6 6 7 7 11 8 8 9 10 10 9 11
REMARK H PARENT
REMARK Flexibility Score: inf
ROOT
ATOM      1  C   UNL     1      -1.653 -29.813  18.982  1.00  0.00     0.025 C 
ATOM      2  C   UNL     1      -2.439 -28.803  18.580  1.00  0.00     0.010 C 
ENDROOT
BRANCH   1   3
ATOM      3  C   UNL     1      -1.460 -30.244  20.380  1.00  0.00     0.064 C 
ATOM      4  O   UNL     1      -0.435 -29.863  21.005  1.00  0.00    -0.545 OA
ATOM      5  O   UNL     1      -2.345 -31.118  20.999  1.00  0.00    -0.545 OA
ENDBRANCH   1   3
BRANCH   2   6
ATOM      6  C   UNL     1      -3.098 -27.825  19.471  1.00  0.00    -0.026 A 
ATOM      7  C   UNL     1      -2.382 -26.699  19.903  1.00  0.00     0.008 A 
ATOM      8  C   UNL     1      -4.390 -28.054  19.977  1.00  0.00     0.008 A 
ATOM      9  C   UNL     1      -2.968 -25.786  20.787  1.00  0.00     0.001 A 
ATOM     10  C   UNL     1      -4.973 -27.141  20.860  1.00  0.00     0.001 A 
ATOM     11  C   UNL     1      -4.265 -26.005  21.261  1.00  0.00     0.000 A 
ENDBRANCH   2   6
TORSDOF 2
ENDMDL
