MODEL 1
REMARK VINA RESULT:    -3.741      0.000      0.000
REMARK INTER + INTRA:          -6.078
REMARK INTER:                  -5.272
REMARK INTRA:                  -0.806
REMARK UNBOUND:                -0.806
REMARK SMILES CCCCCCCCC(=O)[O-]
REMARK SMILES IDX 6 1 7 2 8 3 9 4 10 5 11 6 5 7 4 8 3 9 2 10 1 11
REMARK H PARENT
REMARK Flexibility Score: inf
ROOT
ATOM      1  C   UNL     1     -47.152  25.279 -13.827  1.00  0.00     0.000 C 
ENDROOT
BRANCH   1   2
ATOM      2  C   UNL     1     -48.317  24.947 -14.767  1.00  0.00     0.006 C 
BRANCH   2   3
ATOM      3  C   UNL     1     -48.739  26.178 -15.574  1.00  0.00     0.053 C 
BRANCH   3   4
ATOM      4  C   UNL     1     -48.440  25.980 -17.027  1.00  0.00     0.041 C 
ATOM      5  O   UNL     1     -48.036  24.863 -17.444  1.00  0.00    -0.550 OA
ATOM      6  O   UNL     1     -48.559  27.044 -17.912  1.00  0.00    -0.550 OA
ENDBRANCH   3   4
ENDBRANCH   2   3
ENDBRANCH   1   2
BRANCH   1   7
ATOM      7  C   UNL     1     -47.101  26.780 -13.522  1.00  0.00     0.000 C 
BRANCH   7   8
ATOM      8  C   UNL     1     -45.708  27.355 -13.818  1.00  0.00    -0.000 C 
BRANCH   8   9
ATOM      9  C   UNL     1     -45.006  26.638 -14.981  1.00  0.00    -0.000 C 
BRANCH   9  10
ATOM     10  C   UNL     1     -45.086  27.424 -16.298  1.00  0.00    -0.003 C 
ATOM     11  C   UNL     1     -44.833  26.516 -17.497  1.00  0.00     0.004 C 
ENDBRANCH   9  10
ENDBRANCH   8   9
ENDBRANCH   7   8
ENDBRANCH   1   7
TORSDOF 7
ENDMDL
MODEL 2
REMARK VINA RESULT:    -3.736      1.050      3.118
REMARK INTER + INTRA:          -6.071
REMARK INTER:                  -5.307
REMARK INTRA:                  -0.764
REMARK UNBOUND:                -0.806
REMARK SMILES CCCCCCCCC(=O)[O-]
REMARK SMILES IDX 6 1 7 2 8 3 9 4 10 5 11 6 5 7 4 8 3 9 2 10 1 11
REMARK H PARENT
REMARK Flexibility Score: inf
ROOT
ATOM      1  C   UNL     1     -44.690  26.528 -17.566  1.00  0.00     0.000 C 
ENDROOT
BRANCH   1   2
ATOM      2  C   UNL     1     -45.868  26.314 -18.525  1.00  0.00     0.006 C 
BRANCH   2   3
ATOM      3  C   UNL     1     -47.121  27.041 -18.027  1.00  0.00     0.053 C 
BRANCH   3   4
ATOM      4  C   UNL     1     -48.027  26.091 -17.310  1.00  0.00     0.041 C 
ATOM      5  O   UNL     1     -47.940  24.852 -17.517  1.00  0.00    -0.550 OA
ATOM      6  O   UNL     1     -49.004  26.578 -16.450  1.00  0.00    -0.550 OA
ENDBRANCH   3   4
ENDBRANCH   2   3
ENDBRANCH   1   2
BRANCH   1   7
ATOM      7  C   UNL     1     -44.685  27.957 -17.012  1.00  0.00     0.000 C 
BRANCH   7   8
ATOM      8  C   UNL     1     -44.639  27.951 -15.476  1.00  0.00    -0.000 C 
BRANCH   8   9
ATOM      9  C   UNL     1     -45.081  26.608 -14.875  1.00  0.00    -0.000 C 
BRANCH   9  10
ATOM     10  C   UNL     1     -46.314  26.740 -13.970  1.00  0.00    -0.003 C 
ATOM     11  C   UNL     1     -46.962  25.381 -13.721  1.00  0.00     0.004 C 
ENDBRANCH   9  10
ENDBRANCH   8   9
ENDBRANCH   7   8
ENDBRANCH   1   7
TORSDOF 7
ENDMDL
MODEL 3
REMARK VINA RESULT:    -3.686      1.504      2.778
REMARK INTER + INTRA:          -6.000
REMARK INTER:                  -5.430
REMARK INTRA:                  -0.570
REMARK UNBOUND:                -0.806
REMARK SMILES CCCCCCCCC(=O)[O-]
REMARK SMILES IDX 6 1 7 2 8 3 9 4 10 5 11 6 5 7 4 8 3 9 2 10 1 11
REMARK H PARENT
REMARK Flexibility Score: inf
ROOT
ATOM      1  C   UNL     1     -45.017  26.484 -14.915  1.00  0.00     0.000 C 
ENDROOT
BRANCH   1   2
ATOM      2  C   UNL     1     -45.924  26.545 -13.680  1.00  0.00     0.006 C 
BRANCH   2   3
ATOM      3  C   UNL     1     -46.908  25.372 -13.664  1.00  0.00     0.053 C 
BRANCH   3   4
ATOM      4  C   UNL     1     -47.971  25.565 -14.698  1.00  0.00     0.041 C 
ATOM      5  O   UNL     1     -48.383  24.586 -15.375  1.00  0.00    -0.550 OA
ATOM      6  O   UNL     1     -48.473  26.835 -14.951  1.00  0.00    -0.550 OA
ENDBRANCH   3   4
ENDBRANCH   2   3
ENDBRANCH   1   2
BRANCH   1   7
ATOM      7  C   UNL     1     -44.838  27.874 -15.536  1.00  0.00     0.000 C 
BRANCH   7   8
ATOM      8  C   UNL     1     -45.021  27.823 -17.061  1.00  0.00    -0.000 C 
BRANCH   8   9
ATOM      9  C   UNL     1     -45.506  26.451 -17.554  1.00  0.00    -0.000 C 
BRANCH   9  10
ATOM     10  C   UNL     1     -44.801  26.002 -18.842  1.00  0.00    -0.003 C 
ATOM     11  C   UNL     1     -43.588  26.878 -19.140  1.00  0.00     0.004 C 
ENDBRANCH   9  10
ENDBRANCH   8   9
ENDBRANCH   7   8
ENDBRANCH   1   7
TORSDOF 7
ENDMDL
MODEL 4
REMARK VINA RESULT:    -3.682      1.086      1.980
REMARK INTER + INTRA:          -5.995
REMARK INTER:                  -5.422
REMARK INTRA:                  -0.573
REMARK UNBOUND:                -0.806
REMARK SMILES CCCCCCCCC(=O)[O-]
REMARK SMILES IDX 6 1 7 2 8 3 9 4 10 5 11 6 5 7 4 8 3 9 2 10 1 11
REMARK H PARENT
REMARK Flexibility Score: inf
ROOT
ATOM      1  C   UNL     1     -45.829  26.646 -13.959  1.00  0.00     0.000 C 
ENDROOT
BRANCH   1   2
ATOM      2  C   UNL     1     -47.034  25.698 -14.014  1.00  0.00     0.006 C 
BRANCH   2   3
ATOM      3  C   UNL     1     -48.140  26.269 -14.907  1.00  0.00     0.053 C 
BRANCH   3   4
ATOM      4  C   UNL     1     -48.449  25.325 -16.025  1.00  0.00     0.041 C 
ATOM      5  O   UNL     1     -48.639  24.102 -15.789  1.00  0.00    -0.550 OA
ATOM      6  O   UNL     1     -48.479  25.785 -17.336  1.00  0.00    -0.550 OA
ENDBRANCH   3   4
ENDBRANCH   2   3
ENDBRANCH   1   2
BRANCH   1   7
ATOM      7  C   UNL     1     -44.933  26.469 -15.190  1.00  0.00     0.000 C 
BRANCH   7   8
ATOM      8  C   UNL     1     -44.907  27.748 -16.040  1.00  0.00    -0.000 C 
BRANCH   8   9
ATOM      9  C   UNL     1     -45.374  27.509 -17.484  1.00  0.00    -0.000 C 
BRANCH   9  10
ATOM     10  C   UNL     1     -44.487  26.507 -18.236  1.00  0.00    -0.003 C 
ATOM     11  C   UNL     1     -45.327  25.422 -18.903  1.00  0.00     0.004 C 
ENDBRANCH   9  10
ENDBRANCH   8   9
ENDBRANCH   7   8
ENDBRANCH   1   7
TORSDOF 7
ENDMDL
MODEL 5
REMARK VINA RESULT:    -3.680      1.260      3.348
REMARK INTER + INTRA:          -5.992
REMARK INTER:                  -5.288
REMARK INTRA:                  -0.703
REMARK UNBOUND:                -0.806
REMARK SMILES CCCCCCCCC(=O)[O-]
REMARK SMILES IDX 6 1 7 2 8 3 9 4 10 5 11 6 5 7 4 8 3 9 2 10 1 11
REMARK H PARENT
REMARK Flexibility Score: inf
ROOT
ATOM      1  C   UNL     1     -44.810  27.918 -15.251  1.00  0.00     0.000 C 
ENDROOT
BRANCH   1   2
ATOM      2  C   UNL     1     -44.967  27.987 -16.775  1.00  0.00     0.006 C 
BRANCH   2   3
ATOM      3  C   UNL     1     -44.657  26.632 -17.420  1.00  0.00     0.053 C 
BRANCH   3   4
ATOM      4  C   UNL     1     -45.801  26.186 -18.275  1.00  0.00     0.041 C 
ATOM      5  O   UNL     1     -45.753  25.075 -18.868  1.00  0.00    -0.550 OA
ATOM      6  O   UNL     1     -46.899  27.017 -18.457  1.00  0.00    -0.550 OA
ENDBRANCH   3   4
ENDBRANCH   2   3
ENDBRANCH   1   2
BRANCH   1   7
ATOM      7  C   UNL     1     -45.019  26.488 -14.740  1.00  0.00     0.000 C 
BRANCH   7   8
ATOM      8  C   UNL     1     -46.077  26.451 -13.626  1.00  0.00    -0.000 C 
BRANCH   8   9
ATOM      9  C   UNL     1     -47.239  25.497 -13.944  1.00  0.00    -0.000 C 
BRANCH   9  10
ATOM     10  C   UNL     1     -48.070  25.958 -15.150  1.00  0.00    -0.003 C 
ATOM     11  C   UNL     1     -48.476  24.773 -16.022  1.00  0.00     0.004 C 
ENDBRANCH   9  10
ENDBRANCH   8   9
ENDBRANCH   7   8
ENDBRANCH   1   7
TORSDOF 7
ENDMDL
MODEL 6
REMARK VINA RESULT:    -3.674      1.278      2.357
REMARK INTER + INTRA:          -5.983
REMARK INTER:                  -5.201
REMARK INTRA:                  -0.782
REMARK UNBOUND:                -0.806
REMARK SMILES CCCCCCCCC(=O)[O-]
REMARK SMILES IDX 6 1 7 2 8 3 9 4 10 5 11 6 5 7 4 8 3 9 2 10 1 11
REMARK H PARENT
REMARK Flexibility Score: inf
ROOT
ATOM      1  C   UNL     1     -48.622  26.479 -15.208  1.00  0.00     0.000 C 
ENDROOT
BRANCH   1   2
ATOM      2  C   UNL     1     -48.869  26.415 -16.721  1.00  0.00     0.006 C 
BRANCH   2   3
ATOM      3  C   UNL     1     -47.941  25.393 -17.385  1.00  0.00     0.053 C 
BRANCH   3   4
ATOM      4  C   UNL     1     -46.819  26.085 -18.091  1.00  0.00     0.041 C 
ATOM      5  O   UNL     1     -46.846  27.334 -18.252  1.00  0.00    -0.550 OA
ATOM      6  O   UNL     1     -45.768  25.346 -18.618  1.00  0.00    -0.550 OA
ENDBRANCH   3   4
ENDBRANCH   2   3
ENDBRANCH   1   2
BRANCH   1   7
ATOM      7  C   UNL     1     -48.101  25.138 -14.678  1.00  0.00     0.000 C 
BRANCH   7   8
ATOM      8  C   UNL     1     -46.933  25.350 -13.702  1.00  0.00    -0.000 C 
BRANCH   8   9
ATOM      9  C   UNL     1     -46.199  26.679 -13.935  1.00  0.00    -0.000 C 
BRANCH   9  10
ATOM     10  C   UNL     1     -45.006  26.537 -14.891  1.00  0.00    -0.003 C 
ATOM     11  C   UNL     1     -44.642  27.880 -15.519  1.00  0.00     0.004 C 
ENDBRANCH   9  10
ENDBRANCH   8   9
ENDBRANCH   7   8
ENDBRANCH   1   7
TORSDOF 7
ENDMDL
MODEL 7
REMARK VINA RESULT:    -3.672      1.373      3.148
REMARK INTER + INTRA:          -5.981
REMARK INTER:                  -5.184
REMARK INTRA:                  -0.797
REMARK UNBOUND:                -0.806
REMARK SMILES CCCCCCCCC(=O)[O-]
REMARK SMILES IDX 6 1 7 2 8 3 9 4 10 5 11 6 5 7 4 8 3 9 2 10 1 11
REMARK H PARENT
REMARK Flexibility Score: inf
ROOT
ATOM      1  C   UNL     1     -45.737  26.017 -18.477  1.00  0.00     0.000 C 
ENDROOT
BRANCH   1   2
ATOM      2  C   UNL     1     -47.133  26.459 -18.021  1.00  0.00     0.006 C 
BRANCH   2   3
ATOM      3  C   UNL     1     -47.946  25.267 -17.508  1.00  0.00     0.053 C 
BRANCH   3   4
ATOM      4  C   UNL     1     -48.400  25.507 -16.103  1.00  0.00     0.041 C 
ATOM      5  O   UNL     1     -48.633  24.535 -15.337  1.00  0.00    -0.550 OA
ATOM      6  O   UNL     1     -48.615  26.804 -15.654  1.00  0.00    -0.550 OA
ENDBRANCH   3   4
ENDBRANCH   2   3
ENDBRANCH   1   2
BRANCH   1   7
ATOM      7  C   UNL     1     -44.648  26.622 -17.583  1.00  0.00     0.000 C 
BRANCH   7   8
ATOM      8  C   UNL     1     -45.123  27.941 -16.955  1.00  0.00    -0.000 C 
BRANCH   8   9
ATOM      9  C   UNL     1     -45.057  27.923 -15.420  1.00  0.00    -0.000 C 
BRANCH   9  10
ATOM     10  C   UNL     1     -44.978  26.500 -14.847  1.00  0.00    -0.003 C 
ATOM     11  C   UNL     1     -45.808  26.375 -13.572  1.00  0.00     0.004 C 
ENDBRANCH   9  10
ENDBRANCH   8   9
ENDBRANCH   7   8
ENDBRANCH   1   7
TORSDOF 7
ENDMDL
MODEL 8
REMARK VINA RESULT:    -3.656      2.254      3.521
REMARK INTER + INTRA:          -5.957
REMARK INTER:                  -5.394
REMARK INTRA:                  -0.563
REMARK UNBOUND:                -0.806
REMARK SMILES CCCCCCCCC(=O)[O-]
REMARK SMILES IDX 6 1 7 2 8 3 9 4 10 5 11 6 5 7 4 8 3 9 2 10 1 11
REMARK H PARENT
REMARK Flexibility Score: inf
ROOT
ATOM      1  C   UNL     1     -47.029  27.220 -18.123  1.00  0.00     0.000 C 
ENDROOT
BRANCH   1   2
ATOM      2  C   UNL     1     -48.350  26.554 -17.719  1.00  0.00     0.006 C 
BRANCH   2   3
ATOM      3  C   UNL     1     -48.106  25.152 -17.152  1.00  0.00     0.053 C 
BRANCH   3   4
ATOM      4  C   UNL     1     -48.775  25.001 -15.823  1.00  0.00     0.041 C 
ATOM      5  O   UNL     1     -48.630  25.884 -14.936  1.00  0.00    -0.550 OA
ATOM      6  O   UNL     1     -49.519  23.861 -15.544  1.00  0.00    -0.550 OA
ENDBRANCH   3   4
ENDBRANCH   2   3
ENDBRANCH   1   2
BRANCH   1   7
ATOM      7  C   UNL     1     -45.965  27.038 -17.034  1.00  0.00     0.000 C 
BRANCH   7   8
ATOM      8  C   UNL     1     -44.620  26.614 -17.644  1.00  0.00    -0.000 C 
BRANCH   8   9
ATOM      9  C   UNL     1     -44.754  26.138 -19.099  1.00  0.00    -0.000 C 
BRANCH   9  10
ATOM     10  C   UNL     1     -43.828  26.900 -20.058  1.00  0.00    -0.003 C 
ATOM     11  C   UNL     1     -43.130  28.055 -19.347  1.00  0.00     0.004 C 
ENDBRANCH   9  10
ENDBRANCH   8   9
ENDBRANCH   7   8
ENDBRANCH   1   7
TORSDOF 7
ENDMDL
MODEL 9
REMARK VINA RESULT:    -3.635      1.996      3.551
REMARK INTER + INTRA:          -5.928
REMARK INTER:                  -5.232
REMARK INTRA:                  -0.696
REMARK UNBOUND:                -0.806
REMARK SMILES CCCCCCCCC(=O)[O-]
REMARK SMILES IDX 6 1 7 2 8 3 9 4 10 5 11 6 5 7 4 8 3 9 2 10 1 11
REMARK H PARENT
REMARK Flexibility Score: inf
ROOT
ATOM      1  C   UNL     1     -47.780  25.580 -17.141  1.00  0.00     0.000 C 
ENDROOT
BRANCH   1   2
ATOM      2  C   UNL     1     -46.932  26.768 -17.613  1.00  0.00     0.006 C 
BRANCH   2   3
ATOM      3  C   UNL     1     -45.437  26.458 -17.492  1.00  0.00     0.053 C 
BRANCH   3   4
ATOM      4  C   UNL     1     -44.908  25.915 -18.781  1.00  0.00     0.041 C 
ATOM      5  O   UNL     1     -45.174  24.734 -19.129  1.00  0.00    -0.550 OA
ATOM      6  O   UNL     1     -44.080  26.697 -19.577  1.00  0.00    -0.550 OA
ENDBRANCH   3   4
ENDBRANCH   2   3
ENDBRANCH   1   2
BRANCH   1   7
ATOM      7  C   UNL     1     -48.799  26.016 -16.082  1.00  0.00     0.000 C 
BRANCH   7   8
ATOM      8  C   UNL     1     -48.095  26.605 -14.850  1.00  0.00    -0.000 C 
BRANCH   8   9
ATOM      9  C   UNL     1     -47.345  25.542 -14.033  1.00  0.00    -0.000 C 
BRANCH   9  10
ATOM     10  C   UNL     1     -45.901  25.953 -13.710  1.00  0.00    -0.003 C 
ATOM     11  C   UNL     1     -45.722  27.464 -13.819  1.00  0.00     0.004 C 
ENDBRANCH   9  10
ENDBRANCH   8   9
ENDBRANCH   7   8
ENDBRANCH   1   7
TORSDOF 7
ENDMDL
