MODEL 1
REMARK VINA RESULT:    -4.113      0.000      0.000
REMARK INTER + INTRA:          -5.280
REMARK INTER:                  -5.074
REMARK INTRA:                  -0.206
REMARK UNBOUND:                -0.206
REMARK SMILES C=CC(=C)CCC=C(C)C
REMARK SMILES IDX 5 1 6 2 7 3 9 4 8 5 10 6 3 7 4 8 2 9 1 10
REMARK H PARENT
REMARK Flexibility Score: inf
ROOT
ATOM      1  C   UNL     1       4.363   7.074  12.830  1.00  0.00     0.039 C 
ENDROOT
BRANCH   1   2
ATOM      2  C   UNL     1       5.381   7.843  11.979  1.00  0.00     0.032 C 
BRANCH   2   3
ATOM      3  C   UNL     1       6.565   8.273  12.808  1.00  0.00    -0.028 C 
ATOM      4  C   UNL     1       8.169   6.759  11.618  1.00  0.00     0.039 C 
ATOM      5  C   UNL     1       7.819   7.786  12.668  1.00  0.00    -0.080 C 
ATOM      6  C   UNL     1       8.897   8.306  13.584  1.00  0.00     0.039 C 
ENDBRANCH   2   3
ENDBRANCH   1   2
BRANCH   1   7
ATOM      7  C   UNL     1       4.512   5.582  12.631  1.00  0.00    -0.055 C 
ATOM      8  C   UNL     1       3.463   4.876  12.196  1.00  0.00     0.012 C 
BRANCH   7   9
ATOM      9  C   UNL     1       5.801   4.876  12.857  1.00  0.00    -0.005 C 
ATOM     10  C   UNL     1       6.457   4.875  14.017  1.00  0.00     0.009 C 
ENDBRANCH   7   9
ENDBRANCH   1   7
TORSDOF 4
ENDMDL
MODEL 2
REMARK VINA RESULT:    -3.967      1.215      3.641
REMARK INTER + INTRA:          -5.100
REMARK INTER:                  -4.755
REMARK INTRA:                  -0.345
REMARK UNBOUND:                -0.206
REMARK SMILES C=CC(=C)CCC=C(C)C
REMARK SMILES IDX 5 1 6 2 7 3 9 4 8 5 10 6 3 7 4 8 2 9 1 10
REMARK H PARENT
REMARK Flexibility Score: inf
ROOT
ATOM      1  C   UNL     1       6.236   4.875  13.137  1.00  0.00     0.039 C 
ENDROOT
BRANCH   1   2
ATOM      2  C   UNL     1       4.854   5.421  12.758  1.00  0.00     0.032 C 
BRANCH   2   3
ATOM      3  C   UNL     1       4.974   6.571  11.789  1.00  0.00    -0.028 C 
ATOM      4  C   UNL     1       3.996   8.242  13.382  1.00  0.00     0.039 C 
ATOM      5  C   UNL     1       4.581   7.839  12.049  1.00  0.00    -0.080 C 
ATOM      6  C   UNL     1       4.753   8.878  10.970  1.00  0.00     0.039 C 
ENDBRANCH   2   3
ENDBRANCH   1   2
BRANCH   1   7
ATOM      7  C   UNL     1       7.278   5.972  13.096  1.00  0.00    -0.055 C 
ATOM      8  C   UNL     1       8.107   6.043  12.049  1.00  0.00     0.012 C 
BRANCH   7   9
ATOM      9  C   UNL     1       7.384   7.005  14.160  1.00  0.00    -0.005 C 
ATOM     10  C   UNL     1       7.851   8.237  13.959  1.00  0.00     0.009 C 
ENDBRANCH   7   9
ENDBRANCH   1   7
TORSDOF 4
ENDMDL
MODEL 3
REMARK VINA RESULT:    -3.758      0.884      4.344
REMARK INTER + INTRA:          -4.843
REMARK INTER:                  -4.374
REMARK INTRA:                  -0.469
REMARK UNBOUND:                -0.206
REMARK SMILES C=CC(=C)CCC=C(C)C
REMARK SMILES IDX 5 1 6 2 7 3 9 4 8 5 10 6 3 7 4 8 2 9 1 10
REMARK H PARENT
REMARK Flexibility Score: inf
ROOT
ATOM      1  C   UNL     1       7.830   5.792  12.492  1.00  0.00     0.039 C 
ENDROOT
BRANCH   1   2
ATOM      2  C   UNL     1       6.793   5.381  13.545  1.00  0.00     0.032 C 
BRANCH   2   3
ATOM      3  C   UNL     1       5.531   4.875  12.893  1.00  0.00    -0.028 C 
ATOM      4  C   UNL     1       4.369   7.092  13.019  1.00  0.00     0.039 C 
ATOM      5  C   UNL     1       4.430   5.626  12.663  1.00  0.00    -0.080 C 
ATOM      6  C   UNL     1       3.238   4.971  12.014  1.00  0.00     0.039 C 
ENDBRANCH   2   3
ENDBRANCH   1   2
BRANCH   1   7
ATOM      7  C   UNL     1       7.827   7.292  12.290  1.00  0.00    -0.055 C 
ATOM      8  C   UNL     1       7.138   7.810  11.268  1.00  0.00     0.012 C 
BRANCH   7   9
ATOM      9  C   UNL     1       8.528   8.218  13.218  1.00  0.00    -0.005 C 
ATOM     10  C   UNL     1       7.945   8.816  14.257  1.00  0.00     0.009 C 
ENDBRANCH   7   9
ENDBRANCH   1   7
TORSDOF 4
ENDMDL
MODEL 4
REMARK VINA RESULT:    -3.277      1.132      3.775
REMARK INTER + INTRA:          -4.249
REMARK INTER:                  -3.882
REMARK INTRA:                  -0.367
REMARK UNBOUND:                -0.206
REMARK SMILES C=CC(=C)CCC=C(C)C
REMARK SMILES IDX 5 1 6 2 7 3 9 4 8 5 10 6 3 7 4 8 2 9 1 10
REMARK H PARENT
REMARK Flexibility Score: inf
ROOT
ATOM      1  C   UNL     1       6.989   8.499  12.019  1.00  0.00     0.039 C 
ENDROOT
BRANCH   1   2
ATOM      2  C   UNL     1       5.463   8.505  11.860  1.00  0.00     0.032 C 
BRANCH   2   3
ATOM      3  C   UNL     1       4.927   7.101  11.729  1.00  0.00    -0.028 C 
ATOM      4  C   UNL     1       3.621   7.215  13.865  1.00  0.00     0.039 C 
ATOM      5  C   UNL     1       4.111   6.503  12.627  1.00  0.00    -0.080 C 
ATOM      6  C   UNL     1       3.671   5.087  12.362  1.00  0.00     0.039 C 
ENDBRANCH   2   3
ENDBRANCH   1   2
BRANCH   1   7
ATOM      7  C   UNL     1       7.432   7.360  12.911  1.00  0.00    -0.055 C 
ATOM      8  C   UNL     1       7.376   7.514  14.239  1.00  0.00     0.012 C 
BRANCH   7   9
ATOM      9  C   UNL     1       7.886   6.054  12.365  1.00  0.00    -0.005 C 
ATOM     10  C   UNL     1       7.392   4.875  12.741  1.00  0.00     0.009 C 
ENDBRANCH   7   9
ENDBRANCH   1   7
TORSDOF 4
ENDMDL
MODEL 5
REMARK VINA RESULT:    -3.201      1.342      2.470
REMARK INTER + INTRA:          -4.156
REMARK INTER:                  -3.754
REMARK INTRA:                  -0.402
REMARK UNBOUND:                -0.206
REMARK SMILES C=CC(=C)CCC=C(C)C
REMARK SMILES IDX 5 1 6 2 7 3 9 4 8 5 10 6 3 7 4 8 2 9 1 10
REMARK H PARENT
REMARK Flexibility Score: inf
ROOT
ATOM      1  C   UNL     1       5.123   8.565  11.715  1.00  0.00     0.039 C 
ENDROOT
BRANCH   1   2
ATOM      2  C   UNL     1       6.623   8.494  12.026  1.00  0.00     0.032 C 
BRANCH   2   3
ATOM      3  C   UNL     1       7.165   7.110  11.771  1.00  0.00    -0.028 C 
ATOM      4  C   UNL     1       7.282   6.518  14.203  1.00  0.00     0.039 C 
ATOM      5  C   UNL     1       7.478   6.217  12.737  1.00  0.00    -0.080 C 
ATOM      6  C   UNL     1       8.025   4.875  12.322  1.00  0.00     0.039 C 
ENDBRANCH   2   3
ENDBRANCH   1   2
BRANCH   1   7
ATOM      7  C   UNL     1       4.358   7.533  12.516  1.00  0.00    -0.055 C 
ATOM      8  C   UNL     1       3.912   7.855  13.735  1.00  0.00     0.012 C 
BRANCH   7   9
ATOM      9  C   UNL     1       4.044   6.184  11.977  1.00  0.00    -0.005 C 
ATOM     10  C   UNL     1       4.154   5.055  12.678  1.00  0.00     0.009 C 
ENDBRANCH   7   9
ENDBRANCH   1   7
TORSDOF 4
ENDMDL
MODEL 6
REMARK VINA RESULT:    -3.190      1.332      3.569
REMARK INTER + INTRA:          -4.142
REMARK INTER:                  -3.729
REMARK INTRA:                  -0.414
REMARK UNBOUND:                -0.206
REMARK SMILES C=CC(=C)CCC=C(C)C
REMARK SMILES IDX 5 1 6 2 7 3 9 4 8 5 10 6 3 7 4 8 2 9 1 10
REMARK H PARENT
REMARK Flexibility Score: inf
ROOT
ATOM      1  C   UNL     1       7.650   7.642  11.579  1.00  0.00     0.039 C 
ENDROOT
BRANCH   1   2
ATOM      2  C   UNL     1       6.248   7.790  10.974  1.00  0.00     0.032 C 
BRANCH   2   3
ATOM      3  C   UNL     1       5.256   8.255  12.011  1.00  0.00    -0.028 C 
ATOM      4  C   UNL     1       4.284   5.971  12.357  1.00  0.00     0.039 C 
ATOM      5  C   UNL     1       4.359   7.454  12.630  1.00  0.00    -0.080 C 
ATOM      6  C   UNL     1       3.422   8.071  13.637  1.00  0.00     0.039 C 
ENDBRANCH   2   3
ENDBRANCH   1   2
BRANCH   1   7
ATOM      7  C   UNL     1       7.650   6.614  12.690  1.00  0.00    -0.055 C 
ATOM      8  C   UNL     1       7.749   5.318  12.376  1.00  0.00     0.012 C 
BRANCH   7   9
ATOM      9  C   UNL     1       7.593   6.997  14.125  1.00  0.00    -0.005 C 
ATOM     10  C   UNL     1       7.765   8.241  14.573  1.00  0.00     0.009 C 
ENDBRANCH   7   9
ENDBRANCH   1   7
TORSDOF 4
ENDMDL
MODEL 7
REMARK VINA RESULT:    -2.942      1.159      2.029
REMARK INTER + INTRA:          -3.836
REMARK INTER:                  -3.321
REMARK INTRA:                  -0.515
REMARK UNBOUND:                -0.206
REMARK SMILES C=CC(=C)CCC=C(C)C
REMARK SMILES IDX 5 1 6 2 7 3 9 4 8 5 10 6 3 7 4 8 2 9 1 10
REMARK H PARENT
REMARK Flexibility Score: inf
ROOT
ATOM      1  C   UNL     1       5.066   7.584  13.714  1.00  0.00     0.039 C 
ENDROOT
BRANCH   1   2
ATOM      2  C   UNL     1       6.213   6.757  14.310  1.00  0.00     0.032 C 
BRANCH   2   3
ATOM      3  C   UNL     1       7.496   7.549  14.331  1.00  0.00    -0.028 C 
ATOM      4  C   UNL     1       8.119   6.935  11.983  1.00  0.00     0.039 C 
ATOM      5  C   UNL     1       8.368   7.627  13.301  1.00  0.00    -0.080 C 
ATOM      6  C   UNL     1       9.618   8.450  13.481  1.00  0.00     0.039 C 
ENDBRANCH   2   3
ENDBRANCH   1   2
BRANCH   1   7
ATOM      7  C   UNL     1       4.673   7.056  12.351  1.00  0.00    -0.055 C 
ATOM      8  C   UNL     1       4.520   7.918  11.340  1.00  0.00     0.012 C 
BRANCH   7   9
ATOM      9  C   UNL     1       4.497   5.605  12.083  1.00  0.00    -0.005 C 
ATOM     10  C   UNL     1       3.489   4.875  12.558  1.00  0.00     0.009 C 
ENDBRANCH   7   9
ENDBRANCH   1   7
TORSDOF 4
ENDMDL
MODEL 8
REMARK VINA RESULT:    -2.899      1.307      3.694
REMARK INTER + INTRA:          -3.782
REMARK INTER:                  -4.034
REMARK INTRA:                   0.251
REMARK UNBOUND:                -0.206
REMARK SMILES C=CC(=C)CCC=C(C)C
REMARK SMILES IDX 5 1 6 2 7 3 9 4 8 5 10 6 3 7 4 8 2 9 1 10
REMARK H PARENT
REMARK Flexibility Score: inf
ROOT
ATOM      1  C   UNL     1       6.179   4.879  13.637  1.00  0.00     0.039 C 
ENDROOT
BRANCH   1   2
ATOM      2  C   UNL     1       4.848   5.104  12.908  1.00  0.00     0.032 C 
BRANCH   2   3
ATOM      3  C   UNL     1       4.929   6.297  11.989  1.00  0.00    -0.028 C 
ATOM      4  C   UNL     1       3.851   7.855  13.629  1.00  0.00     0.039 C 
ATOM      5  C   UNL     1       4.474   7.534  12.292  1.00  0.00    -0.080 C 
ATOM      6  C   UNL     1       4.614   8.622  11.259  1.00  0.00     0.039 C 
ENDBRANCH   2   3
ENDBRANCH   1   2
BRANCH   1   7
ATOM      7  C   UNL     1       7.157   5.991  13.326  1.00  0.00    -0.055 C 
ATOM      8  C   UNL     1       7.340   6.966  14.224  1.00  0.00     0.012 C 
BRANCH   7   9
ATOM      9  C   UNL     1       7.961   6.015  12.076  1.00  0.00    -0.005 C 
ATOM     10  C   UNL     1       8.060   7.074  11.273  1.00  0.00     0.009 C 
ENDBRANCH   7   9
ENDBRANCH   1   7
TORSDOF 4
ENDMDL
