MODEL 1
REMARK VINA RESULT:    -3.703      0.000      0.000
REMARK INTER + INTRA:          -6.504
REMARK INTER:                  -5.868
REMARK INTRA:                  -0.635
REMARK UNBOUND:                -0.635
REMARK SMILES CCCCCCCCCCCC(=O)[O-]
REMARK SMILES IDX 7 1 8 2 9 3 10 4 11 5 12 6 13 7 14 8 6 9 5 10 4 11 3 12 2 13
REMARK SMILES IDX 1 14
REMARK H PARENT
REMARK Flexibility Score: inf
ROOT
ATOM      1  C   UNL     1      58.591  35.884  50.521  1.00  0.00     0.000 C 
ENDROOT
BRANCH   1   2
ATOM      2  C   UNL     1      58.227  35.695  51.999  1.00  0.00     0.000 C 
BRANCH   2   3
ATOM      3  C   UNL     1      57.145  36.690  52.432  1.00  0.00     0.000 C 
BRANCH   3   4
ATOM      4  C   UNL     1      57.534  37.391  53.742  1.00  0.00     0.006 C 
BRANCH   4   5
ATOM      5  C   UNL     1      58.674  36.668  54.472  1.00  0.00     0.053 C 
BRANCH   5   6
ATOM      6  C   UNL     1      59.331  37.551  55.488  1.00  0.00     0.041 C 
ATOM      7  O   UNL     1      58.631  38.271  56.249  1.00  0.00    -0.550 OA
ATOM      8  O   UNL     1      60.717  37.603  55.575  1.00  0.00    -0.550 OA
ENDBRANCH   5   6
ENDBRANCH   4   5
ENDBRANCH   3   4
ENDBRANCH   2   3
ENDBRANCH   1   2
BRANCH   1   9
ATOM      9  C   UNL     1      59.753  34.963  50.119  1.00  0.00     0.000 C 
BRANCH   9  10
ATOM     10  C   UNL     1      60.403  35.372  48.787  1.00  0.00    -0.000 C 
BRANCH  10  11
ATOM     11  C   UNL     1      60.731  36.874  48.728  1.00  0.00    -0.000 C 
BRANCH  11  12
ATOM     12  C   UNL     1      60.352  37.517  47.381  1.00  0.00    -0.000 C 
BRANCH  12  13
ATOM     13  C   UNL     1      58.844  37.736  47.168  1.00  0.00    -0.003 C 
ATOM     14  C   UNL     1      58.216  36.710  46.225  1.00  0.00     0.004 C 
ENDBRANCH  12  13
ENDBRANCH  11  12
ENDBRANCH  10  11
ENDBRANCH   9  10
ENDBRANCH   1   9
TORSDOF 10
ENDMDL
MODEL 2
REMARK VINA RESULT:    -3.520     15.355     18.108
REMARK INTER + INTRA:          -6.214
REMARK INTER:                  -5.867
REMARK INTRA:                  -0.347
REMARK UNBOUND:                -0.635
REMARK SMILES CCCCCCCCCCCC(=O)[O-]
REMARK SMILES IDX 7 1 8 2 9 3 10 4 11 5 12 6 13 7 14 8 6 9 5 10 4 11 3 12 2 13
REMARK SMILES IDX 1 14
REMARK H PARENT
REMARK Flexibility Score: inf
ROOT
ATOM      1  C   UNL     1      60.845  50.429  39.544  1.00  0.00     0.000 C 
ENDROOT
BRANCH   1   2
ATOM      2  C   UNL     1      62.156  49.673  39.299  1.00  0.00     0.000 C 
BRANCH   2   3
ATOM      3  C   UNL     1      62.239  48.416  40.171  1.00  0.00     0.000 C 
BRANCH   3   4
ATOM      4  C   UNL     1      63.654  47.817  40.141  1.00  0.00     0.006 C 
BRANCH   4   5
ATOM      5  C   UNL     1      63.648  46.329  39.767  1.00  0.00     0.053 C 
BRANCH   5   6
ATOM      6  C   UNL     1      64.384  45.499  40.774  1.00  0.00     0.041 C 
ATOM      7  O   UNL     1      65.003  44.464  40.412  1.00  0.00    -0.550 OA
ATOM      8  O   UNL     1      64.360  45.852  42.118  1.00  0.00    -0.550 OA
ENDBRANCH   5   6
ENDBRANCH   4   5
ENDBRANCH   3   4
ENDBRANCH   2   3
ENDBRANCH   1   2
BRANCH   1   9
ATOM      9  C   UNL     1      61.084  51.946  39.582  1.00  0.00     0.000 C 
BRANCH   9  10
ATOM     10  C   UNL     1      60.801  52.559  40.964  1.00  0.00    -0.000 C 
BRANCH  10  11
ATOM     11  C   UNL     1      61.316  54.003  41.085  1.00  0.00    -0.000 C 
BRANCH  11  12
ATOM     12  C   UNL     1      61.083  54.605  42.483  1.00  0.00    -0.000 C 
BRANCH  12  13
ATOM     13  C   UNL     1      60.821  53.578  43.598  1.00  0.00    -0.003 C 
ATOM     14  C   UNL     1      60.090  54.172  44.802  1.00  0.00     0.004 C 
ENDBRANCH  12  13
ENDBRANCH  11  12
ENDBRANCH  10  11
ENDBRANCH   9  10
ENDBRANCH   1   9
TORSDOF 10
ENDMDL
MODEL 3
REMARK VINA RESULT:    -3.374     12.989     15.544
REMARK INTER + INTRA:          -5.982
REMARK INTER:                  -5.441
REMARK INTRA:                  -0.542
REMARK UNBOUND:                -0.635
REMARK SMILES CCCCCCCCCCCC(=O)[O-]
REMARK SMILES IDX 7 1 8 2 9 3 10 4 11 5 12 6 13 7 14 8 6 9 5 10 4 11 3 12 2 13
REMARK SMILES IDX 1 14
REMARK H PARENT
REMARK Flexibility Score: inf
ROOT
ATOM      1  C   UNL     1      66.349  47.279  57.515  1.00  0.00     0.000 C 
ENDROOT
BRANCH   1   2
ATOM      2  C   UNL     1      66.784  48.699  57.900  1.00  0.00     0.000 C 
BRANCH   2   3
ATOM      3  C   UNL     1      68.108  48.679  58.672  1.00  0.00     0.000 C 
BRANCH   3   4
ATOM      4  C   UNL     1      69.179  49.507  57.947  1.00  0.00     0.006 C 
BRANCH   4   5
ATOM      5  C   UNL     1      69.198  49.241  56.436  1.00  0.00     0.053 C 
BRANCH   5   6
ATOM      6  C   UNL     1      69.064  50.506  55.646  1.00  0.00     0.041 C 
ATOM      7  O   UNL     1      67.980  51.148  55.658  1.00  0.00    -0.550 OA
ATOM      8  O   UNL     1      70.124  50.960  54.872  1.00  0.00    -0.550 OA
ENDBRANCH   5   6
ENDBRANCH   4   5
ENDBRANCH   3   4
ENDBRANCH   2   3
ENDBRANCH   1   2
BRANCH   1   9
ATOM      9  C   UNL     1      65.195  46.797  58.408  1.00  0.00     0.000 C 
BRANCH   9  10
ATOM     10  C   UNL     1      64.840  45.319  58.173  1.00  0.00    -0.000 C 
BRANCH  10  11
ATOM     11  C   UNL     1      65.654  44.692  57.029  1.00  0.00    -0.000 C 
BRANCH  11  12
ATOM     12  C   UNL     1      65.477  43.164  56.937  1.00  0.00    -0.000 C 
BRANCH  12  13
ATOM     13  C   UNL     1      66.724  42.342  57.306  1.00  0.00    -0.003 C 
ATOM     14  C   UNL     1      67.226  42.618  58.723  1.00  0.00     0.004 C 
ENDBRANCH  12  13
ENDBRANCH  11  12
ENDBRANCH  10  11
ENDBRANCH   9  10
ENDBRANCH   1   9
TORSDOF 10
ENDMDL
MODEL 4
REMARK VINA RESULT:    -3.338     18.260     19.437
REMARK INTER + INTRA:          -5.924
REMARK INTER:                  -4.596
REMARK INTRA:                  -1.329
REMARK UNBOUND:                -0.635
REMARK SMILES CCCCCCCCCCCC(=O)[O-]
REMARK SMILES IDX 7 1 8 2 9 3 10 4 11 5 12 6 13 7 14 8 6 9 5 10 4 11 3 12 2 13
REMARK SMILES IDX 1 14
REMARK H PARENT
REMARK Flexibility Score: inf
ROOT
ATOM      1  C   UNL     1      69.424  51.729  50.091  1.00  0.00     0.000 C 
ENDROOT
BRANCH   1   2
ATOM      2  C   UNL     1      68.780  50.646  50.965  1.00  0.00     0.000 C 
BRANCH   2   3
ATOM      3  C   UNL     1      69.169  50.823  52.437  1.00  0.00     0.000 C 
BRANCH   3   4
ATOM      4  C   UNL     1      70.628  51.281  52.570  1.00  0.00     0.006 C 
BRANCH   4   5
ATOM      5  C   UNL     1      70.907  51.954  53.921  1.00  0.00     0.053 C 
BRANCH   5   6
ATOM      6  C   UNL     1      71.126  50.947  55.009  1.00  0.00     0.041 C 
ATOM      7  O   UNL     1      70.193  50.663  55.806  1.00  0.00    -0.550 OA
ATOM      8  O   UNL     1      72.369  50.346  55.161  1.00  0.00    -0.550 OA
ENDBRANCH   5   6
ENDBRANCH   4   5
ENDBRANCH   3   4
ENDBRANCH   2   3
ENDBRANCH   1   2
BRANCH   1   9
ATOM      9  C   UNL     1      68.356  52.647  49.478  1.00  0.00     0.000 C 
BRANCH   9  10
ATOM     10  C   UNL     1      68.546  54.123  49.867  1.00  0.00    -0.000 C 
BRANCH  10  11
ATOM     11  C   UNL     1      69.335  54.290  51.176  1.00  0.00    -0.000 C 
BRANCH  11  12
ATOM     12  C   UNL     1      70.618  55.125  50.998  1.00  0.00    -0.000 C 
BRANCH  12  13
ATOM     13  C   UNL     1      71.927  54.316  51.017  1.00  0.00    -0.003 C 
ATOM     14  C   UNL     1      72.391  53.893  49.624  1.00  0.00     0.004 C 
ENDBRANCH  12  13
ENDBRANCH  11  12
ENDBRANCH  10  11
ENDBRANCH   9  10
ENDBRANCH   1   9
TORSDOF 10
ENDMDL
MODEL 5
REMARK VINA RESULT:    -3.336     16.999     19.008
REMARK INTER + INTRA:          -5.921
REMARK INTER:                  -4.902
REMARK INTRA:                  -1.019
REMARK UNBOUND:                -0.635
REMARK SMILES CCCCCCCCCCCC(=O)[O-]
REMARK SMILES IDX 7 1 8 2 9 3 10 4 11 5 12 6 13 7 14 8 6 9 5 10 4 11 3 12 2 13
REMARK SMILES IDX 1 14
REMARK H PARENT
REMARK Flexibility Score: inf
ROOT
ATOM      1  C   UNL     1      69.139  50.886  54.593  1.00  0.00     0.000 C 
ENDROOT
BRANCH   1   2
ATOM      2  C   UNL     1      70.104  52.078  54.580  1.00  0.00     0.000 C 
BRANCH   2   3
ATOM      3  C   UNL     1      70.307  52.607  53.155  1.00  0.00     0.000 C 
BRANCH   3   4
ATOM      4  C   UNL     1      70.950  51.539  52.258  1.00  0.00     0.006 C 
BRANCH   4   5
ATOM      5  C   UNL     1      70.532  51.685  50.789  1.00  0.00     0.053 C 
BRANCH   5   6
ATOM      6  C   UNL     1      69.097  51.310  50.580  1.00  0.00     0.041 C 
ATOM      7  O   UNL     1      68.619  50.291  51.146  1.00  0.00    -0.550 OA
ATOM      8  O   UNL     1      68.295  52.066  49.734  1.00  0.00    -0.550 OA
ENDBRANCH   5   6
ENDBRANCH   4   5
ENDBRANCH   3   4
ENDBRANCH   2   3
ENDBRANCH   1   2
BRANCH   1   9
ATOM      9  C   UNL     1      68.464  50.742  55.966  1.00  0.00     0.000 C 
BRANCH   9  10
ATOM     10  C   UNL     1      68.510  49.302  56.503  1.00  0.00    -0.000 C 
BRANCH  10  11
ATOM     11  C   UNL     1      69.264  49.195  57.839  1.00  0.00    -0.000 C 
BRANCH  11  12
ATOM     12  C   UNL     1      70.669  49.824  57.785  1.00  0.00    -0.000 C 
BRANCH  12  13
ATOM     13  C   UNL     1      71.707  49.026  56.976  1.00  0.00    -0.003 C 
ATOM     14  C   UNL     1      72.603  49.913  56.112  1.00  0.00     0.004 C 
ENDBRANCH  12  13
ENDBRANCH  11  12
ENDBRANCH  10  11
ENDBRANCH   9  10
ENDBRANCH   1   9
TORSDOF 10
ENDMDL
MODEL 6
REMARK VINA RESULT:    -3.300     17.400     18.570
REMARK INTER + INTRA:          -5.865
REMARK INTER:                  -4.979
REMARK INTRA:                  -0.886
REMARK UNBOUND:                -0.635
REMARK SMILES CCCCCCCCCCCC(=O)[O-]
REMARK SMILES IDX 7 1 8 2 9 3 10 4 11 5 12 6 13 7 14 8 6 9 5 10 4 11 3 12 2 13
REMARK SMILES IDX 1 14
REMARK H PARENT
REMARK Flexibility Score: inf
ROOT
ATOM      1  C   UNL     1      71.019  51.503  53.227  1.00  0.00     0.000 C 
ENDROOT
BRANCH   1   2
ATOM      2  C   UNL     1      70.496  52.643  54.109  1.00  0.00     0.000 C 
BRANCH   2   3
ATOM      3  C   UNL     1      69.557  52.112  55.197  1.00  0.00     0.000 C 
BRANCH   3   4
ATOM      4  C   UNL     1      69.657  50.584  55.313  1.00  0.00     0.006 C 
BRANCH   4   5
ATOM      5  C   UNL     1      70.156  50.136  56.694  1.00  0.00     0.053 C 
BRANCH   5   6
ATOM      6  C   UNL     1      71.575  49.659  56.645  1.00  0.00     0.041 C 
ATOM      7  O   UNL     1      71.856  48.474  56.964  1.00  0.00    -0.550 OA
ATOM      8  O   UNL     1      72.591  50.532  56.277  1.00  0.00    -0.550 OA
ENDBRANCH   5   6
ENDBRANCH   4   5
ENDBRANCH   3   4
ENDBRANCH   2   3
ENDBRANCH   1   2
BRANCH   1   9
ATOM      9  C   UNL     1      70.464  51.613  51.799  1.00  0.00     0.000 C 
BRANCH   9  10
ATOM     10  C   UNL     1      69.107  50.908  51.633  1.00  0.00    -0.000 C 
BRANCH  10  11
ATOM     11  C   UNL     1      68.581  50.977  50.189  1.00  0.00    -0.000 C 
BRANCH  11  12
ATOM     12  C   UNL     1      68.964  52.287  49.475  1.00  0.00    -0.000 C 
BRANCH  12  13
ATOM     13  C   UNL     1      67.897  53.394  49.533  1.00  0.00    -0.003 C 
ATOM     14  C   UNL     1      68.358  54.631  50.303  1.00  0.00     0.004 C 
ENDBRANCH  12  13
ENDBRANCH  11  12
ENDBRANCH  10  11
ENDBRANCH   9  10
ENDBRANCH   1   9
TORSDOF 10
ENDMDL
MODEL 7
REMARK VINA RESULT:    -3.296     16.826     18.107
REMARK INTER + INTRA:          -5.858
REMARK INTER:                  -4.785
REMARK INTRA:                  -1.073
REMARK UNBOUND:                -0.635
REMARK SMILES CCCCCCCCCCCC(=O)[O-]
REMARK SMILES IDX 7 1 8 2 9 3 10 4 11 5 12 6 13 7 14 8 6 9 5 10 4 11 3 12 2 13
REMARK SMILES IDX 1 14
REMARK H PARENT
REMARK Flexibility Score: inf
ROOT
ATOM      1  C   UNL     1      69.464  51.961  55.367  1.00  0.00     0.000 C 
ENDROOT
BRANCH   1   2
ATOM      2  C   UNL     1      68.732  50.674  54.969  1.00  0.00     0.000 C 
BRANCH   2   3
ATOM      3  C   UNL     1      68.596  49.725  56.165  1.00  0.00     0.000 C 
BRANCH   3   4
ATOM      4  C   UNL     1      69.558  50.122  57.294  1.00  0.00     0.006 C 
BRANCH   4   5
ATOM      5  C   UNL     1      70.281  48.908  57.896  1.00  0.00     0.053 C 
BRANCH   5   6
ATOM      6  C   UNL     1      71.583  48.639  57.205  1.00  0.00     0.041 C 
ATOM      7  O   UNL     1      72.072  49.493  56.421  1.00  0.00    -0.550 OA
ATOM      8  O   UNL     1      72.239  47.430  57.404  1.00  0.00    -0.550 OA
ENDBRANCH   5   6
ENDBRANCH   4   5
ENDBRANCH   3   4
ENDBRANCH   2   3
ENDBRANCH   1   2
BRANCH   1   9
ATOM      9  C   UNL     1      70.326  52.484  54.207  1.00  0.00     0.000 C 
BRANCH   9  10
ATOM     10  C   UNL     1      71.090  51.363  53.483  1.00  0.00    -0.000 C 
BRANCH  10  11
ATOM     11  C   UNL     1      71.194  51.605  51.968  1.00  0.00    -0.000 C 
BRANCH  11  12
ATOM     12  C   UNL     1      69.926  52.250  51.377  1.00  0.00    -0.000 C 
BRANCH  12  13
ATOM     13  C   UNL     1      69.121  51.347  50.425  1.00  0.00    -0.003 C 
ATOM     14  C   UNL     1      68.413  50.199  51.144  1.00  0.00     0.004 C 
ENDBRANCH  12  13
ENDBRANCH  11  12
ENDBRANCH  10  11
ENDBRANCH   9  10
ENDBRANCH   1   9
TORSDOF 10
ENDMDL
MODEL 8
REMARK VINA RESULT:    -3.274     17.129     18.285
REMARK INTER + INTRA:          -5.823
REMARK INTER:                  -4.880
REMARK INTRA:                  -0.943
REMARK UNBOUND:                -0.635
REMARK SMILES CCCCCCCCCCCC(=O)[O-]
REMARK SMILES IDX 7 1 8 2 9 3 10 4 11 5 12 6 13 7 14 8 6 9 5 10 4 11 3 12 2 13
REMARK SMILES IDX 1 14
REMARK H PARENT
REMARK Flexibility Score: inf
ROOT
ATOM      1  C   UNL     1      70.515  51.412  51.620  1.00  0.00     0.000 C 
ENDROOT
BRANCH   1   2
ATOM      2  C   UNL     1      70.776  51.464  53.130  1.00  0.00     0.000 C 
BRANCH   2   3
ATOM      3  C   UNL     1      69.536  51.030  53.920  1.00  0.00     0.000 C 
BRANCH   3   4
ATOM      4  C   UNL     1      69.602  51.534  55.369  1.00  0.00     0.006 C 
BRANCH   4   5
ATOM      5  C   UNL     1      68.578  50.835  56.275  1.00  0.00     0.053 C 
BRANCH   5   6
ATOM      6  C   UNL     1      68.944  49.405  56.527  1.00  0.00     0.041 C 
ATOM      7  O   UNL     1      68.053  48.514  56.528  1.00  0.00    -0.550 OA
ATOM      8  O   UNL     1      70.263  49.059  56.792  1.00  0.00    -0.550 OA
ENDBRANCH   5   6
ENDBRANCH   4   5
ENDBRANCH   3   4
ENDBRANCH   2   3
ENDBRANCH   1   2
BRANCH   1   9
ATOM      9  C   UNL     1      69.069  50.982  51.327  1.00  0.00     0.000 C 
BRANCH   9  10
ATOM     10  C   UNL     1      68.644  51.274  49.878  1.00  0.00    -0.000 C 
BRANCH  10  11
ATOM     11  C   UNL     1      69.150  52.638  49.380  1.00  0.00    -0.000 C 
BRANCH  11  12
ATOM     12  C   UNL     1      68.308  53.817  49.906  1.00  0.00    -0.000 C 
BRANCH  12  13
ATOM     13  C   UNL     1      69.121  55.006  50.447  1.00  0.00    -0.003 C 
ATOM     14  C   UNL     1      69.422  54.896  51.941  1.00  0.00     0.004 C 
ENDBRANCH  12  13
ENDBRANCH  11  12
ENDBRANCH  10  11
ENDBRANCH   9  10
ENDBRANCH   1   9
TORSDOF 10
ENDMDL
MODEL 9
REMARK VINA RESULT:    -3.257     19.026     20.643
REMARK INTER + INTRA:          -5.797
REMARK INTER:                  -4.709
REMARK INTRA:                  -1.087
REMARK UNBOUND:                -0.635
REMARK SMILES CCCCCCCCCCCC(=O)[O-]
REMARK SMILES IDX 7 1 8 2 9 3 10 4 11 5 12 6 13 7 14 8 6 9 5 10 4 11 3 12 2 13
REMARK SMILES IDX 1 14
REMARK H PARENT
REMARK Flexibility Score: inf
ROOT
ATOM      1  C   UNL     1      68.881  52.338  49.269  1.00  0.00     0.000 C 
ENDROOT
BRANCH   1   2
ATOM      2  C   UNL     1      67.935  53.463  49.705  1.00  0.00     0.000 C 
BRANCH   2   3
ATOM      3  C   UNL     1      68.321  54.794  49.049  1.00  0.00     0.000 C 
BRANCH   3   4
ATOM      4  C   UNL     1      67.748  54.893  47.628  1.00  0.00     0.006 C 
BRANCH   4   5
ATOM      5  C   UNL     1      68.848  54.914  46.557  1.00  0.00     0.053 C 
BRANCH   5   6
ATOM      6  C   UNL     1      68.385  54.295  45.274  1.00  0.00     0.041 C 
ATOM      7  O   UNL     1      69.221  53.796  44.474  1.00  0.00    -0.550 OA
ATOM      8  O   UNL     1      67.035  54.297  44.946  1.00  0.00    -0.550 OA
ENDBRANCH   5   6
ENDBRANCH   4   5
ENDBRANCH   3   4
ENDBRANCH   2   3
ENDBRANCH   1   2
BRANCH   1   9
ATOM      9  C   UNL     1      68.771  51.131  50.212  1.00  0.00     0.000 C 
BRANCH   9  10
ATOM     10  C   UNL     1      69.440  51.377  51.575  1.00  0.00    -0.000 C 
BRANCH  10  11
ATOM     11  C   UNL     1      70.857  51.960  51.438  1.00  0.00    -0.000 C 
BRANCH  11  12
ATOM     12  C   UNL     1      70.991  53.360  52.066  1.00  0.00    -0.000 C 
BRANCH  12  13
ATOM     13  C   UNL     1      71.651  54.417  51.163  1.00  0.00    -0.003 C 
ATOM     14  C   UNL     1      72.159  53.843  49.841  1.00  0.00     0.004 C 
ENDBRANCH  12  13
ENDBRANCH  11  12
ENDBRANCH  10  11
ENDBRANCH   9  10
ENDBRANCH   1   9
TORSDOF 10
ENDMDL
