MODEL 1
REMARK VINA RESULT:    -5.376      0.000      0.000
REMARK INTER + INTRA:          -7.345
REMARK INTER:                  -6.790
REMARK INTRA:                  -0.555
REMARK UNBOUND:                -0.555
REMARK SMILES Oc1cc(O)cc(CCc2ccccc2O)c1
REMARK SMILES IDX 9 1 10 2 12 3 13 4 11 5 14 6 15 7 16 8 8 10 7 11 6 12 17 13
REMARK SMILES IDX 4 14 2 15 3 16 5 17 1 19
REMARK H PARENT 16 9 5 18 1 20
REMARK Flexibility Score: inf
ROOT
ATOM      1  C   UNL     1     -31.279  -9.369   3.597  1.00  0.00     0.044 C 
ENDROOT
BRANCH   1   2
ATOM      2  C   UNL     1     -29.973 -10.077   3.334  1.00  0.00    -0.006 A 
ATOM      3  C   UNL     1     -28.395 -11.035   1.751  1.00  0.00     0.001 A 
ATOM      4  C   UNL     1     -27.517 -11.329   2.797  1.00  0.00     0.004 A 
ATOM      5  C   UNL     1     -29.615 -10.407   2.015  1.00  0.00     0.007 A 
ATOM      6  C   UNL     1     -27.855 -10.992   4.109  1.00  0.00     0.046 A 
ATOM      7  C   UNL     1     -29.077 -10.361   4.385  1.00  0.00     0.118 A 
BRANCH   7   8
ATOM      8  O   UNL     1     -29.402 -10.013   5.697  1.00  0.00    -0.508 OA
ATOM      9  H   UNL     1     -29.803 -10.686   6.339  1.00  0.00     0.293 HD
ENDBRANCH   7   8
ENDBRANCH   1   2
BRANCH   1  10
ATOM     10  C   UNL     1     -31.481  -8.222   2.603  1.00  0.00     0.040 C 
BRANCH  10  11
ATOM     11  C   UNL     1     -32.584  -8.550   1.634  1.00  0.00    -0.040 A 
ATOM     12  C   UNL     1     -33.852  -8.923   2.107  1.00  0.00     0.050 A 
ATOM     13  C   UNL     1     -32.339  -8.540   0.251  1.00  0.00     0.050 A 
ATOM     14  C   UNL     1     -34.871  -9.260   1.208  1.00  0.00     0.119 A 
ATOM     15  C   UNL     1     -33.355  -8.877  -0.650  1.00  0.00     0.119 A 
ATOM     16  C   UNL     1     -34.621  -9.234  -0.171  1.00  0.00     0.092 A 
BRANCH  14  17
ATOM     17  O   UNL     1     -36.125  -9.623   1.696  1.00  0.00    -0.508 OA
ATOM     18  H   UNL     1     -36.556 -10.505   1.443  1.00  0.00     0.293 HD
ENDBRANCH  14  17
BRANCH  15  19
ATOM     19  O   UNL     1     -33.093  -8.854  -2.018  1.00  0.00    -0.508 OA
ATOM     20  H   UNL     1     -32.769  -9.680  -2.509  1.00  0.00     0.293 HD
ENDBRANCH  15  19
ENDBRANCH  10  11
ENDBRANCH   1  10
TORSDOF 6
ENDMDL
MODEL 2
REMARK VINA RESULT:    -5.338      0.097      2.042
REMARK INTER + INTRA:          -7.296
REMARK INTER:                  -6.770
REMARK INTRA:                  -0.527
REMARK UNBOUND:                -0.555
REMARK SMILES Oc1cc(O)cc(CCc2ccccc2O)c1
REMARK SMILES IDX 9 1 10 2 12 3 13 4 11 5 14 6 15 7 16 8 8 10 7 11 6 12 17 13
REMARK SMILES IDX 4 14 2 15 3 16 5 17 1 19
REMARK H PARENT 16 9 5 18 1 20
REMARK Flexibility Score: inf
ROOT
ATOM      1  C   UNL     1     -31.256  -9.242   3.556  1.00  0.00     0.044 C 
ENDROOT
BRANCH   1   2
ATOM      2  C   UNL     1     -29.963  -9.982   3.317  1.00  0.00    -0.006 A 
ATOM      3  C   UNL     1     -28.358 -10.939   1.761  1.00  0.00     0.001 A 
ATOM      4  C   UNL     1     -27.528 -11.293   2.828  1.00  0.00     0.004 A 
ATOM      5  C   UNL     1     -29.567 -10.281   2.002  1.00  0.00     0.007 A 
ATOM      6  C   UNL     1     -27.903 -10.986   4.138  1.00  0.00     0.046 A 
ATOM      7  C   UNL     1     -29.116 -10.326   4.390  1.00  0.00     0.118 A 
BRANCH   7   8
ATOM      8  O   UNL     1     -29.478 -10.010   5.700  1.00  0.00    -0.508 OA
ATOM      9  H   UNL     1     -28.810 -10.058   6.460  1.00  0.00     0.293 HD
ENDBRANCH   7   8
ENDBRANCH   1   2
BRANCH   1  10
ATOM     10  C   UNL     1     -31.477  -8.179   2.477  1.00  0.00     0.040 C 
BRANCH  10  11
ATOM     11  C   UNL     1     -32.577  -8.597   1.540  1.00  0.00    -0.040 A 
ATOM     12  C   UNL     1     -32.364  -8.593   0.152  1.00  0.00     0.050 A 
ATOM     13  C   UNL     1     -33.844  -8.940   2.043  1.00  0.00     0.050 A 
ATOM     14  C   UNL     1     -33.396  -8.950  -0.723  1.00  0.00     0.119 A 
ATOM     15  C   UNL     1     -34.878  -9.297   1.170  1.00  0.00     0.119 A 
ATOM     16  C   UNL     1     -34.653  -9.304  -0.212  1.00  0.00     0.092 A 
BRANCH  14  17
ATOM     17  O   UNL     1     -33.164  -8.946  -2.097  1.00  0.00    -0.508 OA
ATOM     18  H   UNL     1     -33.917  -9.081  -2.762  1.00  0.00     0.293 HD
ENDBRANCH  14  17
BRANCH  15  19
ATOM     19  O   UNL     1     -36.125  -9.640   1.689  1.00  0.00    -0.508 OA
ATOM     20  H   UNL     1     -36.657  -8.993   2.259  1.00  0.00     0.293 HD
ENDBRANCH  15  19
ENDBRANCH  10  11
ENDBRANCH   1  10
TORSDOF 6
ENDMDL
MODEL 3
REMARK VINA RESULT:    -5.263      1.542      6.415
REMARK INTER + INTRA:          -7.201
REMARK INTER:                  -6.715
REMARK INTRA:                  -0.487
REMARK UNBOUND:                -0.555
REMARK SMILES Oc1cc(O)cc(CCc2ccccc2O)c1
REMARK SMILES IDX 9 1 10 2 12 3 13 4 11 5 14 6 15 7 16 8 8 10 7 11 6 12 17 13
REMARK SMILES IDX 4 14 2 15 3 16 5 17 1 19
REMARK H PARENT 16 9 5 18 1 20
REMARK Flexibility Score: inf
ROOT
ATOM      1  C   UNL     1     -31.254  -8.673   1.189  1.00  0.00     0.044 C 
ENDROOT
BRANCH   1   2
ATOM      2  C   UNL     1     -32.607  -8.909   0.566  1.00  0.00    -0.006 A 
ATOM      3  C   UNL     1     -33.943  -9.426  -1.400  1.00  0.00     0.001 A 
ATOM      4  C   UNL     1     -35.101  -9.424  -0.619  1.00  0.00     0.004 A 
ATOM      5  C   UNL     1     -32.700  -9.176  -0.812  1.00  0.00     0.007 A 
ATOM      6  C   UNL     1     -35.019  -9.175   0.754  1.00  0.00     0.046 A 
ATOM      7  C   UNL     1     -33.776  -8.923   1.353  1.00  0.00     0.118 A 
BRANCH   7   8
ATOM      8  O   UNL     1     -33.700  -8.691   2.727  1.00  0.00    -0.508 OA
ATOM      9  H   UNL     1     -33.363  -9.400   3.367  1.00  0.00     0.293 HD
ENDBRANCH   7   8
ENDBRANCH   1   2
BRANCH   1  10
ATOM     10  C   UNL     1     -30.368  -9.913   1.041  1.00  0.00     0.040 C 
BRANCH  10  11
ATOM     11  C   UNL     1     -29.637 -10.198   2.325  1.00  0.00    -0.040 A 
ATOM     12  C   UNL     1     -28.410 -10.880   2.304  1.00  0.00     0.050 A 
ATOM     13  C   UNL     1     -30.204  -9.835   3.558  1.00  0.00     0.050 A 
ATOM     14  C   UNL     1     -27.745 -11.175   3.499  1.00  0.00     0.119 A 
ATOM     15  C   UNL     1     -29.541 -10.129   4.754  1.00  0.00     0.119 A 
ATOM     16  C   UNL     1     -28.310 -10.797   4.724  1.00  0.00     0.092 A 
BRANCH  14  17
ATOM     17  O   UNL     1     -26.524 -11.848   3.457  1.00  0.00    -0.508 OA
ATOM     18  H   UNL     1     -26.431 -12.796   3.802  1.00  0.00     0.293 HD
ENDBRANCH  14  17
BRANCH  15  19
ATOM     19  O   UNL     1     -30.116  -9.755   5.967  1.00  0.00    -0.508 OA
ATOM     20  H   UNL     1     -29.576  -9.731   6.824  1.00  0.00     0.293 HD
ENDBRANCH  15  19
ENDBRANCH  10  11
ENDBRANCH   1  10
TORSDOF 6
ENDMDL
MODEL 4
REMARK VINA RESULT:    -5.216      1.875      6.145
REMARK INTER + INTRA:          -7.142
REMARK INTER:                  -6.616
REMARK INTRA:                  -0.526
REMARK UNBOUND:                -0.555
REMARK SMILES Oc1cc(O)cc(CCc2ccccc2O)c1
REMARK SMILES IDX 9 1 10 2 12 3 13 4 11 5 14 6 15 7 16 8 8 10 7 11 6 12 17 13
REMARK SMILES IDX 4 14 2 15 3 16 5 17 1 19
REMARK H PARENT 16 9 5 18 1 20
REMARK Flexibility Score: inf
ROOT
ATOM      1  C   UNL     1     -31.309  -8.260   3.138  1.00  0.00     0.044 C 
ENDROOT
BRANCH   1   2
ATOM      2  C   UNL     1     -32.726  -8.530   2.697  1.00  0.00    -0.006 A 
ATOM      3  C   UNL     1     -35.079  -8.780   3.257  1.00  0.00     0.001 A 
ATOM      4  C   UNL     1     -35.387  -8.959   1.906  1.00  0.00     0.004 A 
ATOM      5  C   UNL     1     -33.757  -8.561   3.652  1.00  0.00     0.007 A 
ATOM      6  C   UNL     1     -34.373  -8.914   0.946  1.00  0.00     0.046 A 
ATOM      7  C   UNL     1     -33.042  -8.694   1.333  1.00  0.00     0.118 A 
BRANCH   7   8
ATOM      8  O   UNL     1     -32.037  -8.636   0.367  1.00  0.00    -0.508 OA
ATOM      9  H   UNL     1     -32.082  -7.984  -0.406  1.00  0.00     0.293 HD
ENDBRANCH   7   8
ENDBRANCH   1   2
BRANCH   1  10
ATOM     10  C   UNL     1     -30.858  -9.296   4.171  1.00  0.00     0.040 C 
BRANCH  10  11
ATOM     11  C   UNL     1     -29.750 -10.149   3.615  1.00  0.00    -0.040 A 
ATOM     12  C   UNL     1     -28.667 -10.518   4.428  1.00  0.00     0.050 A 
ATOM     13  C   UNL     1     -29.763 -10.535   2.265  1.00  0.00     0.050 A 
ATOM     14  C   UNL     1     -27.619 -11.283   3.905  1.00  0.00     0.119 A 
ATOM     15  C   UNL     1     -28.716 -11.300   1.738  1.00  0.00     0.119 A 
ATOM     16  C   UNL     1     -27.646 -11.677   2.560  1.00  0.00     0.092 A 
BRANCH  14  17
ATOM     17  O   UNL     1     -26.554 -11.645   4.729  1.00  0.00    -0.508 OA
ATOM     18  H   UNL     1     -25.595 -11.604   4.403  1.00  0.00     0.293 HD
ENDBRANCH  14  17
BRANCH  15  19
ATOM     19  O   UNL     1     -28.750 -11.679   0.398  1.00  0.00    -0.508 OA
ATOM     20  H   UNL     1     -28.132 -11.259  -0.287  1.00  0.00     0.293 HD
ENDBRANCH  15  19
ENDBRANCH  10  11
ENDBRANCH   1  10
TORSDOF 6
ENDMDL
MODEL 5
REMARK VINA RESULT:    -5.215      1.890      6.257
REMARK INTER + INTRA:          -7.142
REMARK INTER:                  -6.623
REMARK INTRA:                  -0.519
REMARK UNBOUND:                -0.555
REMARK SMILES Oc1cc(O)cc(CCc2ccccc2O)c1
REMARK SMILES IDX 9 1 10 2 12 3 13 4 11 5 14 6 15 7 16 8 8 10 7 11 6 12 17 13
REMARK SMILES IDX 4 14 2 15 3 16 5 17 1 19
REMARK H PARENT 16 9 5 18 1 20
REMARK Flexibility Score: inf
ROOT
ATOM      1  C   UNL     1     -31.328  -8.287   3.165  1.00  0.00     0.044 C 
ENDROOT
BRANCH   1   2
ATOM      2  C   UNL     1     -32.739  -8.561   2.709  1.00  0.00    -0.006 A 
ATOM      3  C   UNL     1     -35.102  -8.788   3.240  1.00  0.00     0.001 A 
ATOM      4  C   UNL     1     -35.390  -8.996   1.889  1.00  0.00     0.004 A 
ATOM      5  C   UNL     1     -33.785  -8.566   3.649  1.00  0.00     0.007 A 
ATOM      6  C   UNL     1     -34.362  -8.979   0.943  1.00  0.00     0.046 A 
ATOM      7  C   UNL     1     -33.036  -8.756   1.345  1.00  0.00     0.118 A 
BRANCH   7   8
ATOM      8  O   UNL     1     -32.016  -8.725   0.393  1.00  0.00    -0.508 OA
ATOM      9  H   UNL     1     -31.366  -9.496   0.287  1.00  0.00     0.293 HD
ENDBRANCH   7   8
ENDBRANCH   1   2
BRANCH   1  10
ATOM     10  C   UNL     1     -30.871  -9.345   4.174  1.00  0.00     0.040 C 
BRANCH  10  11
ATOM     11  C   UNL     1     -29.757 -10.177   3.600  1.00  0.00    -0.040 A 
ATOM     12  C   UNL     1     -29.842 -10.662   2.285  1.00  0.00     0.050 A 
ATOM     13  C   UNL     1     -28.649 -10.521   4.393  1.00  0.00     0.050 A 
ATOM     14  C   UNL     1     -28.822 -11.464   1.761  1.00  0.00     0.119 A 
ATOM     15  C   UNL     1     -27.628 -11.322   3.871  1.00  0.00     0.119 A 
ATOM     16  C   UNL     1     -27.713 -11.791   2.554  1.00  0.00     0.092 A 
BRANCH  14  17
ATOM     17  O   UNL     1     -28.921 -11.932   0.452  1.00  0.00    -0.508 OA
ATOM     18  H   UNL     1     -29.686 -12.530   0.160  1.00  0.00     0.293 HD
ENDBRANCH  14  17
BRANCH  15  19
ATOM     19  O   UNL     1     -26.534 -11.647   4.671  1.00  0.00    -0.508 OA
ATOM     20  H   UNL     1     -25.595 -11.355   4.427  1.00  0.00     0.293 HD
ENDBRANCH  15  19
ENDBRANCH  10  11
ENDBRANCH   1  10
TORSDOF 6
ENDMDL
MODEL 6
REMARK VINA RESULT:    -5.171      1.646      6.000
REMARK INTER + INTRA:          -7.086
REMARK INTER:                  -6.501
REMARK INTRA:                  -0.585
REMARK UNBOUND:                -0.555
REMARK SMILES Oc1cc(O)cc(CCc2ccccc2O)c1
REMARK SMILES IDX 9 1 10 2 12 3 13 4 11 5 14 6 15 7 16 8 8 10 7 11 6 12 17 13
REMARK SMILES IDX 4 14 2 15 3 16 5 17 1 19
REMARK H PARENT 16 9 5 18 1 20
REMARK Flexibility Score: inf
ROOT
ATOM      1  C   UNL     1     -33.084  -8.623   1.628  1.00  0.00     0.044 C 
ENDROOT
BRANCH   1   2
ATOM      2  C   UNL     1     -33.584  -8.923   0.238  1.00  0.00    -0.006 A 
ATOM      3  C   UNL     1     -33.227  -8.886  -2.168  1.00  0.00     0.001 A 
ATOM      4  C   UNL     1     -34.450  -9.533  -2.364  1.00  0.00     0.004 A 
ATOM      5  C   UNL     1     -32.792  -8.588  -0.874  1.00  0.00     0.007 A 
ATOM      6  C   UNL     1     -35.239  -9.886  -1.267  1.00  0.00     0.046 A 
ATOM      7  C   UNL     1     -34.810  -9.590   0.036  1.00  0.00     0.118 A 
BRANCH   7   8
ATOM      8  O   UNL     1     -35.597  -9.958   1.129  1.00  0.00    -0.508 OA
ATOM      9  H   UNL     1     -35.869  -9.286   1.836  1.00  0.00     0.293 HD
ENDBRANCH   7   8
ENDBRANCH   1   2
BRANCH   1  10
ATOM     10  C   UNL     1     -31.640  -8.115   1.584  1.00  0.00     0.040 C 
BRANCH  10  11
ATOM     11  C   UNL     1     -30.698  -9.149   2.137  1.00  0.00    -0.040 A 
ATOM     12  C   UNL     1     -30.380  -9.156   3.505  1.00  0.00     0.050 A 
ATOM     13  C   UNL     1     -30.087 -10.081   1.282  1.00  0.00     0.050 A 
ATOM     14  C   UNL     1     -29.478 -10.096   4.016  1.00  0.00     0.119 A 
ATOM     15  C   UNL     1     -29.186 -11.022   1.790  1.00  0.00     0.119 A 
ATOM     16  C   UNL     1     -28.884 -11.031   3.158  1.00  0.00     0.092 A 
BRANCH  14  17
ATOM     17  O   UNL     1     -29.178 -10.091   5.377  1.00  0.00    -0.508 OA
ATOM     18  H   UNL     1     -28.559 -10.781   5.786  1.00  0.00     0.293 HD
ENDBRANCH  14  17
BRANCH  15  19
ATOM     19  O   UNL     1     -28.596 -11.943   0.927  1.00  0.00    -0.508 OA
ATOM     20  H   UNL     1     -28.404 -12.894   1.218  1.00  0.00     0.293 HD
ENDBRANCH  15  19
ENDBRANCH  10  11
ENDBRANCH   1  10
TORSDOF 6
ENDMDL
MODEL 7
REMARK VINA RESULT:    -5.163      1.659      6.232
REMARK INTER + INTRA:          -7.076
REMARK INTER:                  -6.488
REMARK INTRA:                  -0.589
REMARK UNBOUND:                -0.555
REMARK SMILES Oc1cc(O)cc(CCc2ccccc2O)c1
REMARK SMILES IDX 9 1 10 2 12 3 13 4 11 5 14 6 15 7 16 8 8 10 7 11 6 12 17 13
REMARK SMILES IDX 4 14 2 15 3 16 5 17 1 19
REMARK H PARENT 16 9 5 18 1 20
REMARK Flexibility Score: inf
ROOT
ATOM      1  C   UNL     1     -33.034  -8.636   1.626  1.00  0.00     0.044 C 
ENDROOT
BRANCH   1   2
ATOM      2  C   UNL     1     -33.564  -8.924   0.244  1.00  0.00    -0.006 A 
ATOM      3  C   UNL     1     -33.253  -8.876  -2.168  1.00  0.00     0.001 A 
ATOM      4  C   UNL     1     -34.486  -9.509  -2.344  1.00  0.00     0.004 A 
ATOM      5  C   UNL     1     -32.790  -8.589  -0.881  1.00  0.00     0.007 A 
ATOM      6  C   UNL     1     -35.257  -9.860  -1.234  1.00  0.00     0.046 A 
ATOM      7  C   UNL     1     -34.800  -9.577   0.062  1.00  0.00     0.118 A 
BRANCH   7   8
ATOM      8  O   UNL     1     -35.569  -9.944   1.168  1.00  0.00    -0.508 OA
ATOM      9  H   UNL     1     -35.562 -10.891   1.527  1.00  0.00     0.293 HD
ENDBRANCH   7   8
ENDBRANCH   1   2
BRANCH   1  10
ATOM     10  C   UNL     1     -31.593  -8.122   1.555  1.00  0.00     0.040 C 
BRANCH  10  11
ATOM     11  C   UNL     1     -30.638  -9.146   2.104  1.00  0.00    -0.040 A 
ATOM     12  C   UNL     1     -30.109 -10.141   1.266  1.00  0.00     0.050 A 
ATOM     13  C   UNL     1     -30.312  -9.151   3.471  1.00  0.00     0.050 A 
ATOM     14  C   UNL     1     -29.247 -11.115   1.781  1.00  0.00     0.119 A 
ATOM     15  C   UNL     1     -29.450 -10.123   3.989  1.00  0.00     0.119 A 
ATOM     16  C   UNL     1     -28.915 -11.103   3.143  1.00  0.00     0.092 A 
BRANCH  14  17
ATOM     17  O   UNL     1     -28.727 -12.091   0.932  1.00  0.00    -0.508 OA
ATOM     18  H   UNL     1     -29.309 -12.562   0.249  1.00  0.00     0.293 HD
ENDBRANCH  14  17
BRANCH  15  19
ATOM     19  O   UNL     1     -29.133 -10.107   5.345  1.00  0.00    -0.508 OA
ATOM     20  H   UNL     1     -28.400 -10.694   5.725  1.00  0.00     0.293 HD
ENDBRANCH  15  19
ENDBRANCH  10  11
ENDBRANCH   1  10
TORSDOF 6
ENDMDL
MODEL 8
REMARK VINA RESULT:    -5.027      1.458      2.090
REMARK INTER + INTRA:          -6.904
REMARK INTER:                  -6.343
REMARK INTRA:                  -0.562
REMARK UNBOUND:                -0.555
REMARK SMILES Oc1cc(O)cc(CCc2ccccc2O)c1
REMARK SMILES IDX 9 1 10 2 12 3 13 4 11 5 14 6 15 7 16 8 8 10 7 11 6 12 17 13
REMARK SMILES IDX 4 14 2 15 3 16 5 17 1 19
REMARK H PARENT 16 9 5 18 1 20
REMARK Flexibility Score: inf
ROOT
ATOM      1  C   UNL     1     -30.479  -9.761   1.014  1.00  0.00     0.044 C 
ENDROOT
BRANCH   1   2
ATOM      2  C   UNL     1     -29.980  -9.920   2.429  1.00  0.00    -0.006 A 
ATOM      3  C   UNL     1     -30.215  -9.421   4.798  1.00  0.00     0.001 A 
ATOM      4  C   UNL     1     -29.125 -10.247   5.084  1.00  0.00     0.004 A 
ATOM      5  C   UNL     1     -30.645  -9.262   3.478  1.00  0.00     0.007 A 
ATOM      6  C   UNL     1     -28.466 -10.919   4.052  1.00  0.00     0.046 A 
ATOM      7  C   UNL     1     -28.891 -10.765   2.724  1.00  0.00     0.118 A 
BRANCH   7   8
ATOM      8  O   UNL     1     -28.237 -11.450   1.699  1.00  0.00    -0.508 OA
ATOM      9  H   UNL     1     -28.224 -11.097   0.749  1.00  0.00     0.293 HD
ENDBRANCH   7   8
ENDBRANCH   1   2
BRANCH   1  10
ATOM     10  C   UNL     1     -31.384  -8.532   0.896  1.00  0.00     0.040 C 
BRANCH  10  11
ATOM     11  C   UNL     1     -32.774  -8.936   0.486  1.00  0.00    -0.040 A 
ATOM     12  C   UNL     1     -33.814  -8.947   1.429  1.00  0.00     0.050 A 
ATOM     13  C   UNL     1     -33.030  -9.358  -0.829  1.00  0.00     0.050 A 
ATOM     14  C   UNL     1     -35.100  -9.354   1.057  1.00  0.00     0.119 A 
ATOM     15  C   UNL     1     -34.315  -9.766  -1.204  1.00  0.00     0.119 A 
ATOM     16  C   UNL     1     -35.351  -9.761  -0.260  1.00  0.00     0.092 A 
BRANCH  14  17
ATOM     17  O   UNL     1     -36.122  -9.354   2.006  1.00  0.00    -0.508 OA
ATOM     18  H   UNL     1     -35.993  -8.939   2.922  1.00  0.00     0.293 HD
ENDBRANCH  14  17
BRANCH  15  19
ATOM     19  O   UNL     1     -34.550 -10.175  -2.515  1.00  0.00    -0.508 OA
ATOM     20  H   UNL     1     -35.275 -10.848  -2.737  1.00  0.00     0.293 HD
ENDBRANCH  15  19
ENDBRANCH  10  11
ENDBRANCH   1  10
TORSDOF 6
ENDMDL
MODEL 9
REMARK VINA RESULT:    -4.990      1.449      2.818
REMARK INTER + INTRA:          -6.857
REMARK INTER:                  -6.303
REMARK INTRA:                  -0.554
REMARK UNBOUND:                -0.555
REMARK SMILES Oc1cc(O)cc(CCc2ccccc2O)c1
REMARK SMILES IDX 9 1 10 2 12 3 13 4 11 5 14 6 15 7 16 8 8 10 7 11 6 12 17 13
REMARK SMILES IDX 4 14 2 15 3 16 5 17 1 19
REMARK H PARENT 16 9 5 18 1 20
REMARK Flexibility Score: inf
ROOT
ATOM      1  C   UNL     1     -30.456  -9.750   1.089  1.00  0.00     0.044 C 
ENDROOT
BRANCH   1   2
ATOM      2  C   UNL     1     -29.932  -9.909   2.495  1.00  0.00    -0.006 A 
ATOM      3  C   UNL     1     -30.139  -9.433   4.871  1.00  0.00     0.001 A 
ATOM      4  C   UNL     1     -29.029 -10.240   5.134  1.00  0.00     0.004 A 
ATOM      5  C   UNL     1     -30.593  -9.272   3.560  1.00  0.00     0.007 A 
ATOM      6  C   UNL     1     -28.373 -10.891   4.086  1.00  0.00     0.046 A 
ATOM      7  C   UNL     1     -28.822 -10.735   2.766  1.00  0.00     0.118 A 
BRANCH   7   8
ATOM      8  O   UNL     1     -28.172 -11.400   1.726  1.00  0.00    -0.508 OA
ATOM      9  H   UNL     1     -27.927 -12.381   1.795  1.00  0.00     0.293 HD
ENDBRANCH   7   8
ENDBRANCH   1   2
BRANCH   1  10
ATOM     10  C   UNL     1     -31.394  -8.543   0.997  1.00  0.00     0.040 C 
BRANCH  10  11
ATOM     11  C   UNL     1     -32.783  -8.980   0.621  1.00  0.00    -0.040 A 
ATOM     12  C   UNL     1     -33.071  -9.364  -0.698  1.00  0.00     0.050 A 
ATOM     13  C   UNL     1     -33.816  -8.954   1.573  1.00  0.00     0.050 A 
ATOM     14  C   UNL     1     -34.371  -9.739  -1.058  1.00  0.00     0.119 A 
ATOM     15  C   UNL     1     -35.116  -9.329   1.217  1.00  0.00     0.119 A 
ATOM     16  C   UNL     1     -35.392  -9.724  -0.098  1.00  0.00     0.092 A 
BRANCH  14  17
ATOM     17  O   UNL     1     -34.636 -10.123  -2.371  1.00  0.00    -0.508 OA
ATOM     18  H   UNL     1     -34.066 -10.813  -2.847  1.00  0.00     0.293 HD
ENDBRANCH  14  17
BRANCH  15  19
ATOM     19  O   UNL     1     -36.125  -9.303   2.178  1.00  0.00    -0.508 OA
ATOM     20  H   UNL     1     -37.051  -9.665   1.982  1.00  0.00     0.293 HD
ENDBRANCH  15  19
ENDBRANCH  10  11
ENDBRANCH   1  10
TORSDOF 6
ENDMDL
