MODEL 1
REMARK VINA RESULT:    -3.263      0.000      0.000
REMARK INTER + INTRA:          -9.726
REMARK INTER:                  -6.315
REMARK INTRA:                  -3.411
REMARK UNBOUND:                -3.411
REMARK SMILES CCCCCC=CCC=CCCCCCCCCOC(C)=O
REMARK SMILES IDX 12 1 11 2 10 3 9 4 8 5 7 6 6 7 5 8 4 9 3 10 2 11 1 12 13 13
REMARK SMILES IDX 14 14 15 15 16 16 17 17 18 18 19 19 20 20 22 21 21 22
REMARK H PARENT
REMARK Flexibility Score: inf
ROOT
ATOM      1  C   UNL     1     103.571  84.809  22.054  1.00  0.00     0.004 C 
ENDROOT
BRANCH   1   2
ATOM      2  C   UNL     1     102.124  84.335  21.856  1.00  0.00     0.027 C 
BRANCH   2   3
ATOM      3  C   UNL     1     101.969  83.500  20.606  1.00  0.00    -0.031 C 
ATOM      4  C   UNL     1     101.354  82.303  20.525  1.00  0.00    -0.027 C 
BRANCH   4   5
ATOM      5  C   UNL     1     100.726  81.556  21.676  1.00  0.00     0.054 C 
BRANCH   5   6
ATOM      6  C   UNL     1     101.759  80.724  22.391  1.00  0.00    -0.027 C 
ATOM      7  C   UNL     1     102.111  80.887  23.679  1.00  0.00    -0.031 C 
BRANCH   7   8
ATOM      8  C   UNL     1     101.557  81.951  24.596  1.00  0.00     0.027 C 
BRANCH   8   9
ATOM      9  C   UNL     1     102.540  82.325  25.715  1.00  0.00     0.004 C 
BRANCH   9  10
ATOM     10  C   UNL     1     103.814  81.468  25.675  1.00  0.00     0.000 C 
BRANCH  10  11
ATOM     11  C   UNL     1     105.005  82.231  26.266  1.00  0.00    -0.003 C 
ATOM     12  C   UNL     1     104.549  83.241  27.314  1.00  0.00     0.004 C 
ENDBRANCH  10  11
ENDBRANCH   9  10
ENDBRANCH   8   9
ENDBRANCH   7   8
ENDBRANCH   5   6
ENDBRANCH   4   5
ENDBRANCH   2   3
ENDBRANCH   1   2
BRANCH   1  13
ATOM     13  C   UNL     1     104.402  83.831  22.899  1.00  0.00     0.000 C 
BRANCH  13  14
ATOM     14  C   UNL     1     105.533  83.167  22.097  1.00  0.00     0.000 C 
BRANCH  14  15
ATOM     15  C   UNL     1     105.335  81.650  21.943  1.00  0.00     0.000 C 
BRANCH  15  16
ATOM     16  C   UNL     1     104.931  81.249  20.515  1.00  0.00     0.003 C 
BRANCH  16  17
ATOM     17  C   UNL     1     105.363  82.285  19.463  1.00  0.00     0.042 C 
BRANCH  17  18
ATOM     18  C   UNL     1     106.269  81.662  18.396  1.00  0.00     0.233 C 
BRANCH  18  19
ATOM     19  O   UNL     1     105.975  82.182  17.099  1.00  0.00    -0.466 OA
BRANCH  19  20
ATOM     20  C   UNL     1     105.122  81.547  16.190  1.00  0.00     0.302 C 
ATOM     21  O   UNL     1     104.484  82.214  15.331  1.00  0.00    -0.253 OA
ATOM     22  C   UNL     1     104.922  80.073  16.278  1.00  0.00     0.139 C 
ENDBRANCH  19  20
ENDBRANCH  18  19
ENDBRANCH  17  18
ENDBRANCH  16  17
ENDBRANCH  15  16
ENDBRANCH  14  15
ENDBRANCH  13  14
ENDBRANCH   1  13
TORSDOF 16
ENDMDL
MODEL 2
REMARK VINA RESULT:    -3.213      1.624      2.772
REMARK INTER + INTRA:          -9.630
REMARK INTER:                  -6.089
REMARK INTRA:                  -3.542
REMARK UNBOUND:                -3.411
REMARK SMILES CCCCCC=CCC=CCCCCCCCCOC(C)=O
REMARK SMILES IDX 12 1 11 2 10 3 9 4 8 5 7 6 6 7 5 8 4 9 3 10 2 11 1 12 13 13
REMARK SMILES IDX 14 14 15 15 16 16 17 17 18 18 19 19 20 20 22 21 21 22
REMARK H PARENT
REMARK Flexibility Score: inf
ROOT
ATOM      1  C   UNL     1     105.895  82.121  21.562  1.00  0.00     0.004 C 
ENDROOT
BRANCH   1   2
ATOM      2  C   UNL     1     105.332  83.349  22.293  1.00  0.00     0.027 C 
BRANCH   2   3
ATOM      3  C   UNL     1     104.539  84.242  21.369  1.00  0.00    -0.031 C 
ATOM      4  C   UNL     1     103.298  84.716  21.598  1.00  0.00    -0.027 C 
BRANCH   4   5
ATOM      5  C   UNL     1     102.453  84.421  22.814  1.00  0.00     0.054 C 
BRANCH   5   6
ATOM      6  C   UNL     1     101.742  83.103  22.655  1.00  0.00    -0.027 C 
ATOM      7  C   UNL     1     101.631  82.174  23.622  1.00  0.00    -0.031 C 
BRANCH   7   8
ATOM      8  C   UNL     1     102.235  82.291  25.001  1.00  0.00     0.027 C 
BRANCH   8   9
ATOM      9  C   UNL     1     103.518  81.459  25.146  1.00  0.00     0.004 C 
BRANCH   9  10
ATOM     10  C   UNL     1     104.638  82.241  25.848  1.00  0.00     0.000 C 
BRANCH  10  11
ATOM     11  C   UNL     1     104.096  83.005  27.061  1.00  0.00    -0.003 C 
ATOM     12  C   UNL     1     105.231  83.560  27.916  1.00  0.00     0.004 C 
ENDBRANCH  10  11
ENDBRANCH   9  10
ENDBRANCH   8   9
ENDBRANCH   7   8
ENDBRANCH   5   6
ENDBRANCH   4   5
ENDBRANCH   2   3
ENDBRANCH   1   2
BRANCH   1  13
ATOM     13  C   UNL     1     105.410  80.797  22.173  1.00  0.00     0.000 C 
BRANCH  13  14
ATOM     14  C   UNL     1     104.095  80.302  21.549  1.00  0.00     0.000 C 
BRANCH  14  15
ATOM     15  C   UNL     1     103.927  80.758  20.090  1.00  0.00     0.000 C 
BRANCH  15  16
ATOM     16  C   UNL     1     102.469  81.097  19.742  1.00  0.00     0.003 C 
BRANCH  16  17
ATOM     17  C   UNL     1     102.347  82.335  18.837  1.00  0.00     0.042 C 
BRANCH  17  18
ATOM     18  C   UNL     1     102.818  82.039  17.409  1.00  0.00     0.233 C 
BRANCH  18  19
ATOM     19  O   UNL     1     103.499  83.160  16.846  1.00  0.00    -0.466 OA
BRANCH  19  20
ATOM     20  C   UNL     1     104.488  83.882  17.523  1.00  0.00     0.302 C 
ATOM     21  O   UNL     1     104.341  85.112  17.761  1.00  0.00    -0.253 OA
ATOM     22  C   UNL     1     105.754  83.200  17.916  1.00  0.00     0.139 C 
ENDBRANCH  19  20
ENDBRANCH  18  19
ENDBRANCH  17  18
ENDBRANCH  16  17
ENDBRANCH  15  16
ENDBRANCH  14  15
ENDBRANCH  13  14
ENDBRANCH   1  13
TORSDOF 16
ENDMDL
MODEL 3
REMARK VINA RESULT:    -3.067      1.527      4.225
REMARK INTER + INTRA:          -9.346
REMARK INTER:                  -5.718
REMARK INTRA:                  -3.628
REMARK UNBOUND:                -3.411
REMARK SMILES CCCCCC=CCC=CCCCCCCCCOC(C)=O
REMARK SMILES IDX 12 1 11 2 10 3 9 4 8 5 7 6 6 7 5 8 4 9 3 10 2 11 1 12 13 13
REMARK SMILES IDX 14 14 15 15 16 16 17 17 18 18 19 19 20 20 22 21 21 22
REMARK H PARENT
REMARK Flexibility Score: inf
ROOT
ATOM      1  C   UNL     1     105.304  82.053  20.198  1.00  0.00     0.004 C 
ENDROOT
BRANCH   1   2
ATOM      2  C   UNL     1     105.818  82.259  21.630  1.00  0.00     0.027 C 
BRANCH   2   3
ATOM      3  C   UNL     1     105.324  83.557  22.227  1.00  0.00    -0.031 C 
ATOM      4  C   UNL     1     104.697  83.694  23.412  1.00  0.00    -0.027 C 
BRANCH   4   5
ATOM      5  C   UNL     1     104.345  82.572  24.358  1.00  0.00     0.054 C 
BRANCH   5   6
ATOM      6  C   UNL     1     102.850  82.421  24.463  1.00  0.00    -0.027 C 
ATOM      7  C   UNL     1     102.117  81.557  23.737  1.00  0.00    -0.031 C 
BRANCH   7   8
ATOM      8  C   UNL     1     102.674  80.635  22.678  1.00  0.00     0.027 C 
BRANCH   8   9
ATOM      9  C   UNL     1     101.798  80.602  21.417  1.00  0.00     0.004 C 
BRANCH   9  10
ATOM     10  C   UNL     1     101.023  81.913  21.217  1.00  0.00     0.000 C 
BRANCH  10  11
ATOM     11  C   UNL     1     101.780  82.860  20.278  1.00  0.00    -0.003 C 
ATOM     12  C   UNL     1     101.953  84.238  20.908  1.00  0.00     0.004 C 
ENDBRANCH  10  11
ENDBRANCH   9  10
ENDBRANCH   8   9
ENDBRANCH   7   8
ENDBRANCH   5   6
ENDBRANCH   4   5
ENDBRANCH   2   3
ENDBRANCH   1   2
BRANCH   1  13
ATOM     13  C   UNL     1     106.277  81.236  19.334  1.00  0.00     0.000 C 
BRANCH  13  14
ATOM     14  C   UNL     1     105.557  80.273  18.376  1.00  0.00     0.000 C 
BRANCH  14  15
ATOM     15  C   UNL     1     104.039  80.228  18.618  1.00  0.00     0.000 C 
BRANCH  15  16
ATOM     16  C   UNL     1     103.233  80.715  17.403  1.00  0.00     0.003 C 
BRANCH  16  17
ATOM     17  C   UNL     1     104.083  80.805  16.124  1.00  0.00     0.042 C 
BRANCH  17  18
ATOM     18  C   UNL     1     104.131  82.236  15.578  1.00  0.00     0.233 C 
BRANCH  18  19
ATOM     19  O   UNL     1     105.283  82.933  16.053  1.00  0.00    -0.466 OA
BRANCH  19  20
ATOM     20  C   UNL     1     105.224  83.969  16.991  1.00  0.00     0.302 C 
ATOM     21  O   UNL     1     106.276  84.536  17.393  1.00  0.00    -0.253 OA
ATOM     22  C   UNL     1     103.906  84.366  17.564  1.00  0.00     0.139 C 
ENDBRANCH  19  20
ENDBRANCH  18  19
ENDBRANCH  17  18
ENDBRANCH  16  17
ENDBRANCH  15  16
ENDBRANCH  14  15
ENDBRANCH  13  14
ENDBRANCH   1  13
TORSDOF 16
ENDMDL
MODEL 4
REMARK VINA RESULT:    -3.026      1.425      2.938
REMARK INTER + INTRA:          -9.268
REMARK INTER:                  -6.242
REMARK INTRA:                  -3.026
REMARK UNBOUND:                -3.411
REMARK SMILES CCCCCC=CCC=CCCCCCCCCOC(C)=O
REMARK SMILES IDX 12 1 11 2 10 3 9 4 8 5 7 6 6 7 5 8 4 9 3 10 2 11 1 12 13 13
REMARK SMILES IDX 14 14 15 15 16 16 17 17 18 18 19 19 20 20 22 21 21 22
REMARK H PARENT
REMARK Flexibility Score: inf
ROOT
ATOM      1  C   UNL     1     103.870  84.294  22.006  1.00  0.00     0.004 C 
ENDROOT
BRANCH   1   2
ATOM      2  C   UNL     1     105.217  83.606  22.269  1.00  0.00     0.027 C 
BRANCH   2   3
ATOM      3  C   UNL     1     105.566  82.614  21.185  1.00  0.00    -0.031 C 
ATOM      4  C   UNL     1     105.762  81.291  21.356  1.00  0.00    -0.027 C 
BRANCH   4   5
ATOM      5  C   UNL     1     105.693  80.553  22.670  1.00  0.00     0.054 C 
BRANCH   5   6
ATOM      6  C   UNL     1     104.261  80.279  23.047  1.00  0.00    -0.027 C 
ATOM      7  C   UNL     1     103.754  80.432  24.284  1.00  0.00    -0.031 C 
BRANCH   7   8
ATOM      8  C   UNL     1     104.551  80.861  25.493  1.00  0.00     0.027 C 
BRANCH   8   9
ATOM      9  C   UNL     1     104.559  82.386  25.672  1.00  0.00     0.004 C 
BRANCH   9  10
ATOM     10  C   UNL     1     103.798  82.825  26.931  1.00  0.00     0.000 C 
BRANCH  10  11
ATOM     11  C   UNL     1     102.284  82.807  26.690  1.00  0.00    -0.003 C 
ATOM     12  C   UNL     1     101.550  83.646  27.731  1.00  0.00     0.004 C 
ENDBRANCH  10  11
ENDBRANCH   9  10
ENDBRANCH   8   9
ENDBRANCH   7   8
ENDBRANCH   5   6
ENDBRANCH   4   5
ENDBRANCH   2   3
ENDBRANCH   1   2
BRANCH   1  13
ATOM     13  C   UNL     1     102.749  83.763  22.914  1.00  0.00     0.000 C 
BRANCH  13  14
ATOM     14  C   UNL     1     101.717  82.917  22.150  1.00  0.00     0.000 C 
BRANCH  14  15
ATOM     15  C   UNL     1     101.960  82.921  20.632  1.00  0.00     0.000 C 
BRANCH  15  16
ATOM     16  C   UNL     1     102.235  81.515  20.074  1.00  0.00     0.003 C 
BRANCH  16  17
ATOM     17  C   UNL     1     102.679  81.536  18.602  1.00  0.00     0.042 C 
BRANCH  17  18
ATOM     18  C   UNL     1     103.423  82.830  18.255  1.00  0.00     0.233 C 
BRANCH  18  19
ATOM     19  O   UNL     1     104.360  82.622  17.198  1.00  0.00    -0.466 OA
BRANCH  19  20
ATOM     20  C   UNL     1     105.227  81.526  17.141  1.00  0.00     0.302 C 
ATOM     21  O   UNL     1     106.260  81.481  17.863  1.00  0.00    -0.253 OA
ATOM     22  C   UNL     1     104.956  80.426  16.172  1.00  0.00     0.139 C 
ENDBRANCH  19  20
ENDBRANCH  18  19
ENDBRANCH  17  18
ENDBRANCH  16  17
ENDBRANCH  15  16
ENDBRANCH  14  15
ENDBRANCH  13  14
ENDBRANCH   1  13
TORSDOF 16
ENDMDL
MODEL 5
REMARK VINA RESULT:    -2.973      3.042      6.280
REMARK INTER + INTRA:          -9.164
REMARK INTER:                  -5.610
REMARK INTRA:                  -3.554
REMARK UNBOUND:                -3.411
REMARK SMILES CCCCCC=CCC=CCCCCCCCCOC(C)=O
REMARK SMILES IDX 12 1 11 2 10 3 9 4 8 5 7 6 6 7 5 8 4 9 3 10 2 11 1 12 13 13
REMARK SMILES IDX 14 14 15 15 16 16 17 17 18 18 19 19 20 20 22 21 21 22
REMARK H PARENT
REMARK Flexibility Score: inf
ROOT
ATOM      1  C   UNL     1     104.499  84.321  21.411  1.00  0.00     0.004 C 
ENDROOT
BRANCH   1   2
ATOM      2  C   UNL     1     103.170  84.885  21.935  1.00  0.00     0.027 C 
BRANCH   2   3
ATOM      3  C   UNL     1     102.546  83.985  22.976  1.00  0.00    -0.031 C 
ATOM      4  C   UNL     1     101.560  83.092  22.761  1.00  0.00    -0.027 C 
BRANCH   4   5
ATOM      5  C   UNL     1     100.873  82.838  21.441  1.00  0.00     0.054 C 
BRANCH   5   6
ATOM      6  C   UNL     1     101.406  81.583  20.802  1.00  0.00    -0.027 C 
ATOM      7  C   UNL     1     102.139  81.553  19.674  1.00  0.00    -0.031 C 
BRANCH   7   8
ATOM      8  C   UNL     1     102.505  82.766  18.853  1.00  0.00     0.027 C 
BRANCH   8   9
ATOM      9  C   UNL     1     103.423  82.414  17.673  1.00  0.00     0.004 C 
BRANCH   9  10
ATOM     10  C   UNL     1     104.499  83.484  17.438  1.00  0.00     0.000 C 
BRANCH  10  11
ATOM     11  C   UNL     1     105.787  83.142  18.197  1.00  0.00    -0.003 C 
ATOM     12  C   UNL     1     106.341  81.790  17.760  1.00  0.00     0.004 C 
ENDBRANCH  10  11
ENDBRANCH   9  10
ENDBRANCH   8   9
ENDBRANCH   7   8
ENDBRANCH   5   6
ENDBRANCH   4   5
ENDBRANCH   2   3
ENDBRANCH   1   2
BRANCH   1  13
ATOM     13  C   UNL     1     105.206  83.425  22.439  1.00  0.00     0.000 C 
BRANCH  13  14
ATOM     14  C   UNL     1     106.020  82.297  21.784  1.00  0.00     0.000 C 
BRANCH  14  15
ATOM     15  C   UNL     1     105.187  81.024  21.559  1.00  0.00     0.000 C 
BRANCH  15  16
ATOM     16  C   UNL     1     105.027  80.190  22.840  1.00  0.00     0.003 C 
BRANCH  16  17
ATOM     17  C   UNL     1     103.555  79.987  23.237  1.00  0.00     0.042 C 
BRANCH  17  18
ATOM     18  C   UNL     1     103.285  80.464  24.668  1.00  0.00     0.233 C 
BRANCH  18  19
ATOM     19  O   UNL     1     104.327  81.321  25.135  1.00  0.00    -0.466 OA
BRANCH  19  20
ATOM     20  C   UNL     1     104.137  82.305  26.111  1.00  0.00     0.302 C 
ATOM     21  O   UNL     1     105.121  82.826  26.702  1.00  0.00    -0.253 OA
ATOM     22  C   UNL     1     102.752  82.698  26.496  1.00  0.00     0.139 C 
ENDBRANCH  19  20
ENDBRANCH  18  19
ENDBRANCH  17  18
ENDBRANCH  16  17
ENDBRANCH  15  16
ENDBRANCH  14  15
ENDBRANCH  13  14
ENDBRANCH   1  13
TORSDOF 16
ENDMDL
MODEL 6
REMARK VINA RESULT:    -2.967      1.319      2.410
REMARK INTER + INTRA:          -9.154
REMARK INTER:                  -6.031
REMARK INTRA:                  -3.123
REMARK UNBOUND:                -3.411
REMARK SMILES CCCCCC=CCC=CCCCCCCCCOC(C)=O
REMARK SMILES IDX 12 1 11 2 10 3 9 4 8 5 7 6 6 7 5 8 4 9 3 10 2 11 1 12 13 13
REMARK SMILES IDX 14 14 15 15 16 16 17 17 18 18 19 19 20 20 22 21 21 22
REMARK H PARENT
REMARK Flexibility Score: inf
ROOT
ATOM      1  C   UNL     1     104.652  83.998  22.560  1.00  0.00     0.004 C 
ENDROOT
BRANCH   1   2
ATOM      2  C   UNL     1     104.184  84.826  21.355  1.00  0.00     0.027 C 
BRANCH   2   3
ATOM      3  C   UNL     1     103.351  86.015  21.774  1.00  0.00    -0.031 C 
ATOM      4  C   UNL     1     102.054  85.983  22.140  1.00  0.00    -0.027 C 
BRANCH   4   5
ATOM      5  C   UNL     1     101.179  84.754  22.175  1.00  0.00     0.054 C 
BRANCH   5   6
ATOM      6  C   UNL     1     100.819  84.404  23.595  1.00  0.00    -0.027 C 
ATOM      7  C   UNL     1     101.042  83.206  24.166  1.00  0.00    -0.031 C 
BRANCH   7   8
ATOM      8  C   UNL     1     101.649  82.016  23.461  1.00  0.00     0.027 C 
BRANCH   8   9
ATOM      9  C   UNL     1     102.662  81.272  24.343  1.00  0.00     0.004 C 
BRANCH   9  10
ATOM     10  C   UNL     1     103.034  82.074  25.598  1.00  0.00     0.000 C 
BRANCH  10  11
ATOM     11  C   UNL     1     104.549  82.048  25.837  1.00  0.00    -0.003 C 
ATOM     12  C   UNL     1     105.144  80.697  25.454  1.00  0.00     0.004 C 
ENDBRANCH  10  11
ENDBRANCH   9  10
ENDBRANCH   8   9
ENDBRANCH   7   8
ENDBRANCH   5   6
ENDBRANCH   4   5
ENDBRANCH   2   3
ENDBRANCH   1   2
BRANCH   1  13
ATOM     13  C   UNL     1     105.343  82.689  22.145  1.00  0.00     0.000 C 
BRANCH  13  14
ATOM     14  C   UNL     1     105.104  82.334  20.668  1.00  0.00     0.000 C 
BRANCH  14  15
ATOM     15  C   UNL     1     104.157  81.135  20.496  1.00  0.00     0.000 C 
BRANCH  15  16
ATOM     16  C   UNL     1     102.744  81.556  20.061  1.00  0.00     0.003 C 
BRANCH  16  17
ATOM     17  C   UNL     1     102.755  82.525  18.866  1.00  0.00     0.042 C 
BRANCH  17  18
ATOM     18  C   UNL     1     102.888  81.779  17.535  1.00  0.00     0.233 C 
BRANCH  18  19
ATOM     19  O   UNL     1     104.072  82.169  16.838  1.00  0.00    -0.466 OA
BRANCH  19  20
ATOM     20  C   UNL     1     105.227  81.381  16.779  1.00  0.00     0.302 C 
ATOM     21  O   UNL     1     106.308  81.781  17.288  1.00  0.00    -0.253 OA
ATOM     22  C   UNL     1     105.190  80.080  16.052  1.00  0.00     0.139 C 
ENDBRANCH  19  20
ENDBRANCH  18  19
ENDBRANCH  17  18
ENDBRANCH  16  17
ENDBRANCH  15  16
ENDBRANCH  14  15
ENDBRANCH  13  14
ENDBRANCH   1  13
TORSDOF 16
ENDMDL
MODEL 7
REMARK VINA RESULT:    -2.931      3.444      7.396
REMARK INTER + INTRA:          -9.083
REMARK INTER:                  -5.859
REMARK INTRA:                  -3.224
REMARK UNBOUND:                -3.411
REMARK SMILES CCCCCC=CCC=CCCCCCCCCOC(C)=O
REMARK SMILES IDX 12 1 11 2 10 3 9 4 8 5 7 6 6 7 5 8 4 9 3 10 2 11 1 12 13 13
REMARK SMILES IDX 14 14 15 15 16 16 17 17 18 18 19 19 20 20 22 21 21 22
REMARK H PARENT
REMARK Flexibility Score: inf
ROOT
ATOM      1  C   UNL     1     105.428  80.421  20.048  1.00  0.00     0.004 C 
ENDROOT
BRANCH   1   2
ATOM      2  C   UNL     1     104.395  80.745  18.959  1.00  0.00     0.027 C 
BRANCH   2   3
ATOM      3  C   UNL     1     103.037  81.056  19.543  1.00  0.00    -0.031 C 
ATOM      4  C   UNL     1     102.278  82.131  19.254  1.00  0.00    -0.027 C 
BRANCH   4   5
ATOM      5  C   UNL     1     102.654  83.246  18.308  1.00  0.00     0.054 C 
BRANCH   5   6
ATOM      6  C   UNL     1     103.304  84.377  19.060  1.00  0.00    -0.027 C 
ATOM      7  C   UNL     1     104.583  84.766  18.898  1.00  0.00    -0.031 C 
BRANCH   7   8
ATOM      8  C   UNL     1     105.572  84.104  17.970  1.00  0.00     0.027 C 
BRANCH   8   9
ATOM      9  C   UNL     1     106.162  85.089  16.950  1.00  0.00     0.004 C 
BRANCH   9  10
ATOM     10  C   UNL     1     105.236  85.296  15.743  1.00  0.00     0.000 C 
BRANCH  10  11
ATOM     11  C   UNL     1     104.647  83.962  15.268  1.00  0.00    -0.003 C 
ATOM     12  C   UNL     1     103.295  84.166  14.593  1.00  0.00     0.004 C 
ENDBRANCH  10  11
ENDBRANCH   9  10
ENDBRANCH   8   9
ENDBRANCH   7   8
ENDBRANCH   5   6
ENDBRANCH   4   5
ENDBRANCH   2   3
ENDBRANCH   1   2
BRANCH   1  13
ATOM     13  C   UNL     1     106.081  81.681  20.636  1.00  0.00     0.000 C 
BRANCH  13  14
ATOM     14  C   UNL     1     105.503  82.065  22.008  1.00  0.00     0.000 C 
BRANCH  14  15
ATOM     15  C   UNL     1     105.287  83.580  22.154  1.00  0.00     0.000 C 
BRANCH  15  16
ATOM     16  C   UNL     1     103.981  83.923  22.888  1.00  0.00     0.003 C 
BRANCH  16  17
ATOM     17  C   UNL     1     102.955  82.778  22.840  1.00  0.00     0.042 C 
BRANCH  17  18
ATOM     18  C   UNL     1     102.715  82.175  24.228  1.00  0.00     0.233 C 
BRANCH  18  19
ATOM     19  O   UNL     1     103.491  82.841  25.223  1.00  0.00    -0.466 OA
BRANCH  19  20
ATOM     20  C   UNL     1     104.519  82.221  25.943  1.00  0.00     0.302 C 
ATOM     21  O   UNL     1     105.096  82.819  26.890  1.00  0.00    -0.253 OA
ATOM     22  C   UNL     1     104.974  80.858  25.544  1.00  0.00     0.139 C 
ENDBRANCH  19  20
ENDBRANCH  18  19
ENDBRANCH  17  18
ENDBRANCH  16  17
ENDBRANCH  15  16
ENDBRANCH  14  15
ENDBRANCH  13  14
ENDBRANCH   1  13
TORSDOF 16
ENDMDL
MODEL 8
REMARK VINA RESULT:    -2.925      3.057      6.914
REMARK INTER + INTRA:          -9.072
REMARK INTER:                  -5.435
REMARK INTRA:                  -3.637
REMARK UNBOUND:                -3.411
REMARK SMILES CCCCCC=CCC=CCCCCCCCCOC(C)=O
REMARK SMILES IDX 12 1 11 2 10 3 9 4 8 5 7 6 6 7 5 8 4 9 3 10 2 11 1 12 13 13
REMARK SMILES IDX 14 14 15 15 16 16 17 17 18 18 19 19 20 20 22 21 21 22
REMARK H PARENT
REMARK Flexibility Score: inf
ROOT
ATOM      1  C   UNL     1     104.820  80.848  21.274  1.00  0.00     0.004 C 
ENDROOT
BRANCH   1   2
ATOM      2  C   UNL     1     105.645  82.142  21.217  1.00  0.00     0.027 C 
BRANCH   2   3
ATOM      3  C   UNL     1     105.233  83.123  22.289  1.00  0.00    -0.031 C 
ATOM      4  C   UNL     1     104.587  84.289  22.090  1.00  0.00    -0.027 C 
BRANCH   4   5
ATOM      5  C   UNL     1     104.173  84.849  20.751  1.00  0.00     0.054 C 
BRANCH   5   6
ATOM      6  C   UNL     1     102.690  84.680  20.545  1.00  0.00    -0.027 C 
ATOM      7  C   UNL     1     102.135  83.916  19.585  1.00  0.00    -0.031 C 
BRANCH   7   8
ATOM      8  C   UNL     1     102.910  83.144  18.544  1.00  0.00     0.027 C 
BRANCH   8   9
ATOM      9  C   UNL     1     102.567  81.647  18.556  1.00  0.00     0.004 C 
BRANCH   9  10
ATOM     10  C   UNL     1     103.625  80.806  17.828  1.00  0.00     0.000 C 
BRANCH  10  11
ATOM     11  C   UNL     1     104.701  81.701  17.201  1.00  0.00    -0.003 C 
ATOM     12  C   UNL     1     106.100  81.243  17.601  1.00  0.00     0.004 C 
ENDBRANCH  10  11
ENDBRANCH   9  10
ENDBRANCH   8   9
ENDBRANCH   7   8
ENDBRANCH   5   6
ENDBRANCH   4   5
ENDBRANCH   2   3
ENDBRANCH   1   2
BRANCH   1  13
ATOM     13  C   UNL     1     103.874  80.804  22.485  1.00  0.00     0.000 C 
BRANCH  13  14
ATOM     14  C   UNL     1     102.464  80.314  22.119  1.00  0.00     0.000 C 
BRANCH  14  15
ATOM     15  C   UNL     1     101.418  81.440  22.169  1.00  0.00     0.000 C 
BRANCH  15  16
ATOM     16  C   UNL     1     101.705  82.464  23.279  1.00  0.00     0.003 C 
BRANCH  16  17
ATOM     17  C   UNL     1     101.113  82.050  24.637  1.00  0.00     0.042 C 
BRANCH  17  18
ATOM     18  C   UNL     1     102.033  82.444  25.798  1.00  0.00     0.233 C 
BRANCH  18  19
ATOM     19  O   UNL     1     103.342  82.774  25.333  1.00  0.00    -0.466 OA
BRANCH  19  20
ATOM     20  C   UNL     1     104.511  82.468  26.039  1.00  0.00     0.302 C 
ATOM     21  O   UNL     1     105.053  83.322  26.791  1.00  0.00    -0.253 OA
ATOM     22  C   UNL     1     105.152  81.136  25.852  1.00  0.00     0.139 C 
ENDBRANCH  19  20
ENDBRANCH  18  19
ENDBRANCH  17  18
ENDBRANCH  16  17
ENDBRANCH  15  16
ENDBRANCH  14  15
ENDBRANCH  13  14
ENDBRANCH   1  13
TORSDOF 16
ENDMDL
MODEL 9
REMARK VINA RESULT:    -2.903      1.299      2.506
REMARK INTER + INTRA:          -9.030
REMARK INTER:                  -5.828
REMARK INTRA:                  -3.202
REMARK UNBOUND:                -3.411
REMARK SMILES CCCCCC=CCC=CCCCCCCCCOC(C)=O
REMARK SMILES IDX 12 1 11 2 10 3 9 4 8 5 7 6 6 7 5 8 4 9 3 10 2 11 1 12 13 13
REMARK SMILES IDX 14 14 15 15 16 16 17 17 18 18 19 19 20 20 22 21 21 22
REMARK H PARENT
REMARK Flexibility Score: inf
ROOT
ATOM      1  C   UNL     1     105.555  83.255  22.462  1.00  0.00     0.004 C 
ENDROOT
BRANCH   1   2
ATOM      2  C   UNL     1     105.361  81.733  22.416  1.00  0.00     0.027 C 
BRANCH   2   3
ATOM      3  C   UNL     1     105.360  81.205  21.001  1.00  0.00    -0.031 C 
ATOM      4  C   UNL     1     104.375  80.488  20.424  1.00  0.00    -0.027 C 
BRANCH   4   5
ATOM      5  C   UNL     1     103.094  80.054  21.093  1.00  0.00     0.054 C 
BRANCH   5   6
ATOM      6  C   UNL     1     102.034  81.113  20.939  1.00  0.00    -0.027 C 
ATOM      7  C   UNL     1     101.290  81.600  21.949  1.00  0.00    -0.031 C 
BRANCH   7   8
ATOM      8  C   UNL     1     101.373  81.134  23.382  1.00  0.00     0.027 C 
BRANCH   8   9
ATOM      9  C   UNL     1     101.939  82.216  24.314  1.00  0.00     0.004 C 
BRANCH   9  10
ATOM     10  C   UNL     1     103.127  81.704  25.141  1.00  0.00     0.000 C 
BRANCH  10  11
ATOM     11  C   UNL     1     103.373  82.599  26.360  1.00  0.00    -0.003 C 
ATOM     12  C   UNL     1     104.853  82.938  26.505  1.00  0.00     0.004 C 
ENDBRANCH  10  11
ENDBRANCH   9  10
ENDBRANCH   8   9
ENDBRANCH   7   8
ENDBRANCH   5   6
ENDBRANCH   4   5
ENDBRANCH   2   3
ENDBRANCH   1   2
BRANCH   1  13
ATOM     13  C   UNL     1     104.224  84.021  22.421  1.00  0.00     0.000 C 
BRANCH  13  14
ATOM     14  C   UNL     1     104.178  85.072  21.299  1.00  0.00     0.000 C 
BRANCH  14  15
ATOM     15  C   UNL     1     103.152  84.724  20.208  1.00  0.00     0.000 C 
BRANCH  15  16
ATOM     16  C   UNL     1     103.732  83.801  19.125  1.00  0.00     0.003 C 
BRANCH  16  17
ATOM     17  C   UNL     1     104.869  84.463  18.328  1.00  0.00     0.042 C 
BRANCH  17  18
ATOM     18  C   UNL     1     105.185  83.687  17.044  1.00  0.00     0.233 C 
BRANCH  18  19
ATOM     19  O   UNL     1     104.791  82.320  17.154  1.00  0.00    -0.466 OA
BRANCH  19  20
ATOM     20  C   UNL     1     105.679  81.248  17.012  1.00  0.00     0.302 C 
ATOM     21  O   UNL     1     106.795  81.251  17.599  1.00  0.00    -0.253 OA
ATOM     22  C   UNL     1     105.323  80.116  16.110  1.00  0.00     0.139 C 
ENDBRANCH  19  20
ENDBRANCH  18  19
ENDBRANCH  17  18
ENDBRANCH  16  17
ENDBRANCH  15  16
ENDBRANCH  14  15
ENDBRANCH  13  14
ENDBRANCH   1  13
TORSDOF 16
ENDMDL
