MODEL 1
REMARK VINA RESULT:    -3.248      0.000      0.000
REMARK INTER + INTRA:         -13.317
REMARK INTER:                  -8.565
REMARK INTRA:                  -4.752
REMARK UNBOUND:                -4.752
REMARK SMILES CCCCCCCCCCCCCCCCCCCCCCCCCCCCCC(=O)[O-]
REMARK SMILES IDX 16 1 17 2 18 3 19 4 20 5 21 6 22 7 23 8 24 9 25 10 26 11
REMARK SMILES IDX 27 12 28 13 29 14 30 15 31 16 32 17 15 18 14 19 13 20 12 21
REMARK SMILES IDX 11 22 10 23 9 24 8 25 7 26 6 27 5 28 4 29 3 30 2 31 1 32
REMARK H PARENT
REMARK Flexibility Score: inf
ROOT
ATOM      1  C   UNL     1      56.853  27.624  58.198  1.00  0.00     0.000 C 
ENDROOT
BRANCH   1   2
ATOM      2  C   UNL     1      57.817  28.813  58.054  1.00  0.00     0.000 C 
BRANCH   2   3
ATOM      3  C   UNL     1      59.264  28.453  58.434  1.00  0.00     0.000 C 
BRANCH   3   4
ATOM      4  C   UNL     1      60.151  29.698  58.655  1.00  0.00     0.000 C 
BRANCH   4   5
ATOM      5  C   UNL     1      61.527  29.390  59.278  1.00  0.00     0.000 C 
BRANCH   5   6
ATOM      6  C   UNL     1      61.557  29.339  60.816  1.00  0.00     0.000 C 
BRANCH   6   7
ATOM      7  C   UNL     1      62.750  28.575  61.423  1.00  0.00     0.000 C 
BRANCH   7   8
ATOM      8  C   UNL     1      63.944  28.357  60.473  1.00  0.00     0.000 C 
BRANCH   8   9
ATOM      9  C   UNL     1      65.276  28.936  60.993  1.00  0.00     0.000 C 
BRANCH   9  10
ATOM     10  C   UNL     1      65.189  30.437  61.317  1.00  0.00     0.000 C 
BRANCH  10  11
ATOM     11  C   UNL     1      65.462  31.331  60.094  1.00  0.00     0.000 C 
BRANCH  11  12
ATOM     12  C   UNL     1      64.203  32.028  59.538  1.00  0.00     0.000 C 
BRANCH  12  13
ATOM     13  C   UNL     1      64.215  33.544  59.801  1.00  0.00     0.006 C 
BRANCH  13  14
ATOM     14  C   UNL     1      64.958  33.901  61.096  1.00  0.00     0.053 C 
BRANCH  14  15
ATOM     15  C   UNL     1      64.901  35.371  61.381  1.00  0.00     0.041 C 
ATOM     16  O   UNL     1      64.157  36.123  60.695  1.00  0.00    -0.550 OA
ATOM     17  O   UNL     1      65.665  35.910  62.409  1.00  0.00    -0.550 OA
ENDBRANCH  14  15
ENDBRANCH  13  14
ENDBRANCH  12  13
ENDBRANCH  11  12
ENDBRANCH  10  11
ENDBRANCH   9  10
ENDBRANCH   8   9
ENDBRANCH   7   8
ENDBRANCH   6   7
ENDBRANCH   5   6
ENDBRANCH   4   5
ENDBRANCH   3   4
ENDBRANCH   2   3
ENDBRANCH   1   2
BRANCH   1  18
ATOM     18  C   UNL     1      55.459  28.042  58.691  1.00  0.00     0.000 C 
BRANCH  18  19
ATOM     19  C   UNL     1      55.053  27.343  60.002  1.00  0.00     0.000 C 
BRANCH  19  20
ATOM     20  C   UNL     1      55.042  28.282  61.227  1.00  0.00     0.000 C 
BRANCH  20  21
ATOM     21  C   UNL     1      55.777  27.671  62.433  1.00  0.00     0.000 C 
BRANCH  21  22
ATOM     22  C   UNL     1      56.932  26.741  62.021  1.00  0.00     0.000 C 
BRANCH  22  23
ATOM     23  C   UNL     1      58.268  27.455  61.742  1.00  0.00     0.000 C 
BRANCH  23  24
ATOM     24  C   UNL     1      59.438  26.478  61.552  1.00  0.00    -0.000 C 
BRANCH  24  25
ATOM     25  C   UNL     1      59.056  25.337  60.599  1.00  0.00    -0.000 C 
BRANCH  25  26
ATOM     26  C   UNL     1      60.302  24.722  59.945  1.00  0.00    -0.000 C 
BRANCH  26  27
ATOM     27  C   UNL     1      61.605  25.387  60.420  1.00  0.00    -0.000 C 
BRANCH  27  28
ATOM     28  C   UNL     1      62.394  24.496  61.396  1.00  0.00    -0.000 C 
BRANCH  28  29
ATOM     29  C   UNL     1      62.534  25.121  62.795  1.00  0.00    -0.000 C 
BRANCH  29  30
ATOM     30  C   UNL     1      61.593  24.542  63.870  1.00  0.00    -0.000 C 
BRANCH  30  31
ATOM     31  C   UNL     1      60.827  23.275  63.450  1.00  0.00    -0.003 C 
ATOM     32  C   UNL     1      59.323  23.377  63.699  1.00  0.00     0.004 C 
ENDBRANCH  30  31
ENDBRANCH  29  30
ENDBRANCH  28  29
ENDBRANCH  27  28
ENDBRANCH  26  27
ENDBRANCH  25  26
ENDBRANCH  24  25
ENDBRANCH  23  24
ENDBRANCH  22  23
ENDBRANCH  21  22
ENDBRANCH  20  21
ENDBRANCH  19  20
ENDBRANCH  18  19
ENDBRANCH   1  18
TORSDOF 28
ENDMDL
MODEL 2
REMARK VINA RESULT:    -3.175     10.249     13.642
REMARK INTER + INTRA:         -13.123
REMARK INTER:                  -9.564
REMARK INTRA:                  -3.559
REMARK UNBOUND:                -4.752
REMARK SMILES CCCCCCCCCCCCCCCCCCCCCCCCCCCCCC(=O)[O-]
REMARK SMILES IDX 16 1 17 2 18 3 19 4 20 5 21 6 22 7 23 8 24 9 25 10 26 11
REMARK SMILES IDX 27 12 28 13 29 14 30 15 31 16 32 17 15 18 14 19 13 20 12 21
REMARK SMILES IDX 11 22 10 23 9 24 8 25 7 26 6 27 5 28 4 29 3 30 2 31 1 32
REMARK H PARENT
REMARK Flexibility Score: inf
ROOT
ATOM      1  C   UNL     1      55.946  25.540  51.166  1.00  0.00     0.000 C 
ENDROOT
BRANCH   1   2
ATOM      2  C   UNL     1      57.479  25.637  51.222  1.00  0.00     0.000 C 
BRANCH   2   3
ATOM      3  C   UNL     1      58.142  25.355  49.862  1.00  0.00     0.000 C 
BRANCH   3   4
ATOM      4  C   UNL     1      59.572  24.791  50.001  1.00  0.00     0.000 C 
BRANCH   4   5
ATOM      5  C   UNL     1      59.899  24.235  51.401  1.00  0.00     0.000 C 
BRANCH   5   6
ATOM      6  C   UNL     1      61.127  23.308  51.472  1.00  0.00     0.000 C 
BRANCH   6   7
ATOM      7  C   UNL     1      61.806  23.016  50.121  1.00  0.00     0.000 C 
BRANCH   7   8
ATOM      8  C   UNL     1      61.612  21.585  49.583  1.00  0.00     0.000 C 
BRANCH   8   9
ATOM      9  C   UNL     1      62.168  20.483  50.509  1.00  0.00     0.000 C 
BRANCH   9  10
ATOM     10  C   UNL     1      61.130  19.395  50.833  1.00  0.00     0.000 C 
BRANCH  10  11
ATOM     11  C   UNL     1      59.782  19.624  50.127  1.00  0.00     0.000 C 
BRANCH  11  12
ATOM     12  C   UNL     1      59.021  18.322  49.801  1.00  0.00     0.000 C 
BRANCH  12  13
ATOM     13  C   UNL     1      58.564  17.582  51.070  1.00  0.00     0.006 C 
BRANCH  13  14
ATOM     14  C   UNL     1      57.680  18.462  51.965  1.00  0.00     0.053 C 
BRANCH  14  15
ATOM     15  C   UNL     1      56.278  18.551  51.443  1.00  0.00     0.041 C 
ATOM     16  O   UNL     1      55.353  18.998  52.173  1.00  0.00    -0.550 OA
ATOM     17  O   UNL     1      55.994  18.145  50.144  1.00  0.00    -0.550 OA
ENDBRANCH  14  15
ENDBRANCH  13  14
ENDBRANCH  12  13
ENDBRANCH  11  12
ENDBRANCH  10  11
ENDBRANCH   9  10
ENDBRANCH   8   9
ENDBRANCH   7   8
ENDBRANCH   6   7
ENDBRANCH   5   6
ENDBRANCH   4   5
ENDBRANCH   3   4
ENDBRANCH   2   3
ENDBRANCH   1   2
BRANCH   1  18
ATOM     18  C   UNL     1      55.392  25.653  49.736  1.00  0.00     0.000 C 
BRANCH  18  19
ATOM     19  C   UNL     1      54.415  26.830  49.564  1.00  0.00     0.000 C 
BRANCH  19  20
ATOM     20  C   UNL     1      54.071  27.549  50.885  1.00  0.00     0.000 C 
BRANCH  20  21
ATOM     21  C   UNL     1      54.203  29.079  50.765  1.00  0.00     0.000 C 
BRANCH  21  22
ATOM     22  C   UNL     1      54.536  29.757  52.106  1.00  0.00     0.000 C 
BRANCH  22  23
ATOM     23  C   UNL     1      55.980  30.276  52.226  1.00  0.00     0.000 C 
BRANCH  23  24
ATOM     24  C   UNL     1      56.991  29.162  52.542  1.00  0.00    -0.000 C 
BRANCH  24  25
ATOM     25  C   UNL     1      58.432  29.673  52.418  1.00  0.00    -0.000 C 
BRANCH  25  26
ATOM     26  C   UNL     1      59.401  28.795  53.225  1.00  0.00    -0.000 C 
BRANCH  26  27
ATOM     27  C   UNL     1      60.236  27.865  52.329  1.00  0.00    -0.000 C 
BRANCH  27  28
ATOM     28  C   UNL     1      60.153  28.255  50.843  1.00  0.00    -0.000 C 
BRANCH  28  29
ATOM     29  C   UNL     1      61.506  28.713  50.268  1.00  0.00    -0.000 C 
BRANCH  29  30
ATOM     30  C   UNL     1      62.336  27.608  49.584  1.00  0.00    -0.000 C 
BRANCH  30  31
ATOM     31  C   UNL     1      63.259  26.813  50.524  1.00  0.00    -0.003 C 
ATOM     32  C   UNL     1      64.135  25.801  49.784  1.00  0.00     0.004 C 
ENDBRANCH  30  31
ENDBRANCH  29  30
ENDBRANCH  28  29
ENDBRANCH  27  28
ENDBRANCH  26  27
ENDBRANCH  25  26
ENDBRANCH  24  25
ENDBRANCH  23  24
ENDBRANCH  22  23
ENDBRANCH  21  22
ENDBRANCH  20  21
ENDBRANCH  19  20
ENDBRANCH  18  19
ENDBRANCH   1  18
TORSDOF 28
ENDMDL
MODEL 3
REMARK VINA RESULT:    -3.136      4.148      7.752
REMARK INTER + INTRA:         -13.022
REMARK INTER:                  -8.501
REMARK INTRA:                  -4.521
REMARK UNBOUND:                -4.752
REMARK SMILES CCCCCCCCCCCCCCCCCCCCCCCCCCCCCC(=O)[O-]
REMARK SMILES IDX 16 1 17 2 18 3 19 4 20 5 21 6 22 7 23 8 24 9 25 10 26 11
REMARK SMILES IDX 27 12 28 13 29 14 30 15 31 16 32 17 15 18 14 19 13 20 12 21
REMARK SMILES IDX 11 22 10 23 9 24 8 25 7 26 6 27 5 28 4 29 3 30 2 31 1 32
REMARK H PARENT
REMARK Flexibility Score: inf
ROOT
ATOM      1  C   UNL     1      61.670  29.740  60.290  1.00  0.00     0.000 C 
ENDROOT
BRANCH   1   2
ATOM      2  C   UNL     1      62.421  28.451  60.662  1.00  0.00     0.000 C 
BRANCH   2   3
ATOM      3  C   UNL     1      62.436  27.422  59.518  1.00  0.00     0.000 C 
BRANCH   3   4
ATOM      4  C   UNL     1      63.856  27.156  58.973  1.00  0.00     0.000 C 
BRANCH   4   5
ATOM      5  C   UNL     1      64.952  27.118  60.057  1.00  0.00     0.000 C 
BRANCH   5   6
ATOM      6  C   UNL     1      66.379  27.414  59.561  1.00  0.00     0.000 C 
BRANCH   6   7
ATOM      7  C   UNL     1      67.458  27.462  60.661  1.00  0.00     0.000 C 
BRANCH   7   8
ATOM      8  C   UNL     1      67.955  28.873  61.033  1.00  0.00     0.000 C 
BRANCH   8   9
ATOM      9  C   UNL     1      69.420  28.917  61.515  1.00  0.00     0.000 C 
BRANCH   9  10
ATOM     10  C   UNL     1      70.415  28.435  60.444  1.00  0.00     0.000 C 
BRANCH  10  11
ATOM     11  C   UNL     1      71.883  28.673  60.839  1.00  0.00     0.000 C 
BRANCH  11  12
ATOM     12  C   UNL     1      72.172  30.107  61.330  1.00  0.00     0.000 C 
BRANCH  12  13
ATOM     13  C   UNL     1      72.629  31.030  60.187  1.00  0.00     0.006 C 
BRANCH  13  14
ATOM     14  C   UNL     1      71.448  31.745  59.515  1.00  0.00     0.053 C 
BRANCH  14  15
ATOM     15  C   UNL     1      71.743  33.195  59.275  1.00  0.00     0.041 C 
ATOM     16  O   UNL     1      71.525  34.047  60.179  1.00  0.00    -0.550 OA
ATOM     17  O   UNL     1      72.267  33.605  58.055  1.00  0.00    -0.550 OA
ENDBRANCH  14  15
ENDBRANCH  13  14
ENDBRANCH  12  13
ENDBRANCH  11  12
ENDBRANCH  10  11
ENDBRANCH   9  10
ENDBRANCH   8   9
ENDBRANCH   7   8
ENDBRANCH   6   7
ENDBRANCH   5   6
ENDBRANCH   4   5
ENDBRANCH   3   4
ENDBRANCH   2   3
ENDBRANCH   1   2
BRANCH   1  18
ATOM     18  C   UNL     1      60.979  29.654  58.919  1.00  0.00     0.000 C 
BRANCH  18  19
ATOM     19  C   UNL     1      60.859  31.022  58.222  1.00  0.00     0.000 C 
BRANCH  19  20
ATOM     20  C   UNL     1      61.864  32.072  58.740  1.00  0.00     0.000 C 
BRANCH  20  21
ATOM     21  C   UNL     1      61.749  33.409  57.986  1.00  0.00     0.000 C 
BRANCH  21  22
ATOM     22  C   UNL     1      61.163  34.536  58.854  1.00  0.00     0.000 C 
BRANCH  22  23
ATOM     23  C   UNL     1      62.009  35.822  58.900  1.00  0.00     0.000 C 
BRANCH  23  24
ATOM     24  C   UNL     1      63.455  35.568  59.355  1.00  0.00    -0.000 C 
BRANCH  24  25
ATOM     25  C   UNL     1      63.533  35.408  60.880  1.00  0.00    -0.000 C 
BRANCH  25  26
ATOM     26  C   UNL     1      64.713  34.508  61.281  1.00  0.00    -0.000 C 
BRANCH  26  27
ATOM     27  C   UNL     1      65.001  33.416  60.238  1.00  0.00    -0.000 C 
BRANCH  27  28
ATOM     28  C   UNL     1      65.088  32.015  60.866  1.00  0.00    -0.000 C 
BRANCH  28  29
ATOM     29  C   UNL     1      65.115  30.889  59.817  1.00  0.00    -0.000 C 
BRANCH  29  30
ATOM     30  C   UNL     1      65.509  31.329  58.392  1.00  0.00    -0.000 C 
BRANCH  30  31
ATOM     31  C   UNL     1      65.485  30.211  57.336  1.00  0.00    -0.003 C 
ATOM     32  C   UNL     1      64.111  30.027  56.693  1.00  0.00     0.004 C 
ENDBRANCH  30  31
ENDBRANCH  29  30
ENDBRANCH  28  29
ENDBRANCH  27  28
ENDBRANCH  26  27
ENDBRANCH  25  26
ENDBRANCH  24  25
ENDBRANCH  23  24
ENDBRANCH  22  23
ENDBRANCH  21  22
ENDBRANCH  20  21
ENDBRANCH  19  20
ENDBRANCH  18  19
ENDBRANCH   1  18
TORSDOF 28
ENDMDL
MODEL 4
REMARK VINA RESULT:    -3.101      4.256      8.596
REMARK INTER + INTRA:         -12.929
REMARK INTER:                  -6.691
REMARK INTRA:                  -6.239
REMARK UNBOUND:                -4.752
REMARK SMILES CCCCCCCCCCCCCCCCCCCCCCCCCCCCCC(=O)[O-]
REMARK SMILES IDX 16 1 17 2 18 3 19 4 20 5 21 6 22 7 23 8 24 9 25 10 26 11
REMARK SMILES IDX 27 12 28 13 29 14 30 15 31 16 32 17 15 18 14 19 13 20 12 21
REMARK SMILES IDX 11 22 10 23 9 24 8 25 7 26 6 27 5 28 4 29 3 30 2 31 1 32
REMARK H PARENT
REMARK Flexibility Score: inf
ROOT
ATOM      1  C   UNL     1      62.499  29.014  61.550  1.00  0.00     0.000 C 
ENDROOT
BRANCH   1   2
ATOM      2  C   UNL     1      63.212  27.671  61.320  1.00  0.00     0.000 C 
BRANCH   2   3
ATOM      3  C   UNL     1      62.473  26.488  61.969  1.00  0.00     0.000 C 
BRANCH   3   4
ATOM      4  C   UNL     1      63.242  25.156  61.831  1.00  0.00     0.000 C 
BRANCH   4   5
ATOM      5  C   UNL     1      62.429  24.022  61.175  1.00  0.00     0.000 C 
BRANCH   5   6
ATOM      6  C   UNL     1      62.804  23.703  59.716  1.00  0.00     0.000 C 
BRANCH   6   7
ATOM      7  C   UNL     1      62.217  24.663  58.663  1.00  0.00     0.000 C 
BRANCH   7   8
ATOM      8  C   UNL     1      60.712  24.957  58.807  1.00  0.00     0.000 C 
BRANCH   8   9
ATOM      9  C   UNL     1      60.364  26.461  58.826  1.00  0.00     0.000 C 
BRANCH   9  10
ATOM     10  C   UNL     1      58.982  26.745  59.440  1.00  0.00     0.000 C 
BRANCH  10  11
ATOM     11  C   UNL     1      59.066  27.348  60.853  1.00  0.00     0.000 C 
BRANCH  11  12
ATOM     12  C   UNL     1      58.378  26.492  61.938  1.00  0.00     0.000 C 
BRANCH  12  13
ATOM     13  C   UNL     1      59.051  25.118  62.106  1.00  0.00     0.006 C 
BRANCH  13  14
ATOM     14  C   UNL     1      58.047  23.963  61.974  1.00  0.00     0.053 C 
BRANCH  14  15
ATOM     15  C   UNL     1      57.405  23.636  63.288  1.00  0.00     0.041 C 
ATOM     16  O   UNL     1      56.287  24.133  63.592  1.00  0.00    -0.550 OA
ATOM     17  O   UNL     1      58.039  22.773  64.175  1.00  0.00    -0.550 OA
ENDBRANCH  14  15
ENDBRANCH  13  14
ENDBRANCH  12  13
ENDBRANCH  11  12
ENDBRANCH  10  11
ENDBRANCH   9  10
ENDBRANCH   8   9
ENDBRANCH   7   8
ENDBRANCH   6   7
ENDBRANCH   5   6
ENDBRANCH   4   5
ENDBRANCH   3   4
ENDBRANCH   2   3
ENDBRANCH   1   2
BRANCH   1  18
ATOM     18  C   UNL     1      61.837  29.564  60.276  1.00  0.00     0.000 C 
BRANCH  18  19
ATOM     19  C   UNL     1      62.642  29.253  59.001  1.00  0.00     0.000 C 
BRANCH  19  20
ATOM     20  C   UNL     1      63.023  30.507  58.186  1.00  0.00     0.000 C 
BRANCH  20  21
ATOM     21  C   UNL     1      63.093  31.770  59.063  1.00  0.00     0.000 C 
BRANCH  21  22
ATOM     22  C   UNL     1      64.538  32.204  59.371  1.00  0.00     0.000 C 
BRANCH  22  23
ATOM     23  C   UNL     1      65.064  31.765  60.749  1.00  0.00     0.000 C 
BRANCH  23  24
ATOM     24  C   UNL     1      65.694  30.363  60.728  1.00  0.00    -0.000 C 
BRANCH  24  25
ATOM     25  C   UNL     1      66.618  30.192  59.515  1.00  0.00    -0.000 C 
BRANCH  25  26
ATOM     26  C   UNL     1      67.738  29.182  59.811  1.00  0.00    -0.000 C 
BRANCH  26  27
ATOM     27  C   UNL     1      67.236  27.963  60.602  1.00  0.00    -0.000 C 
BRANCH  27  28
ATOM     28  C   UNL     1      67.345  26.657  59.796  1.00  0.00    -0.000 C 
BRANCH  28  29
ATOM     29  C   UNL     1      65.972  26.041  59.468  1.00  0.00    -0.000 C 
BRANCH  29  30
ATOM     30  C   UNL     1      65.188  26.747  58.344  1.00  0.00    -0.000 C 
BRANCH  30  31
ATOM     31  C   UNL     1      66.006  27.064  57.080  1.00  0.00    -0.003 C 
ATOM     32  C   UNL     1      65.665  28.425  56.474  1.00  0.00     0.004 C 
ENDBRANCH  30  31
ENDBRANCH  29  30
ENDBRANCH  28  29
ENDBRANCH  27  28
ENDBRANCH  26  27
ENDBRANCH  25  26
ENDBRANCH  24  25
ENDBRANCH  23  24
ENDBRANCH  22  23
ENDBRANCH  21  22
ENDBRANCH  20  21
ENDBRANCH  19  20
ENDBRANCH  18  19
ENDBRANCH   1  18
TORSDOF 28
ENDMDL
MODEL 5
REMARK VINA RESULT:    -3.068     10.363     12.607
REMARK INTER + INTRA:         -12.842
REMARK INTER:                  -7.963
REMARK INTRA:                  -4.879
REMARK UNBOUND:                -4.752
REMARK SMILES CCCCCCCCCCCCCCCCCCCCCCCCCCCCCC(=O)[O-]
REMARK SMILES IDX 16 1 17 2 18 3 19 4 20 5 21 6 22 7 23 8 24 9 25 10 26 11
REMARK SMILES IDX 27 12 28 13 29 14 30 15 31 16 32 17 15 18 14 19 13 20 12 21
REMARK SMILES IDX 11 22 10 23 9 24 8 25 7 26 6 27 5 28 4 29 3 30 2 31 1 32
REMARK H PARENT
REMARK Flexibility Score: inf
ROOT
ATOM      1  C   UNL     1      61.717  30.530  52.064  1.00  0.00     0.000 C 
ENDROOT
BRANCH   1   2
ATOM      2  C   UNL     1      63.250  30.552  52.182  1.00  0.00     0.000 C 
BRANCH   2   3
ATOM      3  C   UNL     1      63.952  30.517  50.813  1.00  0.00     0.000 C 
BRANCH   3   4
ATOM      4  C   UNL     1      63.182  31.299  49.727  1.00  0.00     0.000 C 
BRANCH   4   5
ATOM      5  C   UNL     1      64.010  32.399  49.034  1.00  0.00     0.000 C 
BRANCH   5   6
ATOM      6  C   UNL     1      64.835  33.294  49.977  1.00  0.00     0.000 C 
BRANCH   6   7
ATOM      7  C   UNL     1      66.358  33.264  49.743  1.00  0.00     0.000 C 
BRANCH   7   8
ATOM      8  C   UNL     1      67.116  32.151  50.490  1.00  0.00     0.000 C 
BRANCH   8   9
ATOM      9  C   UNL     1      67.718  31.070  49.567  1.00  0.00     0.000 C 
BRANCH   9  10
ATOM     10  C   UNL     1      67.712  31.481  48.085  1.00  0.00     0.000 C 
BRANCH  10  11
ATOM     11  C   UNL     1      66.840  30.563  47.211  1.00  0.00     0.000 C 
BRANCH  11  12
ATOM     12  C   UNL     1      66.035  29.519  48.013  1.00  0.00     0.000 C 
BRANCH  12  13
ATOM     13  C   UNL     1      65.428  28.433  47.107  1.00  0.00     0.006 C 
BRANCH  13  14
ATOM     14  C   UNL     1      66.507  27.609  46.390  1.00  0.00     0.053 C 
BRANCH  14  15
ATOM     15  C   UNL     1      67.023  26.500  47.256  1.00  0.00     0.041 C 
ATOM     16  O   UNL     1      68.237  26.164  47.205  1.00  0.00    -0.550 OA
ATOM     17  O   UNL     1      66.163  25.841  48.126  1.00  0.00    -0.550 OA
ENDBRANCH  14  15
ENDBRANCH  13  14
ENDBRANCH  12  13
ENDBRANCH  11  12
ENDBRANCH  10  11
ENDBRANCH   9  10
ENDBRANCH   8   9
ENDBRANCH   7   8
ENDBRANCH   6   7
ENDBRANCH   5   6
ENDBRANCH   4   5
ENDBRANCH   3   4
ENDBRANCH   2   3
ENDBRANCH   1   2
BRANCH   1  18
ATOM     18  C   UNL     1      61.095  29.231  52.602  1.00  0.00     0.000 C 
BRANCH  18  19
ATOM     19  C   UNL     1      60.231  28.503  51.557  1.00  0.00     0.000 C 
BRANCH  19  20
ATOM     20  C   UNL     1      60.636  28.805  50.098  1.00  0.00     0.000 C 
BRANCH  20  21
ATOM     21  C   UNL     1      61.116  27.545  49.355  1.00  0.00     0.000 C 
BRANCH  21  22
ATOM     22  C   UNL     1      62.648  27.467  49.238  1.00  0.00     0.000 C 
BRANCH  22  23
ATOM     23  C   UNL     1      63.343  26.688  50.370  1.00  0.00     0.000 C 
BRANCH  23  24
ATOM     24  C   UNL     1      63.259  25.164  50.185  1.00  0.00    -0.000 C 
BRANCH  24  25
ATOM     25  C   UNL     1      62.118  24.569  51.020  1.00  0.00    -0.000 C 
BRANCH  25  26
ATOM     26  C   UNL     1      61.127  23.799  50.134  1.00  0.00    -0.000 C 
BRANCH  26  27
ATOM     27  C   UNL     1      59.705  23.782  50.719  1.00  0.00    -0.000 C 
BRANCH  27  28
ATOM     28  C   UNL     1      58.852  24.960  50.217  1.00  0.00    -0.000 C 
BRANCH  28  29
ATOM     29  C   UNL     1      57.967  25.569  51.319  1.00  0.00    -0.000 C 
BRANCH  29  30
ATOM     30  C   UNL     1      56.738  26.353  50.816  1.00  0.00    -0.000 C 
BRANCH  30  31
ATOM     31  C   UNL     1      55.487  25.499  50.548  1.00  0.00    -0.003 C 
ATOM     32  C   UNL     1      54.795  25.850  49.231  1.00  0.00     0.004 C 
ENDBRANCH  30  31
ENDBRANCH  29  30
ENDBRANCH  28  29
ENDBRANCH  27  28
ENDBRANCH  26  27
ENDBRANCH  25  26
ENDBRANCH  24  25
ENDBRANCH  23  24
ENDBRANCH  22  23
ENDBRANCH  21  22
ENDBRANCH  20  21
ENDBRANCH  19  20
ENDBRANCH  18  19
ENDBRANCH   1  18
TORSDOF 28
ENDMDL
MODEL 6
REMARK VINA RESULT:    -3.057      4.115      9.803
REMARK INTER + INTRA:         -12.813
REMARK INTER:                  -8.338
REMARK INTRA:                  -4.475
REMARK UNBOUND:                -4.752
REMARK SMILES CCCCCCCCCCCCCCCCCCCCCCCCCCCCCC(=O)[O-]
REMARK SMILES IDX 16 1 17 2 18 3 19 4 20 5 21 6 22 7 23 8 24 9 25 10 26 11
REMARK SMILES IDX 27 12 28 13 29 14 30 15 31 16 32 17 15 18 14 19 13 20 12 21
REMARK SMILES IDX 11 22 10 23 9 24 8 25 7 26 6 27 5 28 4 29 3 30 2 31 1 32
REMARK H PARENT
REMARK Flexibility Score: inf
ROOT
ATOM      1  C   UNL     1      64.864  26.659  60.620  1.00  0.00     0.000 C 
ENDROOT
BRANCH   1   2
ATOM      2  C   UNL     1      63.516  27.355  60.374  1.00  0.00     0.000 C 
BRANCH   2   3
ATOM      3  C   UNL     1      63.246  28.496  61.371  1.00  0.00     0.000 C 
BRANCH   3   4
ATOM      4  C   UNL     1      62.001  29.331  61.001  1.00  0.00     0.000 C 
BRANCH   4   5
ATOM      5  C   UNL     1      61.542  29.167  59.539  1.00  0.00     0.000 C 
BRANCH   5   6
ATOM      6  C   UNL     1      60.080  28.720  59.354  1.00  0.00     0.000 C 
BRANCH   6   7
ATOM      7  C   UNL     1      59.756  27.307  59.876  1.00  0.00     0.000 C 
BRANCH   7   8
ATOM      8  C   UNL     1      58.980  27.259  61.207  1.00  0.00     0.000 C 
BRANCH   8   9
ATOM      9  C   UNL     1      59.332  26.049  62.097  1.00  0.00     0.000 C 
BRANCH   9  10
ATOM     10  C   UNL     1      60.744  25.501  61.829  1.00  0.00     0.000 C 
BRANCH  10  11
ATOM     11  C   UNL     1      61.677  25.625  63.046  1.00  0.00     0.000 C 
BRANCH  11  12
ATOM     12  C   UNL     1      62.510  24.357  63.324  1.00  0.00     0.000 C 
BRANCH  12  13
ATOM     13  C   UNL     1      62.220  23.765  64.714  1.00  0.00     0.006 C 
BRANCH  13  14
ATOM     14  C   UNL     1      61.600  22.363  64.628  1.00  0.00     0.053 C 
BRANCH  14  15
ATOM     15  C   UNL     1      60.383  22.349  63.755  1.00  0.00     0.041 C 
ATOM     16  O   UNL     1      60.383  21.703  62.672  1.00  0.00    -0.550 OA
ATOM     17  O   UNL     1      59.243  23.045  64.141  1.00  0.00    -0.550 OA
ENDBRANCH  14  15
ENDBRANCH  13  14
ENDBRANCH  12  13
ENDBRANCH  11  12
ENDBRANCH  10  11
ENDBRANCH   9  10
ENDBRANCH   8   9
ENDBRANCH   7   8
ENDBRANCH   6   7
ENDBRANCH   5   6
ENDBRANCH   4   5
ENDBRANCH   3   4
ENDBRANCH   2   3
ENDBRANCH   1   2
BRANCH   1  18
ATOM     18  C   UNL     1      65.950  27.092  59.622  1.00  0.00     0.000 C 
BRANCH  18  19
ATOM     19  C   UNL     1      67.359  27.117  60.243  1.00  0.00     0.000 C 
BRANCH  19  20
ATOM     20  C   UNL     1      67.837  28.530  60.640  1.00  0.00     0.000 C 
BRANCH  20  21
ATOM     21  C   UNL     1      66.721  29.582  60.499  1.00  0.00     0.000 C 
BRANCH  21  22
ATOM     22  C   UNL     1      66.834  30.403  59.202  1.00  0.00     0.000 C 
BRANCH  22  23
ATOM     23  C   UNL     1      65.744  31.475  59.021  1.00  0.00     0.000 C 
BRANCH  23  24
ATOM     24  C   UNL     1      64.843  31.626  60.257  1.00  0.00    -0.000 C 
BRANCH  24  25
ATOM     25  C   UNL     1      64.804  33.083  60.737  1.00  0.00    -0.000 C 
BRANCH  25  26
ATOM     26  C   UNL     1      65.204  34.047  59.609  1.00  0.00    -0.000 C 
BRANCH  26  27
ATOM     27  C   UNL     1      64.497  35.407  59.720  1.00  0.00    -0.000 C 
BRANCH  27  28
ATOM     28  C   UNL     1      63.268  35.354  60.645  1.00  0.00    -0.000 C 
BRANCH  28  29
ATOM     29  C   UNL     1      61.950  35.645  59.905  1.00  0.00    -0.000 C 
BRANCH  29  30
ATOM     30  C   UNL     1      61.774  34.907  58.563  1.00  0.00    -0.000 C 
BRANCH  30  31
ATOM     31  C   UNL     1      61.476  33.402  58.682  1.00  0.00    -0.003 C 
ATOM     32  C   UNL     1      62.287  32.553  57.704  1.00  0.00     0.004 C 
ENDBRANCH  30  31
ENDBRANCH  29  30
ENDBRANCH  28  29
ENDBRANCH  27  28
ENDBRANCH  26  27
ENDBRANCH  25  26
ENDBRANCH  24  25
ENDBRANCH  23  24
ENDBRANCH  22  23
ENDBRANCH  21  22
ENDBRANCH  20  21
ENDBRANCH  19  20
ENDBRANCH  18  19
ENDBRANCH   1  18
TORSDOF 28
ENDMDL
MODEL 7
REMARK VINA RESULT:    -3.034      6.008      9.672
REMARK INTER + INTRA:         -12.753
REMARK INTER:                  -6.450
REMARK INTRA:                  -6.303
REMARK UNBOUND:                -4.752
REMARK SMILES CCCCCCCCCCCCCCCCCCCCCCCCCCCCCC(=O)[O-]
REMARK SMILES IDX 16 1 17 2 18 3 19 4 20 5 21 6 22 7 23 8 24 9 25 10 26 11
REMARK SMILES IDX 27 12 28 13 29 14 30 15 31 16 32 17 15 18 14 19 13 20 12 21
REMARK SMILES IDX 11 22 10 23 9 24 8 25 7 26 6 27 5 28 4 29 3 30 2 31 1 32
REMARK H PARENT
REMARK Flexibility Score: inf
ROOT
ATOM      1  C   UNL     1      57.588  31.885  52.999  1.00  0.00     0.000 C 
ENDROOT
BRANCH   1   2
ATOM      2  C   UNL     1      56.923  30.610  52.456  1.00  0.00     0.000 C 
BRANCH   2   3
ATOM      3  C   UNL     1      55.772  30.114  53.350  1.00  0.00     0.000 C 
BRANCH   3   4
ATOM      4  C   UNL     1      56.255  29.647  54.740  1.00  0.00     0.000 C 
BRANCH   4   5
ATOM      5  C   UNL     1      55.525  30.319  55.920  1.00  0.00     0.000 C 
BRANCH   5   6
ATOM      6  C   UNL     1      56.357  31.345  56.711  1.00  0.00     0.000 C 
BRANCH   6   7
ATOM      7  C   UNL     1      57.885  31.191  56.579  1.00  0.00     0.000 C 
BRANCH   7   8
ATOM      8  C   UNL     1      58.537  30.217  57.578  1.00  0.00     0.000 C 
BRANCH   8   9
ATOM      9  C   UNL     1      58.998  28.885  56.949  1.00  0.00     0.000 C 
BRANCH   9  10
ATOM     10  C   UNL     1      58.711  27.670  57.847  1.00  0.00     0.000 C 
BRANCH  10  11
ATOM     11  C   UNL     1      57.434  26.913  57.443  1.00  0.00     0.000 C 
BRANCH  11  12
ATOM     12  C   UNL     1      56.148  27.472  58.086  1.00  0.00     0.000 C 
BRANCH  12  13
ATOM     13  C   UNL     1      56.376  27.932  59.536  1.00  0.00     0.006 C 
BRANCH  13  14
ATOM     14  C   UNL     1      55.963  26.859  60.554  1.00  0.00     0.053 C 
BRANCH  14  15
ATOM     15  C   UNL     1      56.468  27.177  61.929  1.00  0.00     0.041 C 
ATOM     16  O   UNL     1      57.696  27.381  62.126  1.00  0.00    -0.550 OA
ATOM     17  O   UNL     1      55.578  27.257  62.994  1.00  0.00    -0.550 OA
ENDBRANCH  14  15
ENDBRANCH  13  14
ENDBRANCH  12  13
ENDBRANCH  11  12
ENDBRANCH  10  11
ENDBRANCH   9  10
ENDBRANCH   8   9
ENDBRANCH   7   8
ENDBRANCH   6   7
ENDBRANCH   5   6
ENDBRANCH   4   5
ENDBRANCH   3   4
ENDBRANCH   2   3
ENDBRANCH   1   2
BRANCH   1  18
ATOM     18  C   UNL     1      59.115  31.756  53.123  1.00  0.00     0.000 C 
BRANCH  18  19
ATOM     19  C   UNL     1      59.579  30.300  53.310  1.00  0.00     0.000 C 
BRANCH  19  20
ATOM     20  C   UNL     1      60.617  29.841  52.264  1.00  0.00     0.000 C 
BRANCH  20  21
ATOM     21  C   UNL     1      60.017  28.858  51.243  1.00  0.00     0.000 C 
BRANCH  21  22
ATOM     22  C   UNL     1      61.029  27.803  50.763  1.00  0.00     0.000 C 
BRANCH  22  23
ATOM     23  C   UNL     1      60.434  26.693  49.878  1.00  0.00     0.000 C 
BRANCH  23  24
ATOM     24  C   UNL     1      60.577  25.294  50.499  1.00  0.00    -0.000 C 
BRANCH  24  25
ATOM     25  C   UNL     1      59.228  24.562  50.525  1.00  0.00    -0.000 C 
BRANCH  25  26
ATOM     26  C   UNL     1      58.137  25.388  49.827  1.00  0.00    -0.000 C 
BRANCH  26  27
ATOM     27  C   UNL     1      56.891  25.580  50.707  1.00  0.00    -0.000 C 
BRANCH  27  28
ATOM     28  C   UNL     1      57.040  26.763  51.680  1.00  0.00    -0.000 C 
BRANCH  28  29
ATOM     29  C   UNL     1      57.180  26.316  53.147  1.00  0.00    -0.000 C 
BRANCH  29  30
ATOM     30  C   UNL     1      58.417  26.866  53.885  1.00  0.00    -0.000 C 
BRANCH  30  31
ATOM     31  C   UNL     1      59.463  25.808  54.278  1.00  0.00    -0.003 C 
ATOM     32  C   UNL     1      60.900  26.305  54.125  1.00  0.00     0.004 C 
ENDBRANCH  30  31
ENDBRANCH  29  30
ENDBRANCH  28  29
ENDBRANCH  27  28
ENDBRANCH  26  27
ENDBRANCH  25  26
ENDBRANCH  24  25
ENDBRANCH  23  24
ENDBRANCH  22  23
ENDBRANCH  21  22
ENDBRANCH  20  21
ENDBRANCH  19  20
ENDBRANCH  18  19
ENDBRANCH   1  18
TORSDOF 28
ENDMDL
MODEL 8
REMARK VINA RESULT:    -3.029      3.949      8.958
REMARK INTER + INTRA:         -12.739
REMARK INTER:                  -7.051
REMARK INTRA:                  -5.688
REMARK UNBOUND:                -4.752
REMARK SMILES CCCCCCCCCCCCCCCCCCCCCCCCCCCCCC(=O)[O-]
REMARK SMILES IDX 16 1 17 2 18 3 19 4 20 5 21 6 22 7 23 8 24 9 25 10 26 11
REMARK SMILES IDX 27 12 28 13 29 14 30 15 31 16 32 17 15 18 14 19 13 20 12 21
REMARK SMILES IDX 11 22 10 23 9 24 8 25 7 26 6 27 5 28 4 29 3 30 2 31 1 32
REMARK H PARENT
REMARK Flexibility Score: inf
ROOT
ATOM      1  C   UNL     1      65.139  31.733  60.622  1.00  0.00     0.000 C 
ENDROOT
BRANCH   1   2
ATOM      2  C   UNL     1      65.982  31.093  59.508  1.00  0.00     0.000 C 
BRANCH   2   3
ATOM      3  C   UNL     1      66.337  29.625  59.801  1.00  0.00     0.000 C 
BRANCH   3   4
ATOM      4  C   UNL     1      65.629  28.638  58.847  1.00  0.00     0.000 C 
BRANCH   4   5
ATOM      5  C   UNL     1      64.476  27.848  59.498  1.00  0.00     0.000 C 
BRANCH   5   6
ATOM      6  C   UNL     1      64.295  28.072  61.010  1.00  0.00     0.000 C 
BRANCH   6   7
ATOM      7  C   UNL     1      63.088  28.945  61.403  1.00  0.00     0.000 C 
BRANCH   7   8
ATOM      8  C   UNL     1      62.218  29.433  60.229  1.00  0.00     0.000 C 
BRANCH   8   9
ATOM      9  C   UNL     1      60.700  29.339  60.488  1.00  0.00     0.000 C 
BRANCH   9  10
ATOM     10  C   UNL     1      60.075  28.055  59.917  1.00  0.00     0.000 C 
BRANCH  10  11
ATOM     11  C   UNL     1      59.865  26.964  60.981  1.00  0.00     0.000 C 
BRANCH  11  12
ATOM     12  C   UNL     1      61.005  25.926  61.043  1.00  0.00     0.000 C 
BRANCH  12  13
ATOM     13  C   UNL     1      61.564  25.763  62.467  1.00  0.00     0.006 C 
BRANCH  13  14
ATOM     14  C   UNL     1      62.767  24.809  62.509  1.00  0.00     0.053 C 
BRANCH  14  15
ATOM     15  C   UNL     1      62.569  23.713  63.512  1.00  0.00     0.041 C 
ATOM     16  O   UNL     1      62.052  23.962  64.634  1.00  0.00    -0.550 OA
ATOM     17  O   UNL     1      62.949  22.412  63.203  1.00  0.00    -0.550 OA
ENDBRANCH  14  15
ENDBRANCH  13  14
ENDBRANCH  12  13
ENDBRANCH  11  12
ENDBRANCH  10  11
ENDBRANCH   9  10
ENDBRANCH   8   9
ENDBRANCH   7   8
ENDBRANCH   6   7
ENDBRANCH   5   6
ENDBRANCH   4   5
ENDBRANCH   3   4
ENDBRANCH   2   3
ENDBRANCH   1   2
BRANCH   1  18
ATOM     18  C   UNL     1      64.368  32.976  60.149  1.00  0.00     0.000 C 
BRANCH  18  19
ATOM     19  C   UNL     1      64.756  34.251  60.920  1.00  0.00     0.000 C 
BRANCH  19  20
ATOM     20  C   UNL     1      63.773  35.423  60.716  1.00  0.00     0.000 C 
BRANCH  20  21
ATOM     21  C   UNL     1      62.579  35.032  59.825  1.00  0.00     0.000 C 
BRANCH  21  22
ATOM     22  C   UNL     1      62.575  35.768  58.474  1.00  0.00     0.000 C 
BRANCH  22  23
ATOM     23  C   UNL     1      63.244  35.002  57.319  1.00  0.00     0.000 C 
BRANCH  23  24
ATOM     24  C   UNL     1      62.235  34.481  56.284  1.00  0.00    -0.000 C 
BRANCH  24  25
ATOM     25  C   UNL     1      62.663  33.114  55.734  1.00  0.00    -0.000 C 
BRANCH  25  26
ATOM     26  C   UNL     1      63.672  32.433  56.672  1.00  0.00    -0.000 C 
BRANCH  26  27
ATOM     27  C   UNL     1      63.188  31.056  57.157  1.00  0.00    -0.000 C 
BRANCH  27  28
ATOM     28  C   UNL     1      62.264  30.369  56.136  1.00  0.00    -0.000 C 
BRANCH  28  29
ATOM     29  C   UNL     1      60.921  29.928  56.748  1.00  0.00    -0.000 C 
BRANCH  29  30
ATOM     30  C   UNL     1      59.761  30.928  56.574  1.00  0.00    -0.000 C 
BRANCH  30  31
ATOM     31  C   UNL     1      59.182  31.488  57.886  1.00  0.00    -0.003 C 
ATOM     32  C   UNL     1      60.062  32.569  58.512  1.00  0.00     0.004 C 
ENDBRANCH  30  31
ENDBRANCH  29  30
ENDBRANCH  28  29
ENDBRANCH  27  28
ENDBRANCH  26  27
ENDBRANCH  25  26
ENDBRANCH  24  25
ENDBRANCH  23  24
ENDBRANCH  22  23
ENDBRANCH  21  22
ENDBRANCH  20  21
ENDBRANCH  19  20
ENDBRANCH  18  19
ENDBRANCH   1  18
TORSDOF 28
ENDMDL
MODEL 9
REMARK VINA RESULT:    -3.013      2.163      6.533
REMARK INTER + INTRA:         -12.697
REMARK INTER:                  -6.824
REMARK INTRA:                  -5.873
REMARK UNBOUND:                -4.752
REMARK SMILES CCCCCCCCCCCCCCCCCCCCCCCCCCCCCC(=O)[O-]
REMARK SMILES IDX 16 1 17 2 18 3 19 4 20 5 21 6 22 7 23 8 24 9 25 10 26 11
REMARK SMILES IDX 27 12 28 13 29 14 30 15 31 16 32 17 15 18 14 19 13 20 12 21
REMARK SMILES IDX 11 22 10 23 9 24 8 25 7 26 6 27 5 28 4 29 3 30 2 31 1 32
REMARK H PARENT
REMARK Flexibility Score: inf
ROOT
ATOM      1  C   UNL     1      62.430  25.281  62.092  1.00  0.00     0.000 C 
ENDROOT
BRANCH   1   2
ATOM      2  C   UNL     1      61.469  24.256  61.468  1.00  0.00     0.000 C 
BRANCH   2   3
ATOM      3  C   UNL     1      59.994  24.553  61.791  1.00  0.00     0.000 C 
BRANCH   3   4
ATOM      4  C   UNL     1      59.743  26.038  62.131  1.00  0.00     0.000 C 
BRANCH   4   5
ATOM      5  C   UNL     1      58.813  26.765  61.140  1.00  0.00     0.000 C 
BRANCH   5   6
ATOM      6  C   UNL     1      59.487  27.849  60.278  1.00  0.00     0.000 C 
BRANCH   6   7
ATOM      7  C   UNL     1      60.367  27.319  59.130  1.00  0.00     0.000 C 
BRANCH   7   8
ATOM      8  C   UNL     1      61.249  28.375  58.436  1.00  0.00     0.000 C 
BRANCH   8   9
ATOM      9  C   UNL     1      61.044  29.811  58.964  1.00  0.00     0.000 C 
BRANCH   9  10
ATOM     10  C   UNL     1      60.599  30.793  57.866  1.00  0.00     0.000 C 
BRANCH  10  11
ATOM     11  C   UNL     1      59.942  32.065  58.428  1.00  0.00     0.000 C 
BRANCH  11  12
ATOM     12  C   UNL     1      60.556  33.374  57.891  1.00  0.00     0.000 C 
BRANCH  12  13
ATOM     13  C   UNL     1      61.456  34.063  58.932  1.00  0.00     0.006 C 
BRANCH  13  14
ATOM     14  C   UNL     1      62.888  34.264  58.415  1.00  0.00     0.053 C 
BRANCH  14  15
ATOM     15  C   UNL     1      63.794  34.788  59.487  1.00  0.00     0.041 C 
ATOM     16  O   UNL     1      65.019  34.971  59.253  1.00  0.00    -0.550 OA
ATOM     17  O   UNL     1      63.283  35.082  60.746  1.00  0.00    -0.550 OA
ENDBRANCH  14  15
ENDBRANCH  13  14
ENDBRANCH  12  13
ENDBRANCH  11  12
ENDBRANCH  10  11
ENDBRANCH   9  10
ENDBRANCH   8   9
ENDBRANCH   7   8
ENDBRANCH   6   7
ENDBRANCH   5   6
ENDBRANCH   4   5
ENDBRANCH   3   4
ENDBRANCH   2   3
ENDBRANCH   1   2
BRANCH   1  18
ATOM     18  C   UNL     1      63.640  25.589  61.195  1.00  0.00     0.000 C 
BRANCH  18  19
ATOM     19  C   UNL     1      63.841  27.096  60.957  1.00  0.00     0.000 C 
BRANCH  19  20
ATOM     20  C   UNL     1      62.874  27.986  61.766  1.00  0.00     0.000 C 
BRANCH  20  21
ATOM     21  C   UNL     1      63.194  29.484  61.610  1.00  0.00     0.000 C 
BRANCH  21  22
ATOM     22  C   UNL     1      64.699  29.759  61.440  1.00  0.00     0.000 C 
BRANCH  22  23
ATOM     23  C   UNL     1      65.037  31.075  60.716  1.00  0.00     0.000 C 
BRANCH  23  24
ATOM     24  C   UNL     1      64.464  31.137  59.291  1.00  0.00    -0.000 C 
BRANCH  24  25
ATOM     25  C   UNL     1      65.586  31.239  58.250  1.00  0.00    -0.000 C 
BRANCH  25  26
ATOM     26  C   UNL     1      65.500  30.093  57.230  1.00  0.00    -0.000 C 
BRANCH  26  27
ATOM     27  C   UNL     1      64.721  28.883  57.769  1.00  0.00    -0.000 C 
BRANCH  27  28
ATOM     28  C   UNL     1      65.540  27.582  57.701  1.00  0.00    -0.000 C 
BRANCH  28  29
ATOM     29  C   UNL     1      66.993  27.765  58.176  1.00  0.00    -0.000 C 
BRANCH  29  30
ATOM     30  C   UNL     1      67.187  27.774  59.706  1.00  0.00    -0.000 C 
BRANCH  30  31
ATOM     31  C   UNL     1      68.134  28.866  60.235  1.00  0.00    -0.003 C 
ATOM     32  C   UNL     1      68.811  29.660  59.119  1.00  0.00     0.004 C 
ENDBRANCH  30  31
ENDBRANCH  29  30
ENDBRANCH  28  29
ENDBRANCH  27  28
ENDBRANCH  26  27
ENDBRANCH  25  26
ENDBRANCH  24  25
ENDBRANCH  23  24
ENDBRANCH  22  23
ENDBRANCH  21  22
ENDBRANCH  20  21
ENDBRANCH  19  20
ENDBRANCH  18  19
ENDBRANCH   1  18
TORSDOF 28
ENDMDL
