MODEL 1
REMARK VINA RESULT:    -4.186      0.000      0.000
REMARK INTER + INTRA:          -4.648
REMARK INTER:                  -4.553
REMARK INTRA:                  -0.095
REMARK UNBOUND:                -0.095
REMARK SMILES C=C(C)[C@@H]1CC=C(C)[C@H](O)C1
REMARK SMILES IDX 8 1 7 2 6 3 5 4 4 5 11 6 9 7 10 8 2 10 1 11 3 12
REMARK H PARENT 10 9
REMARK Flexibility Score: inf
ROOT
ATOM      1  C   UNL     1     141.000 137.531 142.952  1.00  0.00     0.042 C 
ATOM      2  C   UNL     1     139.554 137.150 142.772  1.00  0.00    -0.049 C 
ATOM      3  C   UNL     1     139.195 136.490 141.650  1.00  0.00    -0.025 C 
ATOM      4  C   UNL     1     137.778 136.058 141.366  1.00  0.00     0.035 C 
ATOM      5  C   UNL     1     136.753 136.917 142.124  1.00  0.00     0.021 C 
ATOM      6  C   UNL     1     137.138 136.988 143.609  1.00  0.00     0.044 C 
ATOM      7  C   UNL     1     138.519 137.650 143.775  1.00  0.00     0.140 C 
ENDROOT
BRANCH   7   8
ATOM      8  O   UNL     1     138.974 137.483 145.095  1.00  0.00    -0.389 OA
ATOM      9  H   UNL     1     139.606 138.224 145.288  1.00  0.00     0.211 HD
ENDBRANCH   7   8
BRANCH   5  10
ATOM     10  C   UNL     1     135.337 136.387 141.937  1.00  0.00    -0.077 C 
ATOM     11  C   UNL     1     134.847 135.466 142.783  1.00  0.00     0.008 C 
ATOM     12  C   UNL     1     134.454 136.878 140.817  1.00  0.00     0.039 C 
ENDBRANCH   5  10
TORSDOF 2
ENDMDL
MODEL 2
REMARK VINA RESULT:    -4.004     12.260     13.469
REMARK INTER + INTRA:          -4.450
REMARK INTER:                  -4.362
REMARK INTRA:                  -0.088
REMARK UNBOUND:                -0.095
REMARK SMILES C=C(C)[C@@H]1CC=C(C)[C@H](O)C1
REMARK SMILES IDX 8 1 7 2 6 3 5 4 4 5 11 6 9 7 10 8 2 10 1 11 3 12
REMARK H PARENT 10 9
REMARK Flexibility Score: inf
ROOT
ATOM      1  C   UNL     1     124.471 135.182 144.977  1.00  0.00     0.042 C 
ATOM      2  C   UNL     1     125.014 136.121 146.023  1.00  0.00    -0.049 C 
ATOM      3  C   UNL     1     124.825 135.816 147.325  1.00  0.00    -0.025 C 
ATOM      4  C   UNL     1     125.327 136.680 148.455  1.00  0.00     0.035 C 
ATOM      5  C   UNL     1     125.517 138.141 148.018  1.00  0.00     0.021 C 
ATOM      6  C   UNL     1     126.350 138.190 146.729  1.00  0.00     0.044 C 
ATOM      7  C   UNL     1     125.620 137.453 145.590  1.00  0.00     0.140 C 
ENDROOT
BRANCH   7   8
ATOM      8  O   UNL     1     126.488 137.280 144.498  1.00  0.00    -0.389 OA
ATOM      9  H   UNL     1     126.513 138.137 143.999  1.00  0.00     0.211 HD
ENDBRANCH   7   8
BRANCH   5  10
ATOM     10  C   UNL     1     126.151 138.973 149.126  1.00  0.00    -0.077 C 
ATOM     11  C   UNL     1     125.570 140.117 149.524  1.00  0.00     0.008 C 
ATOM     12  C   UNL     1     127.426 138.540 149.805  1.00  0.00     0.039 C 
ENDBRANCH   5  10
TORSDOF 2
ENDMDL
MODEL 3
REMARK VINA RESULT:    -3.988      1.742      2.610
REMARK INTER + INTRA:          -4.432
REMARK INTER:                  -4.336
REMARK INTRA:                  -0.097
REMARK UNBOUND:                -0.095
REMARK SMILES C=C(C)[C@@H]1CC=C(C)[C@H](O)C1
REMARK SMILES IDX 8 1 7 2 6 3 5 4 4 5 11 6 9 7 10 8 2 10 1 11 3 12
REMARK H PARENT 10 9
REMARK Flexibility Score: inf
ROOT
ATOM      1  C   UNL     1     142.707 137.091 140.696  1.00  0.00     0.042 C 
ATOM      2  C   UNL     1     141.358 137.068 141.365  1.00  0.00    -0.049 C 
ATOM      3  C   UNL     1     140.505 136.065 141.065  1.00  0.00    -0.025 C 
ATOM      4  C   UNL     1     139.132 135.940 141.676  1.00  0.00     0.035 C 
ATOM      5  C   UNL     1     138.596 137.296 142.164  1.00  0.00     0.021 C 
ATOM      6  C   UNL     1     139.651 137.980 143.045  1.00  0.00     0.044 C 
ATOM      7  C   UNL     1     140.935 138.248 142.236  1.00  0.00     0.140 C 
ENDROOT
BRANCH   7   8
ATOM      8  O   UNL     1     141.974 138.635 143.100  1.00  0.00    -0.389 OA
ATOM      9  H   UNL     1     142.624 139.162 142.566  1.00  0.00     0.211 HD
ENDBRANCH   7   8
BRANCH   5  10
ATOM     10  C   UNL     1     137.271 137.136 142.899  1.00  0.00    -0.077 C 
ATOM     11  C   UNL     1     137.026 137.855 144.007  1.00  0.00     0.008 C 
ATOM     12  C   UNL     1     136.207 136.187 142.408  1.00  0.00     0.039 C 
ENDBRANCH   5  10
TORSDOF 2
ENDMDL
MODEL 4
REMARK VINA RESULT:    -3.962     14.853     17.044
REMARK INTER + INTRA:          -4.404
REMARK INTER:                  -4.308
REMARK INTRA:                  -0.095
REMARK UNBOUND:                -0.095
REMARK SMILES C=C(C)[C@@H]1CC=C(C)[C@H](O)C1
REMARK SMILES IDX 8 1 7 2 6 3 5 4 4 5 11 6 9 7 10 8 2 10 1 11 3 12
REMARK H PARENT 10 9
REMARK Flexibility Score: inf
ROOT
ATOM      1  C   UNL     1     129.398 124.834 145.068  1.00  0.00     0.042 C 
ATOM      2  C   UNL     1     129.839 123.797 146.067  1.00  0.00    -0.049 C 
ATOM      3  C   UNL     1     129.222 122.596 146.065  1.00  0.00    -0.025 C 
ATOM      4  C   UNL     1     129.582 121.483 147.017  1.00  0.00     0.035 C 
ATOM      5  C   UNL     1     130.243 122.015 148.299  1.00  0.00     0.021 C 
ATOM      6  C   UNL     1     131.390 122.967 147.930  1.00  0.00     0.044 C 
ATOM      7  C   UNL     1     130.852 124.178 147.143  1.00  0.00     0.140 C 
ENDROOT
BRANCH   7   8
ATOM      8  O   UNL     1     131.921 124.905 146.594  1.00  0.00    -0.389 OA
ATOM      9  H   UNL     1     131.547 125.738 146.205  1.00  0.00     0.211 HD
ENDBRANCH   7   8
BRANCH   5  10
ATOM     10  C   UNL     1     130.723 120.877 149.190  1.00  0.00    -0.077 C 
ATOM     11  C   UNL     1     132.025 120.547 149.215  1.00  0.00     0.008 C 
ATOM     12  C   UNL     1     129.768 120.103 150.063  1.00  0.00     0.039 C 
ENDBRANCH   5  10
TORSDOF 2
ENDMDL
MODEL 5
REMARK VINA RESULT:    -3.947      1.643      2.212
REMARK INTER + INTRA:          -4.388
REMARK INTER:                  -4.299
REMARK INTRA:                  -0.089
REMARK UNBOUND:                -0.095
REMARK SMILES C=C(C)[C@@H]1CC=C(C)[C@H](O)C1
REMARK SMILES IDX 8 1 7 2 6 3 5 4 4 5 11 6 9 7 10 8 2 10 1 11 3 12
REMARK H PARENT 10 9
REMARK Flexibility Score: inf
ROOT
ATOM      1  C   UNL     1     140.794 137.812 142.872  1.00  0.00     0.042 C 
ATOM      2  C   UNL     1     139.422 137.334 142.473  1.00  0.00    -0.049 C 
ATOM      3  C   UNL     1     138.349 137.849 143.111  1.00  0.00    -0.025 C 
ATOM      4  C   UNL     1     136.930 137.447 142.793  1.00  0.00     0.035 C 
ATOM      5  C   UNL     1     136.859 136.050 142.155  1.00  0.00     0.021 C 
ATOM      6  C   UNL     1     137.848 135.968 140.983  1.00  0.00     0.044 C 
ATOM      7  C   UNL     1     139.290 136.182 141.481  1.00  0.00     0.140 C 
ENDROOT
BRANCH   7   8
ATOM      8  O   UNL     1     140.153 136.360 140.386  1.00  0.00    -0.389 OA
ATOM      9  H   UNL     1     139.590 136.531 139.587  1.00  0.00     0.211 HD
ENDBRANCH   7   8
BRANCH   5  10
ATOM     10  C   UNL     1     135.440 135.713 141.715  1.00  0.00    -0.077 C 
ATOM     11  C   UNL     1     134.916 134.510 142.002  1.00  0.00     0.008 C 
ATOM     12  C   UNL     1     134.591 136.707 140.963  1.00  0.00     0.039 C 
ENDBRANCH   5  10
TORSDOF 2
ENDMDL
MODEL 6
REMARK VINA RESULT:    -3.842      9.774     11.241
REMARK INTER + INTRA:          -4.274
REMARK INTER:                  -4.185
REMARK INTRA:                  -0.089
REMARK UNBOUND:                -0.095
REMARK SMILES C=C(C)[C@@H]1CC=C(C)[C@H](O)C1
REMARK SMILES IDX 8 1 7 2 6 3 5 4 4 5 11 6 9 7 10 8 2 10 1 11 3 12
REMARK H PARENT 10 9
REMARK Flexibility Score: inf
ROOT
ATOM      1  C   UNL     1     132.462 127.559 139.587  1.00  0.00     0.042 C 
ATOM      2  C   UNL     1     133.286 128.109 138.452  1.00  0.00    -0.049 C 
ATOM      3  C   UNL     1     134.055 129.195 138.680  1.00  0.00    -0.025 C 
ATOM      4  C   UNL     1     134.921 129.828 137.619  1.00  0.00     0.035 C 
ATOM      5  C   UNL     1     134.411 129.519 136.202  1.00  0.00     0.021 C 
ATOM      6  C   UNL     1     134.183 128.008 136.055  1.00  0.00     0.044 C 
ATOM      7  C   UNL     1     133.113 127.526 137.053  1.00  0.00     0.140 C 
ENDROOT
BRANCH   7   8
ATOM      8  O   UNL     1     133.093 126.121 137.091  1.00  0.00    -0.389 OA
ATOM      9  H   UNL     1     132.934 125.851 138.033  1.00  0.00     0.211 HD
ENDBRANCH   7   8
BRANCH   5  10
ATOM     10  C   UNL     1     135.366 130.048 135.141  1.00  0.00    -0.077 C 
ATOM     11  C   UNL     1     134.888 130.720 134.080  1.00  0.00     0.008 C 
ATOM     12  C   UNL     1     136.857 129.844 135.250  1.00  0.00     0.039 C 
ENDBRANCH   5  10
TORSDOF 2
ENDMDL
MODEL 7
REMARK VINA RESULT:    -3.826      1.927      4.848
REMARK INTER + INTRA:          -4.256
REMARK INTER:                  -4.170
REMARK INTRA:                  -0.086
REMARK UNBOUND:                -0.095
REMARK SMILES C=C(C)[C@@H]1CC=C(C)[C@H](O)C1
REMARK SMILES IDX 8 1 7 2 6 3 5 4 4 5 11 6 9 7 10 8 2 10 1 11 3 12
REMARK H PARENT 10 9
REMARK Flexibility Score: inf
ROOT
ATOM      1  C   UNL     1     134.852 136.379 141.511  1.00  0.00     0.042 C 
ATOM      2  C   UNL     1     136.317 136.513 141.834  1.00  0.00    -0.049 C 
ATOM      3  C   UNL     1     136.677 137.260 142.900  1.00  0.00    -0.025 C 
ATOM      4  C   UNL     1     138.112 137.462 143.317  1.00  0.00     0.035 C 
ATOM      5  C   UNL     1     139.085 137.262 142.143  1.00  0.00     0.021 C 
ATOM      6  C   UNL     1     138.781 135.930 141.443  1.00  0.00     0.044 C 
ATOM      7  C   UNL     1     137.351 135.938 140.870  1.00  0.00     0.140 C 
ENDROOT
BRANCH   7   8
ATOM      8  O   UNL     1     136.992 134.642 140.461  1.00  0.00    -0.389 OA
ATOM      9  H   UNL     1     136.647 134.162 141.259  1.00  0.00     0.211 HD
ENDBRANCH   7   8
BRANCH   5  10
ATOM     10  C   UNL     1     140.534 137.335 142.605  1.00  0.00    -0.077 C 
ATOM     11  C   UNL     1     141.298 138.384 142.259  1.00  0.00     0.008 C 
ATOM     12  C   UNL     1     141.145 136.250 143.458  1.00  0.00     0.039 C 
ENDBRANCH   5  10
TORSDOF 2
ENDMDL
MODEL 8
REMARK VINA RESULT:    -3.789      2.660      4.428
REMARK INTER + INTRA:          -4.216
REMARK INTER:                  -4.119
REMARK INTRA:                  -0.097
REMARK UNBOUND:                -0.095
REMARK SMILES C=C(C)[C@@H]1CC=C(C)[C@H](O)C1
REMARK SMILES IDX 8 1 7 2 6 3 5 4 4 5 11 6 9 7 10 8 2 10 1 11 3 12
REMARK H PARENT 10 9
REMARK Flexibility Score: inf
ROOT
ATOM      1  C   UNL     1     135.992 133.503 139.220  1.00  0.00     0.042 C 
ATOM      2  C   UNL     1     136.403 134.589 140.179  1.00  0.00    -0.049 C 
ATOM      3  C   UNL     1     137.717 134.875 140.305  1.00  0.00    -0.025 C 
ATOM      4  C   UNL     1     138.242 135.943 141.232  1.00  0.00     0.035 C 
ATOM      5  C   UNL     1     137.269 136.228 142.388  1.00  0.00     0.021 C 
ATOM      6  C   UNL     1     135.861 136.474 141.828  1.00  0.00     0.044 C 
ATOM      7  C   UNL     1     135.352 135.222 141.086  1.00  0.00     0.140 C 
ENDROOT
BRANCH   7   8
ATOM      8  O   UNL     1     134.187 135.534 140.366  1.00  0.00    -0.389 OA
ATOM      9  H   UNL     1     133.998 134.771 139.760  1.00  0.00     0.211 HD
ENDBRANCH   7   8
BRANCH   5  10
ATOM     10  C   UNL     1     137.746 137.399 143.238  1.00  0.00    -0.077 C 
ATOM     11  C   UNL     1     136.865 138.311 143.680  1.00  0.00     0.008 C 
ATOM     12  C   UNL     1     139.199 137.563 143.610  1.00  0.00     0.039 C 
ENDBRANCH   5  10
TORSDOF 2
ENDMDL
MODEL 9
REMARK VINA RESULT:    -3.773      8.662     10.077
REMARK INTER + INTRA:          -4.199
REMARK INTER:                  -4.101
REMARK INTRA:                  -0.098
REMARK UNBOUND:                -0.095
REMARK SMILES C=C(C)[C@@H]1CC=C(C)[C@H](O)C1
REMARK SMILES IDX 8 1 7 2 6 3 5 4 4 5 11 6 9 7 10 8 2 10 1 11 3 12
REMARK H PARENT 10 9
REMARK Flexibility Score: inf
ROOT
ATOM      1  C   UNL     1     136.470 130.797 137.921  1.00  0.00     0.042 C 
ATOM      2  C   UNL     1     135.253 130.003 138.317  1.00  0.00    -0.049 C 
ATOM      3  C   UNL     1     134.973 129.861 139.630  1.00  0.00    -0.025 C 
ATOM      4  C   UNL     1     133.782 129.090 140.141  1.00  0.00     0.035 C 
ATOM      5  C   UNL     1     133.299 128.041 139.126  1.00  0.00     0.021 C 
ATOM      6  C   UNL     1     133.121 128.699 137.750  1.00  0.00     0.044 C 
ATOM      7  C   UNL     1     134.465 129.257 137.243  1.00  0.00     0.140 C 
ENDROOT
BRANCH   7   8
ATOM      8  O   UNL     1     134.251 130.073 136.119  1.00  0.00    -0.389 OA
ATOM      9  H   UNL     1     135.053 130.647 136.010  1.00  0.00     0.211 HD
ENDBRANCH   7   8
BRANCH   5  10
ATOM     10  C   UNL     1     132.018 127.365 139.594  1.00  0.00    -0.077 C 
ATOM     11  C   UNL     1     131.566 127.570 140.842  1.00  0.00     0.008 C 
ATOM     12  C   UNL     1     131.224 126.463 138.681  1.00  0.00     0.039 C 
ENDBRANCH   5  10
TORSDOF 2
ENDMDL
