MODEL 1
REMARK VINA RESULT:    -4.030      0.000      0.000
REMARK INTER + INTRA:          -7.348
REMARK INTER:                  -6.150
REMARK INTRA:                  -1.198
REMARK UNBOUND:                -1.198
REMARK SMILES CCCCCCCCCCC(=O)[O-]
REMARK SMILES IDX 7 1 8 2 9 3 10 4 11 5 12 6 13 7 6 8 5 9 4 10 3 11 2 12 1 13
REMARK H PARENT
REMARK Flexibility Score: inf
ROOT
ATOM      1  C   UNL     1     -35.871  20.188 -28.157  1.00  0.00     0.000 C 
ENDROOT
BRANCH   1   2
ATOM      2  C   UNL     1     -36.653  18.867 -28.115  1.00  0.00     0.000 C 
BRANCH   2   3
ATOM      3  C   UNL     1     -36.460  18.075 -29.418  1.00  0.00     0.006 C 
BRANCH   3   4
ATOM      4  C   UNL     1     -37.571  17.040 -29.639  1.00  0.00     0.053 C 
BRANCH   4   5
ATOM      5  C   UNL     1     -38.511  17.457 -30.728  1.00  0.00     0.041 C 
ATOM      6  O   UNL     1     -38.412  18.600 -31.247  1.00  0.00    -0.550 OA
ATOM      7  O   UNL     1     -39.474  16.570 -31.194  1.00  0.00    -0.550 OA
ENDBRANCH   4   5
ENDBRANCH   3   4
ENDBRANCH   2   3
ENDBRANCH   1   2
BRANCH   1   8
ATOM      8  C   UNL     1     -35.707  20.736 -29.584  1.00  0.00     0.000 C 
BRANCH   8   9
ATOM      9  C   UNL     1     -36.906  21.591 -30.031  1.00  0.00    -0.000 C 
BRANCH   9  10
ATOM     10  C   UNL     1     -37.454  22.486 -28.906  1.00  0.00    -0.000 C 
BRANCH  10  11
ATOM     11  C   UNL     1     -38.888  22.156 -28.442  1.00  0.00    -0.000 C 
BRANCH  11  12
ATOM     12  C   UNL     1     -39.633  21.130 -29.312  1.00  0.00    -0.003 C 
ATOM     13  C   UNL     1     -40.205  19.966 -28.504  1.00  0.00     0.004 C 
ENDBRANCH  11  12
ENDBRANCH  10  11
ENDBRANCH   9  10
ENDBRANCH   8   9
ENDBRANCH   1   8
TORSDOF 9
ENDMDL
MODEL 2
REMARK VINA RESULT:    -3.944     13.604     14.652
REMARK INTER + INTRA:          -7.217
REMARK INTER:                  -6.204
REMARK INTRA:                  -1.013
REMARK UNBOUND:                -1.198
REMARK SMILES CCCCCCCCCCC(=O)[O-]
REMARK SMILES IDX 7 1 8 2 9 3 10 4 11 5 12 6 13 7 6 8 5 9 4 10 3 11 2 12 1 13
REMARK H PARENT
REMARK Flexibility Score: inf
ROOT
ATOM      1  C   UNL     1     -51.748  15.727 -31.406  1.00  0.00     0.000 C 
ENDROOT
BRANCH   1   2
ATOM      2  C   UNL     1     -50.373  15.546 -30.745  1.00  0.00     0.000 C 
BRANCH   2   3
ATOM      3  C   UNL     1     -50.416  14.435 -29.685  1.00  0.00     0.006 C 
BRANCH   3   4
ATOM      4  C   UNL     1     -49.558  13.224 -30.076  1.00  0.00     0.053 C 
BRANCH   4   5
ATOM      5  C   UNL     1     -50.400  12.049 -30.468  1.00  0.00     0.041 C 
ATOM      6  O   UNL     1     -51.617  12.207 -30.748  1.00  0.00    -0.550 OA
ATOM      7  O   UNL     1     -49.831  10.784 -30.557  1.00  0.00    -0.550 OA
ENDBRANCH   4   5
ENDBRANCH   3   4
ENDBRANCH   2   3
ENDBRANCH   1   2
BRANCH   1   8
ATOM      8  C   UNL     1     -52.283  17.163 -31.281  1.00  0.00     0.000 C 
BRANCH   8   9
ATOM      9  C   UNL     1     -51.843  17.846 -29.974  1.00  0.00    -0.000 C 
BRANCH   9  10
ATOM     10  C   UNL     1     -53.030  18.321 -29.119  1.00  0.00    -0.000 C 
BRANCH  10  11
ATOM     11  C   UNL     1     -53.060  17.780 -27.675  1.00  0.00    -0.000 C 
BRANCH  11  12
ATOM     12  C   UNL     1     -52.656  16.303 -27.526  1.00  0.00    -0.003 C 
ATOM     13  C   UNL     1     -53.713  15.338 -28.063  1.00  0.00     0.004 C 
ENDBRANCH  11  12
ENDBRANCH  10  11
ENDBRANCH   9  10
ENDBRANCH   8   9
ENDBRANCH   1   8
TORSDOF 9
ENDMDL
MODEL 3
REMARK VINA RESULT:    -3.925      2.167      3.705
REMARK INTER + INTRA:          -7.188
REMARK INTER:                  -6.089
REMARK INTRA:                  -1.098
REMARK UNBOUND:                -1.198
REMARK SMILES CCCCCCCCCCC(=O)[O-]
REMARK SMILES IDX 7 1 8 2 9 3 10 4 11 5 12 6 13 7 6 8 5 9 4 10 3 11 2 12 1 13
REMARK H PARENT
REMARK Flexibility Score: inf
ROOT
ATOM      1  C   UNL     1     -35.220  17.836 -29.605  1.00  0.00     0.000 C 
ENDROOT
BRANCH   1   2
ATOM      2  C   UNL     1     -35.733  18.612 -28.382  1.00  0.00     0.000 C 
BRANCH   2   3
ATOM      3  C   UNL     1     -35.680  20.127 -28.632  1.00  0.00     0.006 C 
BRANCH   3   4
ATOM      4  C   UNL     1     -35.373  20.464 -30.096  1.00  0.00     0.053 C 
BRANCH   4   5
ATOM      5  C   UNL     1     -36.346  21.457 -30.654  1.00  0.00     0.041 C 
ATOM      6  O   UNL     1     -36.596  22.520 -30.027  1.00  0.00    -0.550 OA
ATOM      7  O   UNL     1     -36.948  21.225 -31.885  1.00  0.00    -0.550 OA
ENDBRANCH   4   5
ENDBRANCH   3   4
ENDBRANCH   2   3
ENDBRANCH   1   2
BRANCH   1   8
ATOM      8  C   UNL     1     -36.321  17.007 -30.286  1.00  0.00     0.000 C 
BRANCH   8   9
ATOM      9  C   UNL     1     -37.666  17.088 -29.546  1.00  0.00    -0.000 C 
BRANCH   9  10
ATOM     10  C   UNL     1     -38.757  17.800 -30.364  1.00  0.00    -0.000 C 
BRANCH  10  11
ATOM     11  C   UNL     1     -39.119  19.220 -29.882  1.00  0.00    -0.000 C 
BRANCH  11  12
ATOM     12  C   UNL     1     -39.412  19.341 -28.377  1.00  0.00    -0.003 C 
ATOM     13  C   UNL     1     -40.894  19.175 -28.043  1.00  0.00     0.004 C 
ENDBRANCH  11  12
ENDBRANCH  10  11
ENDBRANCH   9  10
ENDBRANCH   8   9
ENDBRANCH   1   8
TORSDOF 9
ENDMDL
MODEL 4
REMARK VINA RESULT:    -3.915     13.924     15.088
REMARK INTER + INTRA:          -7.173
REMARK INTER:                  -5.955
REMARK INTRA:                  -1.218
REMARK UNBOUND:                -1.198
REMARK SMILES CCCCCCCCCCC(=O)[O-]
REMARK SMILES IDX 7 1 8 2 9 3 10 4 11 5 12 6 13 7 6 8 5 9 4 10 3 11 2 12 1 13
REMARK H PARENT
REMARK Flexibility Score: inf
ROOT
ATOM      1  C   UNL     1     -52.632  16.305 -27.292  1.00  0.00     0.000 C 
ENDROOT
BRANCH   1   2
ATOM      2  C   UNL     1     -53.498  15.311 -28.081  1.00  0.00     0.000 C 
BRANCH   2   3
ATOM      3  C   UNL     1     -52.622  14.291 -28.825  1.00  0.00     0.006 C 
BRANCH   3   4
ATOM      4  C   UNL     1     -51.131  14.649 -28.762  1.00  0.00     0.053 C 
BRANCH   4   5
ATOM      5  C   UNL     1     -50.277  13.588 -29.386  1.00  0.00     0.041 C 
ATOM      6  O   UNL     1     -49.287  13.908 -30.095  1.00  0.00    -0.550 OA
ATOM      7  O   UNL     1     -50.554  12.247 -29.153  1.00  0.00    -0.550 OA
ENDBRANCH   4   5
ENDBRANCH   3   4
ENDBRANCH   2   3
ENDBRANCH   1   2
BRANCH   1   8
ATOM      8  C   UNL     1     -53.151  17.749 -27.386  1.00  0.00     0.000 C 
BRANCH   8   9
ATOM      9  C   UNL     1     -54.118  17.954 -28.565  1.00  0.00    -0.000 C 
BRANCH   9  10
ATOM     10  C   UNL     1     -53.569  18.924 -29.626  1.00  0.00    -0.000 C 
BRANCH  10  11
ATOM     11  C   UNL     1     -52.466  18.348 -30.537  1.00  0.00    -0.000 C 
BRANCH  11  12
ATOM     12  C   UNL     1     -52.868  17.091 -31.329  1.00  0.00    -0.003 C 
ATOM     13  C   UNL     1     -51.668  16.334 -31.896  1.00  0.00     0.004 C 
ENDBRANCH  11  12
ENDBRANCH  10  11
ENDBRANCH   9  10
ENDBRANCH   8   9
ENDBRANCH   1   8
TORSDOF 9
ENDMDL
MODEL 5
REMARK VINA RESULT:    -3.903      1.194      3.101
REMARK INTER + INTRA:          -7.154
REMARK INTER:                  -5.960
REMARK INTRA:                  -1.194
REMARK UNBOUND:                -1.198
REMARK SMILES CCCCCCCCCCC(=O)[O-]
REMARK SMILES IDX 7 1 8 2 9 3 10 4 11 5 12 6 13 7 6 8 5 9 4 10 3 11 2 12 1 13
REMARK H PARENT
REMARK Flexibility Score: inf
ROOT
ATOM      1  C   UNL     1     -38.649  22.009 -28.596  1.00  0.00     0.000 C 
ENDROOT
BRANCH   1   2
ATOM      2  C   UNL     1     -39.502  21.020 -29.405  1.00  0.00     0.000 C 
BRANCH   2   3
ATOM      3  C   UNL     1     -38.998  19.581 -29.216  1.00  0.00     0.006 C 
BRANCH   3   4
ATOM      4  C   UNL     1     -38.506  18.960 -30.530  1.00  0.00     0.053 C 
BRANCH   4   5
ATOM      5  C   UNL     1     -38.521  17.462 -30.477  1.00  0.00     0.041 C 
ATOM      6  O   UNL     1     -37.727  16.848 -29.717  1.00  0.00    -0.550 OA
ATOM      7  O   UNL     1     -39.436  16.748 -31.240  1.00  0.00    -0.550 OA
ENDBRANCH   4   5
ENDBRANCH   3   4
ENDBRANCH   2   3
ENDBRANCH   1   2
BRANCH   1   8
ATOM      8  C   UNL     1     -37.296  22.309 -29.262  1.00  0.00     0.000 C 
BRANCH   8   9
ATOM      9  C   UNL     1     -36.219  22.730 -28.248  1.00  0.00    -0.000 C 
BRANCH   9  10
ATOM     10  C   UNL     1     -35.287  21.572 -27.850  1.00  0.00    -0.000 C 
BRANCH  10  11
ATOM     11  C   UNL     1     -35.005  20.542 -28.963  1.00  0.00    -0.000 C 
BRANCH  11  12
ATOM     12  C   UNL     1     -35.284  19.078 -28.580  1.00  0.00    -0.003 C 
ATOM     13  C   UNL     1     -35.936  18.935 -27.206  1.00  0.00     0.004 C 
ENDBRANCH  11  12
ENDBRANCH  10  11
ENDBRANCH   9  10
ENDBRANCH   8   9
ENDBRANCH   1   8
TORSDOF 9
ENDMDL
MODEL 6
REMARK VINA RESULT:    -3.877     13.419     14.262
REMARK INTER + INTRA:          -7.115
REMARK INTER:                  -6.382
REMARK INTRA:                  -0.732
REMARK UNBOUND:                -1.198
REMARK SMILES CCCCCCCCCCC(=O)[O-]
REMARK SMILES IDX 7 1 8 2 9 3 10 4 11 5 12 6 13 7 6 8 5 9 4 10 3 11 2 12 1 13
REMARK H PARENT
REMARK Flexibility Score: inf
ROOT
ATOM      1  C   UNL     1     -49.870  14.210 -30.336  1.00  0.00     0.000 C 
ENDROOT
BRANCH   1   2
ATOM      2  C   UNL     1     -50.342  13.836 -28.923  1.00  0.00     0.000 C 
BRANCH   2   3
ATOM      3  C   UNL     1     -49.870  12.424 -28.543  1.00  0.00     0.006 C 
BRANCH   3   4
ATOM      4  C   UNL     1     -49.945  11.448 -29.724  1.00  0.00     0.053 C 
BRANCH   4   5
ATOM      5  C   UNL     1     -49.092  10.237 -29.500  1.00  0.00     0.041 C 
ATOM      6  O   UNL     1     -49.505   9.099 -29.844  1.00  0.00    -0.550 OA
ATOM      7  O   UNL     1     -47.826  10.371 -28.944  1.00  0.00    -0.550 OA
ENDBRANCH   4   5
ENDBRANCH   3   4
ENDBRANCH   2   3
ENDBRANCH   1   2
BRANCH   1   8
ATOM      8  C   UNL     1     -50.362  15.597 -30.779  1.00  0.00     0.000 C 
BRANCH   8   9
ATOM      9  C   UNL     1     -51.845  15.596 -31.186  1.00  0.00    -0.000 C 
BRANCH   9  10
ATOM     10  C   UNL     1     -52.600  16.844 -30.696  1.00  0.00    -0.000 C 
BRANCH  10  11
ATOM     11  C   UNL     1     -51.861  17.686 -29.635  1.00  0.00    -0.000 C 
BRANCH  11  12
ATOM     12  C   UNL     1     -52.602  17.842 -28.296  1.00  0.00    -0.003 C 
ATOM     13  C   UNL     1     -52.592  16.565 -27.457  1.00  0.00     0.004 C 
ENDBRANCH  11  12
ENDBRANCH  10  11
ENDBRANCH   9  10
ENDBRANCH   8   9
ENDBRANCH   1   8
TORSDOF 9
ENDMDL
MODEL 7
REMARK VINA RESULT:    -3.869      1.970      3.285
REMARK INTER + INTRA:          -7.103
REMARK INTER:                  -5.977
REMARK INTRA:                  -1.126
REMARK UNBOUND:                -1.198
REMARK SMILES CCCCCCCCCCC(=O)[O-]
REMARK SMILES IDX 7 1 8 2 9 3 10 4 11 5 12 6 13 7 6 8 5 9 4 10 3 11 2 12 1 13
REMARK H PARENT
REMARK Flexibility Score: inf
ROOT
ATOM      1  C   UNL     1     -36.471  17.875 -29.172  1.00  0.00     0.000 C 
ENDROOT
BRANCH   1   2
ATOM      2  C   UNL     1     -37.586  17.307 -30.063  1.00  0.00     0.000 C 
BRANCH   2   3
ATOM      3  C   UNL     1     -38.860  18.158 -29.957  1.00  0.00     0.006 C 
BRANCH   3   4
ATOM      4  C   UNL     1     -38.895  18.994 -28.671  1.00  0.00     0.053 C 
BRANCH   4   5
ATOM      5  C   UNL     1     -40.235  19.629 -28.457  1.00  0.00     0.041 C 
ATOM      6  O   UNL     1     -41.088  19.073 -27.716  1.00  0.00    -0.550 OA
ATOM      7  O   UNL     1     -40.528  20.852 -29.047  1.00  0.00    -0.550 OA
ENDBRANCH   4   5
ENDBRANCH   3   4
ENDBRANCH   2   3
ENDBRANCH   1   2
BRANCH   1   8
ATOM      8  C   UNL     1     -35.233  18.308 -29.973  1.00  0.00     0.000 C 
BRANCH   8   9
ATOM      9  C   UNL     1     -35.038  19.834 -29.981  1.00  0.00    -0.000 C 
BRANCH   9  10
ATOM     10  C   UNL     1     -35.878  20.539 -31.061  1.00  0.00    -0.000 C 
BRANCH  10  11
ATOM     11  C   UNL     1     -36.942  21.522 -30.529  1.00  0.00    -0.000 C 
BRANCH  11  12
ATOM     12  C   UNL     1     -36.516  22.336 -29.295  1.00  0.00    -0.003 C 
ATOM     13  C   UNL     1     -37.684  22.668 -28.368  1.00  0.00     0.004 C 
ENDBRANCH  11  12
ENDBRANCH  10  11
ENDBRANCH   9  10
ENDBRANCH   8   9
ENDBRANCH   1   8
TORSDOF 9
ENDMDL
MODEL 8
REMARK VINA RESULT:    -3.867     13.867     14.955
REMARK INTER + INTRA:          -7.099
REMARK INTER:                  -6.215
REMARK INTRA:                  -0.885
REMARK UNBOUND:                -1.198
REMARK SMILES CCCCCCCCCCC(=O)[O-]
REMARK SMILES IDX 7 1 8 2 9 3 10 4 11 5 12 6 13 7 6 8 5 9 4 10 3 11 2 12 1 13
REMARK H PARENT
REMARK Flexibility Score: inf
ROOT
ATOM      1  C   UNL     1     -50.369  15.635 -31.028  1.00  0.00     0.000 C 
ENDROOT
BRANCH   1   2
ATOM      2  C   UNL     1     -49.853  14.299 -30.473  1.00  0.00     0.000 C 
BRANCH   2   3
ATOM      3  C   UNL     1     -50.365  14.065 -29.043  1.00  0.00     0.006 C 
BRANCH   3   4
ATOM      4  C   UNL     1     -50.877  12.634 -28.835  1.00  0.00     0.053 C 
BRANCH   4   5
ATOM      5  C   UNL     1     -52.306  12.487 -29.258  1.00  0.00     0.041 C 
ATOM      6  O   UNL     1     -52.587  12.171 -30.444  1.00  0.00    -0.550 OA
ATOM      7  O   UNL     1     -53.327  12.663 -28.332  1.00  0.00    -0.550 OA
ENDBRANCH   4   5
ENDBRANCH   3   4
ENDBRANCH   2   3
ENDBRANCH   1   2
BRANCH   1   8
ATOM      8  C   UNL     1     -51.905  15.710 -31.063  1.00  0.00     0.000 C 
BRANCH   8   9
ATOM      9  C   UNL     1     -52.428  17.154 -30.986  1.00  0.00    -0.000 C 
BRANCH   9  10
ATOM     10  C   UNL     1     -52.040  17.862 -29.676  1.00  0.00    -0.000 C 
BRANCH  10  11
ATOM     11  C   UNL     1     -53.222  18.391 -28.839  1.00  0.00    -0.000 C 
BRANCH  11  12
ATOM     12  C   UNL     1     -53.656  17.480 -27.678  1.00  0.00    -0.003 C 
ATOM     13  C   UNL     1     -52.585  16.463 -27.285  1.00  0.00     0.004 C 
ENDBRANCH  11  12
ENDBRANCH  10  11
ENDBRANCH   9  10
ENDBRANCH   8   9
ENDBRANCH   1   8
TORSDOF 9
ENDMDL
MODEL 9
REMARK VINA RESULT:    -3.856     13.658     15.670
REMARK INTER + INTRA:          -7.083
REMARK INTER:                  -5.915
REMARK INTRA:                  -1.167
REMARK UNBOUND:                -1.198
REMARK SMILES CCCCCCCCCCC(=O)[O-]
REMARK SMILES IDX 7 1 8 2 9 3 10 4 11 5 12 6 13 7 6 8 5 9 4 10 3 11 2 12 1 13
REMARK H PARENT
REMARK Flexibility Score: inf
ROOT
ATOM      1  C   UNL     1     -53.675  14.174 -29.030  1.00  0.00     0.000 C 
ENDROOT
BRANCH   1   2
ATOM      2  C   UNL     1     -53.952  15.374 -28.112  1.00  0.00     0.000 C 
BRANCH   2   3
ATOM      3  C   UNL     1     -52.639  15.985 -27.597  1.00  0.00     0.006 C 
BRANCH   3   4
ATOM      4  C   UNL     1     -52.725  17.509 -27.450  1.00  0.00     0.053 C 
BRANCH   4   5
ATOM      5  C   UNL     1     -52.860  18.190 -28.777  1.00  0.00     0.041 C 
ATOM      6  O   UNL     1     -51.877  18.250 -29.562  1.00  0.00    -0.550 OA
ATOM      7  O   UNL     1     -54.083  18.726 -29.162  1.00  0.00    -0.550 OA
ENDBRANCH   4   5
ENDBRANCH   3   4
ENDBRANCH   2   3
ENDBRANCH   1   2
BRANCH   1   8
ATOM      8  C   UNL     1     -53.810  14.524 -30.521  1.00  0.00     0.000 C 
BRANCH   8   9
ATOM      9  C   UNL     1     -52.562  14.141 -31.334  1.00  0.00    -0.000 C 
BRANCH   9  10
ATOM     10  C   UNL     1     -51.575  15.311 -31.500  1.00  0.00    -0.000 C 
BRANCH  10  11
ATOM     11  C   UNL     1     -50.397  15.323 -30.504  1.00  0.00    -0.000 C 
BRANCH  11  12
ATOM     12  C   UNL     1     -49.774  13.947 -30.216  1.00  0.00    -0.003 C 
ATOM     13  C   UNL     1     -50.069  13.442 -28.804  1.00  0.00     0.004 C 
ENDBRANCH  11  12
ENDBRANCH  10  11
ENDBRANCH   9  10
ENDBRANCH   8   9
ENDBRANCH   1   8
TORSDOF 9
ENDMDL
