MODEL 1
REMARK VINA RESULT:    -5.000      0.000      0.000
REMARK INTER + INTRA:          -5.213
REMARK INTER:                  -5.438
REMARK INTRA:                   0.225
REMARK UNBOUND:                 0.225
REMARK SMILES C[C@@H]1[C@H](C)CC[C@]2(C(=O)[O-])CC[C@]3(C)C(=CC[C@@H]4[C@]5(C)CC[C@@H](O)C(C)(C)[C@@H]5CC[C@]43C)[C@@H]12
REMARK SMILES IDX 7 1 6 2 11 3 33 4 5 5 12 6 15 7 2 8 3 9 13 10 16 11 1 12
REMARK SMILES IDX 4 13 14 14 31 15 17 16 18 17 30 18 32 19 19 20 29 21 28 22
REMARK SMILES IDX 21 23 20 24 25 25 22 26 23 27 26 28 27 29 8 30 9 31 10 32
REMARK SMILES IDX 24 33
REMARK H PARENT 24 34
REMARK Flexibility Score: inf
ROOT
ATOM      1  C   UNL     1     -98.825  25.244 -40.605  1.00  0.00     0.017 C 
ATOM      2  C   UNL     1     -97.429  24.866 -41.219  1.00  0.00     0.014 C 
ATOM      3  C   UNL     1     -99.854  25.230 -41.762  1.00  0.00     0.014 C 
ATOM      4  C   UNL     1     -98.766  26.678 -39.973  1.00  0.00     0.030 C 
ATOM      5  C   UNL     1     -96.212  25.468 -40.494  1.00  0.00     0.004 C 
ATOM      6  C   UNL     1    -101.255  25.660 -41.317  1.00  0.00     0.013 C 
ATOM      7  C   UNL     1    -100.184  27.192 -39.580  1.00  0.00    -0.063 C 
ATOM      8  C   UNL     1     -97.644  26.798 -38.862  1.00  0.00    -0.003 C 
ATOM      9  C   UNL     1     -96.510  25.733 -39.018  1.00  0.00    -0.011 C 
ATOM     10  C   UNL     1    -101.318  27.078 -40.640  1.00  0.00    -0.006 C 
ATOM     11  C   UNL     1    -100.390  27.875 -38.412  1.00  0.00    -0.027 C 
ATOM     12  C   UNL     1     -97.089  28.245 -38.839  1.00  0.00     0.008 C 
ATOM     13  C   UNL     1     -95.221  26.067 -38.247  1.00  0.00     0.008 C 
ATOM     14  C   UNL     1    -101.023  28.128 -41.760  1.00  0.00     0.017 C 
ATOM     15  C   UNL     1    -102.764  27.313 -39.954  1.00  0.00    -0.020 C 
ATOM     16  C   UNL     1    -101.706  28.449 -37.941  1.00  0.00     0.032 C 
ATOM     17  C   UNL     1    -102.701  28.634 -39.099  1.00  0.00     0.006 C 
ATOM     18  C   UNL     1    -103.927  27.432 -40.996  1.00  0.00     0.008 C 
ATOM     19  C   UNL     1    -103.073  26.083 -39.028  1.00  0.00     0.012 C 
ATOM     20  C   UNL     1    -104.076  29.386 -38.775  1.00  0.00    -0.025 C 
ATOM     21  C   UNL     1    -104.317  28.876 -41.338  1.00  0.00     0.005 C 
ATOM     22  C   UNL     1    -104.869  29.697 -40.125  1.00  0.00     0.003 C 
ATOM     23  C   UNL     1    -104.973  28.642 -37.723  1.00  0.00     0.010 C 
ATOM     24  C   UNL     1    -103.687  30.757 -38.129  1.00  0.00     0.012 C 
ATOM     25  C   UNL     1    -106.451  29.718 -39.989  1.00  0.00    -0.006 C 
ATOM     26  C   UNL     1    -106.136  27.779 -38.255  1.00  0.00     0.033 C 
ATOM     27  C   UNL     1    -106.974  28.370 -39.417  1.00  0.00     0.120 C 
ATOM     28  C   UNL     1    -107.135  29.966 -41.367  1.00  0.00     0.014 C 
ATOM     29  C   UNL     1    -106.915  30.907 -39.094  1.00  0.00     0.014 C 
ENDROOT
BRANCH   1  30
ATOM     30  C   UNL     1     -99.238  24.182 -39.585  1.00  0.00     0.048 C 
ATOM     31  O   UNL     1     -99.831  24.495 -38.517  1.00  0.00    -0.550 OA
ATOM     32  O   UNL     1     -99.012  22.836 -39.852  1.00  0.00    -0.550 OA
ENDBRANCH   1  30
BRANCH  27  33
ATOM     33  O   UNL     1    -108.319  28.500 -39.022  1.00  0.00    -0.393 OA
ATOM     34  H   UNL     1    -108.689  27.581 -38.936  1.00  0.00     0.210 HD
ENDBRANCH  27  33
TORSDOF 2
ENDMDL
MODEL 2
REMARK VINA RESULT:    -4.817      1.907      8.268
REMARK INTER + INTRA:          -5.015
REMARK INTER:                  -5.240
REMARK INTRA:                   0.225
REMARK UNBOUND:                 0.225
REMARK SMILES C[C@@H]1[C@H](C)CC[C@]2(C(=O)[O-])CC[C@]3(C)C(=CC[C@@H]4[C@]5(C)CC[C@@H](O)C(C)(C)[C@@H]5CC[C@]43C)[C@@H]12
REMARK SMILES IDX 7 1 6 2 11 3 33 4 5 5 12 6 15 7 2 8 3 9 13 10 16 11 1 12
REMARK SMILES IDX 4 13 14 14 31 15 17 16 18 17 30 18 32 19 19 20 29 21 28 22
REMARK SMILES IDX 21 23 20 24 25 25 22 26 23 27 26 28 27 29 8 30 9 31 10 32
REMARK SMILES IDX 24 33
REMARK H PARENT 24 34
REMARK Flexibility Score: inf
ROOT
ATOM      1  C   UNL     1    -103.249  28.366 -39.212  1.00  0.00     0.017 C 
ATOM      2  C   UNL     1    -104.352  29.446 -39.507  1.00  0.00     0.014 C 
ATOM      3  C   UNL     1    -102.275  28.977 -38.176  1.00  0.00     0.014 C 
ATOM      4  C   UNL     1    -102.467  28.022 -40.527  1.00  0.00     0.030 C 
ATOM      5  C   UNL     1    -104.968  29.384 -40.916  1.00  0.00     0.004 C 
ATOM      6  C   UNL     1    -101.096  28.055 -37.853  1.00  0.00     0.013 C 
ATOM      7  C   UNL     1    -101.208  27.150 -40.236  1.00  0.00    -0.063 C 
ATOM      8  C   UNL     1    -103.425  27.506 -41.677  1.00  0.00    -0.003 C 
ATOM      9  C   UNL     1    -104.908  27.970 -41.495  1.00  0.00    -0.011 C 
ATOM     10  C   UNL     1    -100.249  27.617 -39.103  1.00  0.00    -0.006 C 
ATOM     11  C   UNL     1    -100.863  26.110 -41.055  1.00  0.00    -0.027 C 
ATOM     12  C   UNL     1    -102.850  27.916 -43.056  1.00  0.00     0.008 C 
ATOM     13  C   UNL     1    -105.765  27.858 -42.768  1.00  0.00     0.008 C 
ATOM     14  C   UNL     1     -99.501  28.892 -39.614  1.00  0.00     0.017 C 
ATOM     15  C   UNL     1     -99.222  26.432 -38.703  1.00  0.00    -0.020 C 
ATOM     16  C   UNL     1     -99.653  25.219 -40.895  1.00  0.00     0.032 C 
ATOM     17  C   UNL     1     -98.569  25.873 -40.023  1.00  0.00     0.006 C 
ATOM     18  C   UNL     1     -98.089  26.902 -37.730  1.00  0.00     0.008 C 
ATOM     19  C   UNL     1    -100.037  25.300 -37.981  1.00  0.00     0.012 C 
ATOM     20  C   UNL     1     -97.164  25.114 -39.903  1.00  0.00    -0.025 C 
ATOM     21  C   UNL     1     -96.767  27.247 -38.427  1.00  0.00     0.005 C 
ATOM     22  C   UNL     1     -96.095  26.041 -39.165  1.00  0.00     0.003 C 
ATOM     23  C   UNL     1     -97.266  23.692 -39.244  1.00  0.00     0.010 C 
ATOM     24  C   UNL     1     -96.661  24.886 -41.367  1.00  0.00     0.012 C 
ATOM     25  C   UNL     1     -94.994  25.264 -38.324  1.00  0.00    -0.006 C 
ATOM     26  C   UNL     1     -96.906  23.568 -37.750  1.00  0.00     0.033 C 
ATOM     27  C   UNL     1     -95.659  24.346 -37.260  1.00  0.00     0.120 C 
ATOM     28  C   UNL     1     -94.038  26.254 -37.593  1.00  0.00     0.014 C 
ATOM     29  C   UNL     1     -94.067  24.432 -39.260  1.00  0.00     0.014 C 
ENDROOT
BRANCH   1  30
ATOM     30  C   UNL     1    -103.898  27.131 -38.588  1.00  0.00     0.048 C 
ATOM     31  O   UNL     1    -103.508  25.968 -38.879  1.00  0.00    -0.550 OA
ATOM     32  O   UNL     1    -104.902  27.278 -37.638  1.00  0.00    -0.550 OA
ENDBRANCH   1  30
BRANCH  27  33
ATOM     33  O   UNL     1     -94.710  23.450 -36.732  1.00  0.00    -0.393 OA
ATOM     34  H   UNL     1     -94.727  23.555 -35.744  1.00  0.00     0.210 HD
ENDBRANCH  27  33
TORSDOF 2
ENDMDL
MODEL 3
REMARK VINA RESULT:    -4.785      2.514      4.142
REMARK INTER + INTRA:          -4.980
REMARK INTER:                  -5.206
REMARK INTRA:                   0.226
REMARK UNBOUND:                 0.225
REMARK SMILES C[C@@H]1[C@H](C)CC[C@]2(C(=O)[O-])CC[C@]3(C)C(=CC[C@@H]4[C@]5(C)CC[C@@H](O)C(C)(C)[C@@H]5CC[C@]43C)[C@@H]12
REMARK SMILES IDX 7 1 6 2 11 3 33 4 5 5 12 6 15 7 2 8 3 9 13 10 16 11 1 12
REMARK SMILES IDX 4 13 14 14 31 15 17 16 18 17 30 18 32 19 19 20 29 21 28 22
REMARK SMILES IDX 21 23 20 24 25 25 22 26 23 27 26 28 27 29 8 30 9 31 10 32
REMARK SMILES IDX 24 33
REMARK H PARENT 24 34
REMARK Flexibility Score: inf
ROOT
ATOM      1  C   UNL     1     -95.644  25.682 -36.985  1.00  0.00     0.017 C 
ATOM      2  C   UNL     1     -94.131  25.838 -36.592  1.00  0.00     0.014 C 
ATOM      3  C   UNL     1     -95.735  25.826 -38.523  1.00  0.00     0.014 C 
ATOM      4  C   UNL     1     -96.497  26.807 -36.302  1.00  0.00     0.030 C 
ATOM      5  C   UNL     1     -93.875  26.418 -35.189  1.00  0.00     0.004 C 
ATOM      6  C   UNL     1     -97.176  25.772 -39.041  1.00  0.00     0.013 C 
ATOM      7  C   UNL     1     -97.952  26.844 -36.859  1.00  0.00    -0.063 C 
ATOM      8  C   UNL     1     -96.350  26.797 -34.725  1.00  0.00    -0.003 C 
ATOM      9  C   UNL     1     -95.031  26.114 -34.236  1.00  0.00    -0.011 C 
ATOM     10  C   UNL     1     -98.138  26.841 -38.404  1.00  0.00    -0.006 C 
ATOM     11  C   UNL     1     -99.022  27.046 -36.030  1.00  0.00    -0.027 C 
ATOM     12  C   UNL     1     -96.498  28.240 -34.180  1.00  0.00     0.008 C 
ATOM     13  C   UNL     1     -94.649  26.447 -32.783  1.00  0.00     0.008 C 
ATOM     14  C   UNL     1     -97.679  28.238 -38.937  1.00  0.00     0.017 C 
ATOM     15  C   UNL     1     -99.676  26.520 -38.791  1.00  0.00    -0.020 C 
ATOM     16  C   UNL     1    -100.469  27.134 -36.456  1.00  0.00     0.032 C 
ATOM     17  C   UNL     1    -100.609  27.469 -37.950  1.00  0.00     0.006 C 
ATOM     18  C   UNL     1     -99.980  26.719 -40.315  1.00  0.00     0.008 C 
ATOM     19  C   UNL     1     -99.967  25.019 -38.435  1.00  0.00     0.012 C 
ATOM     20  C   UNL     1    -102.083  27.757 -38.505  1.00  0.00    -0.025 C 
ATOM     21  C   UNL     1    -100.613  28.075 -40.655  1.00  0.00     0.005 C 
ATOM     22  C   UNL     1    -102.014  28.314 -39.999  1.00  0.00     0.003 C 
ATOM     23  C   UNL     1    -103.059  26.534 -38.375  1.00  0.00     0.010 C 
ATOM     24  C   UNL     1    -102.678  28.891 -37.605  1.00  0.00     0.012 C 
ATOM     25  C   UNL     1    -103.259  27.946 -40.914  1.00  0.00    -0.006 C 
ATOM     26  C   UNL     1    -103.286  25.664 -39.628  1.00  0.00     0.033 C 
ATOM     27  C   UNL     1    -103.462  26.406 -40.977  1.00  0.00     0.120 C 
ATOM     28  C   UNL     1    -103.071  28.478 -42.367  1.00  0.00     0.014 C 
ATOM     29  C   UNL     1    -104.552  28.646 -40.398  1.00  0.00     0.014 C 
ENDROOT
BRANCH   1  30
ATOM     30  C   UNL     1     -96.128  24.282 -36.605  1.00  0.00     0.048 C 
ATOM     31  O   UNL     1     -97.311  24.081 -36.216  1.00  0.00    -0.550 OA
ATOM     32  O   UNL     1     -95.276  23.192 -36.740  1.00  0.00    -0.550 OA
ENDBRANCH   1  30
BRANCH  27  33
ATOM     33  O   UNL     1    -104.721  26.105 -41.531  1.00  0.00    -0.393 OA
ATOM     34  H   UNL     1    -104.618  26.126 -42.519  1.00  0.00     0.210 HD
ENDBRANCH  27  33
TORSDOF 2
ENDMDL
MODEL 4
REMARK VINA RESULT:    -4.592     10.075     13.789
REMARK INTER + INTRA:          -4.769
REMARK INTER:                  -4.992
REMARK INTRA:                   0.223
REMARK UNBOUND:                 0.225
REMARK SMILES C[C@@H]1[C@H](C)CC[C@]2(C(=O)[O-])CC[C@]3(C)C(=CC[C@@H]4[C@]5(C)CC[C@@H](O)C(C)(C)[C@@H]5CC[C@]43C)[C@@H]12
REMARK SMILES IDX 7 1 6 2 11 3 33 4 5 5 12 6 15 7 2 8 3 9 13 10 16 11 1 12
REMARK SMILES IDX 4 13 14 14 31 15 17 16 18 17 30 18 32 19 19 20 29 21 28 22
REMARK SMILES IDX 21 23 20 24 25 25 22 26 23 27 26 28 27 29 8 30 9 31 10 32
REMARK SMILES IDX 24 33
REMARK H PARENT 24 34
REMARK Flexibility Score: inf
ROOT
ATOM      1  C   UNL     1    -103.822  25.653 -28.740  1.00  0.00     0.017 C 
ATOM      2  C   UNL     1    -105.303  25.243 -28.411  1.00  0.00     0.014 C 
ATOM      3  C   UNL     1    -103.269  24.608 -29.740  1.00  0.00     0.014 C 
ATOM      4  C   UNL     1    -102.955  25.638 -27.433  1.00  0.00     0.030 C 
ATOM      5  C   UNL     1    -105.798  25.651 -27.012  1.00  0.00     0.004 C 
ATOM      6  C   UNL     1    -101.796  24.842 -30.090  1.00  0.00     0.013 C 
ATOM      7  C   UNL     1    -101.436  25.790 -27.749  1.00  0.00    -0.063 C 
ATOM      8  C   UNL     1    -103.538  26.596 -26.316  1.00  0.00    -0.003 C 
ATOM      9  C   UNL     1    -105.064  26.888 -26.493  1.00  0.00    -0.011 C 
ATOM     10  C   UNL     1    -100.828  24.875 -28.851  1.00  0.00    -0.006 C 
ATOM     11  C   UNL     1    -100.628  26.574 -26.971  1.00  0.00    -0.027 C 
ATOM     12  C   UNL     1    -103.212  26.019 -24.915  1.00  0.00     0.008 C 
ATOM     13  C   UNL     1    -105.750  27.449 -25.235  1.00  0.00     0.008 C 
ATOM     14  C   UNL     1    -100.774  23.421 -28.279  1.00  0.00     0.017 C 
ATOM     15  C   UNL     1     -99.365  25.409 -29.291  1.00  0.00    -0.020 C 
ATOM     16  C   UNL     1     -99.141  26.772 -27.156  1.00  0.00     0.032 C 
ATOM     17  C   UNL     1     -98.510  25.644 -27.990  1.00  0.00     0.006 C 
ATOM     18  C   UNL     1     -98.606  24.415 -30.232  1.00  0.00     0.008 C 
ATOM     19  C   UNL     1     -99.551  26.761 -30.069  1.00  0.00     0.012 C 
ATOM     20  C   UNL     1     -96.915  25.635 -28.128  1.00  0.00    -0.025 C 
ATOM     21  C   UNL     1     -97.600  23.511 -29.507  1.00  0.00     0.005 C 
ATOM     22  C   UNL     1     -96.426  24.280 -28.814  1.00  0.00     0.003 C 
ATOM     23  C   UNL     1     -96.334  26.904 -28.847  1.00  0.00     0.010 C 
ATOM     24  C   UNL     1     -96.347  25.658 -26.670  1.00  0.00     0.012 C 
ATOM     25  C   UNL     1     -95.097  24.402 -29.676  1.00  0.00    -0.006 C 
ATOM     26  C   UNL     1     -95.976  26.779 -30.342  1.00  0.00     0.033 C 
ATOM     27  C   UNL     1     -95.256  25.480 -30.786  1.00  0.00     0.120 C 
ATOM     28  C   UNL     1     -94.737  23.046 -30.356  1.00  0.00     0.014 C 
ATOM     29  C   UNL     1     -93.875  24.729 -28.767  1.00  0.00     0.014 C 
ENDROOT
BRANCH   1  30
ATOM     30  C   UNL     1    -103.810  27.021 -29.423  1.00  0.00     0.048 C 
ATOM     31  O   UNL     1    -102.905  27.865 -29.183  1.00  0.00    -0.550 OA
ATOM     32  O   UNL     1    -104.779  27.334 -30.370  1.00  0.00    -0.550 OA
ENDBRANCH   1  30
BRANCH  27  33
ATOM     33  O   UNL     1     -94.001  25.792 -31.341  1.00  0.00    -0.393 OA
ATOM     34  H   UNL     1     -93.768  25.056 -31.968  1.00  0.00     0.210 HD
ENDBRANCH  27  33
TORSDOF 2
ENDMDL
MODEL 5
REMARK VINA RESULT:    -4.569      6.495      9.483
REMARK INTER + INTRA:          -4.745
REMARK INTER:                  -4.966
REMARK INTRA:                   0.221
REMARK UNBOUND:                 0.225
REMARK SMILES C[C@@H]1[C@H](C)CC[C@]2(C(=O)[O-])CC[C@]3(C)C(=CC[C@@H]4[C@]5(C)CC[C@@H](O)C(C)(C)[C@@H]5CC[C@]43C)[C@@H]12
REMARK SMILES IDX 7 1 6 2 11 3 33 4 5 5 12 6 15 7 2 8 3 9 13 10 16 11 1 12
REMARK SMILES IDX 4 13 14 14 31 15 17 16 18 17 30 18 32 19 19 20 29 21 28 22
REMARK SMILES IDX 21 23 20 24 25 25 22 26 23 27 26 28 27 29 8 30 9 31 10 32
REMARK SMILES IDX 24 33
REMARK H PARENT 24 34
REMARK Flexibility Score: inf
ROOT
ATOM      1  C   UNL     1     -96.864  23.966 -37.659  1.00  0.00     0.017 C 
ATOM      2  C   UNL     1     -97.236  24.044 -39.184  1.00  0.00     0.014 C 
ATOM      3  C   UNL     1     -97.835  22.954 -37.002  1.00  0.00     0.014 C 
ATOM      4  C   UNL     1     -97.040  25.373 -36.988  1.00  0.00     0.030 C 
ATOM      5  C   UNL     1     -96.939  25.394 -39.861  1.00  0.00     0.004 C 
ATOM      6  C   UNL     1     -97.635  22.837 -35.487  1.00  0.00     0.013 C 
ATOM      7  C   UNL     1     -96.926  25.287 -35.436  1.00  0.00    -0.063 C 
ATOM      8  C   UNL     1     -96.164  26.487 -37.695  1.00  0.00    -0.003 C 
ATOM      9  C   UNL     1     -95.789  26.129 -39.170  1.00  0.00    -0.011 C 
ATOM     10  C   UNL     1     -97.760  24.196 -34.706  1.00  0.00    -0.006 C 
ATOM     11  C   UNL     1     -96.255  26.243 -34.723  1.00  0.00    -0.027 C 
ATOM     12  C   UNL     1     -96.883  27.855 -37.590  1.00  0.00     0.008 C 
ATOM     13  C   UNL     1     -95.318  27.328 -40.011  1.00  0.00     0.008 C 
ATOM     14  C   UNL     1     -99.263  24.623 -34.778  1.00  0.00     0.017 C 
ATOM     15  C   UNL     1     -97.254  24.018 -33.179  1.00  0.00    -0.020 C 
ATOM     16  C   UNL     1     -96.107  26.287 -33.219  1.00  0.00     0.032 C 
ATOM     17  C   UNL     1     -97.180  25.442 -32.511  1.00  0.00     0.006 C 
ATOM     18  C   UNL     1     -98.189  23.098 -32.324  1.00  0.00     0.008 C 
ATOM     19  C   UNL     1     -95.828  23.359 -33.210  1.00  0.00     0.012 C 
ATOM     20  C   UNL     1     -97.247  25.527 -30.914  1.00  0.00    -0.025 C 
ATOM     21  C   UNL     1     -99.201  23.863 -31.461  1.00  0.00     0.005 C 
ATOM     22  C   UNL     1     -98.552  24.785 -30.374  1.00  0.00     0.003 C 
ATOM     23  C   UNL     1     -95.943  25.024 -30.197  1.00  0.00     0.010 C 
ATOM     24  C   UNL     1     -97.385  27.044 -30.559  1.00  0.00     0.012 C 
ATOM     25  C   UNL     1     -98.410  24.132 -28.933  1.00  0.00    -0.006 C 
ATOM     26  C   UNL     1     -95.945  23.588 -29.633  1.00  0.00     0.033 C 
ATOM     27  C   UNL     1     -97.227  23.123 -28.899  1.00  0.00     0.120 C 
ATOM     28  C   UNL     1     -99.711  23.379 -28.522  1.00  0.00     0.014 C 
ATOM     29  C   UNL     1     -98.223  25.229 -27.843  1.00  0.00     0.014 C 
ENDROOT
BRANCH   1  30
ATOM     30  C   UNL     1     -95.440  23.429 -37.508  1.00  0.00     0.048 C 
ATOM     31  O   UNL     1     -94.657  23.887 -36.631  1.00  0.00    -0.550 OA
ATOM     32  O   UNL     1     -95.004  22.379 -38.308  1.00  0.00    -0.550 OA
ENDBRANCH   1  30
BRANCH  27  33
ATOM     33  O   UNL     1     -96.921  22.780 -27.568  1.00  0.00    -0.393 OA
ATOM     34  H   UNL     1     -96.229  22.068 -27.601  1.00  0.00     0.210 HD
ENDBRANCH  27  33
TORSDOF 2
ENDMDL
MODEL 6
REMARK VINA RESULT:    -4.545      9.817     11.572
REMARK INTER + INTRA:          -4.718
REMARK INTER:                  -4.943
REMARK INTRA:                   0.225
REMARK UNBOUND:                 0.225
REMARK SMILES C[C@@H]1[C@H](C)CC[C@]2(C(=O)[O-])CC[C@]3(C)C(=CC[C@@H]4[C@]5(C)CC[C@@H](O)C(C)(C)[C@@H]5CC[C@]43C)[C@@H]12
REMARK SMILES IDX 7 1 6 2 11 3 33 4 5 5 12 6 15 7 2 8 3 9 13 10 16 11 1 12
REMARK SMILES IDX 4 13 14 14 31 15 17 16 18 17 30 18 32 19 19 20 29 21 28 22
REMARK SMILES IDX 21 23 20 24 25 25 22 26 23 27 26 28 27 29 8 30 9 31 10 32
REMARK SMILES IDX 24 33
REMARK H PARENT 24 34
REMARK Flexibility Score: inf
ROOT
ATOM      1  C   UNL     1     -98.095  26.262 -27.675  1.00  0.00     0.017 C 
ATOM      2  C   UNL     1     -96.778  26.152 -26.826  1.00  0.00     0.014 C 
ATOM      3  C   UNL     1     -99.124  27.048 -26.826  1.00  0.00     0.014 C 
ATOM      4  C   UNL     1     -98.657  24.831 -27.987  1.00  0.00     0.030 C 
ATOM      5  C   UNL     1     -95.922  24.903 -27.105  1.00  0.00     0.004 C 
ATOM      6  C   UNL     1    -100.491  27.163 -27.506  1.00  0.00     0.013 C 
ATOM      7  C   UNL     1    -100.086  24.896 -28.605  1.00  0.00    -0.063 C 
ATOM      8  C   UNL     1     -97.604  23.926 -28.749  1.00  0.00    -0.003 C 
ATOM      9  C   UNL     1     -96.126  24.388 -28.530  1.00  0.00    -0.011 C 
ATOM     10  C   UNL     1    -101.145  25.786 -27.893  1.00  0.00    -0.006 C 
ATOM     11  C   UNL     1    -100.449  24.071 -29.634  1.00  0.00    -0.027 C 
ATOM     12  C   UNL     1     -97.816  22.442 -28.359  1.00  0.00     0.008 C 
ATOM     13  C   UNL     1     -95.073  23.325 -28.888  1.00  0.00     0.008 C 
ATOM     14  C   UNL     1    -101.533  25.077 -26.555  1.00  0.00     0.017 C 
ATOM     15  C   UNL     1    -102.429  26.019 -28.850  1.00  0.00    -0.020 C 
ATOM     16  C   UNL     1    -101.809  24.018 -30.291  1.00  0.00     0.032 C 
ATOM     17  C   UNL     1    -102.904  24.620 -29.394  1.00  0.00     0.006 C 
ATOM     18  C   UNL     1    -103.624  26.717 -28.117  1.00  0.00     0.008 C 
ATOM     19  C   UNL     1    -101.990  26.943 -30.042  1.00  0.00     0.012 C 
ATOM     20  C   UNL     1    -104.420  24.483 -29.891  1.00  0.00    -0.025 C 
ATOM     21  C   UNL     1    -104.700  25.749 -27.609  1.00  0.00     0.005 C 
ATOM     22  C   UNL     1    -105.424  24.943 -28.739  1.00  0.00     0.003 C 
ATOM     23  C   UNL     1    -104.709  25.210 -31.251  1.00  0.00     0.010 C 
ATOM     24  C   UNL     1    -104.663  22.958 -30.147  1.00  0.00     0.012 C 
ATOM     25  C   UNL     1    -106.791  25.573 -29.247  1.00  0.00    -0.006 C 
ATOM     26  C   UNL     1    -105.369  26.603 -31.192  1.00  0.00     0.033 C 
ATOM     27  C   UNL     1    -106.524  26.792 -30.176  1.00  0.00     0.120 C 
ATOM     28  C   UNL     1    -107.674  26.049 -28.054  1.00  0.00     0.014 C 
ATOM     29  C   UNL     1    -107.655  24.505 -29.982  1.00  0.00     0.014 C 
ENDROOT
BRANCH   1  30
ATOM     30  C   UNL     1     -97.816  27.060 -28.949  1.00  0.00     0.048 C 
ATOM     31  O   UNL     1     -98.377  26.770 -30.041  1.00  0.00    -0.550 OA
ATOM     32  O   UNL     1     -96.973  28.165 -28.907  1.00  0.00    -0.550 OA
ENDBRANCH   1  30
BRANCH  27  33
ATOM     33  O   UNL     1    -107.705  27.153 -30.853  1.00  0.00    -0.393 OA
ATOM     34  H   UNL     1    -107.490  27.180 -31.823  1.00  0.00     0.210 HD
ENDBRANCH  27  33
TORSDOF 2
ENDMDL
MODEL 7
REMARK VINA RESULT:    -4.539      6.371      9.576
REMARK INTER + INTRA:          -4.712
REMARK INTER:                  -4.931
REMARK INTRA:                   0.219
REMARK UNBOUND:                 0.225
REMARK SMILES C[C@@H]1[C@H](C)CC[C@]2(C(=O)[O-])CC[C@]3(C)C(=CC[C@@H]4[C@]5(C)CC[C@@H](O)C(C)(C)[C@@H]5CC[C@]43C)[C@@H]12
REMARK SMILES IDX 7 1 6 2 11 3 33 4 5 5 12 6 15 7 2 8 3 9 13 10 16 11 1 12
REMARK SMILES IDX 4 13 14 14 31 15 17 16 18 17 30 18 32 19 19 20 29 21 28 22
REMARK SMILES IDX 21 23 20 24 25 25 22 26 23 27 26 28 27 29 8 30 9 31 10 32
REMARK SMILES IDX 24 33
REMARK H PARENT 24 34
REMARK Flexibility Score: inf
ROOT
ATOM      1  C   UNL     1     -98.756  23.458 -30.590  1.00  0.00     0.017 C 
ATOM      2  C   UNL     1     -98.818  22.534 -29.320  1.00  0.00     0.014 C 
ATOM      3  C   UNL     1     -99.436  22.690 -31.749  1.00  0.00     0.014 C 
ATOM      4  C   UNL     1     -97.262  23.759 -30.965  1.00  0.00     0.030 C 
ATOM      5  C   UNL     1     -97.672  22.729 -28.312  1.00  0.00     0.004 C 
ATOM      6  C   UNL     1     -99.376  23.448 -33.079  1.00  0.00     0.013 C 
ATOM      7  C   UNL     1     -97.148  24.457 -32.354  1.00  0.00    -0.063 C 
ATOM      8  C   UNL     1     -96.470  24.435 -29.773  1.00  0.00    -0.003 C 
ATOM      9  C   UNL     1     -97.105  24.148 -28.372  1.00  0.00    -0.011 C 
ATOM     10  C   UNL     1     -97.924  23.831 -33.547  1.00  0.00    -0.006 C 
ATOM     11  C   UNL     1     -96.264  25.481 -32.559  1.00  0.00    -0.027 C 
ATOM     12  C   UNL     1     -94.980  24.015 -29.836  1.00  0.00     0.008 C 
ATOM     13  C   UNL     1     -96.163  24.416 -27.185  1.00  0.00     0.008 C 
ATOM     14  C   UNL     1     -97.205  22.496 -33.930  1.00  0.00     0.017 C 
ATOM     15  C   UNL     1     -97.986  24.864 -34.792  1.00  0.00    -0.020 C 
ATOM     16  C   UNL     1     -96.039  26.210 -33.864  1.00  0.00     0.032 C 
ATOM     17  C   UNL     1     -96.529  25.393 -35.071  1.00  0.00     0.006 C 
ATOM     18  C   UNL     1     -98.557  24.218 -36.099  1.00  0.00     0.008 C 
ATOM     19  C   UNL     1     -98.928  26.055 -34.392  1.00  0.00     0.012 C 
ATOM     20  C   UNL     1     -96.206  25.969 -36.529  1.00  0.00    -0.025 C 
ATOM     21  C   UNL     1     -97.482  23.744 -37.085  1.00  0.00     0.005 C 
ATOM     22  C   UNL     1     -96.572  24.888 -37.645  1.00  0.00     0.003 C 
ATOM     23  C   UNL     1     -96.865  27.364 -36.820  1.00  0.00     0.010 C 
ATOM     24  C   UNL     1     -94.659  26.194 -36.580  1.00  0.00     0.012 C 
ATOM     25  C   UNL     1     -97.029  25.489 -39.043  1.00  0.00    -0.006 C 
ATOM     26  C   UNL     1     -98.173  27.381 -37.637  1.00  0.00     0.033 C 
ATOM     27  C   UNL     1     -98.249  26.437 -38.864  1.00  0.00     0.120 C 
ATOM     28  C   UNL     1     -97.425  24.361 -40.042  1.00  0.00     0.014 C 
ATOM     29  C   UNL     1     -95.852  26.240 -39.734  1.00  0.00     0.014 C 
ENDROOT
BRANCH   1  30
ATOM     30  C   UNL     1     -99.553  24.737 -30.331  1.00  0.00     0.048 C 
ATOM     31  O   UNL     1     -99.166  25.851 -30.776  1.00  0.00    -0.550 OA
ATOM     32  O   UNL     1    -100.757  24.677 -29.638  1.00  0.00    -0.550 OA
ENDBRANCH   1  30
BRANCH  27  33
ATOM     33  O   UNL     1     -98.456  27.188 -40.037  1.00  0.00    -0.393 OA
ATOM     34  H   UNL     1     -97.625  27.119 -40.578  1.00  0.00     0.210 HD
ENDBRANCH  27  33
TORSDOF 2
ENDMDL
MODEL 8
REMARK VINA RESULT:    -4.389      3.177      8.393
REMARK INTER + INTRA:          -4.549
REMARK INTER:                  -4.774
REMARK INTRA:                   0.225
REMARK UNBOUND:                 0.225
REMARK SMILES C[C@@H]1[C@H](C)CC[C@]2(C(=O)[O-])CC[C@]3(C)C(=CC[C@@H]4[C@]5(C)CC[C@@H](O)C(C)(C)[C@@H]5CC[C@]43C)[C@@H]12
REMARK SMILES IDX 7 1 6 2 11 3 33 4 5 5 12 6 15 7 2 8 3 9 13 10 16 11 1 12
REMARK SMILES IDX 4 13 14 14 31 15 17 16 18 17 30 18 32 19 19 20 29 21 28 22
REMARK SMILES IDX 21 23 20 24 25 25 22 26 23 27 26 28 27 29 8 30 9 31 10 32
REMARK SMILES IDX 24 33
REMARK H PARENT 24 34
REMARK Flexibility Score: inf
ROOT
ATOM      1  C   UNL     1    -100.771  27.280 -40.446  1.00  0.00     0.017 C 
ATOM      2  C   UNL     1    -101.294  27.943 -41.771  1.00  0.00     0.014 C 
ATOM      3  C   UNL     1    -100.072  28.389 -39.623  1.00  0.00     0.014 C 
ATOM      4  C   UNL     1     -99.738  26.147 -40.781  1.00  0.00     0.030 C 
ATOM      5  C   UNL     1    -101.371  27.002 -42.987  1.00  0.00     0.004 C 
ATOM      6  C   UNL     1     -99.441  27.862 -38.330  1.00  0.00     0.013 C 
ATOM      7  C   UNL     1     -99.009  25.637 -39.501  1.00  0.00    -0.063 C 
ATOM      8  C   UNL     1    -100.353  25.037 -41.728  1.00  0.00    -0.003 C 
ATOM      9  C   UNL     1    -101.573  25.548 -42.561  1.00  0.00    -0.011 C 
ATOM     10  C   UNL     1     -98.404  26.699 -38.538  1.00  0.00    -0.006 C 
ATOM     11  C   UNL     1     -98.758  24.305 -39.315  1.00  0.00    -0.027 C 
ATOM     12  C   UNL     1     -99.238  24.445 -42.626  1.00  0.00     0.008 C 
ATOM     13  C   UNL     1    -101.926  24.664 -43.770  1.00  0.00     0.008 C 
ATOM     14  C   UNL     1     -97.159  27.323 -39.248  1.00  0.00     0.017 C 
ATOM     15  C   UNL     1     -98.018  26.025 -37.118  1.00  0.00    -0.020 C 
ATOM     16  C   UNL     1     -98.033  23.696 -38.137  1.00  0.00     0.032 C 
ATOM     17  C   UNL     1     -97.167  24.730 -37.397  1.00  0.00     0.006 C 
ATOM     18  C   UNL     1     -97.204  26.983 -36.185  1.00  0.00     0.008 C 
ATOM     19  C   UNL     1     -99.351  25.649 -36.377  1.00  0.00     0.012 C 
ATOM     20  C   UNL     1     -96.214  24.191 -36.229  1.00  0.00    -0.025 C 
ATOM     21  C   UNL     1     -95.686  26.761 -36.230  1.00  0.00     0.005 C 
ATOM     22  C   UNL     1     -95.227  25.347 -35.742  1.00  0.00     0.003 C 
ATOM     23  C   UNL     1     -96.989  23.533 -35.033  1.00  0.00     0.010 C 
ATOM     24  C   UNL     1     -95.340  23.059 -36.862  1.00  0.00     0.012 C 
ATOM     25  C   UNL     1     -94.797  25.267 -34.215  1.00  0.00    -0.006 C 
ATOM     26  C   UNL     1     -97.227  24.393 -33.774  1.00  0.00     0.033 C 
ATOM     27  C   UNL     1     -96.046  25.271 -33.289  1.00  0.00     0.120 C 
ATOM     28  C   UNL     1     -93.888  26.469 -33.820  1.00  0.00     0.014 C 
ATOM     29  C   UNL     1     -93.925  24.004 -33.950  1.00  0.00     0.014 C 
ENDROOT
BRANCH   1  30
ATOM     30  C   UNL     1    -101.956  26.756 -39.634  1.00  0.00     0.048 C 
ATOM     31  O   UNL     1    -101.874  25.689 -38.968  1.00  0.00    -0.550 OA
ATOM     32  O   UNL     1    -103.136  27.489 -39.576  1.00  0.00    -0.550 OA
ENDBRANCH   1  30
BRANCH  27  33
ATOM     33  O   UNL     1     -95.680  24.902 -31.980  1.00  0.00    -0.393 OA
ATOM     34  H   UNL     1     -94.750  24.554 -32.024  1.00  0.00     0.210 HD
ENDBRANCH  27  33
TORSDOF 2
ENDMDL
MODEL 9
REMARK VINA RESULT:    -4.376      2.198      8.108
REMARK INTER + INTRA:          -4.535
REMARK INTER:                  -4.776
REMARK INTRA:                   0.241
REMARK UNBOUND:                 0.225
REMARK SMILES C[C@@H]1[C@H](C)CC[C@]2(C(=O)[O-])CC[C@]3(C)C(=CC[C@@H]4[C@]5(C)CC[C@@H](O)C(C)(C)[C@@H]5CC[C@]43C)[C@@H]12
REMARK SMILES IDX 7 1 6 2 11 3 33 4 5 5 12 6 15 7 2 8 3 9 13 10 16 11 1 12
REMARK SMILES IDX 4 13 14 14 31 15 17 16 18 17 30 18 32 19 19 20 29 21 28 22
REMARK SMILES IDX 21 23 20 24 25 25 22 26 23 27 26 28 27 29 8 30 9 31 10 32
REMARK SMILES IDX 24 33
REMARK H PARENT 24 34
REMARK Flexibility Score: inf
ROOT
ATOM      1  C   UNL     1    -103.784  26.209 -40.362  1.00  0.00     0.017 C 
ATOM      2  C   UNL     1    -105.346  26.257 -40.205  1.00  0.00     0.014 C 
ATOM      3  C   UNL     1    -103.325  24.790 -39.946  1.00  0.00     0.014 C 
ATOM      4  C   UNL     1    -103.114  27.272 -39.422  1.00  0.00     0.030 C 
ATOM      5  C   UNL     1    -105.928  27.644 -39.877  1.00  0.00     0.004 C 
ATOM      6  C   UNL     1    -101.803  24.625 -39.976  1.00  0.00     0.013 C 
ATOM      7  C   UNL     1    -101.568  27.089 -39.357  1.00  0.00    -0.063 C 
ATOM      8  C   UNL     1    -103.635  28.739 -39.711  1.00  0.00    -0.003 C 
ATOM      9  C   UNL     1    -105.036  28.768 -40.406  1.00  0.00    -0.011 C 
ATOM     10  C   UNL     1    -101.017  25.659 -39.089  1.00  0.00    -0.006 C 
ATOM     11  C   UNL     1    -100.727  28.169 -39.362  1.00  0.00    -0.027 C 
ATOM     12  C   UNL     1    -103.616  29.565 -38.400  1.00  0.00     0.008 C 
ATOM     13  C   UNL     1    -105.754  30.127 -40.323  1.00  0.00     0.008 C 
ATOM     14  C   UNL     1    -101.328  25.305 -37.598  1.00  0.00     0.017 C 
ATOM     15  C   UNL     1     -99.432  25.590 -39.410  1.00  0.00    -0.020 C 
ATOM     16  C   UNL     1     -99.220  28.119 -39.269  1.00  0.00     0.032 C 
ATOM     17  C   UNL     1     -98.724  26.790 -38.676  1.00  0.00     0.006 C 
ATOM     18  C   UNL     1     -98.771  24.246 -38.953  1.00  0.00     0.008 C 
ATOM     19  C   UNL     1     -99.242  25.716 -40.964  1.00  0.00     0.012 C 
ATOM     20  C   UNL     1     -97.159  26.661 -38.366  1.00  0.00    -0.025 C 
ATOM     21  C   UNL     1     -98.068  24.325 -37.591  1.00  0.00     0.005 C 
ATOM     22  C   UNL     1     -96.865  25.325 -37.545  1.00  0.00     0.003 C 
ATOM     23  C   UNL     1     -96.248  26.784 -39.639  1.00  0.00     0.010 C 
ATOM     24  C   UNL     1     -96.792  27.871 -37.445  1.00  0.00     0.012 C 
ATOM     25  C   UNL     1     -95.438  24.675 -37.801  1.00  0.00    -0.006 C 
ATOM     26  C   UNL     1     -95.730  25.479 -40.278  1.00  0.00     0.033 C 
ATOM     27  C   UNL     1     -95.233  24.373 -39.313  1.00  0.00     0.120 C 
ATOM     28  C   UNL     1     -95.270  23.345 -37.007  1.00  0.00     0.014 C 
ATOM     29  C   UNL     1     -94.304  25.602 -37.271  1.00  0.00     0.014 C 
ENDROOT
BRANCH   1  30
ATOM     30  C   UNL     1    -103.411  26.422 -41.829  1.00  0.00     0.048 C 
ATOM     31  O   UNL     1    -104.098  25.919 -42.759  1.00  0.00    -0.550 OA
ATOM     32  O   UNL     1    -102.327  27.228 -42.161  1.00  0.00    -0.550 OA
ENDBRANCH   1  30
BRANCH  27  33
ATOM     33  O   UNL     1     -93.879  24.084 -39.570  1.00  0.00    -0.393 OA
ATOM     34  H   UNL     1     -93.495  23.713 -38.731  1.00  0.00     0.210 HD
ENDBRANCH  27  33
TORSDOF 2
ENDMDL
