MODEL 1
REMARK VINA RESULT:    -4.918      0.000      0.000
REMARK INTER + INTRA:          -6.498
REMARK INTER:                  -6.068
REMARK INTRA:                  -0.430
REMARK UNBOUND:                -0.430
REMARK SMILES COC(=O)c1ccccc1C(=O)OC
REMARK SMILES IDX 5 1 6 2 7 3 8 4 9 5 10 6 3 7 4 8 2 9 1 10 11 11 12 12 13 13
REMARK SMILES IDX 14 14
REMARK H PARENT
REMARK Flexibility Score: inf
ROOT
ATOM      1  C   UNL     1     174.309 173.354 161.502  1.00  0.00     0.074 A 
ATOM      2  C   UNL     1     175.050 173.292 160.309  1.00  0.00     0.016 A 
ATOM      3  C   UNL     1     174.885 172.230 159.420  1.00  0.00     0.001 A 
ATOM      4  C   UNL     1     173.977 171.213 159.708  1.00  0.00     0.001 A 
ATOM      5  C   UNL     1     173.247 171.243 160.897  1.00  0.00     0.016 A 
ATOM      6  C   UNL     1     173.414 172.293 161.818  1.00  0.00     0.074 A 
ENDROOT
BRANCH   1   7
ATOM      7  C   UNL     1     174.449 174.565 162.343  1.00  0.00     0.338 C 
ATOM      8  O   UNL     1     174.015 175.678 161.937  1.00  0.00    -0.246 OA
BRANCH   7   9
ATOM      9  O   UNL     1     175.119 174.479 163.569  1.00  0.00    -0.465 OA
ATOM     10  C   UNL     1     174.564 174.968 164.783  1.00  0.00     0.282 C 
ENDBRANCH   7   9
ENDBRANCH   1   7
BRANCH   6  11
ATOM     11  C   UNL     1     172.693 172.202 163.108  1.00  0.00     0.338 C 
ATOM     12  O   UNL     1     173.232 171.640 164.101  1.00  0.00    -0.246 OA
BRANCH  11  13
ATOM     13  O   UNL     1     171.385 172.691 163.203  1.00  0.00    -0.465 OA
ATOM     14  C   UNL     1     171.077 173.942 163.805  1.00  0.00     0.282 C 
ENDBRANCH  11  13
ENDBRANCH   6  11
TORSDOF 4
ENDMDL
MODEL 2
REMARK VINA RESULT:    -4.907      0.111      3.263
REMARK INTER + INTRA:          -6.484
REMARK INTER:                  -6.055
REMARK INTRA:                  -0.428
REMARK UNBOUND:                -0.430
REMARK SMILES COC(=O)c1ccccc1C(=O)OC
REMARK SMILES IDX 5 1 6 2 7 3 8 4 9 5 10 6 3 7 4 8 2 9 1 10 11 11 12 12 13 13
REMARK SMILES IDX 14 14
REMARK H PARENT
REMARK Flexibility Score: inf
ROOT
ATOM      1  C   UNL     1     173.415 172.335 161.879  1.00  0.00     0.074 A 
ATOM      2  C   UNL     1     173.249 171.252 160.999  1.00  0.00     0.016 A 
ATOM      3  C   UNL     1     173.977 171.179 159.811  1.00  0.00     0.001 A 
ATOM      4  C   UNL     1     174.883 172.185 159.484  1.00  0.00     0.001 A 
ATOM      5  C   UNL     1     175.048 173.280 160.333  1.00  0.00     0.016 A 
ATOM      6  C   UNL     1     174.308 173.386 161.524  1.00  0.00     0.074 A 
ENDROOT
BRANCH   1   7
ATOM      7  C   UNL     1     172.697 172.291 163.174  1.00  0.00     0.338 C 
ATOM      8  O   UNL     1     173.250 171.797 164.195  1.00  0.00    -0.246 OA
BRANCH   7   9
ATOM      9  O   UNL     1     171.377 172.751 163.245  1.00  0.00    -0.465 OA
ATOM     10  C   UNL     1     171.038 174.037 163.750  1.00  0.00     0.282 C 
ENDBRANCH   7   9
ENDBRANCH   1   7
BRANCH   6  11
ATOM     11  C   UNL     1     174.449 174.628 162.319  1.00  0.00     0.338 C 
ATOM     12  O   UNL     1     174.012 175.723 161.872  1.00  0.00    -0.246 OA
BRANCH  11  13
ATOM     13  O   UNL     1     175.125 174.588 163.544  1.00  0.00    -0.465 OA
ATOM     14  C   UNL     1     174.601 175.177 164.727  1.00  0.00     0.282 C 
ENDBRANCH  11  13
ENDBRANCH   6  11
TORSDOF 4
ENDMDL
MODEL 3
REMARK VINA RESULT:    -4.786     18.319     19.976
REMARK INTER + INTRA:          -6.335
REMARK INTER:                  -5.952
REMARK INTRA:                  -0.383
REMARK UNBOUND:                -0.430
REMARK SMILES COC(=O)c1ccccc1C(=O)OC
REMARK SMILES IDX 5 1 6 2 7 3 8 4 9 5 10 6 3 7 4 8 2 9 1 10 11 11 12 12 13 13
REMARK SMILES IDX 14 14
REMARK H PARENT
REMARK Flexibility Score: inf
ROOT
ATOM      1  C   UNL     1     158.026 166.981 171.542  1.00  0.00     0.074 A 
ATOM      2  C   UNL     1     158.429 168.117 170.817  1.00  0.00     0.016 A 
ATOM      3  C   UNL     1     159.492 168.905 171.258  1.00  0.00     0.001 A 
ATOM      4  C   UNL     1     160.171 168.572 172.428  1.00  0.00     0.001 A 
ATOM      5  C   UNL     1     159.774 167.463 173.175  1.00  0.00     0.016 A 
ATOM      6  C   UNL     1     158.690 166.667 172.761  1.00  0.00     0.074 A 
ENDROOT
BRANCH   1   7
ATOM      7  C   UNL     1     156.968 166.126 170.958  1.00  0.00     0.338 C 
ATOM      8  O   UNL     1     155.757 166.312 171.259  1.00  0.00    -0.246 OA
BRANCH   7   9
ATOM      9  O   UNL     1     157.325 165.071 170.110  1.00  0.00    -0.465 OA
ATOM     10  C   UNL     1     157.026 165.068 168.720  1.00  0.00     0.282 C 
ENDBRANCH   7   9
ENDBRANCH   1   7
BRANCH   6  11
ATOM     11  C   UNL     1     158.252 165.574 173.660  1.00  0.00     0.338 C 
ATOM     12  O   UNL     1     157.584 165.832 174.698  1.00  0.00    -0.246 OA
BRANCH  11  13
ATOM     13  O   UNL     1     158.636 164.257 173.381  1.00  0.00    -0.465 OA
ATOM     14  C   UNL     1     157.701 163.190 173.291  1.00  0.00     0.282 C 
ENDBRANCH  11  13
ENDBRANCH   6  11
TORSDOF 4
ENDMDL
MODEL 4
REMARK VINA RESULT:    -4.721     18.387     20.000
REMARK INTER + INTRA:          -6.254
REMARK INTER:                  -5.875
REMARK INTRA:                  -0.379
REMARK UNBOUND:                -0.430
REMARK SMILES COC(=O)c1ccccc1C(=O)OC
REMARK SMILES IDX 5 1 6 2 7 3 8 4 9 5 10 6 3 7 4 8 2 9 1 10 11 11 12 12 13 13
REMARK SMILES IDX 14 14
REMARK H PARENT
REMARK Flexibility Score: inf
ROOT
ATOM      1  C   UNL     1     158.663 166.685 172.749  1.00  0.00     0.074 A 
ATOM      2  C   UNL     1     159.740 167.502 173.137  1.00  0.00     0.016 A 
ATOM      3  C   UNL     1     160.104 168.613 172.377  1.00  0.00     0.001 A 
ATOM      4  C   UNL     1     159.396 168.929 171.218  1.00  0.00     0.001 A 
ATOM      5  C   UNL     1     158.338 168.120 170.803  1.00  0.00     0.016 A 
ATOM      6  C   UNL     1     157.969 166.981 171.542  1.00  0.00     0.074 A 
ENDROOT
BRANCH   1   7
ATOM      7  C   UNL     1     158.261 165.591 173.662  1.00  0.00     0.338 C 
ATOM      8  O   UNL     1     157.639 165.845 174.730  1.00  0.00    -0.246 OA
BRANCH   7   9
ATOM      9  O   UNL     1     158.625 164.273 173.360  1.00  0.00    -0.465 OA
ATOM     10  C   UNL     1     157.690 163.202 173.348  1.00  0.00     0.282 C 
ENDBRANCH   7   9
ENDBRANCH   1   7
BRANCH   6  11
ATOM     11  C   UNL     1     156.913 166.107 170.983  1.00  0.00     0.338 C 
ATOM     12  O   UNL     1     155.698 166.334 171.236  1.00  0.00    -0.246 OA
BRANCH  11  13
ATOM     13  O   UNL     1     157.275 164.991 170.220  1.00  0.00    -0.465 OA
ATOM     14  C   UNL     1     157.125 164.948 168.807  1.00  0.00     0.282 C 
ENDBRANCH  11  13
ENDBRANCH   6  11
TORSDOF 4
ENDMDL
MODEL 5
REMARK VINA RESULT:    -4.679     13.441     16.134
REMARK INTER + INTRA:          -6.204
REMARK INTER:                  -5.847
REMARK INTRA:                  -0.356
REMARK UNBOUND:                -0.430
REMARK SMILES COC(=O)c1ccccc1C(=O)OC
REMARK SMILES IDX 5 1 6 2 7 3 8 4 9 5 10 6 3 7 4 8 2 9 1 10 11 11 12 12 13 13
REMARK SMILES IDX 14 14
REMARK H PARENT
REMARK Flexibility Score: inf
ROOT
ATOM      1  C   UNL     1     160.896 169.820 171.608  1.00  0.00     0.074 A 
ATOM      2  C   UNL     1     160.591 169.005 172.713  1.00  0.00     0.016 A 
ATOM      3  C   UNL     1     159.541 168.089 172.657  1.00  0.00     0.001 A 
ATOM      4  C   UNL     1     158.779 167.969 171.496  1.00  0.00     0.001 A 
ATOM      5  C   UNL     1     159.051 168.783 170.395  1.00  0.00     0.016 A 
ATOM      6  C   UNL     1     160.090 169.730 170.438  1.00  0.00     0.074 A 
ENDROOT
BRANCH   1   7
ATOM      7  C   UNL     1     162.093 170.687 171.696  1.00  0.00     0.338 C 
ATOM      8  O   UNL     1     162.038 171.791 172.304  1.00  0.00    -0.246 OA
BRANCH   7   9
ATOM      9  O   UNL     1     163.273 170.299 171.051  1.00  0.00    -0.465 OA
ATOM     10  C   UNL     1     164.403 171.156 170.938  1.00  0.00     0.282 C 
ENDBRANCH   7   9
ENDBRANCH   1   7
BRANCH   6  11
ATOM     11  C   UNL     1     160.247 170.636 169.278  1.00  0.00     0.338 C 
ATOM     12  O   UNL     1     161.159 170.433 168.430  1.00  0.00    -0.246 OA
BRANCH  11  13
ATOM     13  O   UNL     1     159.415 171.755 169.159  1.00  0.00    -0.465 OA
ATOM     14  C   UNL     1     159.550 172.901 169.991  1.00  0.00     0.282 C 
ENDBRANCH  11  13
ENDBRANCH   6  11
TORSDOF 4
ENDMDL
MODEL 6
REMARK VINA RESULT:    -4.672     13.414     16.264
REMARK INTER + INTRA:          -6.195
REMARK INTER:                  -5.831
REMARK INTRA:                  -0.364
REMARK UNBOUND:                -0.430
REMARK SMILES COC(=O)c1ccccc1C(=O)OC
REMARK SMILES IDX 5 1 6 2 7 3 8 4 9 5 10 6 3 7 4 8 2 9 1 10 11 11 12 12 13 13
REMARK SMILES IDX 14 14
REMARK H PARENT
REMARK Flexibility Score: inf
ROOT
ATOM      1  C   UNL     1     160.092 169.721 170.421  1.00  0.00     0.074 A 
ATOM      2  C   UNL     1     159.054 168.775 170.365  1.00  0.00     0.016 A 
ATOM      3  C   UNL     1     158.775 167.955 171.459  1.00  0.00     0.001 A 
ATOM      4  C   UNL     1     159.527 168.069 172.627  1.00  0.00     0.001 A 
ATOM      5  C   UNL     1     160.576 168.986 172.696  1.00  0.00     0.016 A 
ATOM      6  C   UNL     1     160.889 169.806 171.597  1.00  0.00     0.074 A 
ENDROOT
BRANCH   1   7
ATOM      7  C   UNL     1     160.258 170.635 169.267  1.00  0.00     0.338 C 
ATOM      8  O   UNL     1     161.175 170.437 168.423  1.00  0.00    -0.246 OA
BRANCH   7   9
ATOM      9  O   UNL     1     159.426 171.754 169.149  1.00  0.00    -0.465 OA
ATOM     10  C   UNL     1     159.522 172.876 170.017  1.00  0.00     0.282 C 
ENDBRANCH   7   9
ENDBRANCH   1   7
BRANCH   6  11
ATOM     11  C   UNL     1     162.085 170.674 171.700  1.00  0.00     0.338 C 
ATOM     12  O   UNL     1     162.024 171.772 172.318  1.00  0.00    -0.246 OA
BRANCH  11  13
ATOM     13  O   UNL     1     163.269 170.296 171.056  1.00  0.00    -0.465 OA
ATOM     14  C   UNL     1     164.336 171.205 170.818  1.00  0.00     0.282 C 
ENDBRANCH  11  13
ENDBRANCH   6  11
TORSDOF 4
ENDMDL
MODEL 7
REMARK VINA RESULT:    -4.597     15.006     17.368
REMARK INTER + INTRA:          -6.102
REMARK INTER:                  -5.704
REMARK INTRA:                  -0.398
REMARK UNBOUND:                -0.430
REMARK SMILES COC(=O)c1ccccc1C(=O)OC
REMARK SMILES IDX 5 1 6 2 7 3 8 4 9 5 10 6 3 7 4 8 2 9 1 10 11 11 12 12 13 13
REMARK SMILES IDX 14 14
REMARK H PARENT
REMARK Flexibility Score: inf
ROOT
ATOM      1  C   UNL     1     160.088 169.123 172.097  1.00  0.00     0.074 A 
ATOM      2  C   UNL     1     160.197 168.269 173.209  1.00  0.00     0.016 A 
ATOM      3  C   UNL     1     159.405 167.126 173.312  1.00  0.00     0.001 A 
ATOM      4  C   UNL     1     158.492 166.815 172.306  1.00  0.00     0.001 A 
ATOM      5  C   UNL     1     158.352 167.660 171.204  1.00  0.00     0.016 A 
ATOM      6  C   UNL     1     159.124 168.830 171.091  1.00  0.00     0.074 A 
ENDROOT
BRANCH   1   7
ATOM      7  C   UNL     1     161.038 170.254 171.997  1.00  0.00     0.338 C 
ATOM      8  O   UNL     1     162.187 170.082 171.506  1.00  0.00    -0.246 OA
BRANCH   7   9
ATOM      9  O   UNL     1     160.672 171.507 172.503  1.00  0.00    -0.465 OA
ATOM     10  C   UNL     1     161.214 172.035 173.707  1.00  0.00     0.282 C 
ENDBRANCH   7   9
ENDBRANCH   1   7
BRANCH   6  11
ATOM     11  C   UNL     1     158.842 169.737 169.954  1.00  0.00     0.338 C 
ATOM     12  O   UNL     1     158.030 170.692 170.088  1.00  0.00    -0.246 OA
BRANCH  11  13
ATOM     13  O   UNL     1     159.439 169.491 168.713  1.00  0.00    -0.465 OA
ATOM     14  C   UNL     1     160.497 170.290 168.199  1.00  0.00     0.282 C 
ENDBRANCH  11  13
ENDBRANCH   6  11
TORSDOF 4
ENDMDL
MODEL 8
REMARK VINA RESULT:    -4.588     15.041     17.474
REMARK INTER + INTRA:          -6.091
REMARK INTER:                  -5.697
REMARK INTRA:                  -0.394
REMARK UNBOUND:                -0.430
REMARK SMILES COC(=O)c1ccccc1C(=O)OC
REMARK SMILES IDX 5 1 6 2 7 3 8 4 9 5 10 6 3 7 4 8 2 9 1 10 11 11 12 12 13 13
REMARK SMILES IDX 14 14
REMARK H PARENT
REMARK Flexibility Score: inf
ROOT
ATOM      1  C   UNL     1     159.118 168.785 171.074  1.00  0.00     0.074 A 
ATOM      2  C   UNL     1     158.334 167.628 171.221  1.00  0.00     0.016 A 
ATOM      3  C   UNL     1     158.493 166.793 172.327  1.00  0.00     0.001 A 
ATOM      4  C   UNL     1     159.436 167.102 173.306  1.00  0.00     0.001 A 
ATOM      5  C   UNL     1     160.240 168.234 173.169  1.00  0.00     0.016 A 
ATOM      6  C   UNL     1     160.113 169.077 172.050  1.00  0.00     0.074 A 
ENDROOT
BRANCH   1   7
ATOM      7  C   UNL     1     158.819 169.685 169.936  1.00  0.00     0.338 C 
ATOM      8  O   UNL     1     158.007 170.641 170.074  1.00  0.00    -0.246 OA
BRANCH   7   9
ATOM      9  O   UNL     1     159.400 169.433 168.688  1.00  0.00    -0.465 OA
ATOM     10  C   UNL     1     160.380 170.287 168.111  1.00  0.00     0.282 C 
ENDBRANCH   7   9
ENDBRANCH   1   7
BRANCH   6  11
ATOM     11  C   UNL     1     161.074 170.195 171.913  1.00  0.00     0.338 C 
ATOM     12  O   UNL     1     162.224 169.992 171.435  1.00  0.00    -0.246 OA
BRANCH  11  13
ATOM     13  O   UNL     1     160.720 171.468 172.374  1.00  0.00    -0.465 OA
ATOM     14  C   UNL     1     161.058 171.933 173.675  1.00  0.00     0.282 C 
ENDBRANCH  11  13
ENDBRANCH   6  11
TORSDOF 4
ENDMDL
MODEL 9
REMARK VINA RESULT:    -4.535     18.292     20.127
REMARK INTER + INTRA:          -6.026
REMARK INTER:                  -5.646
REMARK INTRA:                  -0.379
REMARK UNBOUND:                -0.430
REMARK SMILES COC(=O)c1ccccc1C(=O)OC
REMARK SMILES IDX 5 1 6 2 7 3 8 4 9 5 10 6 3 7 4 8 2 9 1 10 11 11 12 12 13 13
REMARK SMILES IDX 14 14
REMARK H PARENT
REMARK Flexibility Score: inf
ROOT
ATOM      1  C   UNL     1     158.035 166.950 171.526  1.00  0.00     0.074 A 
ATOM      2  C   UNL     1     158.315 168.010 170.646  1.00  0.00     0.016 A 
ATOM      3  C   UNL     1     159.339 168.916 170.922  1.00  0.00     0.001 A 
ATOM      4  C   UNL     1     160.101 168.777 172.080  1.00  0.00     0.001 A 
ATOM      5  C   UNL     1     159.826 167.745 172.978  1.00  0.00     0.016 A 
ATOM      6  C   UNL     1     158.783 166.835 172.731  1.00  0.00     0.074 A 
ENDROOT
BRANCH   1   7
ATOM      7  C   UNL     1     157.012 165.961 171.115  1.00  0.00     0.338 C 
ATOM      8  O   UNL     1     157.274 165.101 170.230  1.00  0.00    -0.246 OA
BRANCH   7   9
ATOM      9  O   UNL     1     155.731 166.021 171.676  1.00  0.00    -0.465 OA
ATOM     10  C   UNL     1     155.166 164.947 172.417  1.00  0.00     0.282 C 
ENDBRANCH   7   9
ENDBRANCH   1   7
BRANCH   6  11
ATOM     11  C   UNL     1     158.474 165.836 173.781  1.00  0.00     0.338 C 
ATOM     12  O   UNL     1     158.662 164.607 173.565  1.00  0.00    -0.246 OA
BRANCH  11  13
ATOM     13  O   UNL     1     157.916 166.260 174.992  1.00  0.00    -0.465 OA
ATOM     14  C   UNL     1     156.758 167.082 175.056  1.00  0.00     0.282 C 
ENDBRANCH  11  13
ENDBRANCH   6  11
TORSDOF 4
ENDMDL
