MODEL 1
REMARK VINA RESULT:    -4.683      0.000      0.000
REMARK INTER + INTRA:          -8.391
REMARK INTER:                  -7.147
REMARK INTRA:                  -1.244
REMARK UNBOUND:                -1.244
REMARK SMILES CCCCCCCCCCC(=O)[O-]
REMARK SMILES IDX 7 1 8 2 9 3 10 4 11 5 12 6 13 7 6 8 5 9 4 10 3 11 2 12 1 13
REMARK H PARENT
REMARK Flexibility Score: inf
ROOT
ATOM      1  C   UNL     1      14.991  -5.492  15.305  1.00  0.00     0.000 C 
ENDROOT
BRANCH   1   2
ATOM      2  C   UNL     1      14.122  -4.938  16.444  1.00  0.00     0.000 C 
BRANCH   2   3
ATOM      3  C   UNL     1      13.866  -3.437  16.258  1.00  0.00     0.006 C 
BRANCH   3   4
ATOM      4  C   UNL     1      13.871  -3.059  14.774  1.00  0.00     0.053 C 
BRANCH   4   5
ATOM      5  C   UNL     1      12.548  -2.483  14.375  1.00  0.00     0.041 C 
ATOM      6  O   UNL     1      12.495  -1.523  13.564  1.00  0.00    -0.550 OA
ATOM      7  O   UNL     1      11.372  -3.040  14.862  1.00  0.00    -0.550 OA
ENDBRANCH   4   5
ENDBRANCH   3   4
ENDBRANCH   2   3
ENDBRANCH   1   2
BRANCH   1   8
ATOM      8  C   UNL     1      16.097  -6.436  15.805  1.00  0.00     0.000 C 
BRANCH   8   9
ATOM      9  C   UNL     1      17.358  -5.680  16.261  1.00  0.00    -0.000 C 
BRANCH   9  10
ATOM     10  C   UNL     1      17.650  -4.443  15.397  1.00  0.00    -0.000 C 
BRANCH  10  11
ATOM     11  C   UNL     1      17.940  -3.189  16.236  1.00  0.00    -0.000 C 
BRANCH  11  12
ATOM     12  C   UNL     1      17.889  -3.508  17.735  1.00  0.00    -0.003 C 
ATOM     13  C   UNL     1      16.811  -2.689  18.437  1.00  0.00     0.004 C 
ENDBRANCH  11  12
ENDBRANCH  10  11
ENDBRANCH   9  10
ENDBRANCH   8   9
ENDBRANCH   1   8
TORSDOF 9
ENDMDL
MODEL 2
REMARK VINA RESULT:    -4.510      3.271      5.160
REMARK INTER + INTRA:          -8.127
REMARK INTER:                  -6.958
REMARK INTRA:                  -1.169
REMARK UNBOUND:                -1.244
REMARK SMILES CCCCCCCCCCC(=O)[O-]
REMARK SMILES IDX 7 1 8 2 9 3 10 4 11 5 12 6 13 7 6 8 5 9 4 10 3 11 2 12 1 13
REMARK H PARENT
REMARK Flexibility Score: inf
ROOT
ATOM      1  C   UNL     1      13.448  -3.866  16.200  1.00  0.00     0.000 C 
ENDROOT
BRANCH   1   2
ATOM      2  C   UNL     1      14.611  -3.302  17.029  1.00  0.00     0.000 C 
BRANCH   2   3
ATOM      3  C   UNL     1      15.941  -3.451  16.279  1.00  0.00     0.006 C 
BRANCH   3   4
ATOM      4  C   UNL     1      16.959  -4.232  17.117  1.00  0.00     0.053 C 
BRANCH   4   5
ATOM      5  C   UNL     1      17.866  -3.292  17.848  1.00  0.00     0.041 C 
ATOM      6  O   UNL     1      17.533  -2.838  18.973  1.00  0.00    -0.550 OA
ATOM      7  O   UNL     1      19.102  -2.957  17.308  1.00  0.00    -0.550 OA
ENDBRANCH   4   5
ENDBRANCH   3   4
ENDBRANCH   2   3
ENDBRANCH   1   2
BRANCH   1   8
ATOM      8  C   UNL     1      13.274  -3.148  14.851  1.00  0.00     0.000 C 
BRANCH   8   9
ATOM      9  C   UNL     1      13.053  -4.127  13.685  1.00  0.00    -0.000 C 
BRANCH   9  10
ATOM     10  C   UNL     1      14.321  -4.920  13.331  1.00  0.00    -0.000 C 
BRANCH  10  11
ATOM     11  C   UNL     1      14.204  -6.412  13.678  1.00  0.00    -0.000 C 
BRANCH  11  12
ATOM     12  C   UNL     1      15.311  -6.836  14.652  1.00  0.00    -0.003 C 
ATOM     13  C   UNL     1      14.724  -7.358  15.960  1.00  0.00     0.004 C 
ENDBRANCH  11  12
ENDBRANCH  10  11
ENDBRANCH   9  10
ENDBRANCH   8   9
ENDBRANCH   1   8
TORSDOF 9
ENDMDL
MODEL 3
REMARK VINA RESULT:    -4.491      3.057      4.629
REMARK INTER + INTRA:          -8.099
REMARK INTER:                  -6.994
REMARK INTRA:                  -1.105
REMARK UNBOUND:                -1.244
REMARK SMILES CCCCCCCCCCC(=O)[O-]
REMARK SMILES IDX 7 1 8 2 9 3 10 4 11 5 12 6 13 7 6 8 5 9 4 10 3 11 2 12 1 13
REMARK H PARENT
REMARK Flexibility Score: inf
ROOT
ATOM      1  C   UNL     1      14.461  -6.737  14.763  1.00  0.00     0.000 C 
ENDROOT
BRANCH   1   2
ATOM      2  C   UNL     1      15.956  -6.500  15.023  1.00  0.00     0.000 C 
BRANCH   2   3
ATOM      3  C   UNL     1      16.170  -5.261  15.902  1.00  0.00     0.006 C 
BRANCH   3   4
ATOM      4  C   UNL     1      15.297  -4.094  15.428  1.00  0.00     0.053 C 
BRANCH   4   5
ATOM      5  C   UNL     1      14.514  -3.528  16.572  1.00  0.00     0.041 C 
ATOM      6  O   UNL     1      13.282  -3.766  16.675  1.00  0.00    -0.550 OA
ATOM      7  O   UNL     1      15.156  -2.780  17.551  1.00  0.00    -0.550 OA
ENDBRANCH   4   5
ENDBRANCH   3   4
ENDBRANCH   2   3
ENDBRANCH   1   2
BRANCH   1   8
ATOM      8  C   UNL     1      14.156  -7.060  13.291  1.00  0.00     0.000 C 
BRANCH   8   9
ATOM      9  C   UNL     1      13.384  -5.931  12.587  1.00  0.00    -0.000 C 
BRANCH   9  10
ATOM     10  C   UNL     1      14.117  -5.399  11.345  1.00  0.00    -0.000 C 
BRANCH  10  11
ATOM     11  C   UNL     1      15.540  -4.911  11.660  1.00  0.00    -0.000 C 
BRANCH  11  12
ATOM     12  C   UNL     1      16.582  -5.732  10.890  1.00  0.00    -0.003 C 
ATOM     13  C   UNL     1      17.792  -6.046  11.765  1.00  0.00     0.004 C 
ENDBRANCH  11  12
ENDBRANCH  10  11
ENDBRANCH   9  10
ENDBRANCH   8   9
ENDBRANCH   1   8
TORSDOF 9
ENDMDL
MODEL 4
REMARK VINA RESULT:    -4.472      3.530      4.375
REMARK INTER + INTRA:          -8.069
REMARK INTER:                  -7.000
REMARK INTRA:                  -1.070
REMARK UNBOUND:                -1.244
REMARK SMILES CCCCCCCCCCC(=O)[O-]
REMARK SMILES IDX 7 1 8 2 9 3 10 4 11 5 12 6 13 7 6 8 5 9 4 10 3 11 2 12 1 13
REMARK H PARENT
REMARK Flexibility Score: inf
ROOT
ATOM      1  C   UNL     1      14.894  -6.742  13.486  1.00  0.00     0.000 C 
ENDROOT
BRANCH   1   2
ATOM      2  C   UNL     1      13.558  -6.407  12.806  1.00  0.00     0.000 C 
BRANCH   2   3
ATOM      3  C   UNL     1      13.577  -4.985  12.232  1.00  0.00     0.006 C 
BRANCH   3   4
ATOM      4  C   UNL     1      12.969  -4.952  10.827  1.00  0.00     0.053 C 
BRANCH   4   5
ATOM      5  C   UNL     1      13.964  -5.427   9.814  1.00  0.00     0.041 C 
ATOM      6  O   UNL     1      13.578  -6.056   8.795  1.00  0.00    -0.550 OA
ATOM      7  O   UNL     1      15.312  -5.132   9.972  1.00  0.00    -0.550 OA
ENDBRANCH   4   5
ENDBRANCH   3   4
ENDBRANCH   2   3
ENDBRANCH   1   2
BRANCH   1   8
ATOM      8  C   UNL     1      14.712  -7.440  14.844  1.00  0.00     0.000 C 
BRANCH   8   9
ATOM      9  C   UNL     1      14.779  -6.458  16.026  1.00  0.00    -0.000 C 
BRANCH   9  10
ATOM     10  C   UNL     1      15.799  -5.330  15.801  1.00  0.00    -0.000 C 
BRANCH  10  11
ATOM     11  C   UNL     1      15.159  -3.934  15.845  1.00  0.00    -0.000 C 
BRANCH  11  12
ATOM     12  C   UNL     1      13.703  -4.013  16.319  1.00  0.00    -0.003 C 
ATOM     13  C   UNL     1      12.771  -3.270  15.366  1.00  0.00     0.004 C 
ENDBRANCH  11  12
ENDBRANCH  10  11
ENDBRANCH   9  10
ENDBRANCH   8   9
ENDBRANCH   1   8
TORSDOF 9
ENDMDL
MODEL 5
REMARK VINA RESULT:    -4.455      3.266      4.818
REMARK INTER + INTRA:          -8.043
REMARK INTER:                  -7.023
REMARK INTRA:                  -1.019
REMARK UNBOUND:                -1.244
REMARK SMILES CCCCCCCCCCC(=O)[O-]
REMARK SMILES IDX 7 1 8 2 9 3 10 4 11 5 12 6 13 7 6 8 5 9 4 10 3 11 2 12 1 13
REMARK H PARENT
REMARK Flexibility Score: inf
ROOT
ATOM      1  C   UNL     1      15.324  -6.021  15.914  1.00  0.00     0.000 C 
ENDROOT
BRANCH   1   2
ATOM      2  C   UNL     1      16.817  -5.662  15.921  1.00  0.00     0.000 C 
BRANCH   2   3
ATOM      3  C   UNL     1      17.025  -4.176  15.603  1.00  0.00     0.006 C 
BRANCH   3   4
ATOM      4  C   UNL     1      17.887  -3.500  16.674  1.00  0.00     0.053 C 
BRANCH   4   5
ATOM      5  C   UNL     1      17.036  -3.026  17.810  1.00  0.00     0.041 C 
ATOM      6  O   UNL     1      17.530  -2.900  18.961  1.00  0.00    -0.550 OA
ATOM      7  O   UNL     1      15.710  -2.676  17.587  1.00  0.00    -0.550 OA
ENDBRANCH   4   5
ENDBRANCH   3   4
ENDBRANCH   2   3
ENDBRANCH   1   2
BRANCH   1   8
ATOM      8  C   UNL     1      15.000  -7.207  14.991  1.00  0.00     0.000 C 
BRANCH   8   9
ATOM      9  C   UNL     1      15.768  -7.146  13.659  1.00  0.00    -0.000 C 
BRANCH   9  10
ATOM     10  C   UNL     1      15.100  -6.215  12.635  1.00  0.00    -0.000 C 
BRANCH  10  11
ATOM     11  C   UNL     1      16.118  -5.472  11.756  1.00  0.00    -0.000 C 
BRANCH  11  12
ATOM     12  C   UNL     1      17.501  -6.127  11.846  1.00  0.00    -0.003 C 
ATOM     13  C   UNL     1      18.540  -5.152  12.391  1.00  0.00     0.004 C 
ENDBRANCH  11  12
ENDBRANCH  10  11
ENDBRANCH   9  10
ENDBRANCH   8   9
ENDBRANCH   1   8
TORSDOF 9
ENDMDL
MODEL 6
REMARK VINA RESULT:    -4.454      3.447      4.482
REMARK INTER + INTRA:          -8.042
REMARK INTER:                  -7.052
REMARK INTRA:                  -0.990
REMARK UNBOUND:                -1.244
REMARK SMILES CCCCCCCCCCC(=O)[O-]
REMARK SMILES IDX 7 1 8 2 9 3 10 4 11 5 12 6 13 7 6 8 5 9 4 10 3 11 2 12 1 13
REMARK H PARENT
REMARK Flexibility Score: inf
ROOT
ATOM      1  C   UNL     1      15.555  -7.306  13.734  1.00  0.00     0.000 C 
ENDROOT
BRANCH   1   2
ATOM      2  C   UNL     1      14.797  -6.409  12.745  1.00  0.00     0.000 C 
BRANCH   2   3
ATOM      3  C   UNL     1      15.750  -5.422  12.059  1.00  0.00     0.006 C 
BRANCH   3   4
ATOM      4  C   UNL     1      17.166  -5.999  11.968  1.00  0.00     0.053 C 
BRANCH   4   5
ATOM      5  C   UNL     1      18.165  -5.021  12.501  1.00  0.00     0.041 C 
ATOM      6  O   UNL     1      17.790  -3.888  12.903  1.00  0.00    -0.550 OA
ATOM      7  O   UNL     1      19.504  -5.378  12.601  1.00  0.00    -0.550 OA
ENDBRANCH   4   5
ENDBRANCH   3   4
ENDBRANCH   2   3
ENDBRANCH   1   2
BRANCH   1   8
ATOM      8  C   UNL     1      15.205  -7.003  15.201  1.00  0.00     0.000 C 
BRANCH   8   9
ATOM      9  C   UNL     1      16.352  -6.300  15.948  1.00  0.00    -0.000 C 
BRANCH   9  10
ATOM     10  C   UNL     1      16.179  -4.774  15.997  1.00  0.00    -0.000 C 
BRANCH  10  11
ATOM     11  C   UNL     1      14.725  -4.334  15.765  1.00  0.00    -0.000 C 
BRANCH  11  12
ATOM     12  C   UNL     1      14.251  -3.398  16.883  1.00  0.00    -0.003 C 
ATOM     13  C   UNL     1      15.433  -2.779  17.623  1.00  0.00     0.004 C 
ENDBRANCH  11  12
ENDBRANCH  10  11
ENDBRANCH   9  10
ENDBRANCH   8   9
ENDBRANCH   1   8
TORSDOF 9
ENDMDL
MODEL 7
REMARK VINA RESULT:    -4.410      1.559      2.431
REMARK INTER + INTRA:          -7.974
REMARK INTER:                  -7.026
REMARK INTRA:                  -0.948
REMARK UNBOUND:                -1.244
REMARK SMILES CCCCCCCCCCC(=O)[O-]
REMARK SMILES IDX 7 1 8 2 9 3 10 4 11 5 12 6 13 7 6 8 5 9 4 10 3 11 2 12 1 13
REMARK H PARENT
REMARK Flexibility Score: inf
ROOT
ATOM      1  C   UNL     1      14.161  -4.902  14.394  1.00  0.00     0.000 C 
ENDROOT
BRANCH   1   2
ATOM      2  C   UNL     1      15.359  -4.560  13.496  1.00  0.00     0.000 C 
BRANCH   2   3
ATOM      3  C   UNL     1      15.017  -3.412  12.539  1.00  0.00     0.006 C 
BRANCH   3   4
ATOM      4  C   UNL     1      14.749  -2.116  13.310  1.00  0.00     0.053 C 
BRANCH   4   5
ATOM      5  C   UNL     1      13.408  -1.559  12.948  1.00  0.00     0.041 C 
ATOM      6  O   UNL     1      13.215  -1.065  11.807  1.00  0.00    -0.550 OA
ATOM      7  O   UNL     1      12.357  -1.631  13.854  1.00  0.00    -0.550 OA
ENDBRANCH   4   5
ENDBRANCH   3   4
ENDBRANCH   2   3
ENDBRANCH   1   2
BRANCH   1   8
ATOM      8  C   UNL     1      14.522  -4.922  15.888  1.00  0.00     0.000 C 
BRANCH   8   9
ATOM      9  C   UNL     1      14.117  -3.625  16.611  1.00  0.00    -0.000 C 
BRANCH   9  10
ATOM     10  C   UNL     1      15.288  -2.982  17.371  1.00  0.00    -0.000 C 
BRANCH  10  11
ATOM     11  C   UNL     1      16.589  -2.967  16.554  1.00  0.00    -0.000 C 
BRANCH  11  12
ATOM     12  C   UNL     1      17.785  -3.381  17.421  1.00  0.00    -0.003 C 
ATOM     13  C   UNL     1      17.585  -2.960  18.874  1.00  0.00     0.004 C 
ENDBRANCH  11  12
ENDBRANCH  10  11
ENDBRANCH   9  10
ENDBRANCH   8   9
ENDBRANCH   1   8
TORSDOF 9
ENDMDL
MODEL 8
REMARK VINA RESULT:    -4.407      3.355      4.234
REMARK INTER + INTRA:          -7.971
REMARK INTER:                  -7.246
REMARK INTRA:                  -0.725
REMARK UNBOUND:                -1.244
REMARK SMILES CCCCCCCCCCC(=O)[O-]
REMARK SMILES IDX 7 1 8 2 9 3 10 4 11 5 12 6 13 7 6 8 5 9 4 10 3 11 2 12 1 13
REMARK H PARENT
REMARK Flexibility Score: inf
ROOT
ATOM      1  C   UNL     1      15.803  -6.321  15.594  1.00  0.00     0.000 C 
ENDROOT
BRANCH   1   2
ATOM      2  C   UNL     1      15.609  -7.606  14.776  1.00  0.00     0.000 C 
BRANCH   2   3
ATOM      3  C   UNL     1      15.586  -7.302  13.273  1.00  0.00     0.006 C 
BRANCH   3   4
ATOM      4  C   UNL     1      16.250  -5.954  12.976  1.00  0.00     0.053 C 
BRANCH   4   5
ATOM      5  C   UNL     1      17.046  -6.029  11.710  1.00  0.00     0.041 C 
ATOM      6  O   UNL     1      18.253  -6.385  11.742  1.00  0.00    -0.550 OA
ATOM      7  O   UNL     1      16.440  -5.755  10.491  1.00  0.00    -0.550 OA
ENDBRANCH   4   5
ENDBRANCH   3   4
ENDBRANCH   2   3
ENDBRANCH   1   2
BRANCH   1   8
ATOM      8  C   UNL     1      14.495  -5.809  16.218  1.00  0.00     0.000 C 
BRANCH   8   9
ATOM      9  C   UNL     1      14.425  -4.272  16.264  1.00  0.00    -0.000 C 
BRANCH   9  10
ATOM     10  C   UNL     1      15.748  -3.608  15.854  1.00  0.00    -0.000 C 
BRANCH  10  11
ATOM     11  C   UNL     1      16.377  -2.786  16.990  1.00  0.00    -0.000 C 
BRANCH  11  12
ATOM     12  C   UNL     1      17.662  -3.450  17.500  1.00  0.00    -0.003 C 
ATOM     13  C   UNL     1      17.900  -3.132  18.973  1.00  0.00     0.004 C 
ENDBRANCH  11  12
ENDBRANCH  10  11
ENDBRANCH   9  10
ENDBRANCH   8   9
ENDBRANCH   1   8
TORSDOF 9
ENDMDL
MODEL 9
REMARK VINA RESULT:    -4.366      3.459      4.954
REMARK INTER + INTRA:          -7.907
REMARK INTER:                  -6.759
REMARK INTRA:                  -1.149
REMARK UNBOUND:                -1.244
REMARK SMILES CCCCCCCCCCC(=O)[O-]
REMARK SMILES IDX 7 1 8 2 9 3 10 4 11 5 12 6 13 7 6 8 5 9 4 10 3 11 2 12 1 13
REMARK H PARENT
REMARK Flexibility Score: inf
ROOT
ATOM      1  C   UNL     1      14.516  -6.764  14.486  1.00  0.00     0.000 C 
ENDROOT
BRANCH   1   2
ATOM      2  C   UNL     1      13.668  -6.627  13.213  1.00  0.00     0.000 C 
BRANCH   2   3
ATOM      3  C   UNL     1      14.344  -5.691  12.203  1.00  0.00     0.006 C 
BRANCH   3   4
ATOM      4  C   UNL     1      13.358  -5.250  11.117  1.00  0.00     0.053 C 
BRANCH   4   5
ATOM      5  C   UNL     1      13.910  -5.542   9.758  1.00  0.00     0.041 C 
ATOM      6  O   UNL     1      13.161  -5.995   8.854  1.00  0.00    -0.550 OA
ATOM      7  O   UNL     1      15.242  -5.266   9.474  1.00  0.00    -0.550 OA
ENDBRANCH   4   5
ENDBRANCH   3   4
ENDBRANCH   2   3
ENDBRANCH   1   2
BRANCH   1   8
ATOM      8  C   UNL     1      15.186  -5.444  14.901  1.00  0.00     0.000 C 
BRANCH   8   9
ATOM      9  C   UNL     1      14.487  -4.778  16.100  1.00  0.00    -0.000 C 
BRANCH   9  10
ATOM     10  C   UNL     1      13.966  -3.370  15.773  1.00  0.00    -0.000 C 
BRANCH  10  11
ATOM     11  C   UNL     1      12.480  -3.363  15.382  1.00  0.00    -0.000 C 
BRANCH  11  12
ATOM     12  C   UNL     1      12.276  -2.698  14.015  1.00  0.00    -0.003 C 
ATOM     13  C   UNL     1      13.601  -2.215  13.434  1.00  0.00     0.004 C 
ENDBRANCH  11  12
ENDBRANCH  10  11
ENDBRANCH   9  10
ENDBRANCH   8   9
ENDBRANCH   1   8
TORSDOF 9
ENDMDL
