MODEL 1
REMARK VINA RESULT:    -6.329      0.000      0.000
REMARK INTER + INTRA:          -7.332
REMARK INTER:                  -7.069
REMARK INTRA:                  -0.263
REMARK UNBOUND:                -0.263
REMARK SMILES CC1(C)CC[C@@]2(C(=O)[O-])[C@H](O)C[C@]3(C)C(=CC[C@H]4[C@]5(C)CC[C@H](O)C(C)(C)[C@@H]5CC[C@@]43C)[C@H]2C1
REMARK SMILES IDX 6 1 5 2 33 3 10 4 4 5 34 6 15 7 12 8 2 9 16 10 13 11 1 12
REMARK SMILES IDX 3 13 17 14 31 15 14 16 18 17 30 18 32 19 19 20 29 21 21 22
REMARK SMILES IDX 20 23 28 24 22 25 25 26 23 27 26 28 27 29 7 30 8 31 9 32
REMARK SMILES IDX 11 33 24 35
REMARK H PARENT 11 34 24 36
REMARK Flexibility Score: inf
ROOT
ATOM      1  C   UNL     1      24.801   5.770   9.925  1.00  0.00     0.042 C 
ATOM      2  C   UNL     1      24.798   4.214   9.866  1.00  0.00     0.017 C 
ATOM      3  C   UNL     1      25.210   6.386   8.533  1.00  0.00     0.030 C 
ATOM      4  C   UNL     1      25.820   6.207  11.038  1.00  0.00     0.127 C 
ATOM      5  C   UNL     1      23.962   3.654   8.714  1.00  0.00     0.007 C 
ATOM      6  C   UNL     1      24.530   5.687   7.313  1.00  0.00     0.015 C 
ATOM      7  C   UNL     1      26.712   6.730   8.447  1.00  0.00    -0.063 C 
ATOM      8  C   UNL     1      26.377   7.627  10.791  1.00  0.00     0.044 C 
ATOM      9  C   UNL     1      24.470   4.133   7.338  1.00  0.00    -0.035 C 
ATOM     10  C   UNL     1      27.472   6.401   7.381  1.00  0.00    -0.027 C 
ATOM     11  C   UNL     1      27.291   7.704   9.514  1.00  0.00    -0.003 C 
ATOM     12  C   UNL     1      25.836   3.495   7.005  1.00  0.00     0.011 C 
ATOM     13  C   UNL     1      23.464   3.663   6.264  1.00  0.00     0.011 C 
ATOM     14  C   UNL     1      28.941   6.682   7.375  1.00  0.00     0.032 C 
ATOM     15  C   UNL     1      28.905   7.453   9.823  1.00  0.00    -0.020 C 
ATOM     16  C   UNL     1      27.021   9.121   8.901  1.00  0.00     0.017 C 
ATOM     17  C   UNL     1      29.494   6.418   8.794  1.00  0.00     0.006 C 
ATOM     18  C   UNL     1      29.230   6.885  11.267  1.00  0.00     0.008 C 
ATOM     19  C   UNL     1      29.682   8.810   9.721  1.00  0.00     0.012 C 
ATOM     20  C   UNL     1      31.062   6.093   8.886  1.00  0.00    -0.025 C 
ATOM     21  C   UNL     1      30.343   5.810  11.352  1.00  0.00     0.005 C 
ATOM     22  C   UNL     1      31.254   4.671   8.248  1.00  0.00     0.010 C 
ATOM     23  C   UNL     1      31.891   7.123   8.048  1.00  0.00     0.012 C 
ATOM     24  C   UNL     1      31.544   6.101  10.413  1.00  0.00     0.003 C 
ATOM     25  C   UNL     1      32.597   4.002   8.531  1.00  0.00     0.033 C 
ATOM     26  C   UNL     1      32.856   5.253  10.739  1.00  0.00    -0.006 C 
ATOM     27  C   UNL     1      32.840   3.869  10.034  1.00  0.00     0.120 C 
ATOM     28  C   UNL     1      33.045   5.018  12.266  1.00  0.00     0.014 C 
ATOM     29  C   UNL     1      34.124   6.046  10.309  1.00  0.00     0.014 C 
ENDROOT
BRANCH   1  30
ATOM     30  C   UNL     1      23.405   6.290  10.249  1.00  0.00     0.051 C 
ATOM     31  O   UNL     1      22.719   5.806  11.191  1.00  0.00    -0.549 OA
ATOM     32  O   UNL     1      22.649   5.758  11.284  1.00  0.00    -0.549 OA
ENDBRANCH   1  30
BRANCH   4  33
ATOM     33  O   UNL     1      25.254   6.155  12.324  1.00  0.00    -0.392 OA
ATOM     34  H   UNL     1      25.851   5.595  12.884  1.00  0.00     0.210 HD
ENDBRANCH   4  33
BRANCH  27  35
ATOM     35  O   UNL     1      31.852   3.041  10.601  1.00  0.00    -0.393 OA
ATOM     36  H   UNL     1      32.313   2.233  10.947  1.00  0.00     0.210 HD
ENDBRANCH  27  35
TORSDOF 3
ENDMDL
MODEL 2
REMARK VINA RESULT:    -6.267      1.873      7.516
REMARK INTER + INTRA:          -7.262
REMARK INTER:                  -7.021
REMARK INTRA:                  -0.242
REMARK UNBOUND:                -0.263
REMARK SMILES CC1(C)CC[C@@]2(C(=O)[O-])[C@H](O)C[C@]3(C)C(=CC[C@H]4[C@]5(C)CC[C@H](O)C(C)(C)[C@@H]5CC[C@@]43C)[C@H]2C1
REMARK SMILES IDX 6 1 5 2 33 3 10 4 4 5 34 6 15 7 12 8 2 9 16 10 13 11 1 12
REMARK SMILES IDX 3 13 17 14 31 15 14 16 18 17 30 18 32 19 19 20 29 21 21 22
REMARK SMILES IDX 20 23 28 24 22 25 25 26 23 27 26 28 27 29 7 30 8 31 9 32
REMARK SMILES IDX 11 33 24 35
REMARK H PARENT 11 34 24 36
REMARK Flexibility Score: inf
ROOT
ATOM      1  C   UNL     1      31.050   5.206   8.208  1.00  0.00     0.042 C 
ATOM      2  C   UNL     1      31.081   3.879   9.023  1.00  0.00     0.017 C 
ATOM      3  C   UNL     1      30.943   6.453   9.166  1.00  0.00     0.030 C 
ATOM      4  C   UNL     1      29.811   5.148   7.244  1.00  0.00     0.127 C 
ATOM      5  C   UNL     1      32.151   3.866  10.116  1.00  0.00     0.007 C 
ATOM      6  C   UNL     1      31.876   6.366  10.416  1.00  0.00     0.015 C 
ATOM      7  C   UNL     1      29.491   6.939   9.357  1.00  0.00    -0.063 C 
ATOM      8  C   UNL     1      29.306   6.557   6.862  1.00  0.00     0.044 C 
ATOM      9  C   UNL     1      31.945   4.995  11.147  1.00  0.00    -0.035 C 
ATOM     10  C   UNL     1      28.980   7.240  10.571  1.00  0.00    -0.027 C 
ATOM     11  C   UNL     1      28.686   7.328   8.084  1.00  0.00    -0.003 C 
ATOM     12  C   UNL     1      30.689   4.732  12.006  1.00  0.00     0.011 C 
ATOM     13  C   UNL     1      33.163   5.007  12.097  1.00  0.00     0.011 C 
ATOM     14  C   UNL     1      27.544   7.629  10.720  1.00  0.00     0.032 C 
ATOM     15  C   UNL     1      27.047   7.117   8.255  1.00  0.00    -0.020 C 
ATOM     16  C   UNL     1      29.067   8.832   7.856  1.00  0.00     0.017 C 
ATOM     17  C   UNL     1      26.702   6.769   9.750  1.00  0.00     0.006 C 
ATOM     18  C   UNL     1      26.425   5.957   7.369  1.00  0.00     0.008 C 
ATOM     19  C   UNL     1      26.295   8.422   7.823  1.00  0.00     0.012 C 
ATOM     20  C   UNL     1      25.155   6.593  10.133  1.00  0.00    -0.025 C 
ATOM     21  C   UNL     1      25.330   5.088   8.040  1.00  0.00     0.005 C 
ATOM     22  C   UNL     1      25.119   5.681  11.411  1.00  0.00     0.010 C 
ATOM     23  C   UNL     1      24.514   7.974  10.497  1.00  0.00     0.012 C 
ATOM     24  C   UNL     1      24.356   5.910   8.925  1.00  0.00     0.003 C 
ATOM     25  C   UNL     1      23.753   5.092  11.757  1.00  0.00     0.033 C 
ATOM     26  C   UNL     1      23.014   5.142   9.316  1.00  0.00    -0.006 C 
ATOM     27  C   UNL     1      23.195   4.275  10.592  1.00  0.00     0.120 C 
ATOM     28  C   UNL     1      22.504   4.219   8.171  1.00  0.00     0.014 C 
ATOM     29  C   UNL     1      21.859   6.162   9.534  1.00  0.00     0.014 C 
ENDROOT
BRANCH   1  30
ATOM     30  C   UNL     1      32.338   5.367   7.410  1.00  0.00     0.051 C 
ATOM     31  O   UNL     1      32.751   4.467   6.628  1.00  0.00    -0.549 OA
ATOM     32  O   UNL     1      32.795   4.378   6.550  1.00  0.00    -0.549 OA
ENDBRANCH   1  30
BRANCH   4  33
ATOM     33  O   UNL     1      30.089   4.427   6.068  1.00  0.00    -0.392 OA
ATOM     34  H   UNL     1      29.518   3.617   6.080  1.00  0.00     0.210 HD
ENDBRANCH   4  33
BRANCH  27  35
ATOM     35  O   UNL     1      24.047   3.185  10.328  1.00  0.00    -0.393 OA
ATOM     36  H   UNL     1      24.714   3.153  11.063  1.00  0.00     0.210 HD
ENDBRANCH  27  35
TORSDOF 3
ENDMDL
MODEL 3
REMARK VINA RESULT:    -6.168      2.136      7.471
REMARK INTER + INTRA:          -7.152
REMARK INTER:                  -6.888
REMARK INTRA:                  -0.263
REMARK UNBOUND:                -0.263
REMARK SMILES CC1(C)CC[C@@]2(C(=O)[O-])[C@H](O)C[C@]3(C)C(=CC[C@H]4[C@]5(C)CC[C@H](O)C(C)(C)[C@@H]5CC[C@@]43C)[C@H]2C1
REMARK SMILES IDX 6 1 5 2 33 3 10 4 4 5 34 6 15 7 12 8 2 9 16 10 13 11 1 12
REMARK SMILES IDX 3 13 17 14 31 15 14 16 18 17 30 18 32 19 19 20 29 21 21 22
REMARK SMILES IDX 20 23 28 24 22 25 25 26 23 27 26 28 27 29 7 30 8 31 9 32
REMARK SMILES IDX 11 33 24 35
REMARK H PARENT 11 34 24 36
REMARK Flexibility Score: inf
ROOT
ATOM      1  C   UNL     1      32.307   4.684  11.074  1.00  0.00     0.042 C 
ATOM      2  C   UNL     1      31.291   3.911  11.966  1.00  0.00     0.017 C 
ATOM      3  C   UNL     1      32.169   6.240  11.281  1.00  0.00     0.030 C 
ATOM      4  C   UNL     1      32.020   4.303   9.577  1.00  0.00     0.127 C 
ATOM      5  C   UNL     1      31.355   4.309  13.441  1.00  0.00     0.007 C 
ATOM      6  C   UNL     1      32.015   6.663  12.777  1.00  0.00     0.015 C 
ATOM      7  C   UNL     1      31.262   6.907  10.226  1.00  0.00    -0.063 C 
ATOM      8  C   UNL     1      32.486   5.403   8.598  1.00  0.00     0.044 C 
ATOM      9  C   UNL     1      31.057   5.808  13.654  1.00  0.00    -0.035 C 
ATOM     10  C   UNL     1      30.305   7.802  10.553  1.00  0.00    -0.027 C 
ATOM     11  C   UNL     1      31.642   6.724   8.728  1.00  0.00    -0.003 C 
ATOM     12  C   UNL     1      29.573   6.119  13.363  1.00  0.00     0.011 C 
ATOM     13  C   UNL     1      31.319   6.144  15.139  1.00  0.00     0.011 C 
ATOM     14  C   UNL     1      29.394   8.362   9.506  1.00  0.00     0.032 C 
ATOM     15  C   UNL     1      30.333   6.792   7.707  1.00  0.00    -0.020 C 
ATOM     16  C   UNL     1      32.658   7.887   8.463  1.00  0.00     0.017 C 
ATOM     17  C   UNL     1      29.051   7.237   8.504  1.00  0.00     0.006 C 
ATOM     18  C   UNL     1      29.965   5.422   6.996  1.00  0.00     0.008 C 
ATOM     19  C   UNL     1      30.617   7.803   6.544  1.00  0.00     0.012 C 
ATOM     20  C   UNL     1      27.692   7.427   7.676  1.00  0.00    -0.025 C 
ATOM     21  C   UNL     1      28.456   5.097   6.861  1.00  0.00     0.005 C 
ATOM     22  C   UNL     1      26.520   7.244   8.705  1.00  0.00     0.010 C 
ATOM     23  C   UNL     1      27.603   8.873   7.082  1.00  0.00     0.012 C 
ATOM     24  C   UNL     1      27.595   6.339   6.506  1.00  0.00     0.003 C 
ATOM     25  C   UNL     1      25.136   7.038   8.093  1.00  0.00     0.033 C 
ATOM     26  C   UNL     1      26.126   5.994   5.986  1.00  0.00    -0.006 C 
ATOM     27  C   UNL     1      25.123   5.827   7.160  1.00  0.00     0.120 C 
ATOM     28  C   UNL     1      26.090   4.696   5.129  1.00  0.00     0.014 C 
ATOM     29  C   UNL     1      25.626   7.110   5.023  1.00  0.00     0.014 C 
ENDROOT
BRANCH   1  30
ATOM     30  C   UNL     1      33.735   4.309  11.454  1.00  0.00     0.051 C 
ATOM     31  O   UNL     1      34.088   3.107  11.606  1.00  0.00    -0.549 OA
ATOM     32  O   UNL     1      34.125   2.988  11.622  1.00  0.00    -0.549 OA
ENDBRANCH   1  30
BRANCH   4  33
ATOM     33  O   UNL     1      32.624   3.084   9.216  1.00  0.00    -0.392 OA
ATOM     34  H   UNL     1      32.120   2.362   9.673  1.00  0.00     0.210 HD
ENDBRANCH   4  33
BRANCH  27  35
ATOM     35  O   UNL     1      25.415   4.661   7.894  1.00  0.00    -0.393 OA
ATOM     36  H   UNL     1      26.137   4.184   7.406  1.00  0.00     0.210 HD
ENDBRANCH  27  35
TORSDOF 3
ENDMDL
MODEL 4
REMARK VINA RESULT:    -5.965      4.864      9.722
REMARK INTER + INTRA:          -6.925
REMARK INTER:                  -6.703
REMARK INTRA:                  -0.221
REMARK UNBOUND:                -0.263
REMARK SMILES CC1(C)CC[C@@]2(C(=O)[O-])[C@H](O)C[C@]3(C)C(=CC[C@H]4[C@]5(C)CC[C@H](O)C(C)(C)[C@@H]5CC[C@@]43C)[C@H]2C1
REMARK SMILES IDX 6 1 5 2 33 3 10 4 4 5 34 6 15 7 12 8 2 9 16 10 13 11 1 12
REMARK SMILES IDX 3 13 17 14 31 15 14 16 18 17 30 18 32 19 19 20 29 21 21 22
REMARK SMILES IDX 20 23 28 24 22 25 25 26 23 27 26 28 27 29 7 30 8 31 9 32
REMARK SMILES IDX 11 33 24 35
REMARK H PARENT 11 34 24 36
REMARK Flexibility Score: inf
ROOT
ATOM      1  C   UNL     1      25.712   5.093   6.569  1.00  0.00     0.042 C 
ATOM      2  C   UNL     1      24.940   3.787   6.923  1.00  0.00     0.017 C 
ATOM      3  C   UNL     1      25.053   6.344   7.265  1.00  0.00     0.030 C 
ATOM      4  C   UNL     1      25.687   5.258   5.007  1.00  0.00     0.127 C 
ATOM      5  C   UNL     1      24.753   3.585   8.427  1.00  0.00     0.007 C 
ATOM      6  C   UNL     1      24.650   6.095   8.754  1.00  0.00     0.015 C 
ATOM      7  C   UNL     1      24.063   7.089   6.344  1.00  0.00    -0.063 C 
ATOM      8  C   UNL     1      25.840   6.734   4.576  1.00  0.00     0.044 C 
ATOM      9  C   UNL     1      23.961   4.739   9.077  1.00  0.00    -0.035 C 
ATOM     10  C   UNL     1      22.841   7.486   6.762  1.00  0.00    -0.027 C 
ATOM     11  C   UNL     1      24.599   7.612   4.981  1.00  0.00    -0.003 C 
ATOM     12  C   UNL     1      22.485   4.716   8.623  1.00  0.00     0.011 C 
ATOM     13  C   UNL     1      23.979   4.533  10.608  1.00  0.00     0.011 C 
ATOM     14  C   UNL     1      21.883   8.133   5.813  1.00  0.00     0.032 C 
ATOM     15  C   UNL     1      23.427   7.706   3.807  1.00  0.00    -0.020 C 
ATOM     16  C   UNL     1      25.193   9.019   5.336  1.00  0.00     0.017 C 
ATOM     17  C   UNL     1      22.011   7.436   4.439  1.00  0.00     0.006 C 
ATOM     18  C   UNL     1      23.589   6.675   2.613  1.00  0.00     0.008 C 
ATOM     19  C   UNL     1      23.453   9.125   3.142  1.00  0.00     0.012 C 
ATOM     20  C   UNL     1      20.735   7.549   3.475  1.00  0.00    -0.025 C 
ATOM     21  C   UNL     1      22.287   6.025   2.080  1.00  0.00     0.005 C 
ATOM     22  C   UNL     1      19.611   6.666   4.127  1.00  0.00     0.010 C 
ATOM     23  C   UNL     1      20.222   9.026   3.407  1.00  0.00     0.012 C 
ATOM     24  C   UNL     1      21.096   7.017   2.008  1.00  0.00     0.003 C 
ATOM     25  C   UNL     1      18.426   6.340   3.221  1.00  0.00     0.033 C 
ATOM     26  C   UNL     1      19.869   6.510   1.124  1.00  0.00    -0.006 C 
ATOM     27  C   UNL     1      18.887   5.632   1.947  1.00  0.00     0.120 C 
ATOM     28  C   UNL     1      20.330   5.690  -0.116  1.00  0.00     0.014 C 
ATOM     29  C   UNL     1      19.106   7.726   0.521  1.00  0.00     0.014 C 
ENDROOT
BRANCH   1  30
ATOM     30  C   UNL     1      27.149   5.011   7.071  1.00  0.00     0.051 C 
ATOM     31  O   UNL     1      27.916   4.066   6.737  1.00  0.00    -0.549 OA
ATOM     32  O   UNL     1      27.993   3.972   6.706  1.00  0.00    -0.549 OA
ENDBRANCH   1  30
BRANCH   4  33
ATOM     33  O   UNL     1      26.685   4.492   4.377  1.00  0.00    -0.392 OA
ATOM     34  H   UNL     1      26.229   3.886   3.738  1.00  0.00     0.210 HD
ENDBRANCH   4  33
BRANCH  27  35
ATOM     35  O   UNL     1      19.488   4.403   2.279  1.00  0.00    -0.393 OA
ATOM     36  H   UNL     1      18.764   3.724   2.314  1.00  0.00     0.210 HD
ENDBRANCH  27  35
TORSDOF 3
ENDMDL
MODEL 5
REMARK VINA RESULT:    -5.925      2.875      3.710
REMARK INTER + INTRA:          -6.880
REMARK INTER:                  -6.623
REMARK INTRA:                  -0.257
REMARK UNBOUND:                -0.263
REMARK SMILES CC1(C)CC[C@@]2(C(=O)[O-])[C@H](O)C[C@]3(C)C(=CC[C@H]4[C@]5(C)CC[C@H](O)C(C)(C)[C@@H]5CC[C@@]43C)[C@H]2C1
REMARK SMILES IDX 6 1 5 2 33 3 10 4 4 5 34 6 15 7 12 8 2 9 16 10 13 11 1 12
REMARK SMILES IDX 3 13 17 14 31 15 14 16 18 17 30 18 32 19 19 20 29 21 21 22
REMARK SMILES IDX 20 23 28 24 22 25 25 26 23 27 26 28 27 29 7 30 8 31 9 32
REMARK SMILES IDX 11 33 24 35
REMARK H PARENT 11 34 24 36
REMARK Flexibility Score: inf
ROOT
ATOM      1  C   UNL     1      25.396   6.237   5.994  1.00  0.00     0.042 C 
ATOM      2  C   UNL     1      25.859   5.490   4.708  1.00  0.00     0.017 C 
ATOM      3  C   UNL     1      25.760   7.769   5.918  1.00  0.00     0.030 C 
ATOM      4  C   UNL     1      26.109   5.566   7.223  1.00  0.00     0.127 C 
ATOM      5  C   UNL     1      25.361   6.142   3.418  1.00  0.00     0.007 C 
ATOM      6  C   UNL     1      25.459   8.417   4.529  1.00  0.00     0.015 C 
ATOM      7  C   UNL     1      27.093   8.104   6.619  1.00  0.00    -0.063 C 
ATOM      8  C   UNL     1      26.246   6.536   8.417  1.00  0.00     0.044 C 
ATOM      9  C   UNL     1      25.858   7.595   3.270  1.00  0.00    -0.035 C 
ATOM     10  C   UNL     1      28.032   8.893   6.053  1.00  0.00    -0.027 C 
ATOM     11  C   UNL     1      27.236   7.722   8.120  1.00  0.00    -0.003 C 
ATOM     12  C   UNL     1      27.379   7.632   3.012  1.00  0.00     0.011 C 
ATOM     13  C   UNL     1      25.163   8.218   2.038  1.00  0.00     0.011 C 
ATOM     14  C   UNL     1      29.345   9.125   6.733  1.00  0.00     0.032 C 
ATOM     15  C   UNL     1      28.806   7.421   8.574  1.00  0.00    -0.020 C 
ATOM     16  C   UNL     1      26.631   8.958   8.871  1.00  0.00     0.017 C 
ATOM     17  C   UNL     1      29.787   7.806   7.406  1.00  0.00     0.006 C 
ATOM     18  C   UNL     1      29.119   5.910   8.944  1.00  0.00     0.008 C 
ATOM     19  C   UNL     1      29.155   8.248   9.859  1.00  0.00     0.012 C 
ATOM     20  C   UNL     1      31.359   7.650   7.676  1.00  0.00    -0.025 C 
ATOM     21  C   UNL     1      30.482   5.351   8.465  1.00  0.00     0.005 C 
ATOM     22  C   UNL     1      32.033   7.479   6.267  1.00  0.00     0.010 C 
ATOM     23  C   UNL     1      31.937   8.943   8.343  1.00  0.00     0.012 C 
ATOM     24  C   UNL     1      31.642   6.373   8.600  1.00  0.00     0.003 C 
ATOM     25  C   UNL     1      33.473   6.970   6.288  1.00  0.00     0.033 C 
ATOM     26  C   UNL     1      33.100   5.734   8.488  1.00  0.00    -0.006 C 
ATOM     27  C   UNL     1      33.572   5.628   7.012  1.00  0.00     0.120 C 
ATOM     28  C   UNL     1      33.176   4.316   9.125  1.00  0.00     0.014 C 
ATOM     29  C   UNL     1      34.118   6.582   9.305  1.00  0.00     0.014 C 
ENDROOT
BRANCH   1  30
ATOM     30  C   UNL     1      23.882   6.146   6.143  1.00  0.00     0.051 C 
ATOM     31  O   UNL     1      23.264   5.058   5.980  1.00  0.00    -0.549 OA
ATOM     32  O   UNL     1      23.200   4.950   5.964  1.00  0.00    -0.549 OA
ENDBRANCH   1  30
BRANCH   4  33
ATOM     33  O   UNL     1      25.441   4.404   7.653  1.00  0.00    -0.392 OA
ATOM     34  H   UNL     1      25.158   4.559   8.590  1.00  0.00     0.210 HD
ENDBRANCH   4  33
BRANCH  27  35
ATOM     35  O   UNL     1      32.814   4.662   6.323  1.00  0.00    -0.393 OA
ATOM     36  H   UNL     1      33.458   4.028   5.910  1.00  0.00     0.210 HD
ENDBRANCH  27  35
TORSDOF 3
ENDMDL
MODEL 6
REMARK VINA RESULT:    -5.679      4.019      7.432
REMARK INTER + INTRA:          -6.605
REMARK INTER:                  -6.340
REMARK INTRA:                  -0.265
REMARK UNBOUND:                -0.263
REMARK SMILES CC1(C)CC[C@@]2(C(=O)[O-])[C@H](O)C[C@]3(C)C(=CC[C@H]4[C@]5(C)CC[C@H](O)C(C)(C)[C@@H]5CC[C@@]43C)[C@H]2C1
REMARK SMILES IDX 6 1 5 2 33 3 10 4 4 5 34 6 15 7 12 8 2 9 16 10 13 11 1 12
REMARK SMILES IDX 3 13 17 14 31 15 14 16 18 17 30 18 32 19 19 20 29 21 21 22
REMARK SMILES IDX 20 23 28 24 22 25 25 26 23 27 26 28 27 29 7 30 8 31 9 32
REMARK SMILES IDX 11 33 24 35
REMARK H PARENT 11 34 24 36
REMARK Flexibility Score: inf
ROOT
ATOM      1  C   UNL     1      21.167   6.742   4.751  1.00  0.00     0.042 C 
ATOM      2  C   UNL     1      20.523   8.041   5.322  1.00  0.00     0.017 C 
ATOM      3  C   UNL     1      20.594   5.464   5.473  1.00  0.00     0.030 C 
ATOM      4  C   UNL     1      22.720   6.841   4.965  1.00  0.00     0.127 C 
ATOM      5  C   UNL     1      18.994   8.009   5.320  1.00  0.00     0.007 C 
ATOM      6  C   UNL     1      19.045   5.501   5.679  1.00  0.00     0.015 C 
ATOM      7  C   UNL     1      21.485   4.982   6.636  1.00  0.00    -0.063 C 
ATOM      8  C   UNL     1      23.388   5.450   5.033  1.00  0.00     0.044 C 
ATOM      9  C   UNL     1      18.434   6.846   6.166  1.00  0.00    -0.035 C 
ATOM     10  C   UNL     1      20.982   4.643   7.843  1.00  0.00    -0.027 C 
ATOM     11  C   UNL     1      22.969   4.642   6.316  1.00  0.00    -0.003 C 
ATOM     12  C   UNL     1      18.690   7.088   7.670  1.00  0.00     0.011 C 
ATOM     13  C   UNL     1      16.905   6.793   5.958  1.00  0.00     0.011 C 
ATOM     14  C   UNL     1      21.891   4.259   8.968  1.00  0.00     0.032 C 
ATOM     15  C   UNL     1      23.986   4.859   7.612  1.00  0.00    -0.020 C 
ATOM     16  C   UNL     1      22.911   3.145   5.856  1.00  0.00     0.017 C 
ATOM     17  C   UNL     1      23.147   5.158   8.910  1.00  0.00     0.006 C 
ATOM     18  C   UNL     1      25.019   6.053   7.461  1.00  0.00     0.008 C 
ATOM     19  C   UNL     1      24.858   3.574   7.824  1.00  0.00     0.012 C 
ATOM     20  C   UNL     1      23.949   5.331  10.287  1.00  0.00    -0.025 C 
ATOM     21  C   UNL     1      25.279   6.906   8.729  1.00  0.00     0.005 C 
ATOM     22  C   UNL     1      23.033   6.200  11.223  1.00  0.00     0.010 C 
ATOM     23  C   UNL     1      24.176   3.943  10.974  1.00  0.00     0.012 C 
ATOM     24  C   UNL     1      25.350   6.061  10.028  1.00  0.00     0.003 C 
ATOM     25  C   UNL     1      23.722   6.786  12.453  1.00  0.00     0.033 C 
ATOM     26  C   UNL     1      25.985   6.825  11.277  1.00  0.00    -0.006 C 
ATOM     27  C   UNL     1      24.921   7.646  12.054  1.00  0.00     0.120 C 
ATOM     28  C   UNL     1      27.133   7.790  10.860  1.00  0.00     0.014 C 
ATOM     29  C   UNL     1      26.666   5.805  12.237  1.00  0.00     0.014 C 
ENDROOT
BRANCH   1  30
ATOM     30  C   UNL     1      20.843   6.600   3.269  1.00  0.00     0.051 C 
ATOM     31  O   UNL     1      20.993   7.558   2.461  1.00  0.00    -0.549 OA
ATOM     32  O   UNL     1      21.007   7.653   2.379  1.00  0.00    -0.549 OA
ENDBRANCH   1  30
BRANCH   4  33
ATOM     33  O   UNL     1      23.346   7.600   3.959  1.00  0.00    -0.392 OA
ATOM     34  H   UNL     1      23.322   8.548   4.250  1.00  0.00     0.210 HD
ENDBRANCH   4  33
BRANCH  27  35
ATOM     35  O   UNL     1      24.483   8.738  11.281  1.00  0.00    -0.393 OA
ATOM     36  H   UNL     1      23.503   8.632  11.156  1.00  0.00     0.210 HD
ENDBRANCH  27  35
TORSDOF 3
ENDMDL
MODEL 7
REMARK VINA RESULT:    -5.667      5.194      8.140
REMARK INTER + INTRA:          -6.592
REMARK INTER:                  -6.371
REMARK INTRA:                  -0.221
REMARK UNBOUND:                -0.263
REMARK SMILES CC1(C)CC[C@@]2(C(=O)[O-])[C@H](O)C[C@]3(C)C(=CC[C@H]4[C@]5(C)CC[C@H](O)C(C)(C)[C@@H]5CC[C@@]43C)[C@H]2C1
REMARK SMILES IDX 6 1 5 2 33 3 10 4 4 5 34 6 15 7 12 8 2 9 16 10 13 11 1 12
REMARK SMILES IDX 3 13 17 14 31 15 14 16 18 17 30 18 32 19 19 20 29 21 21 22
REMARK SMILES IDX 20 23 28 24 22 25 25 26 23 27 26 28 27 29 7 30 8 31 9 32
REMARK SMILES IDX 11 33 24 35
REMARK H PARENT 11 34 24 36
REMARK Flexibility Score: inf
ROOT
ATOM      1  C   UNL     1      20.485   5.198   2.510  1.00  0.00     0.042 C 
ATOM      2  C   UNL     1      21.326   5.752   1.321  1.00  0.00     0.017 C 
ATOM      3  C   UNL     1      20.012   6.364   3.458  1.00  0.00     0.030 C 
ATOM      4  C   UNL     1      21.383   4.180   3.300  1.00  0.00     0.127 C 
ATOM      5  C   UNL     1      20.624   6.875   0.556  1.00  0.00     0.007 C 
ATOM      6  C   UNL     1      19.486   7.621   2.693  1.00  0.00     0.015 C 
ATOM      7  C   UNL     1      20.948   6.571   4.667  1.00  0.00    -0.063 C 
ATOM      8  C   UNL     1      20.945   4.042   4.775  1.00  0.00     0.044 C 
ATOM      9  C   UNL     1      20.309   8.087   1.458  1.00  0.00    -0.035 C 
ATOM     10  C   UNL     1      21.373   7.793   5.055  1.00  0.00    -0.027 C 
ATOM     11  C   UNL     1      21.197   5.355   5.604  1.00  0.00    -0.003 C 
ATOM     12  C   UNL     1      21.605   8.818   1.868  1.00  0.00     0.011 C 
ATOM     13  C   UNL     1      19.451   9.081   0.645  1.00  0.00     0.011 C 
ATOM     14  C   UNL     1      22.345   7.941   6.183  1.00  0.00     0.032 C 
ATOM     15  C   UNL     1      22.674   5.402   6.363  1.00  0.00    -0.020 C 
ATOM     16  C   UNL     1      20.008   5.429   6.624  1.00  0.00     0.017 C 
ATOM     17  C   UNL     1      23.371   6.787   6.097  1.00  0.00     0.006 C 
ATOM     18  C   UNL     1      23.702   4.287   5.898  1.00  0.00     0.008 C 
ATOM     19  C   UNL     1      22.488   5.184   7.904  1.00  0.00     0.012 C 
ATOM     20  C   UNL     1      24.785   7.054   6.804  1.00  0.00    -0.025 C 
ATOM     21  C   UNL     1      25.180   4.729   5.749  1.00  0.00     0.005 C 
ATOM     22  C   UNL     1      25.516   8.137   5.932  1.00  0.00     0.010 C 
ATOM     23  C   UNL     1      24.583   7.637   8.243  1.00  0.00     0.012 C 
ATOM     24  C   UNL     1      25.640   5.702   6.866  1.00  0.00     0.003 C 
ATOM     25  C   UNL     1      27.009   8.300   6.206  1.00  0.00     0.033 C 
ATOM     26  C   UNL     1      27.223   5.877   6.977  1.00  0.00    -0.006 C 
ATOM     27  C   UNL     1      27.751   6.977   6.015  1.00  0.00     0.120 C 
ATOM     28  C   UNL     1      27.988   4.557   6.670  1.00  0.00     0.014 C 
ATOM     29  C   UNL     1      27.621   6.225   8.441  1.00  0.00     0.014 C 
ENDROOT
BRANCH   1  30
ATOM     30  C   UNL     1      19.229   4.508   1.992  1.00  0.00     0.051 C 
ATOM     31  O   UNL     1      19.286   3.567   1.153  1.00  0.00    -0.549 OA
ATOM     32  O   UNL     1      19.290   3.473   1.069  1.00  0.00    -0.549 OA
ENDBRANCH   1  30
BRANCH   4  33
ATOM     33  O   UNL     1      21.389   2.905   2.704  1.00  0.00    -0.392 OA
ATOM     34  H   UNL     1      21.911   2.307   3.298  1.00  0.00     0.210 HD
ENDBRANCH   4  33
BRANCH  27  35
ATOM     35  O   UNL     1      27.632   6.557   4.677  1.00  0.00    -0.393 OA
ATOM     36  H   UNL     1      27.299   5.621   4.694  1.00  0.00     0.210 HD
ENDBRANCH  27  35
TORSDOF 3
ENDMDL
MODEL 8
REMARK VINA RESULT:    -5.646      3.774      7.223
REMARK INTER + INTRA:          -6.569
REMARK INTER:                  -6.318
REMARK INTRA:                  -0.251
REMARK UNBOUND:                -0.263
REMARK SMILES CC1(C)CC[C@@]2(C(=O)[O-])[C@H](O)C[C@]3(C)C(=CC[C@H]4[C@]5(C)CC[C@H](O)C(C)(C)[C@@H]5CC[C@@]43C)[C@H]2C1
REMARK SMILES IDX 6 1 5 2 33 3 10 4 4 5 34 6 15 7 12 8 2 9 16 10 13 11 1 12
REMARK SMILES IDX 3 13 17 14 31 15 14 16 18 17 30 18 32 19 19 20 29 21 21 22
REMARK SMILES IDX 20 23 28 24 22 25 25 26 23 27 26 28 27 29 7 30 8 31 9 32
REMARK SMILES IDX 11 33 24 35
REMARK H PARENT 11 34 24 36
REMARK Flexibility Score: inf
ROOT
ATOM      1  C   UNL     1      30.351   5.331  15.828  1.00  0.00     0.042 C 
ATOM      2  C   UNL     1      28.806   5.204  15.668  1.00  0.00     0.017 C 
ATOM      3  C   UNL     1      30.794   6.844  15.837  1.00  0.00     0.030 C 
ATOM      4  C   UNL     1      31.023   4.570  14.629  1.00  0.00     0.127 C 
ATOM      5  C   UNL     1      28.023   6.033  16.686  1.00  0.00     0.007 C 
ATOM      6  C   UNL     1      29.875   7.762  16.704  1.00  0.00     0.015 C 
ATOM      7  C   UNL     1      31.243   7.344  14.448  1.00  0.00    -0.063 C 
ATOM      8  C   UNL     1      32.434   5.114  14.313  1.00  0.00     0.044 C 
ATOM      9  C   UNL     1      28.341   7.540  16.579  1.00  0.00    -0.035 C 
ATOM     10  C   UNL     1      30.828   8.522  13.932  1.00  0.00    -0.027 C 
ATOM     11  C   UNL     1      32.401   6.581  13.745  1.00  0.00    -0.003 C 
ATOM     12  C   UNL     1      27.775   8.128  15.269  1.00  0.00     0.011 C 
ATOM     13  C   UNL     1      27.643   8.263  17.753  1.00  0.00     0.011 C 
ATOM     14  C   UNL     1      31.223   8.930  12.548  1.00  0.00     0.032 C 
ATOM     15  C   UNL     1      32.329   6.661  12.086  1.00  0.00    -0.020 C 
ATOM     16  C   UNL     1      33.691   7.268  14.313  1.00  0.00     0.017 C 
ATOM     17  C   UNL     1      31.210   7.675  11.646  1.00  0.00     0.006 C 
ATOM     18  C   UNL     1      32.000   5.288  11.363  1.00  0.00     0.008 C 
ATOM     19  C   UNL     1      33.716   7.114  11.515  1.00  0.00     0.012 C 
ATOM     20  C   UNL     1      31.029   7.943  10.076  1.00  0.00    -0.025 C 
ATOM     21  C   UNL     1      31.042   5.361  10.147  1.00  0.00     0.005 C 
ATOM     22  C   UNL     1      29.550   8.437   9.881  1.00  0.00     0.010 C 
ATOM     23  C   UNL     1      31.993   9.078   9.593  1.00  0.00     0.012 C 
ATOM     24  C   UNL     1      31.293   6.599   9.247  1.00  0.00     0.003 C 
ATOM     25  C   UNL     1      29.040   8.425   8.442  1.00  0.00     0.033 C 
ATOM     26  C   UNL     1      30.609   6.516   7.807  1.00  0.00    -0.006 C 
ATOM     27  C   UNL     1      29.142   7.026   7.834  1.00  0.00     0.120 C 
ATOM     28  C   UNL     1      30.609   5.070   7.233  1.00  0.00     0.014 C 
ATOM     29  C   UNL     1      31.433   7.342   6.777  1.00  0.00     0.014 C 
ENDROOT
BRANCH   1  30
ATOM     30  C   UNL     1      30.796   4.729  17.156  1.00  0.00     0.051 C 
ATOM     31  O   UNL     1      30.466   3.561  17.499  1.00  0.00    -0.549 OA
ATOM     32  O   UNL     1      30.434   3.444  17.535  1.00  0.00    -0.549 OA
ENDBRANCH   1  30
BRANCH   4  33
ATOM     33  O   UNL     1      31.108   3.185  14.862  1.00  0.00    -0.392 OA
ATOM     34  H   UNL     1      30.490   2.976  15.609  1.00  0.00     0.210 HD
ENDBRANCH   4  33
BRANCH  27  35
ATOM     35  O   UNL     1      28.326   6.135   8.557  1.00  0.00    -0.393 OA
ATOM     36  H   UNL     1      28.213   5.324   7.996  1.00  0.00     0.210 HD
ENDBRANCH  27  35
TORSDOF 3
ENDMDL
MODEL 9
REMARK VINA RESULT:    -5.637      5.066      9.033
REMARK INTER + INTRA:          -6.559
REMARK INTER:                  -6.325
REMARK INTRA:                  -0.234
REMARK UNBOUND:                -0.263
REMARK SMILES CC1(C)CC[C@@]2(C(=O)[O-])[C@H](O)C[C@]3(C)C(=CC[C@H]4[C@]5(C)CC[C@H](O)C(C)(C)[C@@H]5CC[C@@]43C)[C@H]2C1
REMARK SMILES IDX 6 1 5 2 33 3 10 4 4 5 34 6 15 7 12 8 2 9 16 10 13 11 1 12
REMARK SMILES IDX 3 13 17 14 31 15 14 16 18 17 30 18 32 19 19 20 29 21 21 22
REMARK SMILES IDX 20 23 28 24 22 25 25 26 23 27 26 28 27 29 7 30 8 31 9 32
REMARK SMILES IDX 11 33 24 35
REMARK H PARENT 11 34 24 36
REMARK Flexibility Score: inf
ROOT
ATOM      1  C   UNL     1      21.847   7.201  10.617  1.00  0.00     0.042 C 
ATOM      2  C   UNL     1      23.248   7.866  10.472  1.00  0.00     0.017 C 
ATOM      3  C   UNL     1      21.918   5.660  10.294  1.00  0.00     0.030 C 
ATOM      4  C   UNL     1      20.866   7.924   9.625  1.00  0.00     0.127 C 
ATOM      5  C   UNL     1      24.341   7.155  11.271  1.00  0.00     0.007 C 
ATOM      6  C   UNL     1      23.154   4.943  10.925  1.00  0.00     0.015 C 
ATOM      7  C   UNL     1      21.539   5.336   8.834  1.00  0.00    -0.063 C 
ATOM      8  C   UNL     1      19.685   7.017   9.212  1.00  0.00     0.044 C 
ATOM      9  C   UNL     1      24.518   5.685  10.835  1.00  0.00    -0.035 C 
ATOM     10  C   UNL     1      22.267   4.497   8.064  1.00  0.00    -0.027 C 
ATOM     11  C   UNL     1      20.141   5.796   8.331  1.00  0.00    -0.003 C 
ATOM     12  C   UNL     1      25.131   5.602   9.421  1.00  0.00     0.011 C 
ATOM     13  C   UNL     1      25.508   5.011  11.810  1.00  0.00     0.011 C 
ATOM     14  C   UNL     1      21.909   4.274   6.629  1.00  0.00     0.032 C 
ATOM     15  C   UNL     1      20.095   6.088   6.696  1.00  0.00    -0.020 C 
ATOM     16  C   UNL     1      19.195   4.617   8.747  1.00  0.00     0.017 C 
ATOM     17  C   UNL     1      21.440   5.619   6.028  1.00  0.00     0.006 C 
ATOM     18  C   UNL     1      19.901   7.610   6.292  1.00  0.00     0.008 C 
ATOM     19  C   UNL     1      18.885   5.327   6.054  1.00  0.00     0.012 C 
ATOM     20  C   UNL     1      21.564   5.756   4.436  1.00  0.00    -0.025 C 
ATOM     21  C   UNL     1      20.724   8.113   5.080  1.00  0.00     0.005 C 
ATOM     22  C   UNL     1      23.101   5.835   4.119  1.00  0.00     0.010 C 
ATOM     23  C   UNL     1      20.981   4.489   3.724  1.00  0.00     0.012 C 
ATOM     24  C   UNL     1      20.812   7.075   3.929  1.00  0.00     0.003 C 
ATOM     25  C   UNL     1      23.457   6.313   2.713  1.00  0.00     0.033 C 
ATOM     26  C   UNL     1      21.307   7.676   2.537  1.00  0.00    -0.006 C 
ATOM     27  C   UNL     1      22.857   7.691   2.433  1.00  0.00     0.120 C 
ATOM     28  C   UNL     1      20.791   9.125   2.299  1.00  0.00     0.014 C 
ATOM     29  C   UNL     1      20.710   6.854   1.358  1.00  0.00     0.014 C 
ENDROOT
BRANCH   1  30
ATOM     30  C   UNL     1      21.345   7.333  12.050  1.00  0.00     0.051 C 
ATOM     31  O   UNL     1      21.267   8.453  12.626  1.00  0.00    -0.549 OA
ATOM     32  O   UNL     1      21.259   8.563  12.686  1.00  0.00    -0.549 OA
ENDBRANCH   1  30
BRANCH   4  33
ATOM     33  O   UNL     1      20.358   9.121  10.161  1.00  0.00    -0.392 OA
ATOM     34  H   UNL     1      21.128   9.732  10.295  1.00  0.00     0.210 HD
ENDBRANCH   4  33
BRANCH  27  35
ATOM     35  O   UNL     1      23.400   8.634   3.327  1.00  0.00    -0.393 OA
ATOM     36  H   UNL     1      24.162   9.070   2.862  1.00  0.00     0.210 HD
ENDBRANCH  27  35
TORSDOF 3
ENDMDL
