MODEL 1
REMARK VINA RESULT:    -7.255      0.000      0.000
REMARK INTER + INTRA:          -8.840
REMARK INTER:                  -8.528
REMARK INTRA:                  -0.313
REMARK UNBOUND:                -0.313
REMARK SMILES O=c1cc(-c2ccc(O)c(O)c2)oc2cc(O)cc(O)c12
REMARK SMILES IDX 4 1 3 2 2 3 1 4 21 5 19 6 18 7 16 8 15 9 14 10 13 11 5 12
REMARK SMILES IDX 6 13 7 14 8 15 12 16 10 17 9 18 11 20 20 22 17 24
REMARK H PARENT 9 19 11 21 20 23 17 25
REMARK Flexibility Score: inf
ROOT
ATOM      1  C   UNL     1     -12.611 -34.392  32.733  1.00  0.00     0.138 A 
ATOM      2  C   UNL     1     -12.250 -34.765  31.431  1.00  0.00     0.100 A 
ATOM      3  C   UNL     1     -12.429 -36.087  31.017  1.00  0.00     0.197 A 
ATOM      4  O   UNL     1     -12.039 -36.405  29.865  1.00  0.00    -0.289 OA
ATOM      5  C   UNL     1     -13.001 -37.030  31.903  1.00  0.00     0.107 A 
ATOM      6  C   UNL     1     -13.268 -38.393  31.576  1.00  0.00     0.134 A 
ATOM      7  C   UNL     1     -13.729 -39.264  32.572  1.00  0.00     0.093 A 
ATOM      8  C   UNL     1     -13.989 -38.808  33.864  1.00  0.00     0.123 A 
ATOM      9  C   UNL     1     -13.783 -37.465  34.180  1.00  0.00     0.094 A 
ATOM     10  C   UNL     1     -13.292 -36.578  33.219  1.00  0.00     0.146 A 
ATOM     11  O   UNL     1     -13.095 -35.311  33.563  1.00  0.00    -0.456 OA
ENDROOT
BRANCH   1  12
ATOM     12  C   UNL     1     -12.443 -33.002  33.225  1.00  0.00     0.021 A 
ATOM     13  C   UNL     1     -12.309 -31.952  32.298  1.00  0.00     0.016 A 
ATOM     14  C   UNL     1     -12.143 -30.636  32.734  1.00  0.00     0.051 A 
ATOM     15  C   UNL     1     -12.095 -30.347  34.104  1.00  0.00     0.157 A 
ATOM     16  C   UNL     1     -12.382 -32.704  34.600  1.00  0.00     0.062 A 
ATOM     17  C   UNL     1     -12.212 -31.382  35.038  1.00  0.00     0.158 A 
BRANCH  15  18
ATOM     18  O   UNL     1     -11.930 -29.034  34.543  1.00  0.00    -0.504 OA
ATOM     19  H   UNL     1     -11.127 -28.757  35.096  1.00  0.00     0.293 HD
ENDBRANCH  15  18
BRANCH  17  20
ATOM     20  O   UNL     1     -12.154 -31.092  36.400  1.00  0.00    -0.504 OA
ATOM     21  H   UNL     1     -12.841 -30.495  36.845  1.00  0.00     0.293 HD
ENDBRANCH  17  20
ENDBRANCH   1  12
BRANCH   6  22
ATOM     22  O   UNL     1     -13.123 -38.932  30.295  1.00  0.00    -0.507 OA
ATOM     23  H   UNL     1     -13.747 -38.760  29.523  1.00  0.00     0.293 HD
ENDBRANCH   6  22
BRANCH   8  24
ATOM     24  O   UNL     1     -14.462 -39.699  34.826  1.00  0.00    -0.508 OA
ATOM     25  H   UNL     1     -14.909 -39.375  35.675  1.00  0.00     0.293 HD
ENDBRANCH   8  24
TORSDOF 5
ENDMDL
MODEL 2
REMARK VINA RESULT:    -7.173      1.091      2.671
REMARK INTER + INTRA:          -8.743
REMARK INTER:                  -8.452
REMARK INTRA:                  -0.291
REMARK UNBOUND:                -0.313
REMARK SMILES O=c1cc(-c2ccc(O)c(O)c2)oc2cc(O)cc(O)c12
REMARK SMILES IDX 4 1 3 2 2 3 1 4 21 5 19 6 18 7 16 8 15 9 14 10 13 11 5 12
REMARK SMILES IDX 6 13 7 14 8 15 12 16 10 17 9 18 11 20 20 22 17 24
REMARK H PARENT 9 19 11 21 20 23 17 25
REMARK Flexibility Score: inf
ROOT
ATOM      1  C   UNL     1     -12.778 -34.431  33.836  1.00  0.00     0.138 A 
ATOM      2  C   UNL     1     -13.403 -35.225  34.808  1.00  0.00     0.100 A 
ATOM      3  C   UNL     1     -13.619 -36.581  34.557  1.00  0.00     0.197 A 
ATOM      4  O   UNL     1     -14.237 -37.253  35.422  1.00  0.00    -0.289 OA
ATOM      5  C   UNL     1     -13.177 -37.150  33.339  1.00  0.00     0.107 A 
ATOM      6  C   UNL     1     -13.306 -38.528  32.993  1.00  0.00     0.134 A 
ATOM      7  C   UNL     1     -12.937 -38.955  31.710  1.00  0.00     0.093 A 
ATOM      8  C   UNL     1     -12.390 -38.067  30.786  1.00  0.00     0.123 A 
ATOM      9  C   UNL     1     -12.209 -36.727  31.133  1.00  0.00     0.094 A 
ATOM     10  C   UNL     1     -12.598 -36.264  32.391  1.00  0.00     0.146 A 
ATOM     11  O   UNL     1     -12.423 -34.979  32.678  1.00  0.00    -0.456 OA
ENDROOT
BRANCH   1  12
ATOM     12  C   UNL     1     -12.524 -32.984  34.051  1.00  0.00     0.021 A 
ATOM     13  C   UNL     1     -12.366 -32.137  32.940  1.00  0.00     0.016 A 
ATOM     14  C   UNL     1     -12.118 -30.774  33.114  1.00  0.00     0.051 A 
ATOM     15  C   UNL     1     -12.013 -30.235  34.403  1.00  0.00     0.157 A 
ATOM     16  C   UNL     1     -12.404 -32.438  35.343  1.00  0.00     0.062 A 
ATOM     17  C   UNL     1     -12.153 -31.068  35.519  1.00  0.00     0.158 A 
BRANCH  15  18
ATOM     18  O   UNL     1     -11.767 -28.875  34.581  1.00  0.00    -0.504 OA
ATOM     19  H   UNL     1     -11.427 -28.293  33.824  1.00  0.00     0.293 HD
ENDBRANCH  15  18
BRANCH  17  20
ATOM     20  O   UNL     1     -12.037 -30.531  36.800  1.00  0.00    -0.504 OA
ATOM     21  H   UNL     1     -12.450 -29.637  37.040  1.00  0.00     0.293 HD
ENDBRANCH  17  20
ENDBRANCH   1  12
BRANCH   6  22
ATOM     22  O   UNL     1     -13.763 -39.515  33.871  1.00  0.00    -0.507 OA
ATOM     23  H   UNL     1     -13.262 -39.841  34.683  1.00  0.00     0.293 HD
ENDBRANCH   6  22
BRANCH   8  24
ATOM     24  O   UNL     1     -12.020 -38.529  29.524  1.00  0.00    -0.508 OA
ATOM     25  H   UNL     1     -12.189 -39.486  29.239  1.00  0.00     0.293 HD
ENDBRANCH   8  24
TORSDOF 5
ENDMDL
MODEL 3
REMARK VINA RESULT:    -7.107      1.534      7.039
REMARK INTER + INTRA:          -8.666
REMARK INTER:                  -8.369
REMARK INTRA:                  -0.297
REMARK UNBOUND:                -0.313
REMARK SMILES O=c1cc(-c2ccc(O)c(O)c2)oc2cc(O)cc(O)c12
REMARK SMILES IDX 4 1 3 2 2 3 1 4 21 5 19 6 18 7 16 8 15 9 14 10 13 11 5 12
REMARK SMILES IDX 6 13 7 14 8 15 12 16 10 17 9 18 11 20 20 22 17 24
REMARK H PARENT 9 19 11 21 20 23 17 25
REMARK Flexibility Score: inf
ROOT
ATOM      1  C   UNL     1     -12.361 -33.932  33.560  1.00  0.00     0.138 A 
ATOM      2  C   UNL     1     -12.090 -32.850  32.712  1.00  0.00     0.100 A 
ATOM      3  C   UNL     1     -12.113 -31.551  33.223  1.00  0.00     0.197 A 
ATOM      4  O   UNL     1     -11.926 -30.596  32.425  1.00  0.00    -0.289 OA
ATOM      5  C   UNL     1     -12.376 -31.340  34.597  1.00  0.00     0.107 A 
ATOM      6  C   UNL     1     -12.384 -30.064  35.235  1.00  0.00     0.134 A 
ATOM      7  C   UNL     1     -12.773 -29.966  36.578  1.00  0.00     0.093 A 
ATOM      8  C   UNL     1     -13.096 -31.103  37.318  1.00  0.00     0.123 A 
ATOM      9  C   UNL     1     -13.040 -32.361  36.718  1.00  0.00     0.094 A 
ATOM     10  C   UNL     1     -12.688 -32.489  35.372  1.00  0.00     0.146 A 
ATOM     11  O   UNL     1     -12.660 -33.703  34.834  1.00  0.00    -0.456 OA
ENDROOT
BRANCH   1  12
ATOM     12  C   UNL     1     -12.350 -35.334  33.070  1.00  0.00     0.021 A 
ATOM     13  C   UNL     1     -12.720 -36.374  33.940  1.00  0.00     0.016 A 
ATOM     14  C   UNL     1     -12.711 -37.702  33.506  1.00  0.00     0.051 A 
ATOM     15  C   UNL     1     -12.321 -38.013  32.198  1.00  0.00     0.157 A 
ATOM     16  C   UNL     1     -11.946 -35.657  31.759  1.00  0.00     0.062 A 
ATOM     17  C   UNL     1     -11.936 -36.991  31.324  1.00  0.00     0.158 A 
BRANCH  15  18
ATOM     18  O   UNL     1     -12.312 -39.337  31.760  1.00  0.00    -0.504 OA
ATOM     19  H   UNL     1     -12.482 -39.576  30.790  1.00  0.00     0.293 HD
ENDBRANCH  15  18
BRANCH  17  20
ATOM     20  O   UNL     1     -11.538 -37.305  30.025  1.00  0.00    -0.504 OA
ATOM     21  H   UNL     1     -12.193 -37.298  29.253  1.00  0.00     0.293 HD
ENDBRANCH  17  20
ENDBRANCH   1  12
BRANCH   6  22
ATOM     22  O   UNL     1     -11.997 -28.875  34.611  1.00  0.00    -0.507 OA
ATOM     23  H   UNL     1     -11.295 -28.242  34.960  1.00  0.00     0.293 HD
ENDBRANCH   6  22
BRANCH   8  24
ATOM     24  O   UNL     1     -13.465 -30.970  38.656  1.00  0.00    -0.508 OA
ATOM     25  H   UNL     1     -13.959 -31.706  39.146  1.00  0.00     0.293 HD
ENDBRANCH   8  24
TORSDOF 5
ENDMDL
MODEL 4
REMARK VINA RESULT:    -6.985     13.181     16.723
REMARK INTER + INTRA:          -8.523
REMARK INTER:                  -8.228
REMARK INTRA:                  -0.295
REMARK UNBOUND:                -0.313
REMARK SMILES O=c1cc(-c2ccc(O)c(O)c2)oc2cc(O)cc(O)c12
REMARK SMILES IDX 4 1 3 2 2 3 1 4 21 5 19 6 18 7 16 8 15 9 14 10 13 11 5 12
REMARK SMILES IDX 6 13 7 14 8 15 12 16 10 17 9 18 11 20 20 22 17 24
REMARK H PARENT 9 19 11 21 20 23 17 25
REMARK Flexibility Score: inf
ROOT
ATOM      1  C   UNL     1     -16.712 -41.574  46.704  1.00  0.00     0.138 A 
ATOM      2  C   UNL     1     -15.870 -41.867  47.786  1.00  0.00     0.100 A 
ATOM      3  C   UNL     1     -14.828 -40.996  48.105  1.00  0.00     0.197 A 
ATOM      4  O   UNL     1     -14.052 -41.317  49.043  1.00  0.00    -0.289 OA
ATOM      5  C   UNL     1     -14.648 -39.809  47.356  1.00  0.00     0.107 A 
ATOM      6  C   UNL     1     -13.646 -38.828  47.617  1.00  0.00     0.134 A 
ATOM      7  C   UNL     1     -13.490 -37.749  46.736  1.00  0.00     0.093 A 
ATOM      8  C   UNL     1     -14.336 -37.587  45.640  1.00  0.00     0.123 A 
ATOM      9  C   UNL     1     -15.354 -38.511  45.406  1.00  0.00     0.094 A 
ATOM     10  C   UNL     1     -15.515 -39.615  46.247  1.00  0.00     0.146 A 
ATOM     11  O   UNL     1     -16.487 -40.481  45.982  1.00  0.00    -0.456 OA
ENDROOT
BRANCH   1  12
ATOM     12  C   UNL     1     -17.835 -42.465  46.321  1.00  0.00     0.021 A 
ATOM     13  C   UNL     1     -18.641 -43.033  47.324  1.00  0.00     0.016 A 
ATOM     14  C   UNL     1     -19.699 -43.881  46.991  1.00  0.00     0.051 A 
ATOM     15  C   UNL     1     -19.964 -44.186  45.650  1.00  0.00     0.157 A 
ATOM     16  C   UNL     1     -18.101 -42.787  44.975  1.00  0.00     0.062 A 
ATOM     17  C   UNL     1     -19.163 -43.640  44.641  1.00  0.00     0.158 A 
BRANCH  15  18
ATOM     18  O   UNL     1     -21.020 -45.031  45.314  1.00  0.00    -0.504 OA
ATOM     19  H   UNL     1     -21.630 -45.427  46.021  1.00  0.00     0.293 HD
ENDBRANCH  15  18
BRANCH  17  20
ATOM     20  O   UNL     1     -19.423 -43.954  43.308  1.00  0.00    -0.504 OA
ATOM     21  H   UNL     1     -20.357 -43.893  42.921  1.00  0.00     0.293 HD
ENDBRANCH  17  20
ENDBRANCH   1  12
BRANCH   6  22
ATOM     22  O   UNL     1     -12.802 -38.850  48.731  1.00  0.00    -0.507 OA
ATOM     23  H   UNL     1     -13.109 -38.951  49.685  1.00  0.00     0.293 HD
ENDBRANCH   6  22
BRANCH   8  24
ATOM     24  O   UNL     1     -14.161 -36.494  44.793  1.00  0.00    -0.508 OA
ATOM     25  H   UNL     1     -14.598 -35.600  44.983  1.00  0.00     0.293 HD
ENDBRANCH   8  24
TORSDOF 5
ENDMDL
MODEL 5
REMARK VINA RESULT:    -6.667      3.091      8.627
REMARK INTER + INTRA:          -8.149
REMARK INTER:                  -7.831
REMARK INTRA:                  -0.318
REMARK UNBOUND:                -0.313
REMARK SMILES O=c1cc(-c2ccc(O)c(O)c2)oc2cc(O)cc(O)c12
REMARK SMILES IDX 4 1 3 2 2 3 1 4 21 5 19 6 18 7 16 8 15 9 14 10 13 11 5 12
REMARK SMILES IDX 6 13 7 14 8 15 12 16 10 17 9 18 11 20 20 22 17 24
REMARK H PARENT 9 19 11 21 20 23 17 25
REMARK Flexibility Score: inf
ROOT
ATOM      1  C   UNL     1     -14.894 -39.618  34.506  1.00  0.00     0.138 A 
ATOM      2  C   UNL     1     -15.075 -38.586  35.439  1.00  0.00     0.100 A 
ATOM      3  C   UNL     1     -14.453 -37.354  35.232  1.00  0.00     0.197 A 
ATOM      4  O   UNL     1     -14.584 -36.468  36.117  1.00  0.00    -0.289 OA
ATOM      5  C   UNL     1     -13.672 -37.145  34.071  1.00  0.00     0.107 A 
ATOM      6  C   UNL     1     -13.026 -35.918  33.737  1.00  0.00     0.134 A 
ATOM      7  C   UNL     1     -12.183 -35.863  32.619  1.00  0.00     0.093 A 
ATOM      8  C   UNL     1     -12.011 -36.973  31.793  1.00  0.00     0.123 A 
ATOM      9  C   UNL     1     -12.681 -38.163  32.080  1.00  0.00     0.094 A 
ATOM     10  C   UNL     1     -13.502 -38.259  33.205  1.00  0.00     0.146 A 
ATOM     11  O   UNL     1     -14.111 -39.413  33.453  1.00  0.00    -0.456 OA
ENDROOT
BRANCH   1  12
ATOM     12  C   UNL     1     -15.532 -40.948  34.676  1.00  0.00     0.021 A 
ATOM     13  C   UNL     1     -16.371 -41.176  35.781  1.00  0.00     0.016 A 
ATOM     14  C   UNL     1     -16.978 -42.420  35.968  1.00  0.00     0.051 A 
ATOM     15  C   UNL     1     -16.747 -43.461  35.060  1.00  0.00     0.157 A 
ATOM     16  C   UNL     1     -15.295 -42.003  33.774  1.00  0.00     0.062 A 
ATOM     17  C   UNL     1     -15.903 -43.254  33.963  1.00  0.00     0.158 A 
BRANCH  15  18
ATOM     18  O   UNL     1     -17.351 -44.704  35.242  1.00  0.00    -0.504 OA
ATOM     19  H   UNL     1     -17.483 -45.100  36.167  1.00  0.00     0.293 HD
ENDBRANCH  15  18
BRANCH  17  20
ATOM     20  O   UNL     1     -15.667 -44.295  33.067  1.00  0.00    -0.504 OA
ATOM     21  H   UNL     1     -16.371 -44.998  32.874  1.00  0.00     0.293 HD
ENDBRANCH  17  20
ENDBRANCH   1  12
BRANCH   6  22
ATOM     22  O   UNL     1     -13.196 -34.726  34.447  1.00  0.00    -0.507 OA
ATOM     23  H   UNL     1     -13.834 -33.988  34.192  1.00  0.00     0.293 HD
ENDBRANCH   6  22
BRANCH   8  24
ATOM     24  O   UNL     1     -11.177 -36.879  30.680  1.00  0.00    -0.508 OA
ATOM     25  H   UNL     1     -11.549 -36.850  29.738  1.00  0.00     0.293 HD
ENDBRANCH   8  24
TORSDOF 5
ENDMDL
MODEL 6
REMARK VINA RESULT:    -6.616      3.872      6.385
REMARK INTER + INTRA:          -8.088
REMARK INTER:                  -7.774
REMARK INTRA:                  -0.314
REMARK UNBOUND:                -0.313
REMARK SMILES O=c1cc(-c2ccc(O)c(O)c2)oc2cc(O)cc(O)c12
REMARK SMILES IDX 4 1 3 2 2 3 1 4 21 5 19 6 18 7 16 8 15 9 14 10 13 11 5 12
REMARK SMILES IDX 6 13 7 14 8 15 12 16 10 17 9 18 11 20 20 22 17 24
REMARK H PARENT 9 19 11 21 20 23 17 25
REMARK Flexibility Score: inf
ROOT
ATOM      1  C   UNL     1     -14.337 -38.803  33.515  1.00  0.00     0.138 A 
ATOM      2  C   UNL     1     -14.713 -38.269  34.756  1.00  0.00     0.100 A 
ATOM      3  C   UNL     1     -15.312 -39.095  35.709  1.00  0.00     0.197 A 
ATOM      4  O   UNL     1     -15.694 -38.574  36.788  1.00  0.00    -0.289 OA
ATOM      5  C   UNL     1     -15.504 -40.469  35.428  1.00  0.00     0.107 A 
ATOM      6  C   UNL     1     -16.065 -41.413  36.340  1.00  0.00     0.134 A 
ATOM      7  C   UNL     1     -16.314 -42.723  35.910  1.00  0.00     0.093 A 
ATOM      8  C   UNL     1     -15.968 -43.136  34.624  1.00  0.00     0.123 A 
ATOM      9  C   UNL     1     -15.369 -42.236  33.743  1.00  0.00     0.094 A 
ATOM     10  C   UNL     1     -15.138 -40.914  34.130  1.00  0.00     0.146 A 
ATOM     11  O   UNL     1     -14.579 -40.084  33.257  1.00  0.00    -0.456 OA
ENDROOT
BRANCH   1  12
ATOM     12  C   UNL     1     -13.697 -37.970  32.466  1.00  0.00     0.021 A 
ATOM     13  C   UNL     1     -13.780 -36.569  32.549  1.00  0.00     0.016 A 
ATOM     14  C   UNL     1     -13.193 -35.763  31.571  1.00  0.00     0.051 A 
ATOM     15  C   UNL     1     -12.523 -36.343  30.487  1.00  0.00     0.157 A 
ATOM     16  C   UNL     1     -13.031 -38.547  31.366  1.00  0.00     0.062 A 
ATOM     17  C   UNL     1     -12.444 -37.737  30.382  1.00  0.00     0.158 A 
BRANCH  15  18
ATOM     18  O   UNL     1     -11.935 -35.542  29.510  1.00  0.00    -0.504 OA
ATOM     19  H   UNL     1     -10.960 -35.270  29.563  1.00  0.00     0.293 HD
ENDBRANCH  15  18
BRANCH  17  20
ATOM     20  O   UNL     1     -11.785 -38.311  29.297  1.00  0.00    -0.504 OA
ATOM     21  H   UNL     1     -12.174 -38.278  28.362  1.00  0.00     0.293 HD
ENDBRANCH  17  20
ENDBRANCH   1  12
BRANCH   6  22
ATOM     22  O   UNL     1     -16.370 -41.125  37.673  1.00  0.00    -0.507 OA
ATOM     23  H   UNL     1     -15.899 -40.434  38.236  1.00  0.00     0.293 HD
ENDBRANCH   6  22
BRANCH   8  24
ATOM     24  O   UNL     1     -16.217 -44.452  34.235  1.00  0.00    -0.508 OA
ATOM     25  H   UNL     1     -15.590 -44.949  33.614  1.00  0.00     0.293 HD
ENDBRANCH   8  24
TORSDOF 5
ENDMDL
MODEL 7
REMARK VINA RESULT:    -6.557      1.319      1.657
REMARK INTER + INTRA:          -8.020
REMARK INTER:                  -7.718
REMARK INTRA:                  -0.302
REMARK UNBOUND:                -0.313
REMARK SMILES O=c1cc(-c2ccc(O)c(O)c2)oc2cc(O)cc(O)c12
REMARK SMILES IDX 4 1 3 2 2 3 1 4 21 5 19 6 18 7 16 8 15 9 14 10 13 11 5 12
REMARK SMILES IDX 6 13 7 14 8 15 12 16 10 17 9 18 11 20 20 22 17 24
REMARK H PARENT 9 19 11 21 20 23 17 25
REMARK Flexibility Score: inf
ROOT
ATOM      1  C   UNL     1     -12.909 -34.752  33.825  1.00  0.00     0.138 A 
ATOM      2  C   UNL     1     -12.382 -35.540  32.792  1.00  0.00     0.100 A 
ATOM      3  C   UNL     1     -12.684 -36.902  32.742  1.00  0.00     0.197 A 
ATOM      4  O   UNL     1     -12.148 -37.596  31.840  1.00  0.00    -0.289 OA
ATOM      5  C   UNL     1     -13.544 -37.468  33.713  1.00  0.00     0.107 A 
ATOM      6  C   UNL     1     -13.954 -38.835  33.736  1.00  0.00     0.134 A 
ATOM      7  C   UNL     1     -14.714 -39.309  34.814  1.00  0.00     0.093 A 
ATOM      8  C   UNL     1     -15.127 -38.454  35.834  1.00  0.00     0.123 A 
ATOM      9  C   UNL     1     -14.777 -37.104  35.794  1.00  0.00     0.094 A 
ATOM     10  C   UNL     1     -13.992 -36.608  34.751  1.00  0.00     0.146 A 
ATOM     11  O   UNL     1     -13.668 -35.320  34.756  1.00  0.00    -0.456 OA
ENDROOT
BRANCH   1  12
ATOM     12  C   UNL     1     -12.620 -33.299  33.926  1.00  0.00     0.021 A 
ATOM     13  C   UNL     1     -12.469 -32.540  32.752  1.00  0.00     0.016 A 
ATOM     14  C   UNL     1     -12.189 -31.173  32.819  1.00  0.00     0.051 A 
ATOM     15  C   UNL     1     -12.045 -30.543  34.061  1.00  0.00     0.157 A 
ATOM     16  C   UNL     1     -12.461 -32.660  35.171  1.00  0.00     0.062 A 
ATOM     17  C   UNL     1     -12.178 -31.287  35.239  1.00  0.00     0.158 A 
BRANCH  15  18
ATOM     18  O   UNL     1     -11.767 -29.179  34.133  1.00  0.00    -0.504 OA
ATOM     19  H   UNL     1     -10.821 -28.836  34.256  1.00  0.00     0.293 HD
ENDBRANCH  15  18
BRANCH  17  20
ATOM     20  O   UNL     1     -12.023 -30.659  36.473  1.00  0.00    -0.504 OA
ATOM     21  H   UNL     1     -11.107 -30.440  36.846  1.00  0.00     0.293 HD
ENDBRANCH  17  20
ENDBRANCH   1  12
BRANCH   6  22
ATOM     22  O   UNL     1     -13.666 -39.754  32.724  1.00  0.00    -0.507 OA
ATOM     23  H   UNL     1     -13.441 -40.725  32.873  1.00  0.00     0.293 HD
ENDBRANCH   6  22
BRANCH   8  24
ATOM     24  O   UNL     1     -15.895 -38.957  36.884  1.00  0.00    -0.508 OA
ATOM     25  H   UNL     1     -15.796 -38.608  37.829  1.00  0.00     0.293 HD
ENDBRANCH   8  24
TORSDOF 5
ENDMDL
MODEL 8
REMARK VINA RESULT:    -6.450     14.080     15.847
REMARK INTER + INTRA:          -7.894
REMARK INTER:                  -7.609
REMARK INTRA:                  -0.285
REMARK UNBOUND:                -0.313
REMARK SMILES O=c1cc(-c2ccc(O)c(O)c2)oc2cc(O)cc(O)c12
REMARK SMILES IDX 4 1 3 2 2 3 1 4 21 5 19 6 18 7 16 8 15 9 14 10 13 11 5 12
REMARK SMILES IDX 6 13 7 14 8 15 12 16 10 17 9 18 11 20 20 22 17 24
REMARK H PARENT 9 19 11 21 20 23 17 25
REMARK Flexibility Score: inf
ROOT
ATOM      1  C   UNL     1     -17.263 -41.805  46.363  1.00  0.00     0.138 A 
ATOM      2  C   UNL     1     -17.903 -42.682  47.251  1.00  0.00     0.100 A 
ATOM      3  C   UNL     1     -18.926 -43.510  46.785  1.00  0.00     0.197 A 
ATOM      4  O   UNL     1     -19.522 -44.241  47.617  1.00  0.00    -0.289 OA
ATOM      5  C   UNL     1     -19.287 -43.480  45.418  1.00  0.00     0.107 A 
ATOM      6  C   UNL     1     -20.286 -44.308  44.824  1.00  0.00     0.134 A 
ATOM      7  C   UNL     1     -20.640 -44.109  43.483  1.00  0.00     0.093 A 
ATOM      8  C   UNL     1     -19.991 -43.154  42.701  1.00  0.00     0.123 A 
ATOM      9  C   UNL     1     -18.975 -42.376  43.257  1.00  0.00     0.094 A 
ATOM     10  C   UNL     1     -18.622 -42.528  44.600  1.00  0.00     0.146 A 
ATOM     11  O   UNL     1     -17.660 -41.758  45.096  1.00  0.00    -0.456 OA
ENDROOT
BRANCH   1  12
ATOM     12  C   UNL     1     -16.169 -40.904  46.805  1.00  0.00     0.021 A 
ATOM     13  C   UNL     1     -16.046 -39.629  46.223  1.00  0.00     0.016 A 
ATOM     14  C   UNL     1     -15.022 -38.765  46.615  1.00  0.00     0.051 A 
ATOM     15  C   UNL     1     -14.096 -39.163  47.587  1.00  0.00     0.157 A 
ATOM     16  C   UNL     1     -15.226 -41.302  47.772  1.00  0.00     0.062 A 
ATOM     17  C   UNL     1     -14.196 -40.434  48.165  1.00  0.00     0.158 A 
BRANCH  15  18
ATOM     18  O   UNL     1     -13.072 -38.303  47.982  1.00  0.00    -0.504 OA
ATOM     19  H   UNL     1     -12.745 -37.556  47.380  1.00  0.00     0.293 HD
ENDBRANCH  15  18
BRANCH  17  20
ATOM     20  O   UNL     1     -13.266 -40.832  49.124  1.00  0.00    -0.504 OA
ATOM     21  H   UNL     1     -12.280 -40.912  48.906  1.00  0.00     0.293 HD
ENDBRANCH  17  20
ENDBRANCH   1  12
BRANCH   6  22
ATOM     22  O   UNL     1     -20.937 -45.348  45.492  1.00  0.00    -0.507 OA
ATOM     23  H   UNL     1     -21.057 -45.407  46.492  1.00  0.00     0.293 HD
ENDBRANCH   6  22
BRANCH   8  24
ATOM     24  O   UNL     1     -20.358 -42.993  41.366  1.00  0.00    -0.508 OA
ATOM     25  H   UNL     1     -21.186 -43.437  40.986  1.00  0.00     0.293 HD
ENDBRANCH   8  24
TORSDOF 5
ENDMDL
MODEL 9
REMARK VINA RESULT:    -6.347      2.224      7.182
REMARK INTER + INTRA:          -7.772
REMARK INTER:                  -7.464
REMARK INTRA:                  -0.308
REMARK UNBOUND:                -0.313
REMARK SMILES O=c1cc(-c2ccc(O)c(O)c2)oc2cc(O)cc(O)c12
REMARK SMILES IDX 4 1 3 2 2 3 1 4 21 5 19 6 18 7 16 8 15 9 14 10 13 11 5 12
REMARK SMILES IDX 6 13 7 14 8 15 12 16 10 17 9 18 11 20 20 22 17 24
REMARK H PARENT 9 19 11 21 20 23 17 25
REMARK Flexibility Score: inf
ROOT
ATOM      1  C   UNL     1     -14.164 -38.163  33.703  1.00  0.00     0.138 A 
ATOM      2  C   UNL     1     -14.157 -37.998  32.311  1.00  0.00     0.100 A 
ATOM      3  C   UNL     1     -13.593 -36.847  31.756  1.00  0.00     0.197 A 
ATOM      4  O   UNL     1     -13.657 -36.698  30.509  1.00  0.00    -0.289 OA
ATOM      5  C   UNL     1     -13.006 -35.875  32.600  1.00  0.00     0.107 A 
ATOM      6  C   UNL     1     -12.365 -34.685  32.143  1.00  0.00     0.134 A 
ATOM      7  C   UNL     1     -11.922 -33.738  33.076  1.00  0.00     0.093 A 
ATOM      8  C   UNL     1     -12.043 -33.966  34.446  1.00  0.00     0.123 A 
ATOM      9  C   UNL     1     -12.619 -35.152  34.904  1.00  0.00     0.094 A 
ATOM     10  C   UNL     1     -13.101 -36.100  33.999  1.00  0.00     0.146 A 
ATOM     11  O   UNL     1     -13.655 -37.209  34.475  1.00  0.00    -0.456 OA
ENDROOT
BRANCH   1  12
ATOM     12  C   UNL     1     -14.750 -39.367  34.345  1.00  0.00     0.021 A 
ATOM     13  C   UNL     1     -14.798 -40.578  33.632  1.00  0.00     0.016 A 
ATOM     14  C   UNL     1     -15.351 -41.723  34.210  1.00  0.00     0.051 A 
ATOM     15  C   UNL     1     -15.876 -41.674  35.507  1.00  0.00     0.157 A 
ATOM     16  C   UNL     1     -15.291 -39.323  35.645  1.00  0.00     0.062 A 
ATOM     17  C   UNL     1     -15.849 -40.473  36.225  1.00  0.00     0.158 A 
BRANCH  15  18
ATOM     18  O   UNL     1     -16.427 -42.815  36.089  1.00  0.00    -0.504 OA
ATOM     19  H   UNL     1     -17.351 -43.147  35.833  1.00  0.00     0.293 HD
ENDBRANCH  15  18
BRANCH  17  20
ATOM     20  O   UNL     1     -16.382 -40.426  37.512  1.00  0.00    -0.504 OA
ATOM     21  H   UNL     1     -17.311 -40.062  37.689  1.00  0.00     0.293 HD
ENDBRANCH  17  20
ENDBRANCH   1  12
BRANCH   6  22
ATOM     22  O   UNL     1     -12.118 -34.397  30.798  1.00  0.00    -0.507 OA
ATOM     23  H   UNL     1     -11.738 -35.048  30.129  1.00  0.00     0.293 HD
ENDBRANCH   6  22
BRANCH   8  24
ATOM     24  O   UNL     1     -11.577 -33.009  35.346  1.00  0.00    -0.508 OA
ATOM     25  H   UNL     1     -12.129 -32.194  35.587  1.00  0.00     0.293 HD
ENDBRANCH   8  24
TORSDOF 5
ENDMDL
