MODEL 1
REMARK VINA RESULT:    -4.443      0.000      0.000
REMARK INTER + INTRA:          -9.951
REMARK INTER:                  -8.079
REMARK INTRA:                  -1.872
REMARK UNBOUND:                -1.872
REMARK SMILES CCCCCCCCCCCCCC[C@@H](C)C(=O)[O-]
REMARK SMILES IDX 9 1 10 2 11 3 12 4 13 5 14 6 15 7 16 8 17 9 18 10 19 11 8 12
REMARK SMILES IDX 7 13 6 14 5 15 4 16 3 17 2 18 1 19
REMARK H PARENT
REMARK Flexibility Score: inf
ROOT
ATOM      1  C   UNL     1     -26.055 -14.870  17.383  1.00  0.00     0.000 C 
ENDROOT
BRANCH   1   2
ATOM      2  C   UNL     1     -27.228 -15.744  17.857  1.00  0.00     0.000 C 
BRANCH   2   3
ATOM      3  C   UNL     1     -27.794 -16.643  16.743  1.00  0.00     0.000 C 
BRANCH   3   4
ATOM      4  C   UNL     1     -28.899 -17.625  17.183  1.00  0.00     0.000 C 
BRANCH   4   5
ATOM      5  C   UNL     1     -29.649 -18.322  16.035  1.00  0.00     0.001 C 
BRANCH   5   6
ATOM      6  C   UNL     1     -28.707 -18.848  14.938  1.00  0.00     0.009 C 
BRANCH   6   7
ATOM      7  C   UNL     1     -29.135 -18.379  13.532  1.00  0.00     0.032 C 
ATOM      8  C   UNL     1     -30.017 -17.130  13.626  1.00  0.00     0.014 C 
BRANCH   7   9
ATOM      9  C   UNL     1     -27.939 -18.092  12.664  1.00  0.00     0.044 C 
ATOM     10  O   UNL     1     -28.084 -17.495  11.566  1.00  0.00    -0.550 OA
ATOM     11  O   UNL     1     -26.666 -18.476  13.072  1.00  0.00    -0.550 OA
ENDBRANCH   7   9
ENDBRANCH   6   7
ENDBRANCH   5   6
ENDBRANCH   4   5
ENDBRANCH   3   4
ENDBRANCH   2   3
ENDBRANCH   1   2
BRANCH   1  12
ATOM     12  C   UNL     1     -25.973 -13.523  18.125  1.00  0.00     0.000 C 
BRANCH  12  13
ATOM     13  C   UNL     1     -25.545 -12.323  17.258  1.00  0.00    -0.000 C 
BRANCH  13  14
ATOM     14  C   UNL     1     -26.696 -11.422  16.771  1.00  0.00    -0.000 C 
BRANCH  14  15
ATOM     15  C   UNL     1     -27.872 -11.319  17.765  1.00  0.00    -0.000 C 
BRANCH  15  16
ATOM     16  C   UNL     1     -29.239 -11.355  17.066  1.00  0.00    -0.000 C 
BRANCH  16  17
ATOM     17  C   UNL     1     -29.986 -12.659  17.387  1.00  0.00    -0.000 C 
BRANCH  17  18
ATOM     18  C   UNL     1     -29.922 -13.674  16.237  1.00  0.00    -0.003 C 
ATOM     19  C   UNL     1     -31.050 -14.704  16.293  1.00  0.00     0.004 C 
ENDBRANCH  17  18
ENDBRANCH  16  17
ENDBRANCH  15  16
ENDBRANCH  14  15
ENDBRANCH  13  14
ENDBRANCH  12  13
ENDBRANCH   1  12
TORSDOF 14
ENDMDL
MODEL 2
REMARK VINA RESULT:    -4.342      1.661      3.851
REMARK INTER + INTRA:          -9.769
REMARK INTER:                  -8.226
REMARK INTRA:                  -1.542
REMARK UNBOUND:                -1.872
REMARK SMILES CCCCCCCCCCCCCC[C@@H](C)C(=O)[O-]
REMARK SMILES IDX 9 1 10 2 11 3 12 4 13 5 14 6 15 7 16 8 17 9 18 10 19 11 8 12
REMARK SMILES IDX 7 13 6 14 5 15 4 16 3 17 2 18 1 19
REMARK H PARENT
REMARK Flexibility Score: inf
ROOT
ATOM      1  C   UNL     1     -26.956 -11.633  16.690  1.00  0.00     0.000 C 
ENDROOT
BRANCH   1   2
ATOM      2  C   UNL     1     -25.483 -11.694  17.127  1.00  0.00     0.000 C 
BRANCH   2   3
ATOM      3  C   UNL     1     -25.160 -12.941  17.970  1.00  0.00     0.000 C 
BRANCH   3   4
ATOM      4  C   UNL     1     -26.316 -13.951  18.125  1.00  0.00     0.000 C 
BRANCH   4   5
ATOM      5  C   UNL     1     -26.104 -15.300  17.416  1.00  0.00     0.001 C 
BRANCH   5   6
ATOM      6  C   UNL     1     -27.345 -16.208  17.475  1.00  0.00     0.009 C 
BRANCH   6   7
ATOM      7  C   UNL     1     -27.248 -17.389  16.487  1.00  0.00     0.032 C 
ATOM      8  C   UNL     1     -26.788 -18.659  17.210  1.00  0.00     0.014 C 
BRANCH   7   9
ATOM      9  C   UNL     1     -28.566 -17.641  15.806  1.00  0.00     0.044 C 
ATOM     10  O   UNL     1     -29.585 -17.926  16.488  1.00  0.00    -0.550 OA
ATOM     11  O   UNL     1     -28.671 -17.557  14.422  1.00  0.00    -0.550 OA
ENDBRANCH   7   9
ENDBRANCH   6   7
ENDBRANCH   5   6
ENDBRANCH   4   5
ENDBRANCH   3   4
ENDBRANCH   2   3
ENDBRANCH   1   2
BRANCH   1  12
ATOM     12  C   UNL     1     -27.742 -10.507  17.389  1.00  0.00     0.000 C 
BRANCH  12  13
ATOM     13  C   UNL     1     -29.241 -10.790  17.603  1.00  0.00    -0.000 C 
BRANCH  13  14
ATOM     14  C   UNL     1     -29.639 -12.278  17.571  1.00  0.00    -0.000 C 
BRANCH  14  15
ATOM     15  C   UNL     1     -30.169 -12.752  16.200  1.00  0.00    -0.000 C 
BRANCH  15  16
ATOM     16  C   UNL     1     -30.034 -14.270  16.010  1.00  0.00    -0.000 C 
BRANCH  16  17
ATOM     17  C   UNL     1     -31.369 -14.889  15.568  1.00  0.00    -0.000 C 
BRANCH  17  18
ATOM     18  C   UNL     1     -32.576 -14.253  16.274  1.00  0.00    -0.003 C 
ATOM     19  C   UNL     1     -33.677 -13.833  15.300  1.00  0.00     0.004 C 
ENDBRANCH  17  18
ENDBRANCH  16  17
ENDBRANCH  15  16
ENDBRANCH  14  15
ENDBRANCH  13  14
ENDBRANCH  12  13
ENDBRANCH   1  12
TORSDOF 14
ENDMDL
MODEL 3
REMARK VINA RESULT:    -4.338      1.287      2.136
REMARK INTER + INTRA:          -9.761
REMARK INTER:                  -8.524
REMARK INTRA:                  -1.237
REMARK UNBOUND:                -1.872
REMARK SMILES CCCCCCCCCCCCCC[C@@H](C)C(=O)[O-]
REMARK SMILES IDX 9 1 10 2 11 3 12 4 13 5 14 6 15 7 16 8 17 9 18 10 19 11 8 12
REMARK SMILES IDX 7 13 6 14 5 15 4 16 3 17 2 18 1 19
REMARK H PARENT
REMARK Flexibility Score: inf
ROOT
ATOM      1  C   UNL     1     -26.995 -16.064  17.866  1.00  0.00     0.000 C 
ENDROOT
BRANCH   1   2
ATOM      2  C   UNL     1     -27.515 -17.003  16.765  1.00  0.00     0.000 C 
BRANCH   2   3
ATOM      3  C   UNL     1     -29.031 -16.871  16.532  1.00  0.00     0.000 C 
BRANCH   3   4
ATOM      4  C   UNL     1     -29.533 -17.356  15.156  1.00  0.00     0.000 C 
BRANCH   4   5
ATOM      5  C   UNL     1     -28.463 -18.008  14.262  1.00  0.00     0.001 C 
BRANCH   5   6
ATOM      6  C   UNL     1     -28.663 -17.699  12.768  1.00  0.00     0.009 C 
BRANCH   6   7
ATOM      7  C   UNL     1     -27.520 -18.266  11.901  1.00  0.00     0.032 C 
ATOM      8  C   UNL     1     -27.240 -19.727  12.267  1.00  0.00     0.014 C 
BRANCH   7   9
ATOM      9  C   UNL     1     -27.846 -18.164  10.434  1.00  0.00     0.044 C 
ATOM     10  O   UNL     1     -28.461 -17.159   9.993  1.00  0.00    -0.550 OA
ATOM     11  O   UNL     1     -27.464 -19.173   9.557  1.00  0.00    -0.550 OA
ENDBRANCH   7   9
ENDBRANCH   6   7
ENDBRANCH   5   6
ENDBRANCH   4   5
ENDBRANCH   3   4
ENDBRANCH   2   3
ENDBRANCH   1   2
BRANCH   1  12
ATOM     12  C   UNL     1     -25.962 -15.046  17.346  1.00  0.00     0.000 C 
BRANCH  12  13
ATOM     13  C   UNL     1     -25.905 -13.717  18.123  1.00  0.00    -0.000 C 
BRANCH  13  14
ATOM     14  C   UNL     1     -25.339 -12.521  17.334  1.00  0.00    -0.000 C 
BRANCH  14  15
ATOM     15  C   UNL     1     -26.359 -11.384  17.108  1.00  0.00    -0.000 C 
BRANCH  15  16
ATOM     16  C   UNL     1     -27.694 -11.639  17.823  1.00  0.00    -0.000 C 
BRANCH  16  17
ATOM     17  C   UNL     1     -28.810 -11.940  16.811  1.00  0.00    -0.000 C 
BRANCH  17  18
ATOM     18  C   UNL     1     -29.443 -13.323  17.024  1.00  0.00    -0.003 C 
ATOM     19  C   UNL     1     -30.902 -13.244  17.471  1.00  0.00     0.004 C 
ENDBRANCH  17  18
ENDBRANCH  16  17
ENDBRANCH  15  16
ENDBRANCH  14  15
ENDBRANCH  13  14
ENDBRANCH  12  13
ENDBRANCH   1  12
TORSDOF 14
ENDMDL
MODEL 4
REMARK VINA RESULT:    -4.306      1.525      3.447
REMARK INTER + INTRA:          -9.702
REMARK INTER:                  -8.663
REMARK INTRA:                  -1.039
REMARK UNBOUND:                -1.872
REMARK SMILES CCCCCCCCCCCCCC[C@@H](C)C(=O)[O-]
REMARK SMILES IDX 9 1 10 2 11 3 12 4 13 5 14 6 15 7 16 8 17 9 18 10 19 11 8 12
REMARK SMILES IDX 7 13 6 14 5 15 4 16 3 17 2 18 1 19
REMARK H PARENT
REMARK Flexibility Score: inf
ROOT
ATOM      1  C   UNL     1     -29.690 -15.141  16.162  1.00  0.00     0.000 C 
ENDROOT
BRANCH   1   2
ATOM      2  C   UNL     1     -30.770 -15.581  15.159  1.00  0.00     0.000 C 
BRANCH   2   3
ATOM      3  C   UNL     1     -31.170 -17.059  15.321  1.00  0.00     0.000 C 
BRANCH   3   4
ATOM      4  C   UNL     1     -30.452 -18.045  14.376  1.00  0.00     0.000 C 
BRANCH   4   5
ATOM      5  C   UNL     1     -29.000 -17.675  14.026  1.00  0.00     0.001 C 
BRANCH   5   6
ATOM      6  C   UNL     1     -28.765 -17.544  12.511  1.00  0.00     0.009 C 
BRANCH   6   7
ATOM      7  C   UNL     1     -27.437 -18.193  12.071  1.00  0.00     0.032 C 
ATOM      8  C   UNL     1     -26.969 -19.218  13.109  1.00  0.00     0.014 C 
BRANCH   7   9
ATOM      9  C   UNL     1     -27.572 -18.857  10.727  1.00  0.00     0.044 C 
ATOM     10  O   UNL     1     -27.833 -18.169   9.706  1.00  0.00    -0.550 OA
ATOM     11  O   UNL     1     -27.403 -20.232  10.602  1.00  0.00    -0.550 OA
ENDBRANCH   7   9
ENDBRANCH   6   7
ENDBRANCH   5   6
ENDBRANCH   4   5
ENDBRANCH   3   4
ENDBRANCH   2   3
ENDBRANCH   1   2
BRANCH   1  12
ATOM     12  C   UNL     1     -30.091 -13.885  16.960  1.00  0.00     0.000 C 
BRANCH  12  13
ATOM     13  C   UNL     1     -29.592 -12.550  16.374  1.00  0.00    -0.000 C 
BRANCH  13  14
ATOM     14  C   UNL     1     -29.382 -11.421  17.401  1.00  0.00    -0.000 C 
BRANCH  14  15
ATOM     15  C   UNL     1     -27.898 -11.121  17.702  1.00  0.00    -0.000 C 
BRANCH  15  16
ATOM     16  C   UNL     1     -26.950 -11.731  16.659  1.00  0.00    -0.000 C 
BRANCH  16  17
ATOM     17  C   UNL     1     -25.552 -11.957  17.254  1.00  0.00    -0.000 C 
BRANCH  17  18
ATOM     18  C   UNL     1     -25.478 -13.220  18.125  1.00  0.00    -0.003 C 
ATOM     19  C   UNL     1     -26.227 -14.404  17.514  1.00  0.00     0.004 C 
ENDBRANCH  17  18
ENDBRANCH  16  17
ENDBRANCH  15  16
ENDBRANCH  14  15
ENDBRANCH  13  14
ENDBRANCH  12  13
ENDBRANCH   1  12
TORSDOF 14
ENDMDL
MODEL 5
REMARK VINA RESULT:    -4.277      3.123      5.490
REMARK INTER + INTRA:          -9.649
REMARK INTER:                  -8.056
REMARK INTRA:                  -1.593
REMARK UNBOUND:                -1.872
REMARK SMILES CCCCCCCCCCCCCC[C@@H](C)C(=O)[O-]
REMARK SMILES IDX 9 1 10 2 11 3 12 4 13 5 14 6 15 7 16 8 17 9 18 10 19 11 8 12
REMARK SMILES IDX 7 13 6 14 5 15 4 16 3 17 2 18 1 19
REMARK H PARENT
REMARK Flexibility Score: inf
ROOT
ATOM      1  C   UNL     1     -26.828 -11.539  16.626  1.00  0.00     0.000 C 
ENDROOT
BRANCH   1   2
ATOM      2  C   UNL     1     -27.839 -10.673  17.396  1.00  0.00     0.000 C 
BRANCH   2   3
ATOM      3  C   UNL     1     -29.263 -11.255  17.376  1.00  0.00     0.000 C 
BRANCH   3   4
ATOM      4  C   UNL     1     -29.456 -12.501  16.486  1.00  0.00     0.000 C 
BRANCH   4   5
ATOM      5  C   UNL     1     -29.981 -13.750  17.215  1.00  0.00     0.001 C 
BRANCH   5   6
ATOM      6  C   UNL     1     -31.470 -13.643  17.587  1.00  0.00     0.009 C 
BRANCH   6   7
ATOM      7  C   UNL     1     -32.390 -13.897  16.374  1.00  0.00     0.032 C 
ATOM      8  C   UNL     1     -31.878 -15.082  15.548  1.00  0.00     0.014 C 
BRANCH   7   9
ATOM      9  C   UNL     1     -33.807 -14.156  16.808  1.00  0.00     0.044 C 
ATOM     10  O   UNL     1     -34.393 -13.343  17.570  1.00  0.00    -0.550 OA
ATOM     11  O   UNL     1     -34.482 -15.290  16.368  1.00  0.00    -0.550 OA
ENDBRANCH   7   9
ENDBRANCH   6   7
ENDBRANCH   5   6
ENDBRANCH   4   5
ENDBRANCH   3   4
ENDBRANCH   2   3
ENDBRANCH   1   2
BRANCH   1  12
ATOM     12  C   UNL     1     -25.467 -11.650  17.340  1.00  0.00     0.000 C 
BRANCH  12  13
ATOM     13  C   UNL     1     -25.178 -13.018  17.988  1.00  0.00    -0.000 C 
BRANCH  13  14
ATOM     14  C   UNL     1     -26.397 -13.949  18.125  1.00  0.00    -0.000 C 
BRANCH  14  15
ATOM     15  C   UNL     1     -26.240 -15.294  17.384  1.00  0.00    -0.000 C 
BRANCH  15  16
ATOM     16  C   UNL     1     -27.423 -16.244  17.630  1.00  0.00    -0.000 C 
BRANCH  16  17
ATOM     17  C   UNL     1     -27.383 -17.434  16.659  1.00  0.00    -0.000 C 
BRANCH  17  18
ATOM     18  C   UNL     1     -28.518 -17.390  15.625  1.00  0.00    -0.003 C 
ATOM     19  C   UNL     1     -29.813 -18.016  16.142  1.00  0.00     0.004 C 
ENDBRANCH  17  18
ENDBRANCH  16  17
ENDBRANCH  15  16
ENDBRANCH  14  15
ENDBRANCH  13  14
ENDBRANCH  12  13
ENDBRANCH   1  12
TORSDOF 14
ENDMDL
MODEL 6
REMARK VINA RESULT:    -4.250      2.178      5.745
REMARK INTER + INTRA:          -9.601
REMARK INTER:                  -8.052
REMARK INTRA:                  -1.549
REMARK UNBOUND:                -1.872
REMARK SMILES CCCCCCCCCCCCCC[C@@H](C)C(=O)[O-]
REMARK SMILES IDX 9 1 10 2 11 3 12 4 13 5 14 6 15 7 16 8 17 9 18 10 19 11 8 12
REMARK SMILES IDX 7 13 6 14 5 15 4 16 3 17 2 18 1 19
REMARK H PARENT
REMARK Flexibility Score: inf
ROOT
ATOM      1  C   UNL     1     -25.748 -13.673  17.752  1.00  0.00     0.000 C 
ENDROOT
BRANCH   1   2
ATOM      2  C   UNL     1     -25.926 -12.146  17.706  1.00  0.00     0.000 C 
BRANCH   2   3
ATOM      3  C   UNL     1     -27.050 -11.702  16.753  1.00  0.00     0.000 C 
BRANCH   3   4
ATOM      4  C   UNL     1     -28.167 -10.856  17.398  1.00  0.00     0.000 C 
BRANCH   4   5
ATOM      5  C   UNL     1     -29.522 -11.570  17.550  1.00  0.00     0.001 C 
BRANCH   5   6
ATOM      6  C   UNL     1     -29.831 -12.521  16.381  1.00  0.00     0.009 C 
BRANCH   6   7
ATOM      7  C   UNL     1     -30.588 -13.783  16.844  1.00  0.00     0.032 C 
ATOM      8  C   UNL     1     -31.452 -13.472  18.071  1.00  0.00     0.014 C 
BRANCH   7   9
ATOM      9  C   UNL     1     -31.451 -14.337  15.743  1.00  0.00     0.044 C 
ATOM     10  O   UNL     1     -30.933 -15.009  14.812  1.00  0.00    -0.550 OA
ATOM     11  O   UNL     1     -32.824 -14.119  15.747  1.00  0.00    -0.550 OA
ENDBRANCH   7   9
ENDBRANCH   6   7
ENDBRANCH   5   6
ENDBRANCH   4   5
ENDBRANCH   3   4
ENDBRANCH   2   3
ENDBRANCH   1   2
BRANCH   1  12
ATOM     12  C   UNL     1     -27.055 -14.417  18.088  1.00  0.00     0.000 C 
BRANCH  12  13
ATOM     13  C   UNL     1     -27.274 -15.734  17.319  1.00  0.00    -0.000 C 
BRANCH  13  14
ATOM     14  C   UNL     1     -28.494 -16.560  17.768  1.00  0.00    -0.000 C 
BRANCH  14  15
ATOM     15  C   UNL     1     -28.641 -17.908  17.030  1.00  0.00    -0.000 C 
BRANCH  15  16
ATOM     16  C   UNL     1     -29.102 -17.736  15.575  1.00  0.00    -0.000 C 
BRANCH  16  17
ATOM     17  C   UNL     1     -28.954 -19.049  14.793  1.00  0.00    -0.000 C 
BRANCH  17  18
ATOM     18  C   UNL     1     -27.930 -18.945  13.652  1.00  0.00    -0.003 C 
ATOM     19  C   UNL     1     -28.378 -17.996  12.540  1.00  0.00     0.004 C 
ENDBRANCH  17  18
ENDBRANCH  16  17
ENDBRANCH  15  16
ENDBRANCH  14  15
ENDBRANCH  13  14
ENDBRANCH  12  13
ENDBRANCH   1  12
TORSDOF 14
ENDMDL
MODEL 7
REMARK VINA RESULT:    -4.246      2.724      4.938
REMARK INTER + INTRA:          -9.592
REMARK INTER:                  -7.894
REMARK INTRA:                  -1.698
REMARK UNBOUND:                -1.872
REMARK SMILES CCCCCCCCCCCCCC[C@@H](C)C(=O)[O-]
REMARK SMILES IDX 9 1 10 2 11 3 12 4 13 5 14 6 15 7 16 8 17 9 18 10 19 11 8 12
REMARK SMILES IDX 7 13 6 14 5 15 4 16 3 17 2 18 1 19
REMARK H PARENT
REMARK Flexibility Score: inf
ROOT
ATOM      1  C   UNL     1     -26.420 -18.969  14.962  1.00  0.00     0.000 C 
ENDROOT
BRANCH   1   2
ATOM      2  C   UNL     1     -27.943 -18.785  14.859  1.00  0.00     0.000 C 
BRANCH   2   3
ATOM      3  C   UNL     1     -28.394 -18.293  13.472  1.00  0.00     0.000 C 
BRANCH   3   4
ATOM      4  C   UNL     1     -29.288 -17.035  13.476  1.00  0.00     0.000 C 
BRANCH   4   5
ATOM      5  C   UNL     1     -29.853 -16.639  14.852  1.00  0.00     0.001 C 
BRANCH   5   6
ATOM      6  C   UNL     1     -30.438 -15.216  14.871  1.00  0.00     0.009 C 
BRANCH   6   7
ATOM      7  C   UNL     1     -31.164 -14.905  16.196  1.00  0.00     0.032 C 
ATOM      8  C   UNL     1     -30.922 -16.021  17.217  1.00  0.00     0.014 C 
BRANCH   7   9
ATOM      9  C   UNL     1     -30.716 -13.587  16.768  1.00  0.00     0.044 C 
ATOM     10  O   UNL     1     -31.197 -13.175  17.856  1.00  0.00    -0.550 OA
ATOM     11  O   UNL     1     -29.764 -12.820  16.106  1.00  0.00    -0.550 OA
ENDBRANCH   7   9
ENDBRANCH   6   7
ENDBRANCH   5   6
ENDBRANCH   4   5
ENDBRANCH   3   4
ENDBRANCH   2   3
ENDBRANCH   1   2
BRANCH   1  12
ATOM     12  C   UNL     1     -25.778 -18.062  16.030  1.00  0.00     0.000 C 
BRANCH  12  13
ATOM     13  C   UNL     1     -26.774 -17.311  16.935  1.00  0.00    -0.000 C 
BRANCH  13  14
ATOM     14  C   UNL     1     -26.295 -15.936  17.437  1.00  0.00    -0.000 C 
BRANCH  14  15
ATOM     15  C   UNL     1     -27.442 -14.987  17.845  1.00  0.00    -0.000 C 
BRANCH  15  16
ATOM     16  C   UNL     1     -26.953 -13.558  18.124  1.00  0.00    -0.000 C 
BRANCH  16  17
ATOM     17  C   UNL     1     -25.839 -13.158  17.145  1.00  0.00    -0.000 C 
BRANCH  17  18
ATOM     18  C   UNL     1     -25.622 -11.638  17.087  1.00  0.00    -0.003 C 
ATOM     19  C   UNL     1     -26.904 -10.847  17.341  1.00  0.00     0.004 C 
ENDBRANCH  17  18
ENDBRANCH  16  17
ENDBRANCH  15  16
ENDBRANCH  14  15
ENDBRANCH  13  14
ENDBRANCH  12  13
ENDBRANCH   1  12
TORSDOF 14
ENDMDL
MODEL 8
REMARK VINA RESULT:    -4.245      1.626      3.848
REMARK INTER + INTRA:          -9.592
REMARK INTER:                  -8.598
REMARK INTRA:                  -0.994
REMARK UNBOUND:                -1.872
REMARK SMILES CCCCCCCCCCCCCC[C@@H](C)C(=O)[O-]
REMARK SMILES IDX 9 1 10 2 11 3 12 4 13 5 14 6 15 7 16 8 17 9 18 10 19 11 8 12
REMARK SMILES IDX 7 13 6 14 5 15 4 16 3 17 2 18 1 19
REMARK H PARENT
REMARK Flexibility Score: inf
ROOT
ATOM      1  C   UNL     1     -30.443 -15.676  16.823  1.00  0.00     0.000 C 
ENDROOT
BRANCH   1   2
ATOM      2  C   UNL     1     -31.212 -16.120  15.567  1.00  0.00     0.000 C 
BRANCH   2   3
ATOM      3  C   UNL     1     -30.373 -16.007  14.281  1.00  0.00     0.000 C 
BRANCH   3   4
ATOM      4  C   UNL     1     -30.306 -17.286  13.421  1.00  0.00     0.000 C 
BRANCH   4   5
ATOM      5  C   UNL     1     -28.982 -18.065  13.511  1.00  0.00     0.001 C 
BRANCH   5   6
ATOM      6  C   UNL     1     -27.967 -17.645  12.433  1.00  0.00     0.009 C 
BRANCH   6   7
ATOM      7  C   UNL     1     -28.100 -18.492  11.151  1.00  0.00     0.032 C 
ATOM      8  C   UNL     1     -28.155 -17.590   9.913  1.00  0.00     0.014 C 
BRANCH   7   9
ATOM      9  C   UNL     1     -26.960 -19.466  11.018  1.00  0.00     0.044 C 
ATOM     10  O   UNL     1     -25.875 -19.254  11.620  1.00  0.00    -0.550 OA
ATOM     11  O   UNL     1     -27.098 -20.609  10.238  1.00  0.00    -0.550 OA
ENDBRANCH   7   9
ENDBRANCH   6   7
ENDBRANCH   5   6
ENDBRANCH   4   5
ENDBRANCH   3   4
ENDBRANCH   2   3
ENDBRANCH   1   2
BRANCH   1  12
ATOM     12  C   UNL     1     -31.285 -14.785  17.756  1.00  0.00     0.000 C 
BRANCH  12  13
ATOM     13  C   UNL     1     -30.951 -13.282  17.704  1.00  0.00    -0.000 C 
BRANCH  13  14
ATOM     14  C   UNL     1     -29.827 -12.894  16.724  1.00  0.00    -0.000 C 
BRANCH  14  15
ATOM     15  C   UNL     1     -29.131 -11.560  17.070  1.00  0.00    -0.000 C 
BRANCH  15  16
ATOM     16  C   UNL     1     -27.807 -11.764  17.822  1.00  0.00    -0.000 C 
BRANCH  16  17
ATOM     17  C   UNL     1     -27.400 -13.245  17.824  1.00  0.00    -0.000 C 
BRANCH  17  18
ATOM     18  C   UNL     1     -25.889 -13.442  17.634  1.00  0.00    -0.003 C 
ATOM     19  C   UNL     1     -25.165 -12.148  17.263  1.00  0.00     0.004 C 
ENDBRANCH  17  18
ENDBRANCH  16  17
ENDBRANCH  15  16
ENDBRANCH  14  15
ENDBRANCH  13  14
ENDBRANCH  12  13
ENDBRANCH   1  12
TORSDOF 14
ENDMDL
MODEL 9
REMARK VINA RESULT:    -4.237      1.088      3.056
REMARK INTER + INTRA:          -9.577
REMARK INTER:                  -7.630
REMARK INTRA:                  -1.947
REMARK UNBOUND:                -1.872
REMARK SMILES CCCCCCCCCCCCCC[C@@H](C)C(=O)[O-]
REMARK SMILES IDX 9 1 10 2 11 3 12 4 13 5 14 6 15 7 16 8 17 9 18 10 19 11 8 12
REMARK SMILES IDX 7 13 6 14 5 15 4 16 3 17 2 18 1 19
REMARK H PARENT
REMARK Flexibility Score: inf
ROOT
ATOM      1  C   UNL     1     -28.734 -16.588  17.729  1.00  0.00     0.000 C 
ENDROOT
BRANCH   1   2
ATOM      2  C   UNL     1     -30.253 -16.814  17.826  1.00  0.00     0.000 C 
BRANCH   2   3
ATOM      3  C   UNL     1     -30.756 -17.912  16.873  1.00  0.00     0.000 C 
BRANCH   3   4
ATOM      4  C   UNL     1     -31.529 -17.410  15.635  1.00  0.00     0.000 C 
BRANCH   4   5
ATOM      5  C   UNL     1     -30.898 -17.771  14.280  1.00  0.00     0.001 C 
BRANCH   5   6
ATOM      6  C   UNL     1     -29.651 -16.928  13.957  1.00  0.00     0.009 C 
BRANCH   6   7
ATOM      7  C   UNL     1     -28.415 -17.806  13.675  1.00  0.00     0.032 C 
ATOM      8  C   UNL     1     -28.628 -19.226  14.211  1.00  0.00     0.014 C 
BRANCH   7   9
ATOM      9  C   UNL     1     -28.109 -17.861  12.202  1.00  0.00     0.044 C 
ATOM     10  O   UNL     1     -28.563 -16.977  11.430  1.00  0.00    -0.550 OA
ATOM     11  O   UNL     1     -27.319 -18.882  11.685  1.00  0.00    -0.550 OA
ENDBRANCH   7   9
ENDBRANCH   6   7
ENDBRANCH   5   6
ENDBRANCH   4   5
ENDBRANCH   3   4
ENDBRANCH   2   3
ENDBRANCH   1   2
BRANCH   1  12
ATOM     12  C   UNL     1     -28.368 -15.151  17.312  1.00  0.00     0.000 C 
BRANCH  12  13
ATOM     13  C   UNL     1     -29.504 -14.354  16.644  1.00  0.00    -0.000 C 
BRANCH  13  14
ATOM     14  C   UNL     1     -29.873 -13.030  17.341  1.00  0.00    -0.000 C 
BRANCH  14  15
ATOM     15  C   UNL     1     -29.083 -11.810  16.821  1.00  0.00    -0.000 C 
BRANCH  15  16
ATOM     16  C   UNL     1     -28.079 -11.275  17.854  1.00  0.00    -0.000 C 
BRANCH  16  17
ATOM     17  C   UNL     1     -26.747 -10.904  17.183  1.00  0.00    -0.000 C 
BRANCH  17  18
ATOM     18  C   UNL     1     -25.952 -12.137  16.729  1.00  0.00    -0.003 C 
ATOM     19  C   UNL     1     -25.441 -12.976  17.900  1.00  0.00     0.004 C 
ENDBRANCH  17  18
ENDBRANCH  16  17
ENDBRANCH  15  16
ENDBRANCH  14  15
ENDBRANCH  13  14
ENDBRANCH  12  13
ENDBRANCH   1  12
TORSDOF 14
ENDMDL
