MODEL 1
REMARK VINA RESULT:    -5.243      0.000      0.000
REMARK INTER + INTRA:          -8.147
REMARK INTER:                  -8.002
REMARK INTRA:                  -0.145
REMARK UNBOUND:                -0.145
REMARK SMILES CC1=CCC[C@@H](C)C(=O)C[C@@H](C(C)C)C(=O)C1
REMARK SMILES IDX 8 1 9 2 6 3 7 4 5 5 4 6 3 7 2 8 1 9 10 11 11 12 15 13 16 14
REMARK SMILES IDX 17 15 12 17 13 18 14 19
REMARK H PARENT
REMARK Flexibility Score: 70.00
ROOT
ATOM      1  C   UNL     1      28.129 -22.005  19.053  1.00  0.00     0.136 C 
ATOM      2  O   UNL     1      29.335 -21.816  19.129  1.00  0.00    -0.299 OA
ENDROOT
BRANCH   1   3
ATOM      3  C   UNL     1      27.518 -23.243  19.674  1.00  0.00     0.053 C 
ATOM      4  C   UNL     1      28.632 -24.225  20.050  1.00  0.00     0.016 C 
BRANCH   3   5
ATOM      5  C   UNL     1      26.497 -23.930  18.737  1.00  0.00     0.015 C 
BRANCH   5   6
ATOM      6  C   UNL     1      25.082 -24.032  19.327  1.00  0.00     0.028 C 
BRANCH   6   7
ATOM      7  C   UNL     1      24.031 -23.693  18.298  1.00  0.00    -0.028 C 
ATOM      8  C   UNL     1      23.407 -22.498  18.192  1.00  0.00    -0.070 CG0
ATOM      9  C   UNL     1      22.381 -22.329  17.101  1.00  0.00     0.039 C 
ATOM     10  G   UNL     1      23.704 -21.329  19.113  1.00  0.00     0.000 G0
ENDBRANCH   6   7
ENDBRANCH   5   6
ENDBRANCH   3   5
ENDBRANCH   1   3
BRANCH   1  11
ATOM     11  C   UNL     1      27.260 -20.962  18.389  1.00  0.00     0.087 C 
BRANCH  11  12
ATOM     12  C   UNL     1      26.179 -20.358  19.324  1.00  0.00     0.066 C 
BRANCH  12  13
ATOM     13  C   UNL     1      24.809 -20.406  18.652  1.00  0.00     0.140 C 
ATOM     14  O   UNL     1      24.571 -19.620  17.746  1.00  0.00    -0.299 OA
BRANCH  13  15
ATOM     15  C   UNL     1      23.689 -21.316  19.114  1.00  0.00     0.106 CG0
ATOM     16  G   UNL     1      23.419 -22.493  18.194  1.00  0.00     0.000 G0
ENDBRANCH  13  15
ENDBRANCH  12  13
BRANCH  12  17
ATOM     17  C   UNL     1      26.531 -18.891  19.731  1.00  0.00    -0.006 C 
ATOM     18  C   UNL     1      25.525 -18.330  20.752  1.00  0.00     0.008 C 
ATOM     19  C   UNL     1      27.949 -18.775  20.320  1.00  0.00     0.008 C 
ENDBRANCH  12  17
ENDBRANCH  11  12
ENDBRANCH   1  11
TORSDOF 1
ENDMDL
MODEL 2
REMARK VINA RESULT:    -4.866      2.618      4.546
REMARK INTER + INTRA:          -7.571
REMARK INTER:                  -7.598
REMARK INTRA:                   0.026
REMARK UNBOUND:                -0.145
REMARK SMILES CC1=CCC[C@@H](C)C(=O)C[C@@H](C(C)C)C(=O)C1
REMARK SMILES IDX 8 1 9 2 6 3 7 4 5 5 4 6 3 7 2 8 1 9 10 11 11 12 15 13 16 14
REMARK SMILES IDX 17 15 12 17 13 18 14 19
REMARK H PARENT
REMARK Flexibility Score: 70.00
ROOT
ATOM      1  C   UNL     1      24.107 -20.101  19.755  1.00  0.00     0.136 C 
ATOM      2  O   UNL     1      24.502 -19.113  20.359  1.00  0.00    -0.299 OA
ENDROOT
BRANCH   1   3
ATOM      3  C   UNL     1      24.759 -20.496  18.447  1.00  0.00     0.053 C 
ATOM      4  C   UNL     1      26.278 -20.559  18.633  1.00  0.00     0.016 C 
BRANCH   3   5
ATOM      5  C   UNL     1      24.405 -19.524  17.296  1.00  0.00     0.015 C 
BRANCH   5   6
ATOM      6  C   UNL     1      23.231 -19.995  16.424  1.00  0.00     0.028 C 
BRANCH   6   7
ATOM      7  C   UNL     1      23.307 -21.479  16.155  1.00  0.00    -0.028 C 
ATOM      8  C   UNL     1      22.380 -22.384  16.542  1.00  0.00    -0.070 CG0
ATOM      9  C   UNL     1      22.611 -23.831  16.187  1.00  0.00     0.039 C 
ATOM     10  G   UNL     1      21.123 -22.003  17.303  1.00  0.00     0.000 G0
ENDBRANCH   6   7
ENDBRANCH   5   6
ENDBRANCH   3   5
ENDBRANCH   1   3
BRANCH   1  11
ATOM     11  C   UNL     1      23.013 -20.947  20.362  1.00  0.00     0.087 C 
BRANCH  11  12
ATOM     12  C   UNL     1      22.639 -22.193  19.514  1.00  0.00     0.066 C 
BRANCH  12  13
ATOM     13  C   UNL     1      21.298 -21.978  18.817  1.00  0.00     0.140 C 
ATOM     14  O   UNL     1      20.294 -21.844  19.502  1.00  0.00    -0.299 OA
BRANCH  13  15
ATOM     15  C   UNL     1      21.129 -22.016  17.311  1.00  0.00     0.106 CG0
ATOM     16  G   UNL     1      22.391 -22.378  16.549  1.00  0.00     0.000 G0
ENDBRANCH  13  15
ENDBRANCH  12  13
BRANCH  12  17
ATOM     17  C   UNL     1      22.592 -23.486  20.389  1.00  0.00    -0.006 C 
ATOM     18  C   UNL     1      23.760 -24.433  20.062  1.00  0.00     0.008 C 
ATOM     19  C   UNL     1      22.620 -23.169  21.897  1.00  0.00     0.008 C 
ENDBRANCH  12  17
ENDBRANCH  11  12
ENDBRANCH   1  11
TORSDOF 1
ENDMDL
MODEL 3
REMARK VINA RESULT:    -4.865      1.771      4.096
REMARK INTER + INTRA:          -7.569
REMARK INTER:                  -7.485
REMARK INTRA:                  -0.085
REMARK UNBOUND:                -0.145
REMARK SMILES CC1=CCC[C@@H](C)C(=O)C[C@@H](C(C)C)C(=O)C1
REMARK SMILES IDX 8 1 9 2 6 3 7 4 5 5 4 6 3 7 2 8 1 9 10 11 11 12 15 13 16 14
REMARK SMILES IDX 17 15 12 17 13 18 14 19
REMARK H PARENT
REMARK Flexibility Score: 70.00
ROOT
ATOM      1  C   UNL     1      27.951 -22.609  19.459  1.00  0.00     0.136 C 
ATOM      2  O   UNL     1      29.102 -22.975  19.652  1.00  0.00    -0.299 OA
ENDROOT
BRANCH   1   3
ATOM      3  C   UNL     1      27.684 -21.325  18.702  1.00  0.00     0.053 C 
ATOM      4  C   UNL     1      28.984 -20.523  18.587  1.00  0.00     0.016 C 
BRANCH   3   5
ATOM      5  C   UNL     1      26.586 -20.464  19.370  1.00  0.00     0.015 C 
BRANCH   5   6
ATOM      6  C   UNL     1      25.323 -20.294  18.512  1.00  0.00     0.028 C 
BRANCH   6   7
ATOM      7  C   UNL     1      24.070 -20.494  19.331  1.00  0.00    -0.028 C 
ATOM      8  C   UNL     1      23.295 -21.601  19.302  1.00  0.00    -0.070 CG0
ATOM      9  C   UNL     1      22.076 -21.637  20.189  1.00  0.00     0.039 C 
ATOM     10  G   UNL     1      23.605 -22.802  18.426  1.00  0.00     0.000 G0
ENDBRANCH   6   7
ENDBRANCH   5   6
ENDBRANCH   3   5
ENDBRANCH   1   3
BRANCH   1  11
ATOM     11  C   UNL     1      26.811 -23.481  19.931  1.00  0.00     0.087 C 
BRANCH  11  12
ATOM     12  C   UNL     1      25.947 -24.062  18.780  1.00  0.00     0.066 C 
BRANCH  12  13
ATOM     13  C   UNL     1      24.463 -23.879  19.086  1.00  0.00     0.140 C 
ATOM     14  O   UNL     1      23.917 -24.668  19.843  1.00  0.00    -0.299 OA
BRANCH  13  15
ATOM     15  C   UNL     1      23.603 -22.822  18.422  1.00  0.00     0.106 CG0
ATOM     16  G   UNL     1      23.312 -21.613  19.293  1.00  0.00     0.000 G0
ENDBRANCH  13  15
ENDBRANCH  12  13
BRANCH  12  17
ATOM     17  C   UNL     1      26.266 -25.571  18.532  1.00  0.00    -0.006 C 
ATOM     18  C   UNL     1      25.487 -26.124  17.325  1.00  0.00     0.008 C 
ATOM     19  C   UNL     1      27.769 -25.818  18.304  1.00  0.00     0.008 C 
ENDBRANCH  12  17
ENDBRANCH  11  12
ENDBRANCH   1  11
TORSDOF 1
ENDMDL
MODEL 4
REMARK VINA RESULT:    -4.794      2.362      4.494
REMARK INTER + INTRA:          -7.462
REMARK INTER:                  -7.568
REMARK INTRA:                   0.106
REMARK UNBOUND:                -0.145
REMARK SMILES CC1=CCC[C@@H](C)C(=O)C[C@@H](C(C)C)C(=O)C1
REMARK SMILES IDX 8 1 9 2 6 3 7 4 5 5 4 6 3 7 2 8 1 9 10 11 11 12 15 13 16 14
REMARK SMILES IDX 17 15 12 17 13 18 14 19
REMARK H PARENT
REMARK Flexibility Score: 70.00
ROOT
ATOM      1  C   UNL     1      22.620 -20.616  20.499  1.00  0.00     0.136 C 
ATOM      2  O   UNL     1      22.257 -19.788  21.323  1.00  0.00    -0.299 OA
ENDROOT
BRANCH   1   3
ATOM      3  C   UNL     1      21.918 -21.954  20.415  1.00  0.00     0.053 C 
ATOM      4  C   UNL     1      20.404 -21.731  20.344  1.00  0.00     0.016 C 
BRANCH   3   5
ATOM      5  C   UNL     1      22.264 -22.877  21.608  1.00  0.00     0.015 C 
BRANCH   5   6
ATOM      6  C   UNL     1      23.466 -23.798  21.352  1.00  0.00     0.028 C 
BRANCH   6   7
ATOM      7  C   UNL     1      23.380 -24.450  19.993  1.00  0.00    -0.028 C 
ATOM      8  C   UNL     1      24.309 -24.335  19.018  1.00  0.00    -0.070 CG0
ATOM      9  C   UNL     1      24.065 -25.057  17.717  1.00  0.00     0.039 C 
ATOM     10  G   UNL     1      25.581 -23.523  19.183  1.00  0.00     0.000 G0
ENDBRANCH   6   7
ENDBRANCH   5   6
ENDBRANCH   3   5
ENDBRANCH   1   3
BRANCH   1  11
ATOM     11  C   UNL     1      23.727 -20.259  19.535  1.00  0.00     0.087 C 
BRANCH  11  12
ATOM     12  C   UNL     1      24.090 -21.400  18.546  1.00  0.00     0.066 C 
BRANCH  12  13
ATOM     13  C   UNL     1      25.419 -22.039  18.937  1.00  0.00     0.140 C 
ATOM     14  O   UNL     1      26.418 -21.335  18.984  1.00  0.00    -0.299 OA
BRANCH  13  15
ATOM     15  C   UNL     1      25.586 -23.526  19.178  1.00  0.00     0.106 CG0
ATOM     16  G   UNL     1      24.310 -24.333  19.019  1.00  0.00     0.000 G0
ENDBRANCH  13  15
ENDBRANCH  12  13
BRANCH  12  17
ATOM     17  C   UNL     1      24.152 -20.880  17.074  1.00  0.00    -0.006 C 
ATOM     18  C   UNL     1      22.875 -21.240  16.293  1.00  0.00     0.008 C 
ATOM     19  C   UNL     1      24.360 -19.355  17.003  1.00  0.00     0.008 C 
ENDBRANCH  12  17
ENDBRANCH  11  12
ENDBRANCH   1  11
TORSDOF 1
ENDMDL
MODEL 5
REMARK VINA RESULT:    -4.774      2.080      4.626
REMARK INTER + INTRA:          -7.432
REMARK INTER:                  -7.210
REMARK INTRA:                  -0.221
REMARK UNBOUND:                -0.145
REMARK SMILES CC1=CCC[C@@H](C)C(=O)C[C@@H](C(C)C)C(=O)C1
REMARK SMILES IDX 8 1 9 2 6 3 7 4 5 5 4 6 3 7 2 8 1 9 10 11 11 12 15 13 16 14
REMARK SMILES IDX 17 15 12 17 13 18 14 19
REMARK H PARENT
REMARK Flexibility Score: 70.00
ROOT
ATOM      1  C   UNL     1      24.630 -20.326  18.230  1.00  0.00     0.136 C 
ATOM      2  O   UNL     1      24.480 -19.439  17.400  1.00  0.00    -0.299 OA
ENDROOT
BRANCH   1   3
ATOM      3  C   UNL     1      25.749 -20.229  19.245  1.00  0.00     0.053 C 
ATOM      4  C   UNL     1      25.897 -18.774  19.701  1.00  0.00     0.016 C 
BRANCH   3   5
ATOM      5  C   UNL     1      27.095 -20.753  18.690  1.00  0.00     0.015 C 
BRANCH   5   6
ATOM      6  C   UNL     1      27.779 -21.789  19.594  1.00  0.00     0.028 C 
BRANCH   6   7
ATOM      7  C   UNL     1      27.959 -23.108  18.881  1.00  0.00    -0.028 C 
ATOM      8  C   UNL     1      27.111 -24.156  18.966  1.00  0.00    -0.070 CG0
ATOM      9  C   UNL     1      27.442 -25.401  18.183  1.00  0.00     0.039 C 
ATOM     10  G   UNL     1      25.844 -24.126  19.802  1.00  0.00     0.000 G0
ENDBRANCH   6   7
ENDBRANCH   5   6
ENDBRANCH   3   5
ENDBRANCH   1   3
BRANCH   1  11
ATOM     11  C   UNL     1      23.652 -21.477  18.262  1.00  0.00     0.087 C 
BRANCH  11  12
ATOM     12  C   UNL     1      23.828 -22.417  19.485  1.00  0.00     0.066 C 
BRANCH  12  13
ATOM     13  C   UNL     1      24.591 -23.675  19.081  1.00  0.00     0.140 C 
ATOM     14  O   UNL     1      24.136 -24.378  18.190  1.00  0.00    -0.299 OA
BRANCH  13  15
ATOM     15  C   UNL     1      25.840 -24.155  19.795  1.00  0.00     0.106 CG0
ATOM     16  G   UNL     1      27.094 -24.140  18.940  1.00  0.00     0.000 G0
ENDBRANCH  13  15
ENDBRANCH  12  13
BRANCH  12  17
ATOM     17  C   UNL     1      22.451 -22.798  20.115  1.00  0.00    -0.006 C 
ATOM     18  C   UNL     1      22.626 -23.552  21.446  1.00  0.00     0.008 C 
ATOM     19  C   UNL     1      21.561 -21.564  20.359  1.00  0.00     0.008 C 
ENDBRANCH  12  17
ENDBRANCH  11  12
ENDBRANCH   1  11
TORSDOF 1
ENDMDL
MODEL 6
REMARK VINA RESULT:    -4.704      3.113      6.971
REMARK INTER + INTRA:          -7.324
REMARK INTER:                  -7.209
REMARK INTRA:                  -0.115
REMARK UNBOUND:                -0.145
REMARK SMILES CC1=CCC[C@@H](C)C(=O)C[C@@H](C(C)C)C(=O)C1
REMARK SMILES IDX 8 1 9 2 6 3 7 4 5 5 4 6 3 7 2 8 1 9 10 11 11 12 15 13 16 14
REMARK SMILES IDX 17 15 12 17 13 18 14 19
REMARK H PARENT
REMARK Flexibility Score: 70.00
ROOT
ATOM      1  C   UNL     1      18.852 -21.710  17.625  1.00  0.00     0.136 C 
ATOM      2  O   UNL     1      17.726 -21.600  17.157  1.00  0.00    -0.299 OA
ENDROOT
BRANCH   1   3
ATOM      3  C   UNL     1      19.033 -22.172  19.055  1.00  0.00     0.053 C 
ATOM      4  C   UNL     1      17.673 -22.189  19.760  1.00  0.00     0.016 C 
BRANCH   3   5
ATOM      5  C   UNL     1      20.028 -21.283  19.840  1.00  0.00     0.015 C 
BRANCH   5   6
ATOM      6  C   UNL     1      21.284 -22.027  20.314  1.00  0.00     0.028 C 
BRANCH   6   7
ATOM      7  C   UNL     1      22.530 -21.205  20.084  1.00  0.00    -0.028 C 
ATOM      8  C   UNL     1      23.434 -21.426  19.104  1.00  0.00    -0.070 CG0
ATOM      9  C   UNL     1      24.624 -20.505  19.015  1.00  0.00     0.039 C 
ATOM     10  G   UNL     1      23.294 -22.549  18.091  1.00  0.00     0.000 G0
ENDBRANCH   6   7
ENDBRANCH   5   6
ENDBRANCH   3   5
ENDBRANCH   1   3
BRANCH   1  11
ATOM     11  C   UNL     1      20.046 -21.439  16.741  1.00  0.00     0.087 C 
BRANCH  11  12
ATOM     12  C   UNL     1      21.034 -22.632  16.635  1.00  0.00     0.066 C 
BRANCH  12  13
ATOM     13  C   UNL     1      22.466 -22.156  16.858  1.00  0.00     0.140 C 
ATOM     14  O   UNL     1      23.010 -21.499  15.982  1.00  0.00    -0.299 OA
BRANCH  13  15
ATOM     15  C   UNL     1      23.289 -22.539  18.073  1.00  0.00     0.106 CG0
ATOM     16  G   UNL     1      23.434 -21.433  19.103  1.00  0.00     0.000 G0
ENDBRANCH  13  15
ENDBRANCH  12  13
BRANCH  12  17
ATOM     17  C   UNL     1      20.911 -23.354  15.255  1.00  0.00    -0.006 C 
ATOM     18  C   UNL     1      21.831 -24.586  15.178  1.00  0.00     0.008 C 
ATOM     19  C   UNL     1      19.466 -23.796  14.956  1.00  0.00     0.008 C 
ENDBRANCH  12  17
ENDBRANCH  11  12
ENDBRANCH   1  11
TORSDOF 1
ENDMDL
MODEL 7
REMARK VINA RESULT:    -4.618      2.498      3.572
REMARK INTER + INTRA:          -7.193
REMARK INTER:                  -7.269
REMARK INTRA:                   0.077
REMARK UNBOUND:                -0.145
REMARK SMILES CC1=CCC[C@@H](C)C(=O)C[C@@H](C(C)C)C(=O)C1
REMARK SMILES IDX 8 1 9 2 6 3 7 4 5 5 4 6 3 7 2 8 1 9 10 11 11 12 15 13 16 14
REMARK SMILES IDX 17 15 12 17 13 18 14 19
REMARK H PARENT
REMARK Flexibility Score: 70.00
ROOT
ATOM      1  C   UNL     1      23.660 -23.352  18.260  1.00  0.00     0.136 C 
ATOM      2  O   UNL     1      23.289 -24.041  17.320  1.00  0.00    -0.299 OA
ENDROOT
BRANCH   1   3
ATOM      3  C   UNL     1      24.477 -23.972  19.374  1.00  0.00     0.053 C 
ATOM      4  C   UNL     1      25.722 -24.638  18.781  1.00  0.00     0.016 C 
BRANCH   3   5
ATOM      5  C   UNL     1      23.665 -25.000  20.198  1.00  0.00     0.015 C 
BRANCH   5   6
ATOM      6  C   UNL     1      22.860 -24.378  21.348  1.00  0.00     0.028 C 
BRANCH   6   7
ATOM      7  C   UNL     1      21.643 -23.645  20.835  1.00  0.00    -0.028 C 
ATOM      8  C   UNL     1      21.473 -22.305  20.870  1.00  0.00    -0.070 CG0
ATOM      9  C   UNL     1      20.194 -21.737  20.310  1.00  0.00     0.039 C 
ATOM     10  G   UNL     1      22.514 -21.357  21.436  1.00  0.00     0.000 G0
ENDBRANCH   6   7
ENDBRANCH   5   6
ENDBRANCH   3   5
ENDBRANCH   1   3
BRANCH   1  11
ATOM     11  C   UNL     1      23.345 -21.874  18.260  1.00  0.00     0.087 C 
BRANCH  11  12
ATOM     12  C   UNL     1      24.143 -21.062  19.316  1.00  0.00     0.066 C 
BRANCH  12  13
ATOM     13  C   UNL     1      23.200 -20.498  20.375  1.00  0.00     0.140 C 
ATOM     14  O   UNL     1      23.053 -19.287  20.446  1.00  0.00    -0.299 OA
BRANCH  13  15
ATOM     15  C   UNL     1      22.507 -21.359  21.413  1.00  0.00     0.106 CG0
ATOM     16  G   UNL     1      21.460 -22.301  20.846  1.00  0.00     0.000 G0
ENDBRANCH  13  15
ENDBRANCH  12  13
BRANCH  12  17
ATOM     17  C   UNL     1      24.960 -19.909  18.650  1.00  0.00    -0.006 C 
ATOM     18  C   UNL     1      26.472 -20.200  18.673  1.00  0.00     0.008 C 
ATOM     19  C   UNL     1      24.529 -19.656  17.193  1.00  0.00     0.008 C 
ENDBRANCH  12  17
ENDBRANCH  11  12
ENDBRANCH   1  11
TORSDOF 1
ENDMDL
MODEL 8
REMARK VINA RESULT:    -4.485      1.996      4.247
REMARK INTER + INTRA:          -6.990
REMARK INTER:                  -6.765
REMARK INTRA:                  -0.224
REMARK UNBOUND:                -0.145
REMARK SMILES CC1=CCC[C@@H](C)C(=O)C[C@@H](C(C)C)C(=O)C1
REMARK SMILES IDX 8 1 9 2 6 3 7 4 5 5 4 6 3 7 2 8 1 9 10 11 11 12 15 13 16 14
REMARK SMILES IDX 17 15 12 17 13 18 14 19
REMARK H PARENT
REMARK Flexibility Score: 70.00
ROOT
ATOM      1  C   UNL     1      26.163 -24.262  19.026  1.00  0.00     0.136 C 
ATOM      2  O   UNL     1      25.505 -25.220  18.640  1.00  0.00    -0.299 OA
ENDROOT
BRANCH   1   3
ATOM      3  C   UNL     1      27.657 -24.229  18.787  1.00  0.00     0.053 C 
ATOM      4  C   UNL     1      28.240 -25.627  19.015  1.00  0.00     0.016 C 
BRANCH   3   5
ATOM      5  C   UNL     1      28.375 -23.200  19.693  1.00  0.00     0.015 C 
BRANCH   5   6
ATOM      6  C   UNL     1      28.849 -21.942  18.948  1.00  0.00     0.028 C 
BRANCH   6   7
ATOM      7  C   UNL     1      28.536 -20.689  19.730  1.00  0.00    -0.028 C 
ATOM      8  C   UNL     1      27.481 -19.876  19.501  1.00  0.00    -0.070 CG0
ATOM      9  C   UNL     1      27.315 -18.664  20.382  1.00  0.00     0.039 C 
ATOM     10  G   UNL     1      26.460 -20.139  18.409  1.00  0.00     0.000 G0
ENDBRANCH   6   7
ENDBRANCH   5   6
ENDBRANCH   3   5
ENDBRANCH   1   3
BRANCH   1  11
ATOM     11  C   UNL     1      25.456 -23.099  19.680  1.00  0.00     0.087 C 
BRANCH  11  12
ATOM     12  C   UNL     1      24.728 -22.162  18.679  1.00  0.00     0.066 C 
BRANCH  12  13
ATOM     13  C   UNL     1      25.139 -20.711  18.915  1.00  0.00     0.140 C 
ATOM     14  O   UNL     1      24.348 -19.959  19.467  1.00  0.00    -0.299 OA
BRANCH  13  15
ATOM     15  C   UNL     1      26.443 -20.125  18.414  1.00  0.00     0.106 CG0
ATOM     16  G   UNL     1      27.474 -19.873  19.499  1.00  0.00     0.000 G0
ENDBRANCH  13  15
ENDBRANCH  12  13
BRANCH  12  17
ATOM     17  C   UNL     1      23.177 -22.310  18.783  1.00  0.00    -0.006 C 
ATOM     18  C   UNL     1      22.567 -22.825  17.467  1.00  0.00     0.008 C 
ATOM     19  C   UNL     1      22.758 -23.255  19.925  1.00  0.00     0.008 C 
ENDBRANCH  12  17
ENDBRANCH  11  12
ENDBRANCH   1  11
TORSDOF 1
ENDMDL
MODEL 9
REMARK VINA RESULT:    -4.403      3.620      6.646
REMARK INTER + INTRA:          -6.865
REMARK INTER:                  -7.017
REMARK INTRA:                   0.153
REMARK UNBOUND:                -0.145
REMARK SMILES CC1=CCC[C@@H](C)C(=O)C[C@@H](C(C)C)C(=O)C1
REMARK SMILES IDX 8 1 9 2 6 3 7 4 5 5 4 6 3 7 2 8 1 9 10 11 11 12 15 13 16 14
REMARK SMILES IDX 17 15 12 17 13 18 14 19
REMARK H PARENT
REMARK Flexibility Score: 70.00
ROOT
ATOM      1  C   UNL     1      18.589 -21.894  18.466  1.00  0.00     0.136 C 
ATOM      2  O   UNL     1      17.400 -21.688  18.671  1.00  0.00    -0.299 OA
ENDROOT
BRANCH   1   3
ATOM      3  C   UNL     1      19.168 -21.663  17.087  1.00  0.00     0.053 C 
ATOM      4  C   UNL     1      18.082 -21.899  16.033  1.00  0.00     0.016 C 
BRANCH   3   5
ATOM      5  C   UNL     1      20.391 -22.567  16.803  1.00  0.00     0.015 C 
BRANCH   5   6
ATOM      6  C   UNL     1      21.730 -21.815  16.791  1.00  0.00     0.028 C 
BRANCH   6   7
ATOM      7  C   UNL     1      22.840 -22.658  17.372  1.00  0.00    -0.028 C 
ATOM      8  C   UNL     1      23.401 -22.469  18.587  1.00  0.00    -0.070 CG0
ATOM      9  C   UNL     1      24.500 -23.408  19.015  1.00  0.00     0.039 C 
ATOM     10  G   UNL     1      22.966 -21.365  19.534  1.00  0.00     0.000 G0
ENDBRANCH   6   7
ENDBRANCH   5   6
ENDBRANCH   3   5
ENDBRANCH   1   3
BRANCH   1  11
ATOM     11  C   UNL     1      19.471 -22.317  19.616  1.00  0.00     0.087 C 
BRANCH  11  12
ATOM     12  C   UNL     1      20.381 -21.183  20.162  1.00  0.00     0.066 C 
BRANCH  12  13
ATOM     13  C   UNL     1      21.789 -21.710  20.420  1.00  0.00     0.140 C 
ATOM     14  O   UNL     1      21.991 -22.381  21.422  1.00  0.00    -0.299 OA
BRANCH  13  15
ATOM     15  C   UNL     1      22.979 -21.364  19.547  1.00  0.00     0.106 CG0
ATOM     16  G   UNL     1      23.398 -22.469  18.594  1.00  0.00     0.000 G0
ENDBRANCH  13  15
ENDBRANCH  12  13
BRANCH  12  17
ATOM     17  C   UNL     1      19.790 -20.555  21.464  1.00  0.00    -0.006 C 
ATOM     18  C   UNL     1      20.625 -19.352  21.941  1.00  0.00     0.008 C 
ATOM     19  C   UNL     1      18.330 -20.101  21.281  1.00  0.00     0.008 C 
ENDBRANCH  12  17
ENDBRANCH  11  12
ENDBRANCH   1  11
TORSDOF 1
ENDMDL
