MODEL 1
REMARK VINA RESULT:    12.388      0.000      0.000
REMARK INTER + INTRA:          14.034
REMARK INTER:                  13.836
REMARK INTRA:                   0.198
REMARK UNBOUND:                 0.198
REMARK SMILES O=C([O-])c1ccccc1C(=O)[O-]
REMARK SMILES IDX 4 1 9 2 5 3 8 4 6 5 7 6 2 7 1 8 3 9 10 10 11 11 12 12
REMARK H PARENT
REMARK Flexibility Score: inf
ROOT
ATOM      1  C   UNL     1      11.019  69.990   4.584  1.00  0.00     0.006 A 
ATOM      2  C   UNL     1       9.760  70.597   4.855  1.00  0.00     0.006 A 
ATOM      3  C   UNL     1      11.141  69.138   3.471  1.00  0.00     0.010 A 
ATOM      4  C   UNL     1       8.690  70.379   3.968  1.00  0.00     0.010 A 
ATOM      5  C   UNL     1      10.060  68.919   2.618  1.00  0.00     0.001 A 
ATOM      6  C   UNL     1       8.841  69.547   2.858  1.00  0.00     0.001 A 
ENDROOT
BRANCH   1   7
ATOM      7  C   UNL     1      12.237  70.269   5.380  1.00  0.00     0.072 C 
ATOM      8  O   UNL     1      12.451  71.419   5.849  1.00  0.00    -0.545 OA
ATOM      9  O   UNL     1      13.192  69.277   5.563  1.00  0.00    -0.545 OA
ENDBRANCH   1   7
BRANCH   2  10
ATOM     10  C   UNL     1       9.504  71.394   6.076  1.00  0.00     0.072 C 
ATOM     11  O   UNL     1       9.215  72.618   5.985  1.00  0.00    -0.545 OA
ATOM     12  O   UNL     1       9.513  70.795   7.331  1.00  0.00    -0.545 OA
ENDBRANCH   2  10
TORSDOF 2
ENDMDL
MODEL 2
REMARK VINA RESULT:    12.408      0.085      3.019
REMARK INTER + INTRA:          14.057
REMARK INTER:                  13.878
REMARK INTRA:                   0.178
REMARK UNBOUND:                 0.198
REMARK SMILES O=C([O-])c1ccccc1C(=O)[O-]
REMARK SMILES IDX 4 1 9 2 5 3 8 4 6 5 7 6 2 7 1 8 3 9 10 10 11 11 12 12
REMARK H PARENT
REMARK Flexibility Score: inf
ROOT
ATOM      1  C   UNL     1       9.728  70.604   4.859  1.00  0.00     0.006 A 
ATOM      2  C   UNL     1      10.992  70.013   4.579  1.00  0.00     0.006 A 
ATOM      3  C   UNL     1       8.652  70.364   3.985  1.00  0.00     0.010 A 
ATOM      4  C   UNL     1      11.115  69.154   3.471  1.00  0.00     0.010 A 
ATOM      5  C   UNL     1       8.803  69.526   2.880  1.00  0.00     0.001 A 
ATOM      6  C   UNL     1      10.028  68.913   2.630  1.00  0.00     0.001 A 
ENDROOT
BRANCH   1   7
ATOM      7  C   UNL     1       9.466  71.410   6.074  1.00  0.00     0.072 C 
ATOM      8  O   UNL     1       9.238  72.646   5.991  1.00  0.00    -0.545 OA
ATOM      9  O   UNL     1       9.534  70.819   7.330  1.00  0.00    -0.545 OA
ENDBRANCH   1   7
BRANCH   2  10
ATOM     10  C   UNL     1      12.210  70.322   5.363  1.00  0.00     0.072 C 
ATOM     11  O   UNL     1      13.090  69.437   5.539  1.00  0.00    -0.545 OA
ATOM     12  O   UNL     1      12.431  71.602   5.857  1.00  0.00    -0.545 OA
ENDBRANCH   2  10
TORSDOF 2
ENDMDL
MODEL 3
REMARK VINA RESULT:    13.424      6.252      6.652
REMARK INTER + INTRA:          15.192
REMARK INTER:                  15.229
REMARK INTRA:                  -0.038
REMARK UNBOUND:                 0.198
REMARK SMILES O=C([O-])c1ccccc1C(=O)[O-]
REMARK SMILES IDX 4 1 9 2 5 3 8 4 6 5 7 6 2 7 1 8 3 9 10 10 11 11 12 12
REMARK H PARENT
REMARK Flexibility Score: inf
ROOT
ATOM      1  C   UNL     1      11.512  76.617   3.354  1.00  0.00     0.006 A 
ATOM      2  C   UNL     1      10.093  76.597   3.240  1.00  0.00     0.006 A 
ATOM      3  C   UNL     1      12.290  76.127   2.289  1.00  0.00     0.010 A 
ATOM      4  C   UNL     1       9.509  76.148   2.041  1.00  0.00     0.010 A 
ATOM      5  C   UNL     1      11.688  75.666   1.118  1.00  0.00     0.001 A 
ATOM      6  C   UNL     1      10.302  75.687   0.989  1.00  0.00     0.001 A 
ENDROOT
BRANCH   1   7
ATOM      7  C   UNL     1      12.219  77.198   4.518  1.00  0.00     0.072 C 
ATOM      8  O   UNL     1      13.061  78.123   4.366  1.00  0.00    -0.545 OA
ATOM      9  O   UNL     1      12.008  76.681   5.791  1.00  0.00    -0.545 OA
ENDBRANCH   1   7
BRANCH   2  10
ATOM     10  C   UNL     1       9.196  76.962   4.360  1.00  0.00     0.072 C 
ATOM     11  O   UNL     1       8.832  76.086   5.191  1.00  0.00    -0.545 OA
ATOM     12  O   UNL     1       8.797  78.280   4.551  1.00  0.00    -0.545 OA
ENDBRANCH   2  10
TORSDOF 2
ENDMDL
MODEL 4
REMARK VINA RESULT:    13.547      6.263      7.155
REMARK INTER + INTRA:          15.329
REMARK INTER:                  15.333
REMARK INTRA:                  -0.004
REMARK UNBOUND:                 0.198
REMARK SMILES O=C([O-])c1ccccc1C(=O)[O-]
REMARK SMILES IDX 4 1 9 2 5 3 8 4 6 5 7 6 2 7 1 8 3 9 10 10 11 11 12 12
REMARK H PARENT
REMARK Flexibility Score: inf
ROOT
ATOM      1  C   UNL     1      10.115  76.605   3.268  1.00  0.00     0.006 A 
ATOM      2  C   UNL     1      11.534  76.606   3.377  1.00  0.00     0.006 A 
ATOM      3  C   UNL     1       9.522  76.177   2.065  1.00  0.00     0.010 A 
ATOM      4  C   UNL     1      12.304  76.119   2.304  1.00  0.00     0.010 A 
ATOM      5  C   UNL     1      10.306  75.719   1.007  1.00  0.00     0.001 A 
ATOM      6  C   UNL     1      11.693  75.679   1.130  1.00  0.00     0.001 A 
ENDROOT
BRANCH   1   7
ATOM      7  C   UNL     1       9.219  76.968   4.390  1.00  0.00     0.072 C 
ATOM      8  O   UNL     1       8.803  76.089   5.192  1.00  0.00    -0.545 OA
ATOM      9  O   UNL     1       8.774  78.276   4.532  1.00  0.00    -0.545 OA
ENDBRANCH   1   7
BRANCH   2  10
ATOM     10  C   UNL     1      12.245  77.168   4.549  1.00  0.00     0.072 C 
ATOM     11  O   UNL     1      13.059  78.118   4.399  1.00  0.00    -0.545 OA
ATOM     12  O   UNL     1      11.977  76.704   5.831  1.00  0.00    -0.545 OA
ENDBRANCH   2  10
TORSDOF 2
ENDMDL
MODEL 5
REMARK VINA RESULT:    15.182      5.996      7.579
REMARK INTER + INTRA:          17.155
REMARK INTER:                  16.976
REMARK INTRA:                   0.178
REMARK UNBOUND:                 0.198
REMARK SMILES O=C([O-])c1ccccc1C(=O)[O-]
REMARK SMILES IDX 4 1 9 2 5 3 8 4 6 5 7 6 2 7 1 8 3 9 10 10 11 11 12 12
REMARK H PARENT
REMARK Flexibility Score: inf
ROOT
ATOM      1  C   UNL     1      10.891  76.616   4.940  1.00  0.00     0.006 A 
ATOM      2  C   UNL     1      11.529  77.003   3.728  1.00  0.00     0.006 A 
ATOM      3  C   UNL     1      11.447  77.028   6.165  1.00  0.00     0.010 A 
ATOM      4  C   UNL     1      12.659  77.839   3.785  1.00  0.00     0.010 A 
ATOM      5  C   UNL     1      12.581  77.838   6.199  1.00  0.00     0.001 A 
ATOM      6  C   UNL     1      13.179  78.253   5.012  1.00  0.00     0.001 A 
ENDROOT
BRANCH   1   7
ATOM      7  C   UNL     1       9.622  75.855   4.976  1.00  0.00     0.072 C 
ATOM      8  O   UNL     1       8.521  76.427   4.756  1.00  0.00    -0.545 OA
ATOM      9  O   UNL     1       9.626  74.508   5.319  1.00  0.00    -0.545 OA
ENDBRANCH   1   7
BRANCH   2  10
ATOM     10  C   UNL     1      11.096  76.503   2.402  1.00  0.00     0.072 C 
ATOM     11  O   UNL     1       9.902  76.654   2.027  1.00  0.00    -0.545 OA
ATOM     12  O   UNL     1      12.009  75.923   1.529  1.00  0.00    -0.545 OA
ENDBRANCH   2  10
TORSDOF 2
ENDMDL
