MODEL 1
REMARK VINA RESULT:    -3.976      0.000      0.000
REMARK INTER + INTRA:          -6.846
REMARK INTER:                  -6.069
REMARK INTRA:                  -0.777
REMARK UNBOUND:                -0.777
REMARK SMILES O=C([O-])CCCCCCCCC(=O)[O-]
REMARK SMILES IDX 7 1 6 2 5 3 4 4 2 5 1 6 3 7 8 8 9 9 10 10 11 11 12 12 13 13
REMARK SMILES IDX 14 14
REMARK H PARENT
REMARK Flexibility Score: inf
ROOT
ATOM      1  C   UNL     1     173.544 176.146 151.156  1.00  0.00     0.000 C 
ENDROOT
BRANCH   1   2
ATOM      2  C   UNL     1     173.518 174.642 150.832  1.00  0.00     0.000 C 
BRANCH   2   3
ATOM      3  C   UNL     1     174.617 173.859 151.566  1.00  0.00     0.006 C 
BRANCH   3   4
ATOM      4  C   UNL     1     175.528 173.080 150.608  1.00  0.00     0.053 C 
BRANCH   4   5
ATOM      5  C   UNL     1     176.950 173.520 150.768  1.00  0.00     0.041 C 
ATOM      6  O   UNL     1     177.698 173.625 149.762  1.00  0.00    -0.550 OA
ATOM      7  O   UNL     1     177.434 173.861 152.024  1.00  0.00    -0.550 OA
ENDBRANCH   4   5
ENDBRANCH   3   4
ENDBRANCH   2   3
ENDBRANCH   1   2
BRANCH   1   8
ATOM      8  C   UNL     1     174.753 176.859 150.511  1.00  0.00     0.000 C 
BRANCH   8   9
ATOM      9  C   UNL     1     175.442 177.866 151.448  1.00  0.00     0.000 C 
BRANCH   9  10
ATOM     10  C   UNL     1     174.648 178.123 152.739  1.00  0.00     0.006 C 
BRANCH  10  11
ATOM     11  C   UNL     1     175.511 177.944 153.996  1.00  0.00     0.053 C 
BRANCH  11  12
ATOM     12  C   UNL     1     175.444 176.541 154.518  1.00  0.00     0.041 C 
ATOM     13  O   UNL     1     174.343 175.932 154.556  1.00  0.00    -0.550 OA
ATOM     14  O   UNL     1     176.604 175.895 154.930  1.00  0.00    -0.550 OA
ENDBRANCH  11  12
ENDBRANCH  10  11
ENDBRANCH   9  10
ENDBRANCH   8   9
ENDBRANCH   1   8
TORSDOF 9
ENDMDL
MODEL 2
REMARK VINA RESULT:    -3.972      1.516      2.068
REMARK INTER + INTRA:          -6.839
REMARK INTER:                  -5.896
REMARK INTRA:                  -0.943
REMARK UNBOUND:                -0.777
REMARK SMILES O=C([O-])CCCCCCCCC(=O)[O-]
REMARK SMILES IDX 7 1 6 2 5 3 4 4 2 5 1 6 3 7 8 8 9 9 10 10 11 11 12 12 13 13
REMARK SMILES IDX 14 14
REMARK H PARENT
REMARK Flexibility Score: inf
ROOT
ATOM      1  C   UNL     1     174.668 174.995 151.137  1.00  0.00     0.000 C 
ENDROOT
BRANCH   1   2
ATOM      2  C   UNL     1     176.166 175.109 150.803  1.00  0.00     0.000 C 
BRANCH   2   3
ATOM      3  C   UNL     1     176.980 173.908 151.310  1.00  0.00     0.006 C 
BRANCH   3   4
ATOM      4  C   UNL     1     176.115 172.878 152.048  1.00  0.00     0.053 C 
BRANCH   4   5
ATOM      5  C   UNL     1     176.516 172.797 153.487  1.00  0.00     0.041 C 
ATOM      6  O   UNL     1     175.645 172.874 154.393  1.00  0.00    -0.550 OA
ATOM      7  O   UNL     1     177.846 172.588 153.827  1.00  0.00    -0.550 OA
ENDBRANCH   4   5
ENDBRANCH   3   4
ENDBRANCH   2   3
ENDBRANCH   1   2
BRANCH   1   8
ATOM      8  C   UNL     1     173.898 176.292 150.806  1.00  0.00     0.000 C 
BRANCH   8   9
ATOM      9  C   UNL     1     174.705 177.573 151.080  1.00  0.00     0.000 C 
BRANCH   9  10
ATOM     10  C   UNL     1     174.488 178.125 152.498  1.00  0.00     0.006 C 
BRANCH  10  11
ATOM     11  C   UNL     1     175.705 177.894 153.404  1.00  0.00     0.053 C 
BRANCH  11  12
ATOM     12  C   UNL     1     175.520 176.696 154.285  1.00  0.00     0.041 C 
ATOM     13  O   UNL     1     174.368 176.228 154.484  1.00  0.00    -0.550 OA
ATOM     14  O   UNL     1     176.624 176.076 154.858  1.00  0.00    -0.550 OA
ENDBRANCH  11  12
ENDBRANCH  10  11
ENDBRANCH   9  10
ENDBRANCH   8   9
ENDBRANCH   1   8
TORSDOF 9
ENDMDL
MODEL 3
REMARK VINA RESULT:    -3.947     10.707     12.223
REMARK INTER + INTRA:          -6.801
REMARK INTER:                  -6.329
REMARK INTRA:                  -0.472
REMARK UNBOUND:                -0.777
REMARK SMILES O=C([O-])CCCCCCCCC(=O)[O-]
REMARK SMILES IDX 7 1 6 2 5 3 4 4 2 5 1 6 3 7 8 8 9 9 10 10 11 11 12 12 13 13
REMARK SMILES IDX 14 14
REMARK H PARENT
REMARK Flexibility Score: inf
ROOT
ATOM      1  C   UNL     1     164.912 177.661 151.610  1.00  0.00     0.000 C 
ENDROOT
BRANCH   1   2
ATOM      2  C   UNL     1     165.820 177.809 150.377  1.00  0.00     0.000 C 
BRANCH   2   3
ATOM      3  C   UNL     1     167.070 176.919 150.451  1.00  0.00     0.006 C 
BRANCH   3   4
ATOM      4  C   UNL     1     167.281 176.089 149.177  1.00  0.00     0.053 C 
BRANCH   4   5
ATOM      5  C   UNL     1     166.808 174.685 149.387  1.00  0.00     0.041 C 
ATOM      6  O   UNL     1     167.640 173.751 149.525  1.00  0.00    -0.550 OA
ATOM      7  O   UNL     1     165.449 174.415 149.479  1.00  0.00    -0.550 OA
ENDBRANCH   4   5
ENDBRANCH   3   4
ENDBRANCH   2   3
ENDBRANCH   1   2
BRANCH   1   8
ATOM      8  C   UNL     1     163.415 177.782 151.248  1.00  0.00     0.000 C 
BRANCH   8   9
ATOM      9  C   UNL     1     162.748 176.431 150.938  1.00  0.00     0.000 C 
BRANCH   9  10
ATOM     10  C   UNL     1     161.242 176.559 150.655  1.00  0.00     0.006 C 
BRANCH  10  11
ATOM     11  C   UNL     1     160.589 177.675 151.481  1.00  0.00     0.053 C 
BRANCH  11  12
ATOM     12  C   UNL     1     160.152 177.184 152.828  1.00  0.00     0.041 C 
ATOM     13  O   UNL     1     160.057 177.987 153.793  1.00  0.00    -0.550 OA
ATOM     14  O   UNL     1     159.815 175.848 153.007  1.00  0.00    -0.550 OA
ENDBRANCH  11  12
ENDBRANCH  10  11
ENDBRANCH   9  10
ENDBRANCH   8   9
ENDBRANCH   1   8
TORSDOF 9
ENDMDL
MODEL 4
REMARK VINA RESULT:    -3.910     10.698     12.797
REMARK INTER + INTRA:          -6.745
REMARK INTER:                  -6.101
REMARK INTRA:                  -0.644
REMARK UNBOUND:                -0.777
REMARK SMILES O=C([O-])CCCCCCCCC(=O)[O-]
REMARK SMILES IDX 7 1 6 2 5 3 4 4 2 5 1 6 3 7 8 8 9 9 10 10 11 11 12 12 13 13
REMARK SMILES IDX 14 14
REMARK H PARENT
REMARK Flexibility Score: inf
ROOT
ATOM      1  C   UNL     1     163.434 176.469 151.122  1.00  0.00     0.000 C 
ENDROOT
BRANCH   1   2
ATOM      2  C   UNL     1     161.928 176.492 150.808  1.00  0.00     0.000 C 
BRANCH   2   3
ATOM      3  C   UNL     1     161.311 177.891 150.963  1.00  0.00     0.006 C 
BRANCH   3   4
ATOM      4  C   UNL     1     160.148 177.916 151.963  1.00  0.00     0.053 C 
BRANCH   4   5
ATOM      5  C   UNL     1     160.600 177.412 153.298  1.00  0.00     0.041 C 
ATOM      6  O   UNL     1     160.160 176.321 153.745  1.00  0.00    -0.550 OA
ATOM      7  O   UNL     1     161.543 178.124 154.027  1.00  0.00    -0.550 OA
ENDBRANCH   4   5
ENDBRANCH   3   4
ENDBRANCH   2   3
ENDBRANCH   1   2
BRANCH   1   8
ATOM      8  C   UNL     1     164.012 177.889 151.305  1.00  0.00     0.000 C 
BRANCH   8   9
ATOM      9  C   UNL     1     165.381 178.086 150.633  1.00  0.00     0.000 C 
BRANCH   9  10
ATOM     10  C   UNL     1     166.343 176.913 150.881  1.00  0.00     0.006 C 
BRANCH  10  11
ATOM     11  C   UNL     1     166.932 176.360 149.576  1.00  0.00     0.053 C 
BRANCH  11  12
ATOM     12  C   UNL     1     166.807 174.869 149.500  1.00  0.00     0.041 C 
ATOM     13  O   UNL     1     165.725 174.343 149.126  1.00  0.00    -0.550 OA
ATOM     14  O   UNL     1     167.896 174.062 149.806  1.00  0.00    -0.550 OA
ENDBRANCH  11  12
ENDBRANCH  10  11
ENDBRANCH   9  10
ENDBRANCH   8   9
ENDBRANCH   1   8
TORSDOF 9
ENDMDL
MODEL 5
REMARK VINA RESULT:    -3.900     11.052     12.612
REMARK INTER + INTRA:          -6.729
REMARK INTER:                  -6.099
REMARK INTRA:                  -0.630
REMARK UNBOUND:                -0.777
REMARK SMILES O=C([O-])CCCCCCCCC(=O)[O-]
REMARK SMILES IDX 7 1 6 2 5 3 4 4 2 5 1 6 3 7 8 8 9 9 10 10 11 11 12 12 13 13
REMARK SMILES IDX 14 14
REMARK H PARENT
REMARK Flexibility Score: inf
ROOT
ATOM      1  C   UNL     1     163.488 176.430 151.487  1.00  0.00     0.000 C 
ENDROOT
BRANCH   1   2
ATOM      2  C   UNL     1     163.884 177.849 151.044  1.00  0.00     0.000 C 
BRANCH   2   3
ATOM      3  C   UNL     1     165.387 178.125 151.211  1.00  0.00     0.006 C 
BRANCH   3   4
ATOM      4  C   UNL     1     166.141 178.112 149.876  1.00  0.00     0.053 C 
BRANCH   4   5
ATOM      5  C   UNL     1     167.094 176.958 149.827  1.00  0.00     0.041 C 
ATOM      6  O   UNL     1     168.286 177.105 150.203  1.00  0.00    -0.550 OA
ATOM      7  O   UNL     1     166.652 175.709 149.412  1.00  0.00    -0.550 OA
ENDBRANCH   4   5
ENDBRANCH   3   4
ENDBRANCH   2   3
ENDBRANCH   1   2
BRANCH   1   8
ATOM      8  C   UNL     1     162.190 175.948 150.803  1.00  0.00     0.000 C 
BRANCH   8   9
ATOM      9  C   UNL     1     161.239 177.094 150.415  1.00  0.00     0.000 C 
BRANCH   9  10
ATOM     10  C   UNL     1     160.084 177.276 151.413  1.00  0.00     0.006 C 
BRANCH  10  11
ATOM     11  C   UNL     1     160.495 178.121 152.627  1.00  0.00     0.053 C 
BRANCH  11  12
ATOM     12  C   UNL     1     160.593 177.292 153.872  1.00  0.00     0.041 C 
ATOM     13  O   UNL     1     160.069 176.148 153.913  1.00  0.00    -0.550 OA
ATOM     14  O   UNL     1     161.293 177.769 154.973  1.00  0.00    -0.550 OA
ENDBRANCH  11  12
ENDBRANCH  10  11
ENDBRANCH   9  10
ENDBRANCH   8   9
ENDBRANCH   1   8
TORSDOF 9
ENDMDL
MODEL 6
REMARK VINA RESULT:    -3.876      1.319      4.363
REMARK INTER + INTRA:          -6.693
REMARK INTER:                  -5.887
REMARK INTRA:                  -0.806
REMARK UNBOUND:                -0.777
REMARK SMILES O=C([O-])CCCCCCCCC(=O)[O-]
REMARK SMILES IDX 7 1 6 2 5 3 4 4 2 5 1 6 3 7 8 8 9 9 10 10 11 11 12 12 13 13
REMARK SMILES IDX 14 14
REMARK H PARENT
REMARK Flexibility Score: inf
ROOT
ATOM      1  C   UNL     1     174.224 177.143 150.686  1.00  0.00     0.000 C 
ENDROOT
BRANCH   1   2
ATOM      2  C   UNL     1     173.880 178.125 151.819  1.00  0.00     0.000 C 
BRANCH   2   3
ATOM      3  C   UNL     1     174.848 178.021 153.008  1.00  0.00     0.006 C 
BRANCH   3   4
ATOM      4  C   UNL     1     174.249 177.250 154.192  1.00  0.00     0.053 C 
BRANCH   4   5
ATOM      5  C   UNL     1     175.303 176.425 154.862  1.00  0.00     0.041 C 
ATOM      6  O   UNL     1     176.512 176.554 154.536  1.00  0.00    -0.550 OA
ATOM      7  O   UNL     1     174.956 175.548 155.881  1.00  0.00    -0.550 OA
ENDBRANCH   4   5
ENDBRANCH   3   4
ENDBRANCH   2   3
ENDBRANCH   1   2
BRANCH   1   8
ATOM      8  C   UNL     1     173.543 175.770 150.879  1.00  0.00     0.000 C 
BRANCH   8   9
ATOM      9  C   UNL     1     174.533 174.631 151.173  1.00  0.00     0.000 C 
BRANCH   9  10
ATOM     10  C   UNL     1     175.999 175.094 151.163  1.00  0.00     0.006 C 
BRANCH  10  11
ATOM     11  C   UNL     1     176.975 173.925 150.973  1.00  0.00     0.053 C 
BRANCH  11  12
ATOM     12  C   UNL     1     176.838 172.905 152.063  1.00  0.00     0.041 C 
ATOM     13  O   UNL     1     176.436 171.743 151.795  1.00  0.00    -0.550 OA
ATOM     14  O   UNL     1     177.190 173.229 153.368  1.00  0.00    -0.550 OA
ENDBRANCH  11  12
ENDBRANCH  10  11
ENDBRANCH   9  10
ENDBRANCH   8   9
ENDBRANCH   1   8
TORSDOF 9
ENDMDL
MODEL 7
REMARK VINA RESULT:    -3.823      3.099      3.932
REMARK INTER + INTRA:          -6.612
REMARK INTER:                  -6.097
REMARK INTRA:                  -0.515
REMARK UNBOUND:                -0.777
REMARK SMILES O=C([O-])CCCCCCCCC(=O)[O-]
REMARK SMILES IDX 7 1 6 2 5 3 4 4 2 5 1 6 3 7 8 8 9 9 10 10 11 11 12 12 13 13
REMARK SMILES IDX 14 14
REMARK H PARENT
REMARK Flexibility Score: inf
ROOT
ATOM      1  C   UNL     1     174.159 177.143 150.563  1.00  0.00     0.000 C 
ENDROOT
BRANCH   1   2
ATOM      2  C   UNL     1     173.603 175.716 150.715  1.00  0.00     0.000 C 
BRANCH   2   3
ATOM      3  C   UNL     1     174.612 174.751 151.355  1.00  0.00     0.006 C 
BRANCH   3   4
ATOM      4  C   UNL     1     176.066 175.203 151.163  1.00  0.00     0.053 C 
BRANCH   4   5
ATOM      5  C   UNL     1     176.982 174.020 151.152  1.00  0.00     0.041 C 
ATOM      6  O   UNL     1     177.447 173.588 150.066  1.00  0.00    -0.550 OA
ATOM      7  O   UNL     1     177.361 173.424 152.348  1.00  0.00    -0.550 OA
ENDBRANCH   4   5
ENDBRANCH   3   4
ENDBRANCH   2   3
ENDBRANCH   1   2
BRANCH   1   8
ATOM      8  C   UNL     1     173.692 178.074 151.703  1.00  0.00     0.000 C 
BRANCH   8   9
ATOM      9  C   UNL     1     172.165 178.114 151.876  1.00  0.00     0.000 C 
BRANCH   9  10
ATOM     10  C   UNL     1     171.685 177.371 153.133  1.00  0.00     0.006 C 
BRANCH  10  11
ATOM     11  C   UNL     1     170.610 176.324 152.812  1.00  0.00     0.053 C 
BRANCH  11  12
ATOM     12  C   UNL     1     169.342 176.960 152.330  1.00  0.00     0.041 C 
ATOM     13  O   UNL     1     168.579 177.545 153.142  1.00  0.00    -0.550 OA
ATOM     14  O   UNL     1     169.021 176.937 150.978  1.00  0.00    -0.550 OA
ENDBRANCH  11  12
ENDBRANCH  10  11
ENDBRANCH   9  10
ENDBRANCH   8   9
ENDBRANCH   1   8
TORSDOF 9
ENDMDL
MODEL 8
REMARK VINA RESULT:    -3.773      1.140      4.159
REMARK INTER + INTRA:          -6.536
REMARK INTER:                  -5.493
REMARK INTRA:                  -1.042
REMARK UNBOUND:                -0.777
REMARK SMILES O=C([O-])CCCCCCCCC(=O)[O-]
REMARK SMILES IDX 7 1 6 2 5 3 4 4 2 5 1 6 3 7 8 8 9 9 10 10 11 11 12 12 13 13
REMARK SMILES IDX 14 14
REMARK H PARENT
REMARK Flexibility Score: inf
ROOT
ATOM      1  C   UNL     1     172.681 176.595 152.934  1.00  0.00     0.000 C 
ENDROOT
BRANCH   1   2
ATOM      2  C   UNL     1     173.577 177.778 153.341  1.00  0.00     0.000 C 
BRANCH   2   3
ATOM      3  C   UNL     1     174.376 177.503 154.625  1.00  0.00     0.006 C 
BRANCH   3   4
ATOM      4  C   UNL     1     175.748 176.877 154.344  1.00  0.00     0.053 C 
BRANCH   4   5
ATOM      5  C   UNL     1     175.823 175.502 154.929  1.00  0.00     0.041 C 
ATOM      6  O   UNL     1     174.929 174.654 154.673  1.00  0.00    -0.550 OA
ATOM      7  O   UNL     1     176.906 175.141 155.719  1.00  0.00    -0.550 OA
ENDBRANCH   4   5
ENDBRANCH   3   4
ENDBRANCH   2   3
ENDBRANCH   1   2
BRANCH   1   8
ATOM      8  C   UNL     1     173.119 175.968 151.592  1.00  0.00     0.000 C 
BRANCH   8   9
ATOM      9  C   UNL     1     174.186 176.791 150.849  1.00  0.00     0.000 C 
BRANCH   9  10
ATOM     10  C   UNL     1     175.568 176.118 150.850  1.00  0.00     0.006 C 
BRANCH  10  11
ATOM     11  C   UNL     1     175.486 174.623 151.187  1.00  0.00     0.053 C 
BRANCH  11  12
ATOM     12  C   UNL     1     176.844 173.993 151.246  1.00  0.00     0.041 C 
ATOM     13  O   UNL     1     177.563 173.942 150.214  1.00  0.00    -0.550 OA
ATOM     14  O   UNL     1     177.329 173.493 152.449  1.00  0.00    -0.550 OA
ENDBRANCH  11  12
ENDBRANCH  10  11
ENDBRANCH   9  10
ENDBRANCH   8   9
ENDBRANCH   1   8
TORSDOF 9
ENDMDL
MODEL 9
REMARK VINA RESULT:    -3.718      1.486      1.830
REMARK INTER + INTRA:          -6.452
REMARK INTER:                  -5.445
REMARK INTRA:                  -1.007
REMARK UNBOUND:                -0.777
REMARK SMILES O=C([O-])CCCCCCCCC(=O)[O-]
REMARK SMILES IDX 7 1 6 2 5 3 4 4 2 5 1 6 3 7 8 8 9 9 10 10 11 11 12 12 13 13
REMARK SMILES IDX 14 14
REMARK H PARENT
REMARK Flexibility Score: inf
ROOT
ATOM      1  C   UNL     1     174.631 177.497 150.778  1.00  0.00     0.000 C 
ENDROOT
BRANCH   1   2
ATOM      2  C   UNL     1     174.564 175.960 150.762  1.00  0.00     0.000 C 
BRANCH   2   3
ATOM      3  C   UNL     1     175.905 175.304 151.127  1.00  0.00     0.006 C 
BRANCH   3   4
ATOM      4  C   UNL     1     175.732 173.908 151.738  1.00  0.00     0.053 C 
BRANCH   4   5
ATOM      5  C   UNL     1     176.558 172.907 150.992  1.00  0.00     0.041 C 
ATOM      6  O   UNL     1     177.242 173.265 149.998  1.00  0.00    -0.550 OA
ATOM      7  O   UNL     1     176.609 171.588 151.423  1.00  0.00    -0.550 OA
ENDBRANCH   4   5
ENDBRANCH   3   4
ENDBRANCH   2   3
ENDBRANCH   1   2
BRANCH   1   8
ATOM      8  C   UNL     1     173.416 178.125 151.494  1.00  0.00     0.000 C 
BRANCH   8   9
ATOM      9  C   UNL     1     172.838 177.241 152.613  1.00  0.00     0.000 C 
BRANCH   9  10
ATOM     10  C   UNL     1     173.367 177.618 154.006  1.00  0.00     0.006 C 
BRANCH  10  11
ATOM     11  C   UNL     1     174.222 176.503 154.624  1.00  0.00     0.053 C 
BRANCH  11  12
ATOM     12  C   UNL     1     175.687 176.779 154.472  1.00  0.00     0.041 C 
ATOM     13  O   UNL     1     176.078 177.883 154.012  1.00  0.00    -0.550 OA
ATOM     14  O   UNL     1     176.619 175.830 154.873  1.00  0.00    -0.550 OA
ENDBRANCH  11  12
ENDBRANCH  10  11
ENDBRANCH   9  10
ENDBRANCH   8   9
ENDBRANCH   1   8
TORSDOF 9
ENDMDL
