MODEL 1
REMARK VINA RESULT:    -0.241      0.000      0.000
REMARK INTER + INTRA:          -0.374
REMARK INTER:                  -0.290
REMARK INTRA:                  -0.084
REMARK UNBOUND:                -0.084
REMARK SMILES CC[C@@H](C)[C@@H]([NH3+])C(=O)[O-]
REMARK SMILES IDX 3 1 4 2 5 3 6 4 7 8 8 9 9 10 2 11 1 12
REMARK H PARENT 6 5 6 6 6 7
REMARK Flexibility Score: inf
ROOT
ATOM      1  C   UNL     1       1.950   0.166  -8.452  1.00  0.00     0.050 C 
ATOM      2  C   UNL     1       1.079  -0.927  -9.100  1.00  0.00     0.014 C 
ENDROOT
BRANCH   1   3
ATOM      3  C   UNL     1       2.218  -0.092  -6.934  1.00  0.00     0.230 C 
BRANCH   3   4
ATOM      4  N   UNL     1       3.640  -0.351  -6.663  1.00  0.00    -0.350 N 
ATOM      5  H   UNL     1       4.159   0.552  -6.568  1.00  0.00     0.345 HD
ATOM      6  H   UNL     1       3.770  -0.917  -5.794  1.00  0.00     0.345 HD
ATOM      7  H   UNL     1       4.056  -0.881  -7.465  1.00  0.00     0.345 HD
ENDBRANCH   3   4
BRANCH   3   8
ATOM      8  C   UNL     1       1.700   1.019  -6.050  1.00  0.00     0.099 C 
ATOM      9  O   UNL     1       0.548   1.497  -6.225  1.00  0.00    -0.544 OA
ATOM     10  O   UNL     1       2.489   1.502  -5.015  1.00  0.00    -0.544 OA
ENDBRANCH   3   8
ENDBRANCH   1   3
BRANCH   1  11
ATOM     11  C   UNL     1       3.252   0.341  -9.274  1.00  0.00     0.006 C 
ATOM     12  C   UNL     1       3.228  -0.397 -10.613  1.00  0.00     0.004 C 
ENDBRANCH   1  11
TORSDOF 4
ENDMDL
MODEL 2
REMARK VINA RESULT:     0.058      2.648      3.951
REMARK INTER + INTRA:          -0.014
REMARK INTER:                   0.081
REMARK INTRA:                  -0.095
REMARK UNBOUND:                -0.084
REMARK SMILES CC[C@@H](C)[C@@H]([NH3+])C(=O)[O-]
REMARK SMILES IDX 3 1 4 2 5 3 6 4 7 8 8 9 9 10 2 11 1 12
REMARK H PARENT 6 5 6 6 6 7
REMARK Flexibility Score: inf
ROOT
ATOM      1  C   UNL     1       1.867  -0.058  -7.257  1.00  0.00     0.050 C 
ATOM      2  C   UNL     1       0.935   1.044  -6.721  1.00  0.00     0.014 C 
ENDROOT
BRANCH   1   3
ATOM      3  C   UNL     1       2.347   0.211  -8.721  1.00  0.00     0.230 C 
BRANCH   3   4
ATOM      4  N   UNL     1       3.809   0.353  -8.801  1.00  0.00    -0.350 N 
ATOM      5  H   UNL     1       4.259  -0.077  -7.960  1.00  0.00     0.345 HD
ATOM      6  H   UNL     1       4.192  -0.094  -9.665  1.00  0.00     0.345 HD
ATOM      7  H   UNL     1       4.060   1.369  -8.818  1.00  0.00     0.345 HD
ENDBRANCH   3   4
BRANCH   3   8
ATOM      8  C   UNL     1       1.856  -0.828  -9.700  1.00  0.00     0.099 C 
ATOM      9  O   UNL     1       2.543  -1.141 -10.707  1.00  0.00    -0.544 OA
ATOM     10  O   UNL     1       0.644  -1.469  -9.476  1.00  0.00    -0.544 OA
ENDBRANCH   3   8
ENDBRANCH   1   3
BRANCH   1  11
ATOM     11  C   UNL     1       3.038  -0.270  -6.266  1.00  0.00     0.006 C 
ATOM     12  C   UNL     1       3.033   0.719  -5.100  1.00  0.00     0.004 C 
ENDBRANCH   1  11
TORSDOF 4
ENDMDL
MODEL 3
REMARK VINA RESULT:     0.964      2.809      4.151
REMARK INTER + INTRA:           1.077
REMARK INTER:                   1.148
REMARK INTRA:                  -0.071
REMARK UNBOUND:                -0.084
REMARK SMILES CC[C@@H](C)[C@@H]([NH3+])C(=O)[O-]
REMARK SMILES IDX 3 1 4 2 5 3 6 4 7 8 8 9 9 10 2 11 1 12
REMARK H PARENT 6 5 6 6 6 7
REMARK Flexibility Score: inf
ROOT
ATOM      1  C   UNL     1       2.064   0.473  -7.204  1.00  0.00     0.050 C 
ATOM      2  C   UNL     1       2.818   0.037  -5.934  1.00  0.00     0.014 C 
ENDROOT
BRANCH   1   3
ATOM      3  C   UNL     1       2.192  -0.559  -8.371  1.00  0.00     0.230 C 
BRANCH   3   4
ATOM      4  N   UNL     1       0.879  -0.946  -8.909  1.00  0.00    -0.350 N 
ATOM      5  H   UNL     1       0.493  -0.177  -9.505  1.00  0.00     0.345 HD
ATOM      6  H   UNL     1       0.937  -1.824  -9.474  1.00  0.00     0.345 HD
ATOM      7  H   UNL     1       0.213  -1.108  -8.118  1.00  0.00     0.345 HD
ENDBRANCH   3   4
BRANCH   3   8
ATOM      8  C   UNL     1       3.104  -0.083  -9.477  1.00  0.00     0.099 C 
ATOM      9  O   UNL     1       4.104   0.639  -9.223  1.00  0.00    -0.544 OA
ATOM     10  O   UNL     1       2.856  -0.466 -10.789  1.00  0.00    -0.544 OA
ENDBRANCH   3   8
ENDBRANCH   1   3
BRANCH   1  11
ATOM     11  C   UNL     1       0.592   0.797  -6.843  1.00  0.00     0.006 C 
ATOM     12  C   UNL     1       0.454   1.884  -5.776  1.00  0.00     0.004 C 
ENDBRANCH   1  11
TORSDOF 4
ENDMDL
MODEL 4
REMARK VINA RESULT:     1.041      2.376      3.216
REMARK INTER + INTRA:           1.170
REMARK INTER:                   1.176
REMARK INTRA:                  -0.005
REMARK UNBOUND:                -0.084
REMARK SMILES CC[C@@H](C)[C@@H]([NH3+])C(=O)[O-]
REMARK SMILES IDX 3 1 4 2 5 3 6 4 7 8 8 9 9 10 2 11 1 12
REMARK H PARENT 6 5 6 6 6 7
REMARK Flexibility Score: inf
ROOT
ATOM      1  C   UNL     1       1.633  -1.131  -9.212  1.00  0.00     0.050 C 
ATOM      2  C   UNL     1       2.167  -1.452 -10.620  1.00  0.00     0.014 C 
ENDROOT
BRANCH   1   3
ATOM      3  C   UNL     1       2.206   0.204  -8.634  1.00  0.00     0.230 C 
BRANCH   3   4
ATOM      4  N   UNL     1       1.534   0.594  -7.385  1.00  0.00    -0.350 N 
ATOM      5  H   UNL     1       2.189   0.486  -6.576  1.00  0.00     0.345 HD
ATOM      6  H   UNL     1       1.193   1.582  -7.423  1.00  0.00     0.345 HD
ATOM      7  H   UNL     1       0.711  -0.031  -7.222  1.00  0.00     0.345 HD
ENDBRANCH   3   4
BRANCH   3   8
ATOM      8  C   UNL     1       3.704   0.167  -8.447  1.00  0.00     0.099 C 
ATOM      9  O   UNL     1       4.477   0.595  -9.344  1.00  0.00    -0.544 OA
ATOM     10  O   UNL     1       4.239  -0.321  -7.262  1.00  0.00    -0.544 OA
ENDBRANCH   3   8
ENDBRANCH   1   3
BRANCH   1  11
ATOM     11  C   UNL     1       0.083  -1.167  -9.228  1.00  0.00     0.006 C 
ATOM     12  C   UNL     1      -0.488  -2.336 -10.032  1.00  0.00     0.004 C 
ENDBRANCH   1  11
TORSDOF 4
ENDMDL
MODEL 5
REMARK VINA RESULT:     1.384      3.079      4.148
REMARK INTER + INTRA:           1.584
REMARK INTER:                   1.251
REMARK INTRA:                   0.333
REMARK UNBOUND:                -0.084
REMARK SMILES CC[C@@H](C)[C@@H]([NH3+])C(=O)[O-]
REMARK SMILES IDX 3 1 4 2 5 3 6 4 7 8 8 9 9 10 2 11 1 12
REMARK H PARENT 6 5 6 6 6 7
REMARK Flexibility Score: inf
ROOT
ATOM      1  C   UNL     1      -0.073  -2.014 -10.317  1.00  0.00     0.050 C 
ATOM      2  C   UNL     1      -1.191  -1.879  -9.267  1.00  0.00     0.014 C 
ENDROOT
BRANCH   1   3
ATOM      3  C   UNL     1       1.355  -1.811  -9.714  1.00  0.00     0.230 C 
BRANCH   3   4
ATOM      4  N   UNL     1       2.411  -2.033 -10.714  1.00  0.00    -0.350 N 
ATOM      5  H   UNL     1       3.215  -2.543 -10.281  1.00  0.00     0.345 HD
ATOM      6  H   UNL     1       2.057  -2.578 -11.533  1.00  0.00     0.345 HD
ATOM      7  H   UNL     1       2.762  -1.110 -11.061  1.00  0.00     0.345 HD
ENDBRANCH   3   4
BRANCH   3   8
ATOM      8  C   UNL     1       1.524  -0.466  -9.047  1.00  0.00     0.099 C 
ATOM      9  O   UNL     1       0.849  -0.161  -8.029  1.00  0.00    -0.544 OA
ATOM     10  O   UNL     1       2.454   0.439  -9.545  1.00  0.00    -0.544 OA
ENDBRANCH   3   8
ENDBRANCH   1   3
BRANCH   1  11
ATOM     11  C   UNL     1      -0.227  -3.363 -11.064  1.00  0.00     0.006 C 
ATOM     12  C   UNL     1      -1.530  -4.093 -10.734  1.00  0.00     0.004 C 
ENDBRANCH   1  11
TORSDOF 4
ENDMDL
MODEL 6
REMARK VINA RESULT:     1.398      6.006      7.009
REMARK INTER + INTRA:           1.601
REMARK INTER:                   1.508
REMARK INTRA:                   0.092
REMARK UNBOUND:                -0.084
REMARK SMILES CC[C@@H](C)[C@@H]([NH3+])C(=O)[O-]
REMARK SMILES IDX 3 1 4 2 5 3 6 4 7 8 8 9 9 10 2 11 1 12
REMARK H PARENT 6 5 6 6 6 7
REMARK Flexibility Score: inf
ROOT
ATOM      1  C   UNL     1      -1.465  -5.222 -12.103  1.00  0.00     0.050 C 
ATOM      2  C   UNL     1      -1.244  -6.746 -12.060  1.00  0.00     0.014 C 
ENDROOT
BRANCH   1   3
ATOM      3  C   UNL     1      -1.633  -4.593 -10.682  1.00  0.00     0.230 C 
BRANCH   3   4
ATOM      4  N   UNL     1      -1.015  -5.423  -9.637  1.00  0.00    -0.350 N 
ATOM      5  H   UNL     1      -0.564  -6.264 -10.066  1.00  0.00     0.345 HD
ATOM      6  H   UNL     1      -0.301  -4.889  -9.092  1.00  0.00     0.345 HD
ATOM      7  H   UNL     1      -1.754  -5.755  -8.974  1.00  0.00     0.345 HD
ENDBRANCH   3   4
BRANCH   3   8
ATOM      8  C   UNL     1      -1.124  -3.172 -10.606  1.00  0.00     0.099 C 
ATOM      9  O   UNL     1      -1.898  -2.199 -10.799  1.00  0.00    -0.544 OA
ATOM     10  O   UNL     1       0.209  -2.932 -10.294  1.00  0.00    -0.544 OA
ENDBRANCH   3   8
ENDBRANCH   1   3
BRANCH   1  11
ATOM     11  C   UNL     1      -0.332  -4.560 -12.928  1.00  0.00     0.006 C 
ATOM     12  C   UNL     1       0.402  -5.539 -13.845  1.00  0.00     0.004 C 
ENDBRANCH   1  11
TORSDOF 4
ENDMDL
MODEL 7
REMARK VINA RESULT:     1.600      2.266      3.969
REMARK INTER + INTRA:           1.844
REMARK INTER:                   1.787
REMARK INTRA:                   0.057
REMARK UNBOUND:                -0.084
REMARK SMILES CC[C@@H](C)[C@@H]([NH3+])C(=O)[O-]
REMARK SMILES IDX 3 1 4 2 5 3 6 4 7 8 8 9 9 10 2 11 1 12
REMARK H PARENT 6 5 6 6 6 7
REMARK Flexibility Score: inf
ROOT
ATOM      1  C   UNL     1       1.763   1.331  -6.427  1.00  0.00     0.050 C 
ATOM      2  C   UNL     1       2.221   1.606  -4.983  1.00  0.00     0.014 C 
ENDROOT
BRANCH   1   3
ATOM      3  C   UNL     1       2.538   0.149  -7.096  1.00  0.00     0.230 C 
BRANCH   3   4
ATOM      4  N   UNL     1       2.406  -1.098  -6.328  1.00  0.00    -0.350 N 
ATOM      5  H   UNL     1       1.948  -1.834  -6.914  1.00  0.00     0.345 HD
ATOM      6  H   UNL     1       3.334  -1.447  -5.997  1.00  0.00     0.345 HD
ATOM      7  H   UNL     1       1.801  -0.929  -5.490  1.00  0.00     0.345 HD
ENDBRANCH   3   4
BRANCH   3   8
ATOM      8  C   UNL     1       2.147  -0.067  -8.539  1.00  0.00     0.099 C 
ATOM      9  O   UNL     1       2.813   0.452  -9.472  1.00  0.00    -0.544 OA
ATOM     10  O   UNL     1       1.054  -0.868  -8.844  1.00  0.00    -0.544 OA
ENDBRANCH   3   8
ENDBRANCH   1   3
BRANCH   1  11
ATOM     11  C   UNL     1       0.226   1.137  -6.452  1.00  0.00     0.006 C 
ATOM     12  C   UNL     1      -0.540   2.271  -5.770  1.00  0.00     0.004 C 
ENDBRANCH   1  11
TORSDOF 4
ENDMDL
MODEL 8
REMARK VINA RESULT:     1.603      1.841      2.012
REMARK INTER + INTRA:           1.847
REMARK INTER:                   1.778
REMARK INTRA:                   0.069
REMARK UNBOUND:                -0.084
REMARK SMILES CC[C@@H](C)[C@@H]([NH3+])C(=O)[O-]
REMARK SMILES IDX 3 1 4 2 5 3 6 4 7 8 8 9 9 10 2 11 1 12
REMARK H PARENT 6 5 6 6 6 7
REMARK Flexibility Score: inf
ROOT
ATOM      1  C   UNL     1       1.813   0.303  -8.872  1.00  0.00     0.050 C 
ATOM      2  C   UNL     1       0.914  -0.948  -8.870  1.00  0.00     0.014 C 
ENDROOT
BRANCH   1   3
ATOM      3  C   UNL     1       2.208   0.768  -7.432  1.00  0.00     0.230 C 
BRANCH   3   4
ATOM      4  N   UNL     1       1.035   1.186  -6.649  1.00  0.00    -0.350 N 
ATOM      5  H   UNL     1       0.757   2.161  -6.910  1.00  0.00     0.345 HD
ATOM      6  H   UNL     1       0.223   0.545  -6.798  1.00  0.00     0.345 HD
ATOM      7  H   UNL     1       1.276   1.180  -5.631  1.00  0.00     0.345 HD
ENDBRANCH   3   4
BRANCH   3   8
ATOM      8  C   UNL     1       3.011  -0.268  -6.681  1.00  0.00     0.099 C 
ATOM      9  O   UNL     1       2.467  -1.001  -5.814  1.00  0.00    -0.544 OA
ATOM     10  O   UNL     1       4.360  -0.434  -6.965  1.00  0.00    -0.544 OA
ENDBRANCH   3   8
ENDBRANCH   1   3
BRANCH   1  11
ATOM     11  C   UNL     1       3.040   0.054  -9.784  1.00  0.00     0.006 C 
ATOM     12  C   UNL     1       2.871  -1.149 -10.714  1.00  0.00     0.004 C 
ENDBRANCH   1  11
TORSDOF 4
ENDMDL
MODEL 9
REMARK VINA RESULT:     1.696      4.743      5.936
REMARK INTER + INTRA:           1.959
REMARK INTER:                   1.978
REMARK INTRA:                  -0.019
REMARK UNBOUND:                -0.084
REMARK SMILES CC[C@@H](C)[C@@H]([NH3+])C(=O)[O-]
REMARK SMILES IDX 3 1 4 2 5 3 6 4 7 8 8 9 9 10 2 11 1 12
REMARK H PARENT 6 5 6 6 6 7
REMARK Flexibility Score: inf
ROOT
ATOM      1  C   UNL     1      -0.467  -3.980 -10.917  1.00  0.00     0.050 C 
ATOM      2  C   UNL     1      -0.386  -4.140 -12.447  1.00  0.00     0.014 C 
ENDROOT
BRANCH   1   3
ATOM      3  C   UNL     1      -0.552  -2.486 -10.466  1.00  0.00     0.230 C 
BRANCH   3   4
ATOM      4  N   UNL     1      -1.508  -2.298  -9.364  1.00  0.00    -0.350 N 
ATOM      5  H   UNL     1      -1.400  -3.064  -8.659  1.00  0.00     0.345 HD
ATOM      6  H   UNL     1      -1.376  -1.375  -8.892  1.00  0.00     0.345 HD
ATOM      7  H   UNL     1      -2.484  -2.338  -9.739  1.00  0.00     0.345 HD
ENDBRANCH   3   4
BRANCH   3   8
ATOM      8  C   UNL     1       0.796  -1.904 -10.109  1.00  0.00     0.099 C 
ATOM      9  O   UNL     1       0.921  -1.117  -9.134  1.00  0.00    -0.544 OA
ATOM     10  O   UNL     1       1.918  -2.260 -10.846  1.00  0.00    -0.544 OA
ENDBRANCH   3   8
ENDBRANCH   1   3
BRANCH   1  11
ATOM     11  C   UNL     1      -1.633  -4.843 -10.371  1.00  0.00     0.006 C 
ATOM     12  C   UNL     1      -1.913  -6.088 -11.214  1.00  0.00     0.004 C 
ENDBRANCH   1  11
TORSDOF 4
ENDMDL
