MODEL 1
REMARK VINA RESULT:    -3.228      0.000      0.000
REMARK INTER + INTRA:          -4.590
REMARK INTER:                  -4.550
REMARK INTRA:                  -0.040
REMARK UNBOUND:                -0.040
REMARK SMILES CC1=CCC(=C(C)C)C(=O)CC(C)=CCC1
REMARK SMILES IDX 12 1 14 2 13 3 15 4 16 5 2 6 1 7 3 8 11 10 9 11 10 12 5 13
REMARK SMILES IDX 6 14 7 15 8 16 4 17
REMARK H PARENT
REMARK Flexibility Score: 60.00
ROOT
ATOM      1  C   UNL     1      -9.377   7.853   5.659  1.00  0.00    -0.070 C 
ATOM      2  C   UNL     1      -9.230   6.693   4.977  1.00  0.00    -0.027 C 
ATOM      3  C   UNL     1      -8.809   9.113   5.056  1.00  0.00     0.039 C 
ENDROOT
BRANCH   2   4
ATOM      4  C   UNL     1      -9.837   5.366   5.360  1.00  0.00     0.032 C 
BRANCH   4   5
ATOM      5  C   UNL     1      -8.828   4.249   5.671  1.00  0.00     0.034 C 
BRANCH   5   6
ATOM      6  C   UNL     1      -9.099   3.519   6.974  1.00  0.00    -0.077 C 
ATOM      7  C   UNL     1      -9.704   2.140   6.893  1.00  0.00     0.039 C 
ATOM      8  C   UNL     1      -8.902   4.047   8.209  1.00  0.00    -0.023 CG0
ATOM      9  G   UNL     1      -8.191   5.332   8.585  1.00  0.00     0.000 G0
ENDBRANCH   5   6
ENDBRANCH   4   5
ENDBRANCH   2   4
BRANCH   1  10
ATOM     10  C   UNL     1     -10.005   7.936   7.033  1.00  0.00     0.111 C 
BRANCH  10  11
ATOM     11  C   UNL     1      -8.978   7.712   8.114  1.00  0.00     0.163 C 
ATOM     12  O   UNL     1      -8.050   8.553   8.257  1.00  0.00    -0.294 OA
BRANCH  11  13
ATOM     13  C   UNL     1      -9.017   6.526   9.010  1.00  0.00    -0.002 C 
ATOM     14  C   UNL     1      -9.657   6.592  10.210  1.00  0.00    -0.069 C 
ATOM     15  C   UNL     1      -9.603   5.450  11.198  1.00  0.00     0.039 C 
ATOM     16  C   UNL     1     -10.471   7.810  10.582  1.00  0.00     0.039 C 
BRANCH  13  17
ATOM     17  C   UNL     1      -8.173   5.331   8.605  1.00  0.00     0.066 CG0
ATOM     18  G   UNL     1      -8.909   4.061   8.225  1.00  0.00     0.000 G0
ENDBRANCH  13  17
ENDBRANCH  11  13
ENDBRANCH  10  11
ENDBRANCH   1  10
TORSDOF 0
ENDMDL
MODEL 2
REMARK VINA RESULT:    -3.131     14.148     16.110
REMARK INTER + INTRA:          -4.452
REMARK INTER:                  -4.290
REMARK INTRA:                  -0.162
REMARK UNBOUND:                -0.040
REMARK SMILES CC1=CCC(=C(C)C)C(=O)CC(C)=CCC1
REMARK SMILES IDX 12 1 14 2 13 3 15 4 16 5 2 6 1 7 3 8 11 10 9 11 10 12 5 13
REMARK SMILES IDX 6 14 7 15 8 16 4 17
REMARK H PARENT
REMARK Flexibility Score: 60.00
ROOT
ATOM      1  C   UNL     1       0.235   4.715  -2.561  1.00  0.00    -0.070 C 
ATOM      2  C   UNL     1       0.470   3.616  -3.315  1.00  0.00    -0.027 C 
ATOM      3  C   UNL     1      -0.361   4.525  -1.189  1.00  0.00     0.039 C 
ENDROOT
BRANCH   2   4
ATOM      4  C   UNL     1       1.172   3.601  -4.651  1.00  0.00     0.032 C 
BRANCH   4   5
ATOM      5  C   UNL     1       0.248   3.609  -5.878  1.00  0.00     0.034 C 
BRANCH   5   6
ATOM      6  C   UNL     1       0.659   4.598  -6.954  1.00  0.00    -0.077 C 
ATOM      7  C   UNL     1       1.724   4.169  -7.931  1.00  0.00     0.039 C 
ATOM      8  C   UNL     1       0.189   5.868  -7.056  1.00  0.00    -0.023 CG0
ATOM      9  G   UNL     1      -0.965   6.510  -6.310  1.00  0.00     0.000 G0
ENDBRANCH   5   6
ENDBRANCH   4   5
ENDBRANCH   2   4
BRANCH   1  10
ATOM     10  C   UNL     1       0.460   6.128  -3.055  1.00  0.00     0.111 C 
BRANCH  10  11
ATOM     11  C   UNL     1      -0.758   6.652  -3.773  1.00  0.00     0.163 C 
ATOM     12  O   UNL     1      -1.891   6.499  -3.242  1.00  0.00    -0.294 OA
BRANCH  11  13
ATOM     13  C   UNL     1      -0.668   7.334  -5.091  1.00  0.00    -0.002 C 
ATOM     14  C   UNL     1      -0.467   8.679  -5.157  1.00  0.00    -0.069 C 
ATOM     15  C   UNL     1      -0.503   9.420  -6.473  1.00  0.00     0.039 C 
ATOM     16  C   UNL     1      -0.174   9.475  -3.906  1.00  0.00     0.039 C 
BRANCH  13  17
ATOM     17  C   UNL     1      -0.986   6.500  -6.319  1.00  0.00     0.066 CG0
ATOM     18  G   UNL     1       0.186   5.893  -7.065  1.00  0.00     0.000 G0
ENDBRANCH  13  17
ENDBRANCH  11  13
ENDBRANCH  10  11
ENDBRANCH   1  10
TORSDOF 0
ENDMDL
MODEL 3
REMARK VINA RESULT:    -3.099     11.172     13.632
REMARK INTER + INTRA:          -4.407
REMARK INTER:                  -4.597
REMARK INTRA:                   0.189
REMARK UNBOUND:                -0.040
REMARK SMILES CC1=CCC(=C(C)C)C(=O)CC(C)=CCC1
REMARK SMILES IDX 12 1 14 2 13 3 15 4 16 5 2 6 1 7 3 8 11 10 9 11 10 12 5 13
REMARK SMILES IDX 6 14 7 15 8 16 4 17
REMARK H PARENT
REMARK Flexibility Score: 60.00
ROOT
ATOM      1  C   UNL     1      -2.100  13.811   5.063  1.00  0.00    -0.070 C 
ATOM      2  C   UNL     1      -1.973  15.114   5.403  1.00  0.00    -0.027 C 
ATOM      3  C   UNL     1      -1.603  12.768   6.033  1.00  0.00     0.039 C 
ENDROOT
BRANCH   2   4
ATOM      4  C   UNL     1      -2.522  16.283   4.622  1.00  0.00     0.032 C 
BRANCH   4   5
ATOM      5  C   UNL     1      -1.469  17.258   4.074  1.00  0.00     0.034 C 
BRANCH   5   6
ATOM      6  C   UNL     1      -0.203  16.584   3.579  1.00  0.00    -0.077 C 
ATOM      7  C   UNL     1       1.037  16.710   4.429  1.00  0.00     0.039 C 
ATOM      8  C   UNL     1      -0.086  15.937   2.392  1.00  0.00    -0.023 CG0
ATOM      9  G   UNL     1      -1.181  15.545   1.418  1.00  0.00     0.000 G0
ENDBRANCH   5   6
ENDBRANCH   4   5
ENDBRANCH   2   4
BRANCH   1  10
ATOM     10  C   UNL     1      -2.633  13.347   3.724  1.00  0.00     0.111 C 
BRANCH  10  11
ATOM     11  C   UNL     1      -1.549  13.349   2.677  1.00  0.00     0.163 C 
ATOM     12  O   UNL     1      -0.495  12.690   2.891  1.00  0.00    -0.294 OA
BRANCH  11  13
ATOM     13  C   UNL     1      -1.674  14.110   1.407  1.00  0.00    -0.002 C 
ATOM     14  C   UNL     1      -2.066  13.481   0.264  1.00  0.00    -0.069 C 
ATOM     15  C   UNL     1      -2.077  14.194  -1.067  1.00  0.00     0.039 C 
ATOM     16  C   UNL     1      -2.530  12.043   0.299  1.00  0.00     0.039 C 
BRANCH  13  17
ATOM     17  C   UNL     1      -1.182  15.545   1.414  1.00  0.00     0.066 CG0
ATOM     18  G   UNL     1      -0.092  15.899   2.408  1.00  0.00     0.000 G0
ENDBRANCH  13  17
ENDBRANCH  11  13
ENDBRANCH  10  11
ENDBRANCH   1  10
TORSDOF 0
ENDMDL
MODEL 4
REMARK VINA RESULT:    -3.067     10.704     13.292
REMARK INTER + INTRA:          -4.362
REMARK INTER:                  -4.958
REMARK INTRA:                   0.596
REMARK UNBOUND:                -0.040
REMARK SMILES CC1=CCC(=C(C)C)C(=O)CC(C)=CCC1
REMARK SMILES IDX 12 1 14 2 13 3 15 4 16 5 2 6 1 7 3 8 11 10 9 11 10 12 5 13
REMARK SMILES IDX 6 14 7 15 8 16 4 17
REMARK H PARENT
REMARK Flexibility Score: 60.00
ROOT
ATOM      1  C   UNL     1      -1.747  14.769   0.643  1.00  0.00    -0.070 C 
ATOM      2  C   UNL     1      -1.046  15.904   0.874  1.00  0.00    -0.027 C 
ATOM      3  C   UNL     1      -1.965  14.341  -0.786  1.00  0.00     0.039 C 
ENDROOT
BRANCH   2   4
ATOM      4  C   UNL     1      -0.625  16.416   2.229  1.00  0.00     0.032 C 
BRANCH   4   5
ATOM      5  C   UNL     1       0.878  16.311   2.532  1.00  0.00     0.034 C 
BRANCH   5   6
ATOM      6  C   UNL     1       1.192  15.860   3.947  1.00  0.00    -0.077 C 
ATOM      7  C   UNL     1       1.616  16.911   4.941  1.00  0.00     0.039 C 
ATOM      8  C   UNL     1       1.188  14.567   4.363  1.00  0.00    -0.023 CG0
ATOM      9  G   UNL     1       0.678  13.341   3.632  1.00  0.00     0.000 G0
ENDBRANCH   5   6
ENDBRANCH   4   5
ENDBRANCH   2   4
BRANCH   1  10
ATOM     10  C   UNL     1      -2.398  13.955   1.741  1.00  0.00     0.111 C 
BRANCH  10  11
ATOM     11  C   UNL     1      -1.443  12.928   2.294  1.00  0.00     0.163 C 
ATOM     12  O   UNL     1      -1.184  11.905   1.605  1.00  0.00    -0.294 OA
BRANCH  11  13
ATOM     13  C   UNL     1      -0.805  13.076   3.628  1.00  0.00    -0.002 C 
ATOM     14  C   UNL     1      -1.570  13.137   4.754  1.00  0.00    -0.069 C 
ATOM     15  C   UNL     1      -0.963  13.418   6.108  1.00  0.00     0.039 C 
ATOM     16  C   UNL     1      -3.061  12.899   4.684  1.00  0.00     0.039 C 
BRANCH  13  17
ATOM     17  C   UNL     1       0.691  13.329   3.650  1.00  0.00     0.066 CG0
ATOM     18  G   UNL     1       1.171  14.580   4.360  1.00  0.00     0.000 G0
ENDBRANCH  13  17
ENDBRANCH  11  13
ENDBRANCH  10  11
ENDBRANCH   1  10
TORSDOF 0
ENDMDL
MODEL 5
REMARK VINA RESULT:    -3.059      1.861      3.994
REMARK INTER + INTRA:          -4.350
REMARK INTER:                  -4.155
REMARK INTRA:                  -0.196
REMARK UNBOUND:                -0.040
REMARK SMILES CC1=CCC(=C(C)C)C(=O)CC(C)=CCC1
REMARK SMILES IDX 12 1 14 2 13 3 15 4 16 5 2 6 1 7 3 8 11 10 9 11 10 12 5 13
REMARK SMILES IDX 6 14 7 15 8 16 4 17
REMARK H PARENT
REMARK Flexibility Score: 60.00
ROOT
ATOM      1  C   UNL     1      -9.017   3.538   6.804  1.00  0.00    -0.070 C 
ATOM      2  C   UNL     1      -9.502   4.210   5.734  1.00  0.00    -0.027 C 
ATOM      3  C   UNL     1      -9.435   2.102   6.997  1.00  0.00     0.039 C 
ENDROOT
BRANCH   2   4
ATOM      4  C   UNL     1      -9.099   5.602   5.314  1.00  0.00     0.032 C 
BRANCH   4   5
ATOM      5  C   UNL     1     -10.052   6.722   5.755  1.00  0.00     0.034 C 
BRANCH   5   6
ATOM      6  C   UNL     1      -9.351   7.936   6.336  1.00  0.00    -0.077 C 
ATOM      7  C   UNL     1      -8.835   8.976   5.373  1.00  0.00     0.039 C 
ATOM      8  C   UNL     1      -9.090   8.120   7.656  1.00  0.00    -0.023 CG0
ATOM      9  G   UNL     1      -9.602   7.322   8.839  1.00  0.00     0.000 G0
ENDBRANCH   5   6
ENDBRANCH   4   5
ENDBRANCH   2   4
BRANCH   1  10
ATOM     10  C   UNL     1      -8.146   4.179   7.865  1.00  0.00     0.111 C 
BRANCH  10  11
ATOM     11  C   UNL     1      -8.985   4.841   8.928  1.00  0.00     0.163 C 
ATOM     12  O   UNL     1      -9.957   4.206   9.420  1.00  0.00    -0.294 OA
BRANCH  11  13
ATOM     13  C   UNL     1      -8.711   6.220   9.409  1.00  0.00    -0.002 C 
ATOM     14  C   UNL     1      -7.811   6.435  10.408  1.00  0.00    -0.069 C 
ATOM     15  C   UNL     1      -7.606   7.806  11.007  1.00  0.00     0.039 C 
ATOM     16  C   UNL     1      -6.962   5.300  10.935  1.00  0.00     0.039 C 
BRANCH  13  17
ATOM     17  C   UNL     1      -9.597   7.326   8.865  1.00  0.00     0.066 CG0
ATOM     18  G   UNL     1      -9.078   8.106   7.672  1.00  0.00     0.000 G0
ENDBRANCH  13  17
ENDBRANCH  11  13
ENDBRANCH  10  11
ENDBRANCH   1  10
TORSDOF 0
ENDMDL
MODEL 6
REMARK VINA RESULT:    -3.018     13.796     15.648
REMARK INTER + INTRA:          -4.293
REMARK INTER:                  -4.100
REMARK INTRA:                  -0.193
REMARK UNBOUND:                -0.040
REMARK SMILES CC1=CCC(=C(C)C)C(=O)CC(C)=CCC1
REMARK SMILES IDX 12 1 14 2 13 3 15 4 16 5 2 6 1 7 3 8 11 10 9 11 10 12 5 13
REMARK SMILES IDX 6 14 7 15 8 16 4 17
REMARK H PARENT
REMARK Flexibility Score: 60.00
ROOT
ATOM      1  C   UNL     1       3.240   7.166  -3.162  1.00  0.00    -0.070 C 
ATOM      2  C   UNL     1       2.872   6.235  -2.251  1.00  0.00    -0.027 C 
ATOM      3  C   UNL     1       4.415   8.055  -2.839  1.00  0.00     0.039 C 
ENDROOT
BRANCH   2   4
ATOM      4  C   UNL     1       1.809   5.182  -2.452  1.00  0.00     0.032 C 
BRANCH   4   5
ATOM      5  C   UNL     1       0.428   5.526  -1.875  1.00  0.00     0.034 C 
BRANCH   5   6
ATOM      6  C   UNL     1      -0.724   5.252  -2.825  1.00  0.00    -0.077 C 
ATOM      7  C   UNL     1      -1.259   3.844  -2.891  1.00  0.00     0.039 C 
ATOM      8  C   UNL     1      -1.260   6.167  -3.674  1.00  0.00    -0.023 CG0
ATOM      9  G   UNL     1      -1.018   7.663  -3.724  1.00  0.00     0.000 G0
ENDBRANCH   5   6
ENDBRANCH   4   5
ENDBRANCH   2   4
BRANCH   1  10
ATOM     10  C   UNL     1       2.483   7.419  -4.448  1.00  0.00     0.111 C 
BRANCH  10  11
ATOM     11  C   UNL     1       1.378   8.423  -4.238  1.00  0.00     0.163 C 
ATOM     12  O   UNL     1       1.633   9.487  -3.612  1.00  0.00    -0.294 OA
BRANCH  11  13
ATOM     13  C   UNL     1      -0.004   8.197  -4.736  1.00  0.00    -0.002 C 
ATOM     14  C   UNL     1      -0.358   8.594  -5.990  1.00  0.00    -0.069 C 
ATOM     15  C   UNL     1      -1.784   8.497  -6.477  1.00  0.00     0.039 C 
ATOM     16  C   UNL     1       0.682   9.124  -6.950  1.00  0.00     0.039 C 
BRANCH  13  17
ATOM     17  C   UNL     1      -1.019   7.678  -3.733  1.00  0.00     0.066 CG0
ATOM     18  G   UNL     1      -1.229   6.177  -3.674  1.00  0.00     0.000 G0
ENDBRANCH  13  17
ENDBRANCH  11  13
ENDBRANCH  10  11
ENDBRANCH   1  10
TORSDOF 0
ENDMDL
MODEL 7
REMARK VINA RESULT:    -2.896     13.437     15.346
REMARK INTER + INTRA:          -4.121
REMARK INTER:                  -4.043
REMARK INTRA:                  -0.078
REMARK UNBOUND:                -0.040
REMARK SMILES CC1=CCC(=C(C)C)C(=O)CC(C)=CCC1
REMARK SMILES IDX 12 1 14 2 13 3 15 4 16 5 2 6 1 7 3 8 11 10 9 11 10 12 5 13
REMARK SMILES IDX 6 14 7 15 8 16 4 17
REMARK H PARENT
REMARK Flexibility Score: 60.00
ROOT
ATOM      1  C   UNL     1      -0.719   4.514  -1.684  1.00  0.00    -0.070 C 
ATOM      2  C   UNL     1       0.187   4.265  -0.709  1.00  0.00    -0.027 C 
ATOM      3  C   UNL     1      -1.695   3.424  -2.048  1.00  0.00     0.039 C 
ENDROOT
BRANCH   2   4
ATOM      4  C   UNL     1       1.152   5.270  -0.129  1.00  0.00     0.032 C 
BRANCH   4   5
ATOM      5  C   UNL     1       2.620   5.080  -0.537  1.00  0.00     0.034 C 
BRANCH   5   6
ATOM      6  C   UNL     1       3.341   6.373  -0.870  1.00  0.00    -0.077 C 
ATOM      7  C   UNL     1       4.102   7.058   0.237  1.00  0.00     0.039 C 
ATOM      8  C   UNL     1       3.289   6.998  -2.075  1.00  0.00    -0.023 CG0
ATOM      9  G   UNL     1       2.726   6.479  -3.384  1.00  0.00     0.000 G0
ENDBRANCH   5   6
ENDBRANCH   4   5
ENDBRANCH   2   4
BRANCH   1  10
ATOM     10  C   UNL     1      -0.746   5.798  -2.486  1.00  0.00     0.111 C 
BRANCH  10  11
ATOM     11  C   UNL     1       0.281   5.771  -3.589  1.00  0.00     0.163 C 
ATOM     12  O   UNL     1       0.279   4.805  -4.399  1.00  0.00    -0.294 OA
BRANCH  11  13
ATOM     13  C   UNL     1       1.302   6.839  -3.748  1.00  0.00    -0.002 C 
ATOM     14  C   UNL     1       0.974   8.022  -4.337  1.00  0.00    -0.069 C 
ATOM     15  C   UNL     1       2.017   9.075  -4.631  1.00  0.00     0.039 C 
ATOM     16  C   UNL     1      -0.462   8.331  -4.694  1.00  0.00     0.039 C 
BRANCH  13  17
ATOM     17  C   UNL     1       2.733   6.480  -3.391  1.00  0.00     0.066 CG0
ATOM     18  G   UNL     1       3.272   7.008  -2.075  1.00  0.00     0.000 G0
ENDBRANCH  13  17
ENDBRANCH  11  13
ENDBRANCH  10  11
ENDBRANCH   1  10
TORSDOF 0
ENDMDL
MODEL 8
REMARK VINA RESULT:    -2.812     13.395     15.281
REMARK INTER + INTRA:          -4.002
REMARK INTER:                  -3.823
REMARK INTRA:                  -0.179
REMARK UNBOUND:                -0.040
REMARK SMILES CC1=CCC(=C(C)C)C(=O)CC(C)=CCC1
REMARK SMILES IDX 12 1 14 2 13 3 15 4 16 5 2 6 1 7 3 8 11 10 9 11 10 12 5 13
REMARK SMILES IDX 6 14 7 15 8 16 4 17
REMARK H PARENT
REMARK Flexibility Score: 60.00
ROOT
ATOM      1  C   UNL     1       0.870   4.276  -6.335  1.00  0.00    -0.070 C 
ATOM      2  C   UNL     1       0.494   5.420  -6.952  1.00  0.00    -0.027 C 
ATOM      3  C   UNL     1       0.972   3.018  -7.162  1.00  0.00     0.039 C 
ENDROOT
BRANCH   2   4
ATOM      4  C   UNL     1       0.459   6.789  -6.318  1.00  0.00     0.032 C 
BRANCH   4   5
ATOM      5  C   UNL     1      -0.901   7.211  -5.744  1.00  0.00     0.034 C 
BRANCH   5   6
ATOM      6  C   UNL     1      -0.820   7.843  -4.366  1.00  0.00    -0.077 C 
ATOM      7  C   UNL     1      -0.433   9.298  -4.282  1.00  0.00     0.039 C 
ATOM      8  C   UNL     1      -1.000   7.174  -3.198  1.00  0.00    -0.023 CG0
ATOM      9  G   UNL     1      -1.523   5.766  -2.987  1.00  0.00     0.000 G0
ENDBRANCH   5   6
ENDBRANCH   4   5
ENDBRANCH   2   4
BRANCH   1  10
ATOM     10  C   UNL     1       1.109   4.173  -4.844  1.00  0.00     0.111 C 
BRANCH  10  11
ATOM     11  C   UNL     1      -0.179   3.918  -4.103  1.00  0.00     0.163 C 
ATOM     12  O   UNL     1      -0.990   3.072  -4.567  1.00  0.00    -0.294 OA
BRANCH  11  13
ATOM     13  C   UNL     1      -0.529   4.638  -2.851  1.00  0.00    -0.002 C 
ATOM     14  C   UNL     1      -0.082   4.184  -1.648  1.00  0.00    -0.069 C 
ATOM     15  C   UNL     1      -0.526   4.814  -0.349  1.00  0.00     0.039 C 
ATOM     16  C   UNL     1       0.904   3.040  -1.577  1.00  0.00     0.039 C 
BRANCH  13  17
ATOM     17  C   UNL     1      -1.534   5.770  -2.968  1.00  0.00     0.066 CG0
ATOM     18  G   UNL     1      -0.982   7.164  -3.196  1.00  0.00     0.000 G0
ENDBRANCH  13  17
ENDBRANCH  11  13
ENDBRANCH  10  11
ENDBRANCH   1  10
TORSDOF 0
ENDMDL
MODEL 9
REMARK VINA RESULT:    -2.779     13.771     15.883
REMARK INTER + INTRA:          -3.956
REMARK INTER:                  -3.914
REMARK INTRA:                  -0.042
REMARK UNBOUND:                -0.040
REMARK SMILES CC1=CCC(=C(C)C)C(=O)CC(C)=CCC1
REMARK SMILES IDX 12 1 14 2 13 3 15 4 16 5 2 6 1 7 3 8 11 10 9 11 10 12 5 13
REMARK SMILES IDX 6 14 7 15 8 16 4 17
REMARK H PARENT
REMARK Flexibility Score: 60.00
ROOT
ATOM      1  C   UNL     1      -0.992   4.066  -1.678  1.00  0.00    -0.070 C 
ATOM      2  C   UNL     1      -0.738   5.385  -1.845  1.00  0.00    -0.027 C 
ATOM      3  C   UNL     1      -0.885   3.487  -0.290  1.00  0.00     0.039 C 
ENDROOT
BRANCH   2   4
ATOM      4  C   UNL     1      -0.916   6.159  -3.128  1.00  0.00     0.032 C 
BRANCH   4   5
ATOM      5  C   UNL     1       0.269   6.095  -4.102  1.00  0.00     0.034 C 
BRANCH   5   6
ATOM      6  C   UNL     1      -0.131   5.864  -5.548  1.00  0.00    -0.077 C 
ATOM      7  C   UNL     1      -0.832   6.988  -6.270  1.00  0.00     0.039 C 
ATOM      8  C   UNL     1       0.030   4.694  -6.217  1.00  0.00    -0.023 CG0
ATOM      9  G   UNL     1       0.812   3.465  -5.794  1.00  0.00     0.000 G0
ENDBRANCH   5   6
ENDBRANCH   4   5
ENDBRANCH   2   4
BRANCH   1  10
ATOM     10  C   UNL     1      -1.293   3.125  -2.825  1.00  0.00     0.111 C 
BRANCH  10  11
ATOM     11  C   UNL     1      -0.024   2.657  -3.491  1.00  0.00     0.163 C 
ATOM     12  O   UNL     1       1.004   2.476  -2.784  1.00  0.00    -0.294 OA
BRANCH  11  13
ATOM     13  C   UNL     1       0.060   2.413  -4.954  1.00  0.00    -0.002 C 
ATOM     14  C   UNL     1      -0.375   1.234  -5.481  1.00  0.00    -0.069 C 
ATOM     15  C   UNL     1      -0.184   0.903  -6.943  1.00  0.00     0.039 C 
ATOM     16  C   UNL     1      -1.091   0.223  -4.616  1.00  0.00     0.039 C 
BRANCH  13  17
ATOM     17  C   UNL     1       0.801   3.446  -5.783  1.00  0.00     0.066 CG0
ATOM     18  G   UNL     1       0.024   4.677  -6.211  1.00  0.00     0.000 G0
ENDBRANCH  13  17
ENDBRANCH  11  13
ENDBRANCH  10  11
ENDBRANCH   1  10
TORSDOF 0
ENDMDL
