MODEL 1
REMARK VINA RESULT:    -6.987      0.000      0.000
REMARK INTER + INTRA:         -12.987
REMARK INTER:                 -10.663
REMARK INTRA:                  -2.324
REMARK UNBOUND:                -2.324
REMARK SMILES CC(=O)CCC=C(C)CCC=C(C)CCC=C(C)C
REMARK SMILES IDX 10 1 11 2 12 3 13 4 14 5 15 6 16 7 18 8 17 9 19 10 9 11 7 12
REMARK SMILES IDX 6 13 8 14 5 15 4 16 2 17 3 18 1 19
REMARK H PARENT
REMARK Flexibility Score: inf
ROOT
ATOM      1  C   UNL     1      24.965  56.639 140.478  1.00  0.00     0.032 C 
ENDROOT
BRANCH   1   2
ATOM      2  C   UNL     1      25.953  57.582 141.115  1.00  0.00    -0.028 C 
ATOM      3  C   UNL     1      26.451  57.440 142.364  1.00  0.00    -0.077 C 
ATOM      4  C   UNL     1      26.005  56.324 143.280  1.00  0.00     0.039 C 
BRANCH   3   5
ATOM      5  C   UNL     1      27.471  58.439 142.866  1.00  0.00     0.034 C 
BRANCH   5   6
ATOM      6  C   UNL     1      28.868  57.812 142.923  1.00  0.00     0.032 C 
BRANCH   6   7
ATOM      7  C   UNL     1      29.373  57.501 141.537  1.00  0.00    -0.028 C 
ATOM      8  C   UNL     1      30.877  57.620 139.598  1.00  0.00     0.039 C 
ATOM      9  C   UNL     1      30.470  58.059 140.980  1.00  0.00    -0.080 C 
ATOM     10  C   UNL     1      31.282  59.115 141.696  1.00  0.00     0.039 C 
ENDBRANCH   6   7
ENDBRANCH   5   6
ENDBRANCH   3   5
ENDBRANCH   1   2
BRANCH   1  11
ATOM     11  C   UNL     1      25.315  56.401 139.005  1.00  0.00     0.034 C 
BRANCH  11  12
ATOM     12  C   UNL     1      26.804  56.179 138.834  1.00  0.00    -0.077 C 
ATOM     13  C   UNL     1      27.608  57.035 138.161  1.00  0.00    -0.028 C 
ATOM     14  C   UNL     1      27.420  54.933 139.416  1.00  0.00     0.039 C 
BRANCH  13  15
ATOM     15  C   UNL     1      27.178  58.353 137.560  1.00  0.00     0.035 C 
BRANCH  15  16
ATOM     16  C   UNL     1      28.211  59.450 137.840  1.00  0.00     0.079 C 
BRANCH  16  17
ATOM     17  C   UNL     1      27.877  60.221 139.090  1.00  0.00     0.130 C 
ATOM     18  O   UNL     1      28.780  60.645 139.795  1.00  0.00    -0.300 OA
ATOM     19  C   UNL     1      26.454  60.485 139.485  1.00  0.00     0.087 C 
ENDBRANCH  16  17
ENDBRANCH  15  16
ENDBRANCH  13  15
ENDBRANCH  11  12
ENDBRANCH   1  11
TORSDOF 9
ENDMDL
MODEL 2
REMARK VINA RESULT:    -6.780      1.777      3.806
REMARK INTER + INTRA:         -12.672
REMARK INTER:                 -10.417
REMARK INTRA:                  -2.255
REMARK UNBOUND:                -2.324
REMARK SMILES CC(=O)CCC=C(C)CCC=C(C)CCC=C(C)C
REMARK SMILES IDX 10 1 11 2 12 3 13 4 14 5 15 6 16 7 18 8 17 9 19 10 9 11 7 12
REMARK SMILES IDX 6 13 8 14 5 15 4 16 2 17 3 18 1 19
REMARK H PARENT
REMARK Flexibility Score: inf
ROOT
ATOM      1  C   UNL     1      24.683  56.987 138.874  1.00  0.00     0.032 C 
ENDROOT
BRANCH   1   2
ATOM      2  C   UNL     1      25.616  58.138 139.155  1.00  0.00    -0.028 C 
ATOM      3  C   UNL     1      26.645  58.501 138.356  1.00  0.00    -0.077 C 
ATOM      4  C   UNL     1      26.997  57.730 137.106  1.00  0.00     0.039 C 
BRANCH   3   5
ATOM      5  C   UNL     1      27.479  59.705 138.736  1.00  0.00     0.034 C 
BRANCH   5   6
ATOM      6  C   UNL     1      28.964  59.336 138.822  1.00  0.00     0.032 C 
BRANCH   6   7
ATOM      7  C   UNL     1      29.472  59.485 140.233  1.00  0.00    -0.028 C 
ATOM      8  C   UNL     1      30.536  58.798 142.338  1.00  0.00     0.039 C 
ATOM      9  C   UNL     1      30.037  58.489 140.951  1.00  0.00    -0.080 C 
ATOM     10  C   UNL     1      30.164  57.084 140.409  1.00  0.00     0.039 C 
ENDBRANCH   6   7
ENDBRANCH   5   6
ENDBRANCH   3   5
ENDBRANCH   1   2
BRANCH   1  11
ATOM     11  C   UNL     1      24.814  55.908 139.955  1.00  0.00     0.034 C 
BRANCH  11  12
ATOM     12  C   UNL     1      26.269  55.667 140.302  1.00  0.00    -0.077 C 
ATOM     13  C   UNL     1      26.856  56.158 141.418  1.00  0.00    -0.028 C 
ATOM     14  C   UNL     1      27.116  54.865 139.347  1.00  0.00     0.039 C 
BRANCH  13  15
ATOM     15  C   UNL     1      26.154  56.935 142.508  1.00  0.00     0.035 C 
BRANCH  15  16
ATOM     16  C   UNL     1      27.163  57.559 143.477  1.00  0.00     0.079 C 
BRANCH  16  17
ATOM     17  C   UNL     1      26.820  58.992 143.790  1.00  0.00     0.130 C 
ATOM     18  O   UNL     1      26.347  59.274 144.880  1.00  0.00    -0.300 OA
ATOM     19  C   UNL     1      27.056  60.085 142.789  1.00  0.00     0.087 C 
ENDBRANCH  16  17
ENDBRANCH  15  16
ENDBRANCH  13  15
ENDBRANCH  11  12
ENDBRANCH   1  11
TORSDOF 9
ENDMDL
MODEL 3
REMARK VINA RESULT:    -6.749      1.786      4.499
REMARK INTER + INTRA:         -12.624
REMARK INTER:                 -10.374
REMARK INTRA:                  -2.250
REMARK UNBOUND:                -2.324
REMARK SMILES CC(=O)CCC=C(C)CCC=C(C)CCC=C(C)C
REMARK SMILES IDX 10 1 11 2 12 3 13 4 14 5 15 6 16 7 18 8 17 9 19 10 9 11 7 12
REMARK SMILES IDX 6 13 8 14 5 15 4 16 2 17 3 18 1 19
REMARK H PARENT
REMARK Flexibility Score: inf
ROOT
ATOM      1  C   UNL     1      30.191  59.281 141.927  1.00  0.00     0.032 C 
ENDROOT
BRANCH   1   2
ATOM      2  C   UNL     1      29.022  59.927 141.226  1.00  0.00    -0.028 C 
ATOM      3  C   UNL     1      27.752  59.922 141.693  1.00  0.00    -0.077 C 
ATOM      4  C   UNL     1      27.371  59.200 142.963  1.00  0.00     0.039 C 
BRANCH   3   5
ATOM      5  C   UNL     1      26.680  60.646 140.908  1.00  0.00     0.034 C 
BRANCH   5   6
ATOM      6  C   UNL     1      27.040  60.709 139.420  1.00  0.00     0.032 C 
BRANCH   6   7
ATOM      7  C   UNL     1      26.803  59.377 138.754  1.00  0.00    -0.028 C 
ATOM      8  C   UNL     1      27.012  57.643 137.027  1.00  0.00     0.039 C 
ATOM      9  C   UNL     1      27.301  59.026 137.548  1.00  0.00    -0.080 C 
ATOM     10  C   UNL     1      28.118  59.983 136.710  1.00  0.00     0.039 C 
ENDBRANCH   6   7
ENDBRANCH   5   6
ENDBRANCH   3   5
ENDBRANCH   1   2
BRANCH   1  11
ATOM     11  C   UNL     1      30.108  57.755 141.824  1.00  0.00     0.034 C 
BRANCH  11  12
ATOM     12  C   UNL     1      29.962  57.319 140.380  1.00  0.00    -0.077 C 
ATOM     13  C   UNL     1      28.925  56.573 139.933  1.00  0.00    -0.028 C 
ATOM     14  C   UNL     1      31.034  57.709 139.395  1.00  0.00     0.039 C 
BRANCH  13  15
ATOM     15  C   UNL     1      27.738  56.137 140.760  1.00  0.00     0.035 C 
BRANCH  15  16
ATOM     16  C   UNL     1      26.562  55.729 139.866  1.00  0.00     0.079 C 
BRANCH  16  17
ATOM     17  C   UNL     1      25.274  56.367 140.316  1.00  0.00     0.130 C 
ATOM     18  O   UNL     1      25.248  56.998 141.362  1.00  0.00    -0.300 OA
ATOM     19  C   UNL     1      24.021  56.250 139.500  1.00  0.00     0.087 C 
ENDBRANCH  16  17
ENDBRANCH  15  16
ENDBRANCH  13  15
ENDBRANCH  11  12
ENDBRANCH   1  11
TORSDOF 9
ENDMDL
MODEL 4
REMARK VINA RESULT:    -6.727      2.112      4.624
REMARK INTER + INTRA:         -12.590
REMARK INTER:                 -10.447
REMARK INTRA:                  -2.144
REMARK UNBOUND:                -2.324
REMARK SMILES CC(=O)CCC=C(C)CCC=C(C)CCC=C(C)C
REMARK SMILES IDX 10 1 11 2 12 3 13 4 14 5 15 6 16 7 18 8 17 9 19 10 9 11 7 12
REMARK SMILES IDX 6 13 8 14 5 15 4 16 2 17 3 18 1 19
REMARK H PARENT
REMARK Flexibility Score: inf
ROOT
ATOM      1  C   UNL     1      28.769  59.237 138.251  1.00  0.00     0.032 C 
ENDROOT
BRANCH   1   2
ATOM      2  C   UNL     1      29.390  59.187 139.624  1.00  0.00    -0.028 C 
ATOM      3  C   UNL     1      29.801  58.054 140.238  1.00  0.00    -0.077 C 
ATOM      4  C   UNL     1      29.617  56.693 139.610  1.00  0.00     0.039 C 
BRANCH   3   5
ATOM      5  C   UNL     1      30.447  58.152 141.603  1.00  0.00     0.034 C 
BRANCH   5   6
ATOM      6  C   UNL     1      29.395  58.397 142.690  1.00  0.00     0.032 C 
BRANCH   6   7
ATOM      7  C   UNL     1      28.280  57.386 142.593  1.00  0.00    -0.028 C 
ATOM      8  C   UNL     1      26.020  56.476 142.906  1.00  0.00     0.039 C 
ATOM      9  C   UNL     1      27.046  57.558 143.117  1.00  0.00    -0.080 C 
ATOM     10  C   UNL     1      26.679  58.788 143.915  1.00  0.00     0.039 C 
ENDBRANCH   6   7
ENDBRANCH   5   6
ENDBRANCH   3   5
ENDBRANCH   1   2
BRANCH   1  11
ATOM     11  C   UNL     1      27.494  60.087 138.264  1.00  0.00     0.034 C 
BRANCH  11  12
ATOM     12  C   UNL     1      26.727  59.888 139.555  1.00  0.00    -0.077 C 
ATOM     13  C   UNL     1      25.940  58.813 139.791  1.00  0.00    -0.028 C 
ATOM     14  C   UNL     1      26.818  60.950 140.621  1.00  0.00     0.039 C 
BRANCH  13  15
ATOM     15  C   UNL     1      25.769  57.631 138.864  1.00  0.00     0.035 C 
BRANCH  15  16
ATOM     16  C   UNL     1      24.626  56.724 139.332  1.00  0.00     0.079 C 
BRANCH  16  17
ATOM     17  C   UNL     1      25.083  55.300 139.509  1.00  0.00     0.130 C 
ATOM     18  O   UNL     1      24.271  54.440 139.812  1.00  0.00    -0.300 OA
ATOM     19  C   UNL     1      26.519  54.913 139.312  1.00  0.00     0.087 C 
ENDBRANCH  16  17
ENDBRANCH  15  16
ENDBRANCH  13  15
ENDBRANCH  11  12
ENDBRANCH   1  11
TORSDOF 9
ENDMDL
MODEL 5
REMARK VINA RESULT:    -6.607      1.581      4.713
REMARK INTER + INTRA:         -12.407
REMARK INTER:                  -9.672
REMARK INTRA:                  -2.735
REMARK UNBOUND:                -2.324
REMARK SMILES CC(=O)CCC=C(C)CCC=C(C)CCC=C(C)C
REMARK SMILES IDX 10 1 11 2 12 3 13 4 14 5 15 6 16 7 18 8 17 9 19 10 9 11 7 12
REMARK SMILES IDX 6 13 8 14 5 15 4 16 2 17 3 18 1 19
REMARK H PARENT
REMARK Flexibility Score: inf
ROOT
ATOM      1  C   UNL     1      29.811  58.482 142.210  1.00  0.00     0.032 C 
ENDROOT
BRANCH   1   2
ATOM      2  C   UNL     1      29.162  57.417 141.363  1.00  0.00    -0.028 C 
ATOM      3  C   UNL     1      29.545  57.099 140.105  1.00  0.00    -0.077 C 
ATOM      4  C   UNL     1      30.650  57.845 139.395  1.00  0.00     0.039 C 
BRANCH   3   5
ATOM      5  C   UNL     1      28.832  55.978 139.383  1.00  0.00     0.034 C 
BRANCH   5   6
ATOM      6  C   UNL     1      27.699  55.407 140.242  1.00  0.00     0.032 C 
BRANCH   6   7
ATOM      7  C   UNL     1      26.360  55.654 139.595  1.00  0.00    -0.028 C 
ATOM      8  C   UNL     1      24.054  56.482 139.415  1.00  0.00     0.039 C 
ATOM      9  C   UNL     1      25.320  56.268 140.202  1.00  0.00    -0.080 C 
ATOM     10  C   UNL     1      25.389  56.725 141.641  1.00  0.00     0.039 C 
ENDBRANCH   6   7
ENDBRANCH   5   6
ENDBRANCH   3   5
ENDBRANCH   1   2
BRANCH   1  11
ATOM     11  C   UNL     1      29.213  59.859 141.900  1.00  0.00     0.034 C 
BRANCH  11  12
ATOM     12  C   UNL     1      27.703  59.830 142.022  1.00  0.00    -0.077 C 
ATOM     13  C   UNL     1      26.872  60.023 140.972  1.00  0.00    -0.028 C 
ATOM     14  C   UNL     1      27.092  59.605 143.381  1.00  0.00     0.039 C 
BRANCH  13  15
ATOM     15  C   UNL     1      27.303  60.209 139.535  1.00  0.00     0.035 C 
BRANCH  15  16
ATOM     16  C   UNL     1      26.767  59.080 138.648  1.00  0.00     0.079 C 
BRANCH  16  17
ATOM     17  C   UNL     1      27.523  58.990 137.348  1.00  0.00     0.130 C 
ATOM     18  O   UNL     1      27.525  57.939 136.725  1.00  0.00    -0.300 OA
ATOM     19  C   UNL     1      28.270  60.169 136.798  1.00  0.00     0.087 C 
ENDBRANCH  16  17
ENDBRANCH  15  16
ENDBRANCH  13  15
ENDBRANCH  11  12
ENDBRANCH   1  11
TORSDOF 9
ENDMDL
MODEL 6
REMARK VINA RESULT:    -6.482      1.402      4.325
REMARK INTER + INTRA:         -12.216
REMARK INTER:                 -10.640
REMARK INTRA:                  -1.576
REMARK UNBOUND:                -2.324
REMARK SMILES CC(=O)CCC=C(C)CCC=C(C)CCC=C(C)C
REMARK SMILES IDX 10 1 11 2 12 3 13 4 14 5 15 6 16 7 18 8 17 9 19 10 9 11 7 12
REMARK SMILES IDX 6 13 8 14 5 15 4 16 2 17 3 18 1 19
REMARK H PARENT
REMARK Flexibility Score: inf
ROOT
ATOM      1  C   UNL     1      25.275  56.625 142.050  1.00  0.00     0.032 C 
ENDROOT
BRANCH   1   2
ATOM      2  C   UNL     1      25.714  56.907 140.635  1.00  0.00    -0.028 C 
ATOM      3  C   UNL     1      24.944  56.710 139.541  1.00  0.00    -0.077 C 
ATOM      4  C   UNL     1      23.558  56.119 139.635  1.00  0.00     0.039 C 
BRANCH   3   5
ATOM      5  C   UNL     1      25.497  57.075 138.180  1.00  0.00     0.034 C 
BRANCH   5   6
ATOM      6  C   UNL     1      27.029  57.095 138.200  1.00  0.00     0.032 C 
BRANCH   6   7
ATOM      7  C   UNL     1      27.562  58.177 137.295  1.00  0.00    -0.028 C 
ATOM      8  C   UNL     1      28.217  60.449 136.631  1.00  0.00     0.039 C 
ATOM      9  C   UNL     1      27.619  59.487 137.623  1.00  0.00    -0.080 C 
ATOM     10  C   UNL     1      27.088  60.007 138.939  1.00  0.00     0.039 C 
ENDBRANCH   6   7
ENDBRANCH   5   6
ENDBRANCH   3   5
ENDBRANCH   1   2
BRANCH   1  11
ATOM     11  C   UNL     1      26.488  56.430 142.966  1.00  0.00     0.034 C 
BRANCH  11  12
ATOM     12  C   UNL     1      27.154  57.757 143.267  1.00  0.00    -0.077 C 
ATOM     13  C   UNL     1      28.301  58.161 142.673  1.00  0.00    -0.028 C 
ATOM     14  C   UNL     1      26.529  58.662 144.297  1.00  0.00     0.039 C 
BRANCH  13  15
ATOM     15  C   UNL     1      29.037  57.413 141.585  1.00  0.00     0.035 C 
BRANCH  15  16
ATOM     16  C   UNL     1      29.813  58.376 140.681  1.00  0.00     0.079 C 
BRANCH  16  17
ATOM     17  C   UNL     1      30.441  59.495 141.471  1.00  0.00     0.130 C 
ATOM     18  O   UNL     1      31.468  59.286 142.098  1.00  0.00    -0.300 OA
ATOM     19  C   UNL     1      29.833  60.866 141.498  1.00  0.00     0.087 C 
ENDBRANCH  16  17
ENDBRANCH  15  16
ENDBRANCH  13  15
ENDBRANCH  11  12
ENDBRANCH   1  11
TORSDOF 9
ENDMDL
MODEL 7
REMARK VINA RESULT:    -6.445      1.899      4.332
REMARK INTER + INTRA:         -12.161
REMARK INTER:                 -10.226
REMARK INTRA:                  -1.934
REMARK UNBOUND:                -2.324
REMARK SMILES CC(=O)CCC=C(C)CCC=C(C)CCC=C(C)C
REMARK SMILES IDX 10 1 11 2 12 3 13 4 14 5 15 6 16 7 18 8 17 9 19 10 9 11 7 12
REMARK SMILES IDX 6 13 8 14 5 15 4 16 2 17 3 18 1 19
REMARK H PARENT
REMARK Flexibility Score: inf
ROOT
ATOM      1  C   UNL     1      28.317  60.047 138.865  1.00  0.00     0.032 C 
ENDROOT
BRANCH   1   2
ATOM      2  C   UNL     1      29.170  59.747 140.071  1.00  0.00    -0.028 C 
ATOM      3  C   UNL     1      30.068  58.738 140.141  1.00  0.00    -0.077 C 
ATOM      4  C   UNL     1      30.261  57.760 139.006  1.00  0.00     0.039 C 
BRANCH   3   5
ATOM      5  C   UNL     1      30.890  58.574 141.400  1.00  0.00     0.034 C 
BRANCH   5   6
ATOM      6  C   UNL     1      30.066  58.932 142.641  1.00  0.00     0.032 C 
BRANCH   6   7
ATOM      7  C   UNL     1      29.140  57.802 143.014  1.00  0.00    -0.028 C 
ATOM      8  C   UNL     1      26.997  56.688 143.460  1.00  0.00     0.039 C 
ATOM      9  C   UNL     1      27.798  57.917 143.118  1.00  0.00    -0.080 C 
ATOM     10  C   UNL     1      27.089  59.236 142.917  1.00  0.00     0.039 C 
ENDBRANCH   6   7
ENDBRANCH   5   6
ENDBRANCH   3   5
ENDBRANCH   1   2
BRANCH   1  11
ATOM     11  C   UNL     1      26.917  59.444 139.026  1.00  0.00     0.034 C 
BRANCH  11  12
ATOM     12  C   UNL     1      26.685  58.342 138.012  1.00  0.00    -0.077 C 
ATOM     13  C   UNL     1      25.795  57.340 138.198  1.00  0.00    -0.028 C 
ATOM     14  C   UNL     1      27.502  58.342 136.746  1.00  0.00     0.039 C 
BRANCH  13  15
ATOM     15  C   UNL     1      24.858  57.207 139.376  1.00  0.00     0.035 C 
BRANCH  15  16
ATOM     16  C   UNL     1      25.366  56.156 140.369  1.00  0.00     0.079 C 
BRANCH  16  17
ATOM     17  C   UNL     1      26.422  55.275 139.754  1.00  0.00     0.130 C 
ATOM     18  O   UNL     1      26.089  54.368 139.007  1.00  0.00    -0.300 OA
ATOM     19  C   UNL     1      27.879  55.495 140.034  1.00  0.00     0.087 C 
ENDBRANCH  16  17
ENDBRANCH  15  16
ENDBRANCH  13  15
ENDBRANCH  11  12
ENDBRANCH   1  11
TORSDOF 9
ENDMDL
MODEL 8
REMARK VINA RESULT:    -6.417      1.684      4.858
REMARK INTER + INTRA:         -12.118
REMARK INTER:                 -10.135
REMARK INTRA:                  -1.983
REMARK UNBOUND:                -2.324
REMARK SMILES CC(=O)CCC=C(C)CCC=C(C)CCC=C(C)C
REMARK SMILES IDX 10 1 11 2 12 3 13 4 14 5 15 6 16 7 18 8 17 9 19 10 9 11 7 12
REMARK SMILES IDX 6 13 8 14 5 15 4 16 2 17 3 18 1 19
REMARK H PARENT
REMARK Flexibility Score: inf
ROOT
ATOM      1  C   UNL     1      27.776  59.965 138.783  1.00  0.00     0.032 C 
ENDROOT
BRANCH   1   2
ATOM      2  C   UNL     1      26.676  59.062 139.281  1.00  0.00    -0.028 C 
ATOM      3  C   UNL     1      26.224  57.970 138.622  1.00  0.00    -0.077 C 
ATOM      4  C   UNL     1      26.757  57.581 137.263  1.00  0.00     0.039 C 
BRANCH   3   5
ATOM      5  C   UNL     1      25.141  57.127 139.257  1.00  0.00     0.034 C 
BRANCH   5   6
ATOM      6  C   UNL     1      25.736  56.147 140.273  1.00  0.00     0.032 C 
BRANCH   6   7
ATOM      7  C   UNL     1      25.362  56.540 141.680  1.00  0.00    -0.028 C 
ATOM      8  C   UNL     1      25.719  57.338 143.976  1.00  0.00     0.039 C 
ATOM      9  C   UNL     1      26.246  56.935 142.623  1.00  0.00    -0.080 C 
ATOM     10  C   UNL     1      27.734  56.965 142.363  1.00  0.00     0.039 C 
ENDBRANCH   6   7
ENDBRANCH   5   6
ENDBRANCH   3   5
ENDBRANCH   1   2
BRANCH   1  11
ATOM     11  C   UNL     1      28.007  61.125 139.758  1.00  0.00     0.034 C 
BRANCH  11  12
ATOM     12  C   UNL     1      28.117  60.618 141.182  1.00  0.00    -0.077 C 
ATOM     13  C   UNL     1      29.204  59.965 141.654  1.00  0.00    -0.028 C 
ATOM     14  C   UNL     1      26.950  60.825 142.114  1.00  0.00     0.039 C 
BRANCH  13  15
ATOM     15  C   UNL     1      30.480  59.715 140.884  1.00  0.00     0.035 C 
BRANCH  15  16
ATOM     16  C   UNL     1      30.962  58.273 141.069  1.00  0.00     0.079 C 
BRANCH  16  17
ATOM     17  C   UNL     1      30.784  57.462 139.812  1.00  0.00     0.130 C 
ATOM     18  O   UNL     1      31.683  57.428 138.985  1.00  0.00    -0.300 OA
ATOM     19  C   UNL     1      29.525  56.688 139.556  1.00  0.00     0.087 C 
ENDBRANCH  16  17
ENDBRANCH  15  16
ENDBRANCH  13  15
ENDBRANCH  11  12
ENDBRANCH   1  11
TORSDOF 9
ENDMDL
MODEL 9
REMARK VINA RESULT:    -6.270      1.361      4.167
REMARK INTER + INTRA:         -11.893
REMARK INTER:                 -10.137
REMARK INTRA:                  -1.756
REMARK UNBOUND:                -2.324
REMARK SMILES CC(=O)CCC=C(C)CCC=C(C)CCC=C(C)C
REMARK SMILES IDX 10 1 11 2 12 3 13 4 14 5 15 6 16 7 18 8 17 9 19 10 9 11 7 12
REMARK SMILES IDX 6 13 8 14 5 15 4 16 2 17 3 18 1 19
REMARK H PARENT
REMARK Flexibility Score: inf
ROOT
ATOM      1  C   UNL     1      30.000  58.868 142.563  1.00  0.00     0.032 C 
ENDROOT
BRANCH   1   2
ATOM      2  C   UNL     1      28.853  57.926 142.829  1.00  0.00    -0.028 C 
ATOM      3  C   UNL     1      27.577  58.316 143.053  1.00  0.00    -0.077 C 
ATOM      4  C   UNL     1      27.188  59.774 143.116  1.00  0.00     0.039 C 
BRANCH   3   5
ATOM      5  C   UNL     1      26.514  57.262 143.264  1.00  0.00     0.034 C 
BRANCH   5   6
ATOM      6  C   UNL     1      26.470  56.285 142.085  1.00  0.00     0.032 C 
BRANCH   6   7
ATOM      7  C   UNL     1      25.287  56.572 141.195  1.00  0.00    -0.028 C 
ATOM      8  C   UNL     1      23.873  56.417 139.192  1.00  0.00     0.039 C 
ATOM      9  C   UNL     1      25.129  56.074 139.948  1.00  0.00    -0.080 C 
ATOM     10  C   UNL     1      26.179  55.205 139.295  1.00  0.00     0.039 C 
ENDBRANCH   6   7
ENDBRANCH   5   6
ENDBRANCH   3   5
ENDBRANCH   1   2
BRANCH   1  11
ATOM     11  C   UNL     1      29.921  59.430 141.140  1.00  0.00     0.034 C 
BRANCH  11  12
ATOM     12  C   UNL     1      29.761  58.313 140.128  1.00  0.00    -0.077 C 
ATOM     13  C   UNL     1      28.614  58.091 139.445  1.00  0.00    -0.028 C 
ATOM     14  C   UNL     1      30.923  57.384 139.887  1.00  0.00     0.039 C 
BRANCH  13  15
ATOM     15  C   UNL     1      27.370  58.946 139.519  1.00  0.00     0.035 C 
BRANCH  15  16
ATOM     16  C   UNL     1      27.432  60.097 138.510  1.00  0.00     0.079 C 
BRANCH  16  17
ATOM     17  C   UNL     1      27.754  59.603 137.123  1.00  0.00     0.130 C 
ATOM     18  O   UNL     1      28.422  60.301 136.375  1.00  0.00    -0.300 OA
ATOM     19  C   UNL     1      27.275  58.265 136.643  1.00  0.00     0.087 C 
ENDBRANCH  16  17
ENDBRANCH  15  16
ENDBRANCH  13  15
ENDBRANCH  11  12
ENDBRANCH   1  11
TORSDOF 9
ENDMDL
