MODEL 1
REMARK VINA RESULT:    19.041      0.000      0.000
REMARK INTER + INTRA:          22.091
REMARK INTER:                  22.380
REMARK INTRA:                  -0.289
REMARK UNBOUND:                -0.289
REMARK SMILES O=c1c(O)c(-c2ccc(O)cc2)oc2cc(O)cc(O)c12
REMARK SMILES IDX 5 1 3 2 2 3 1 4 21 5 19 6 18 7 16 8 15 9 14 10 13 11 6 12
REMARK SMILES IDX 7 13 8 14 9 15 12 16 11 17 10 18 4 20 20 22 17 24
REMARK H PARENT 10 19 4 21 20 23 17 25
REMARK Flexibility Score: inf
ROOT
ATOM      1  C   UNL     1      -5.057  -0.537  12.834  1.00  0.00     0.180 A 
ATOM      2  C   UNL     1      -5.623  -1.145  13.968  1.00  0.00     0.208 A 
ATOM      3  C   UNL     1      -5.638  -2.546  14.052  1.00  0.00     0.238 A 
ATOM      4  O   UNL     1      -6.097  -3.084  15.095  1.00  0.00    -0.285 OA
ATOM      5  C   UNL     1      -5.104  -3.322  12.995  1.00  0.00     0.111 A 
ATOM      6  C   UNL     1      -5.104  -4.749  12.957  1.00  0.00     0.134 A 
ATOM      7  C   UNL     1      -4.431  -5.411  11.924  1.00  0.00     0.093 A 
ATOM      8  C   UNL     1      -3.814  -4.699  10.892  1.00  0.00     0.123 A 
ATOM      9  C   UNL     1      -3.861  -3.307  10.890  1.00  0.00     0.094 A 
ATOM     10  C   UNL     1      -4.494  -2.617  11.926  1.00  0.00     0.146 A 
ATOM     11  O   UNL     1      -4.506  -1.290  11.890  1.00  0.00    -0.452 OA
ENDROOT
BRANCH   1  12
ATOM     12  C   UNL     1      -5.027   0.934  12.660  1.00  0.00     0.021 A 
ATOM     13  C   UNL     1      -3.948   1.706  13.128  1.00  0.00     0.016 A 
ATOM     14  C   UNL     1      -3.953   3.095  12.974  1.00  0.00     0.047 A 
ATOM     15  C   UNL     1      -5.041   3.732  12.362  1.00  0.00     0.115 A 
ATOM     16  C   UNL     1      -6.123   1.583  12.067  1.00  0.00     0.016 A 
ATOM     17  C   UNL     1      -6.125   2.972  11.914  1.00  0.00     0.047 A 
BRANCH  15  18
ATOM     18  O   UNL     1      -5.056   5.116  12.203  1.00  0.00    -0.508 OA
ATOM     19  H   UNL     1      -4.266   5.689  12.476  1.00  0.00     0.293 HD
ENDBRANCH  15  18
ENDBRANCH   1  12
BRANCH   2  20
ATOM     20  O   UNL     1      -6.125  -0.359  15.009  1.00  0.00    -0.502 OA
ATOM     21  H   UNL     1      -5.595  -0.171  15.853  1.00  0.00     0.293 HD
ENDBRANCH   2  20
BRANCH   6  22
ATOM     22  O   UNL     1      -5.767  -5.554  13.888  1.00  0.00    -0.507 OA
ATOM     23  H   UNL     1      -5.778  -6.562  13.872  1.00  0.00     0.293 HD
ENDBRANCH   6  22
BRANCH   8  24
ATOM     24  O   UNL     1      -3.161  -5.367   9.859  1.00  0.00    -0.508 OA
ATOM     25  H   UNL     1      -3.354  -6.340   9.651  1.00  0.00     0.293 HD
ENDBRANCH   8  24
TORSDOF 5
ENDMDL
