MODEL 1
REMARK VINA RESULT:    -3.508      0.000      0.000
REMARK INTER + INTRA:          -6.255
REMARK INTER:                  -5.560
REMARK INTRA:                  -0.695
REMARK UNBOUND:                -0.695
REMARK SMILES CCCCCCCCCCCC(=O)[O-]
REMARK SMILES IDX 7 1 8 2 9 3 10 4 11 5 12 6 13 7 14 8 6 9 5 10 4 11 3 12 2 13
REMARK SMILES IDX 1 14
REMARK H PARENT
REMARK Flexibility Score: inf
ROOT
ATOM      1  C   UNL     1      -7.982  16.238 -12.408  1.00  0.00     0.000 C 
ENDROOT
BRANCH   1   2
ATOM      2  C   UNL     1      -8.973  17.333 -12.842  1.00  0.00     0.000 C 
BRANCH   2   3
ATOM      3  C   UNL     1      -8.342  18.735 -12.842  1.00  0.00     0.000 C 
BRANCH   3   4
ATOM      4  C   UNL     1      -7.998  19.230 -14.255  1.00  0.00     0.006 C 
BRANCH   4   5
ATOM      5  C   UNL     1      -7.086  20.460 -14.196  1.00  0.00     0.053 C 
BRANCH   5   6
ATOM      6  C   UNL     1      -5.946  20.223 -13.258  1.00  0.00     0.041 C 
ATOM      7  O   UNL     1      -5.088  19.337 -13.514  1.00  0.00    -0.550 OA
ATOM      8  O   UNL     1      -5.856  20.946 -12.075  1.00  0.00    -0.550 OA
ENDBRANCH   5   6
ENDBRANCH   4   5
ENDBRANCH   3   4
ENDBRANCH   2   3
ENDBRANCH   1   2
BRANCH   1   9
ATOM      9  C   UNL     1      -6.881  16.001 -13.454  1.00  0.00     0.000 C 
BRANCH   9  10
ATOM     10  C   UNL     1      -7.404  15.269 -14.704  1.00  0.00    -0.000 C 
BRANCH  10  11
ATOM     11  C   UNL     1      -8.351  14.105 -14.342  1.00  0.00    -0.000 C 
BRANCH  11  12
ATOM     12  C   UNL     1      -7.643  12.742 -14.249  1.00  0.00    -0.000 C 
BRANCH  12  13
ATOM     13  C   UNL     1      -6.190  12.788 -14.740  1.00  0.00    -0.003 C 
ATOM     14  C   UNL     1      -5.218  12.455 -13.613  1.00  0.00     0.004 C 
ENDBRANCH  12  13
ENDBRANCH  11  12
ENDBRANCH  10  11
ENDBRANCH   9  10
ENDBRANCH   1   9
TORSDOF 10
ENDMDL
MODEL 2
REMARK VINA RESULT:    -3.412      1.287      1.627
REMARK INTER + INTRA:          -6.103
REMARK INTER:                  -5.135
REMARK INTRA:                  -0.968
REMARK UNBOUND:                -0.695
REMARK SMILES CCCCCCCCCCCC(=O)[O-]
REMARK SMILES IDX 7 1 8 2 9 3 10 4 11 5 12 6 13 7 14 8 6 9 5 10 4 11 3 12 2 13
REMARK SMILES IDX 1 14
REMARK H PARENT
REMARK Flexibility Score: inf
ROOT
ATOM      1  C   UNL     1      -8.888  16.101 -12.363  1.00  0.00     0.000 C 
ENDROOT
BRANCH   1   2
ATOM      2  C   UNL     1      -8.877  17.354 -13.257  1.00  0.00     0.000 C 
BRANCH   2   3
ATOM      3  C   UNL     1      -7.542  17.543 -13.994  1.00  0.00     0.000 C 
BRANCH   3   4
ATOM      4  C   UNL     1      -7.619  18.609 -15.098  1.00  0.00     0.006 C 
BRANCH   4   5
ATOM      5  C   UNL     1      -7.830  20.003 -14.499  1.00  0.00     0.053 C 
BRANCH   5   6
ATOM      6  C   UNL     1      -6.679  20.376 -13.619  1.00  0.00     0.041 C 
ATOM      7  O   UNL     1      -6.835  20.460 -12.373  1.00  0.00    -0.550 OA
ATOM      8  O   UNL     1      -5.445  20.677 -14.181  1.00  0.00    -0.550 OA
ENDBRANCH   5   6
ENDBRANCH   4   5
ENDBRANCH   3   4
ENDBRANCH   2   3
ENDBRANCH   1   2
BRANCH   1   9
ATOM      9  C   UNL     1      -7.487  15.492 -12.198  1.00  0.00     0.000 C 
BRANCH   9  10
ATOM     10  C   UNL     1      -7.451  13.992 -12.545  1.00  0.00    -0.000 C 
BRANCH  10  11
ATOM     11  C   UNL     1      -7.820  13.729 -14.021  1.00  0.00    -0.000 C 
BRANCH  11  12
ATOM     12  C   UNL     1      -6.704  13.033 -14.819  1.00  0.00    -0.000 C 
BRANCH  12  13
ATOM     13  C   UNL     1      -5.298  13.501 -14.417  1.00  0.00    -0.003 C 
ATOM     14  C   UNL     1      -4.946  14.823 -15.091  1.00  0.00     0.004 C 
ENDBRANCH  12  13
ENDBRANCH  11  12
ENDBRANCH  10  11
ENDBRANCH   9  10
ENDBRANCH   1   9
TORSDOF 10
ENDMDL
MODEL 3
REMARK VINA RESULT:    -3.405      2.256      3.239
REMARK INTER + INTRA:          -6.091
REMARK INTER:                  -5.422
REMARK INTRA:                  -0.669
REMARK UNBOUND:                -0.695
REMARK SMILES CCCCCCCCCCCC(=O)[O-]
REMARK SMILES IDX 7 1 8 2 9 3 10 4 11 5 12 6 13 7 14 8 6 9 5 10 4 11 3 12 2 13
REMARK SMILES IDX 1 14
REMARK H PARENT
REMARK Flexibility Score: inf
ROOT
ATOM      1  C   UNL     1      -5.915  16.556 -14.461  1.00  0.00     0.000 C 
ENDROOT
BRANCH   1   2
ATOM      2  C   UNL     1      -5.234  17.891 -14.107  1.00  0.00     0.000 C 
BRANCH   2   3
ATOM      3  C   UNL     1      -6.235  19.050 -13.978  1.00  0.00     0.000 C 
BRANCH   3   4
ATOM      4  C   UNL     1      -7.684  18.615 -14.246  1.00  0.00     0.006 C 
BRANCH   4   5
ATOM      5  C   UNL     1      -8.503  18.613 -12.950  1.00  0.00     0.053 C 
BRANCH   5   6
ATOM      6  C   UNL     1      -8.703  17.214 -12.459  1.00  0.00     0.041 C 
ATOM      7  O   UNL     1      -9.752  16.582 -12.754  1.00  0.00    -0.550 OA
ATOM      8  O   UNL     1      -7.753  16.625 -11.635  1.00  0.00    -0.550 OA
ENDBRANCH   5   6
ENDBRANCH   4   5
ENDBRANCH   3   4
ENDBRANCH   2   3
ENDBRANCH   1   2
BRANCH   1   9
ATOM      9  C   UNL     1      -4.944  15.368 -14.383  1.00  0.00     0.000 C 
BRANCH   9  10
ATOM     10  C   UNL     1      -5.475  14.124 -15.121  1.00  0.00    -0.000 C 
BRANCH  10  11
ATOM     11  C   UNL     1      -5.896  13.005 -14.145  1.00  0.00    -0.000 C 
BRANCH  11  12
ATOM     12  C   UNL     1      -7.076  13.393 -13.237  1.00  0.00    -0.000 C 
BRANCH  12  13
ATOM     13  C   UNL     1      -8.342  13.759 -14.025  1.00  0.00    -0.003 C 
ATOM     14  C   UNL     1      -8.673  12.691 -15.062  1.00  0.00     0.004 C 
ENDBRANCH  12  13
ENDBRANCH  11  12
ENDBRANCH  10  11
ENDBRANCH   9  10
ENDBRANCH   1   9
TORSDOF 10
ENDMDL
MODEL 4
REMARK VINA RESULT:    -3.323      0.968      1.580
REMARK INTER + INTRA:          -5.962
REMARK INTER:                  -5.134
REMARK INTRA:                  -0.828
REMARK UNBOUND:                -0.695
REMARK SMILES CCCCCCCCCCCC(=O)[O-]
REMARK SMILES IDX 7 1 8 2 9 3 10 4 11 5 12 6 13 7 14 8 6 9 5 10 4 11 3 12 2 13
REMARK SMILES IDX 1 14
REMARK H PARENT
REMARK Flexibility Score: inf
ROOT
ATOM      1  C   UNL     1      -7.607  15.800 -12.757  1.00  0.00     0.000 C 
ENDROOT
BRANCH   1   2
ATOM      2  C   UNL     1      -8.675  16.667 -12.067  1.00  0.00     0.000 C 
BRANCH   2   3
ATOM      3  C   UNL     1      -8.645  18.129 -12.541  1.00  0.00     0.000 C 
BRANCH   3   4
ATOM      4  C   UNL     1      -7.637  18.365 -13.676  1.00  0.00     0.006 C 
BRANCH   4   5
ATOM      5  C   UNL     1      -7.487  19.861 -13.973  1.00  0.00     0.053 C 
BRANCH   5   6
ATOM      6  C   UNL     1      -6.228  20.393 -13.365  1.00  0.00     0.041 C 
ATOM      7  O   UNL     1      -6.185  20.671 -12.138  1.00  0.00    -0.550 OA
ATOM      8  O   UNL     1      -5.116  20.626 -14.164  1.00  0.00    -0.550 OA
ENDBRANCH   5   6
ENDBRANCH   4   5
ENDBRANCH   3   4
ENDBRANCH   2   3
ENDBRANCH   1   2
BRANCH   1   9
ATOM      9  C   UNL     1      -8.227  14.726 -13.666  1.00  0.00     0.000 C 
BRANCH   9  10
ATOM     10  C   UNL     1      -7.636  14.746 -15.088  1.00  0.00    -0.000 C 
BRANCH  10  11
ATOM     11  C   UNL     1      -6.232  15.385 -15.125  1.00  0.00    -0.000 C 
BRANCH  11  12
ATOM     12  C   UNL     1      -5.087  14.357 -15.090  1.00  0.00    -0.000 C 
BRANCH  12  13
ATOM     13  C   UNL     1      -5.585  12.911 -14.948  1.00  0.00    -0.003 C 
ATOM     14  C   UNL     1      -5.094  12.287 -13.646  1.00  0.00     0.004 C 
ENDBRANCH  12  13
ENDBRANCH  11  12
ENDBRANCH  10  11
ENDBRANCH   9  10
ENDBRANCH   1   9
TORSDOF 10
ENDMDL
MODEL 5
REMARK VINA RESULT:    -3.269      2.944      5.974
REMARK INTER + INTRA:          -5.875
REMARK INTER:                  -5.219
REMARK INTRA:                  -0.657
REMARK UNBOUND:                -0.695
REMARK SMILES CCCCCCCCCCCC(=O)[O-]
REMARK SMILES IDX 7 1 8 2 9 3 10 4 11 5 12 6 13 7 14 8 6 9 5 10 4 11 3 12 2 13
REMARK SMILES IDX 1 14
REMARK H PARENT
REMARK Flexibility Score: inf
ROOT
ATOM      1  C   UNL     1      -9.001  16.641 -12.268  1.00  0.00     0.000 C 
ENDROOT
BRANCH   1   2
ATOM      2  C   UNL     1      -7.896  15.576 -12.383  1.00  0.00     0.000 C 
BRANCH   2   3
ATOM      3  C   UNL     1      -7.298  15.496 -13.797  1.00  0.00     0.000 C 
BRANCH   3   4
ATOM      4  C   UNL     1      -7.613  14.166 -14.500  1.00  0.00     0.006 C 
BRANCH   4   5
ATOM      5  C   UNL     1      -7.097  12.979 -13.680  1.00  0.00     0.053 C 
BRANCH   5   6
ATOM      6  C   UNL     1      -5.620  12.825 -13.854  1.00  0.00     0.041 C 
ATOM      7  O   UNL     1      -4.879  12.638 -12.853  1.00  0.00    -0.550 OA
ATOM      8  O   UNL     1      -5.054  12.934 -15.118  1.00  0.00    -0.550 OA
ENDBRANCH   5   6
ENDBRANCH   4   5
ENDBRANCH   3   4
ENDBRANCH   2   3
ENDBRANCH   1   2
BRANCH   1   9
ATOM      9  C   UNL     1      -8.964  17.648 -13.428  1.00  0.00     0.000 C 
BRANCH   9  10
ATOM     10  C   UNL     1      -8.250  18.958 -13.049  1.00  0.00    -0.000 C 
BRANCH  10  11
ATOM     11  C   UNL     1      -7.733  19.718 -14.290  1.00  0.00    -0.000 C 
BRANCH  11  12
ATOM     12  C   UNL     1      -6.419  19.152 -14.854  1.00  0.00    -0.000 C 
BRANCH  12  13
ATOM     13  C   UNL     1      -5.199  20.019 -14.514  1.00  0.00    -0.003 C 
ATOM     14  C   UNL     1      -5.500  20.961 -13.353  1.00  0.00     0.004 C 
ENDBRANCH  12  13
ENDBRANCH  11  12
ENDBRANCH  10  11
ENDBRANCH   9  10
ENDBRANCH   1   9
TORSDOF 10
ENDMDL
MODEL 6
REMARK VINA RESULT:    -3.227      1.090      1.694
REMARK INTER + INTRA:          -5.809
REMARK INTER:                  -4.928
REMARK INTRA:                  -0.881
REMARK UNBOUND:                -0.695
REMARK SMILES CCCCCCCCCCCC(=O)[O-]
REMARK SMILES IDX 7 1 8 2 9 3 10 4 11 5 12 6 13 7 14 8 6 9 5 10 4 11 3 12 2 13
REMARK SMILES IDX 1 14
REMARK H PARENT
REMARK Flexibility Score: inf
ROOT
ATOM      1  C   UNL     1      -6.938  16.662 -13.613  1.00  0.00     0.000 C 
ENDROOT
BRANCH   1   2
ATOM      2  C   UNL     1      -8.255  17.419 -13.865  1.00  0.00     0.000 C 
BRANCH   2   3
ATOM      3  C   UNL     1      -8.198  18.879 -13.388  1.00  0.00     0.000 C 
BRANCH   3   4
ATOM      4  C   UNL     1      -7.909  19.866 -14.530  1.00  0.00     0.006 C 
BRANCH   4   5
ATOM      5  C   UNL     1      -7.123  21.078 -14.019  1.00  0.00     0.053 C 
BRANCH   5   6
ATOM      6  C   UNL     1      -5.878  20.637 -13.316  1.00  0.00     0.041 C 
ATOM      7  O   UNL     1      -4.971  20.036 -13.949  1.00  0.00    -0.550 OA
ATOM      8  O   UNL     1      -5.740  20.847 -11.950  1.00  0.00    -0.550 OA
ENDBRANCH   5   6
ENDBRANCH   4   5
ENDBRANCH   3   4
ENDBRANCH   2   3
ENDBRANCH   1   2
BRANCH   1   9
ATOM      9  C   UNL     1      -6.028  16.649 -14.851  1.00  0.00     0.000 C 
BRANCH   9  10
ATOM     10  C   UNL     1      -5.064  15.447 -14.861  1.00  0.00    -0.000 C 
BRANCH  10  11
ATOM     11  C   UNL     1      -5.800  14.116 -15.122  1.00  0.00    -0.000 C 
BRANCH  11  12
ATOM     12  C   UNL     1      -6.038  13.285 -13.849  1.00  0.00    -0.000 C 
BRANCH  12  13
ATOM     13  C   UNL     1      -7.449  12.684 -13.782  1.00  0.00    -0.003 C 
ATOM     14  C   UNL     1      -8.436  13.506 -14.605  1.00  0.00     0.004 C 
ENDBRANCH  12  13
ENDBRANCH  11  12
ENDBRANCH  10  11
ENDBRANCH   9  10
ENDBRANCH   1   9
TORSDOF 10
ENDMDL
MODEL 7
REMARK VINA RESULT:    -3.193      2.723      5.392
REMARK INTER + INTRA:          -5.754
REMARK INTER:                  -4.842
REMARK INTRA:                  -0.913
REMARK UNBOUND:                -0.695
REMARK SMILES CCCCCCCCCCCC(=O)[O-]
REMARK SMILES IDX 7 1 8 2 9 3 10 4 11 5 12 6 13 7 14 8 6 9 5 10 4 11 3 12 2 13
REMARK SMILES IDX 1 14
REMARK H PARENT
REMARK Flexibility Score: inf
ROOT
ATOM      1  C   UNL     1      -8.137  17.432 -12.419  1.00  0.00     0.000 C 
ENDROOT
BRANCH   1   2
ATOM      2  C   UNL     1      -8.970  16.628 -13.433  1.00  0.00     0.000 C 
BRANCH   2   3
ATOM      3  C   UNL     1      -8.205  16.347 -14.737  1.00  0.00     0.000 C 
BRANCH   3   4
ATOM      4  C   UNL     1      -7.293  15.115 -14.636  1.00  0.00     0.006 C 
BRANCH   4   5
ATOM      5  C   UNL     1      -7.879  14.079 -13.671  1.00  0.00     0.053 C 
BRANCH   5   6
ATOM      6  C   UNL     1      -6.929  13.816 -12.545  1.00  0.00     0.041 C 
ATOM      7  O   UNL     1      -5.863  13.178 -12.751  1.00  0.00    -0.550 OA
ATOM      8  O   UNL     1      -7.244  14.234 -11.259  1.00  0.00    -0.550 OA
ENDBRANCH   5   6
ENDBRANCH   4   5
ENDBRANCH   3   4
ENDBRANCH   2   3
ENDBRANCH   1   2
BRANCH   1   9
ATOM      9  C   UNL     1      -8.418  18.941 -12.501  1.00  0.00     0.000 C 
BRANCH   9  10
ATOM     10  C   UNL     1      -7.973  19.551 -13.842  1.00  0.00    -0.000 C 
BRANCH  10  11
ATOM     11  C   UNL     1      -6.945  20.686 -13.651  1.00  0.00    -0.000 C 
BRANCH  11  12
ATOM     12  C   UNL     1      -5.483  20.208 -13.700  1.00  0.00    -0.000 C 
BRANCH  12  13
ATOM     13  C   UNL     1      -5.256  19.081 -14.718  1.00  0.00    -0.003 C 
ATOM     14  C   UNL     1      -4.880  17.778 -14.021  1.00  0.00     0.004 C 
ENDBRANCH  12  13
ENDBRANCH  11  12
ENDBRANCH  10  11
ENDBRANCH   9  10
ENDBRANCH   1   9
TORSDOF 10
ENDMDL
MODEL 8
REMARK VINA RESULT:    -3.132      1.645      3.396
REMARK INTER + INTRA:          -5.658
REMARK INTER:                  -4.716
REMARK INTRA:                  -0.943
REMARK UNBOUND:                -0.695
REMARK SMILES CCCCCCCCCCCC(=O)[O-]
REMARK SMILES IDX 7 1 8 2 9 3 10 4 11 5 12 6 13 7 14 8 6 9 5 10 4 11 3 12 2 13
REMARK SMILES IDX 1 14
REMARK H PARENT
REMARK Flexibility Score: inf
ROOT
ATOM      1  C   UNL     1      -5.055  15.564 -14.944  1.00  0.00     0.000 C 
ENDROOT
BRANCH   1   2
ATOM      2  C   UNL     1      -5.702  16.954 -15.083  1.00  0.00     0.000 C 
BRANCH   2   3
ATOM      3  C   UNL     1      -4.928  18.044 -14.324  1.00  0.00     0.000 C 
BRANCH   3   4
ATOM      4  C   UNL     1      -4.949  19.400 -15.048  1.00  0.00     0.006 C 
BRANCH   4   5
ATOM      5  C   UNL     1      -5.019  20.555 -14.043  1.00  0.00     0.053 C 
BRANCH   5   6
ATOM      6  C   UNL     1      -6.381  20.633 -13.429  1.00  0.00     0.041 C 
ATOM      7  O   UNL     1      -6.509  20.690 -12.178  1.00  0.00    -0.550 OA
ATOM      8  O   UNL     1      -7.510  20.594 -14.236  1.00  0.00    -0.550 OA
ENDBRANCH   5   6
ENDBRANCH   4   5
ENDBRANCH   3   4
ENDBRANCH   2   3
ENDBRANCH   1   2
BRANCH   1   9
ATOM      9  C   UNL     1      -6.099  14.438 -14.891  1.00  0.00     0.000 C 
BRANCH   9  10
ATOM     10  C   UNL     1      -7.539  14.974 -14.781  1.00  0.00    -0.000 C 
BRANCH  10  11
ATOM     11  C   UNL     1      -8.256  14.456 -13.517  1.00  0.00    -0.000 C 
BRANCH  11  12
ATOM     12  C   UNL     1      -8.168  15.421 -12.321  1.00  0.00    -0.000 C 
BRANCH  12  13
ATOM     13  C   UNL     1      -9.237  16.522 -12.361  1.00  0.00    -0.003 C 
ATOM     14  C   UNL     1      -8.617  17.880 -12.674  1.00  0.00     0.004 C 
ENDBRANCH  12  13
ENDBRANCH  11  12
ENDBRANCH  10  11
ENDBRANCH   9  10
ENDBRANCH   1   9
TORSDOF 10
ENDMDL
