MODEL 1
REMARK VINA RESULT:     1.392      0.000      0.000
REMARK INTER + INTRA:           2.147
REMARK INTER:                   1.677
REMARK INTRA:                   0.471
REMARK UNBOUND:                 0.471
REMARK SMILES O=c1c(O)c(-c2ccc(O)c(O)c2)oc2cc(O)cc(O)c12
REMARK SMILES IDX 5 1 3 2 2 3 1 4 22 5 20 6 19 7 17 8 16 9 15 10 14 11 6 12
REMARK SMILES IDX 7 13 8 14 9 15 13 16 11 17 10 18 12 20 4 22 21 24 18 26
REMARK H PARENT 10 19 12 21 4 23 21 25 18 27
REMARK Flexibility Score: inf
ROOT
ATOM      1  C   UNL     1      23.983   8.890 121.962  1.00  0.00     0.180 A 
ATOM      2  C   UNL     1      25.386   8.819 121.994  1.00  0.00     0.208 A 
ATOM      3  C   UNL     1      26.128  10.009 122.058  1.00  0.00     0.238 A 
ATOM      4  O   UNL     1      27.384   9.941 122.030  1.00  0.00    -0.285 OA
ATOM      5  C   UNL     1      25.457  11.255 122.105  1.00  0.00     0.111 A 
ATOM      6  C   UNL     1      26.106  12.523 122.212  1.00  0.00     0.134 A 
ATOM      7  C   UNL     1      25.349  13.697 122.119  1.00  0.00     0.093 A 
ATOM      8  C   UNL     1      23.961  13.651 121.990  1.00  0.00     0.123 A 
ATOM      9  C   UNL     1      23.310  12.417 121.946  1.00  0.00     0.094 A 
ATOM     10  C   UNL     1      24.042  11.229 121.999  1.00  0.00     0.146 A 
ATOM     11  O   UNL     1      23.384  10.076 121.943  1.00  0.00    -0.452 OA
ENDROOT
BRANCH   1  12
ATOM     12  C   UNL     1      23.132   7.679 121.920  1.00  0.00     0.025 A 
ATOM     13  C   UNL     1      23.694   6.390 121.942  1.00  0.00     0.016 A 
ATOM     14  C   UNL     1      22.871   5.261 121.925  1.00  0.00     0.051 A 
ATOM     15  C   UNL     1      21.477   5.401 121.901  1.00  0.00     0.157 A 
ATOM     16  C   UNL     1      21.734   7.814 121.917  1.00  0.00     0.062 A 
ATOM     17  C   UNL     1      20.907   6.685 121.899  1.00  0.00     0.158 A 
BRANCH  15  18
ATOM     18  O   UNL     1      20.659   4.273 121.883  1.00  0.00    -0.504 OA
ATOM     19  H   UNL     1      20.415   3.780 122.735  1.00  0.00     0.293 HD
ENDBRANCH  15  18
BRANCH  17  20
ATOM     20  O   UNL     1      19.524   6.860 121.882  1.00  0.00    -0.504 OA
ATOM     21  H   UNL     1      19.027   7.148 121.048  1.00  0.00     0.293 HD
ENDBRANCH  17  20
ENDBRANCH   1  12
BRANCH   2  22
ATOM     22  O   UNL     1      26.028   7.580 121.923  1.00  0.00    -0.502 OA
ATOM     23  H   UNL     1      25.594   6.723 122.248  1.00  0.00     0.293 HD
ENDBRANCH   2  22
BRANCH   6  24
ATOM     24  O   UNL     1      27.478  12.679 122.434  1.00  0.00    -0.507 OA
ATOM     25  H   UNL     1      27.939  12.520 123.317  1.00  0.00     0.293 HD
ENDBRANCH   6  24
BRANCH   8  26
ATOM     26  O   UNL     1      23.238  14.839 121.917  1.00  0.00    -0.508 OA
ATOM     27  H   UNL     1      23.412  15.607 122.555  1.00  0.00     0.293 HD
ENDBRANCH   8  26
TORSDOF 6
ENDMDL
MODEL 2
REMARK VINA RESULT:     1.873      1.292      2.006
REMARK INTER + INTRA:           2.727
REMARK INTER:                   2.173
REMARK INTRA:                   0.554
REMARK UNBOUND:                 0.471
REMARK SMILES O=c1c(O)c(-c2ccc(O)c(O)c2)oc2cc(O)cc(O)c12
REMARK SMILES IDX 5 1 3 2 2 3 1 4 22 5 20 6 19 7 17 8 16 9 15 10 14 11 6 12
REMARK SMILES IDX 7 13 8 14 9 15 13 16 11 17 10 18 12 20 4 22 21 24 18 26
REMARK H PARENT 10 19 12 21 4 23 21 25 18 27
REMARK Flexibility Score: inf
ROOT
ATOM      1  C   UNL     1      24.478   8.483 122.041  1.00  0.00     0.180 A 
ATOM      2  C   UNL     1      25.765   7.920 122.001  1.00  0.00     0.208 A 
ATOM      3  C   UNL     1      26.882   8.769 122.049  1.00  0.00     0.238 A 
ATOM      4  O   UNL     1      28.030   8.263 121.957  1.00  0.00    -0.285 OA
ATOM      5  C   UNL     1      26.698  10.169 122.151  1.00  0.00     0.111 A 
ATOM      6  C   UNL     1      27.758  11.121 122.247  1.00  0.00     0.134 A 
ATOM      7  C   UNL     1      27.462  12.489 122.213  1.00  0.00     0.093 A 
ATOM      8  C   UNL     1      26.145  12.941 122.153  1.00  0.00     0.123 A 
ATOM      9  C   UNL     1      25.098  12.018 122.120  1.00  0.00     0.094 A 
ATOM     10  C   UNL     1      25.363  10.647 122.115  1.00  0.00     0.146 A 
ATOM     11  O   UNL     1      24.338   9.803 122.072  1.00  0.00    -0.452 OA
ENDROOT
BRANCH   1  12
ATOM     12  C   UNL     1      23.253   7.652 122.021  1.00  0.00     0.025 A 
ATOM     13  C   UNL     1      21.974   8.234 121.993  1.00  0.00     0.016 A 
ATOM     14  C   UNL     1      20.832   7.430 121.950  1.00  0.00     0.051 A 
ATOM     15  C   UNL     1      20.950   6.034 121.919  1.00  0.00     0.157 A 
ATOM     16  C   UNL     1      23.367   6.252 121.969  1.00  0.00     0.062 A 
ATOM     17  C   UNL     1      22.225   5.443 121.927  1.00  0.00     0.158 A 
BRANCH  15  18
ATOM     18  O   UNL     1      19.809   5.234 121.878  1.00  0.00    -0.504 OA
ATOM     19  H   UNL     1      19.192   5.231 121.074  1.00  0.00     0.293 HD
ENDBRANCH  15  18
BRANCH  17  20
ATOM     20  O   UNL     1      22.378   4.058 121.890  1.00  0.00    -0.504 OA
ATOM     21  H   UNL     1      22.462   3.549 121.019  1.00  0.00     0.293 HD
ENDBRANCH  17  20
ENDBRANCH   1  12
BRANCH   2  22
ATOM     22  O   UNL     1      25.923   6.537 121.877  1.00  0.00    -0.502 OA
ATOM     23  H   UNL     1      26.812   6.110 121.647  1.00  0.00     0.293 HD
ENDBRANCH   2  22
BRANCH   6  24
ATOM     24  O   UNL     1      29.104  10.777 122.403  1.00  0.00    -0.507 OA
ATOM     25  H   UNL     1      29.452   9.832 122.470  1.00  0.00     0.293 HD
ENDBRANCH   6  24
BRANCH   8  26
ATOM     26  O   UNL     1      25.886  14.309 122.137  1.00  0.00    -0.508 OA
ATOM     27  H   UNL     1      25.470  14.761 121.331  1.00  0.00     0.293 HD
ENDBRANCH   8  26
TORSDOF 6
ENDMDL
MODEL 3
REMARK VINA RESULT:     3.345      1.220      6.803
REMARK INTER + INTRA:           4.500
REMARK INTER:                   3.957
REMARK INTRA:                   0.544
REMARK UNBOUND:                 0.471
REMARK SMILES O=c1c(O)c(-c2ccc(O)c(O)c2)oc2cc(O)cc(O)c12
REMARK SMILES IDX 5 1 3 2 2 3 1 4 22 5 20 6 19 7 17 8 16 9 15 10 14 11 6 12
REMARK SMILES IDX 7 13 8 14 9 15 13 16 11 17 10 18 12 20 4 22 21 24 18 26
REMARK H PARENT 10 19 12 21 4 23 21 25 18 27
REMARK Flexibility Score: inf
ROOT
ATOM      1  C   UNL     1      24.834   9.666 121.995  1.00  0.00     0.180 A 
ATOM      2  C   UNL     1      25.755   8.613 122.129  1.00  0.00     0.208 A 
ATOM      3  C   UNL     1      25.282   7.291 122.137  1.00  0.00     0.238 A 
ATOM      4  O   UNL     1      26.104   6.356 122.313  1.00  0.00    -0.285 OA
ATOM      5  C   UNL     1      23.896   7.038 121.995  1.00  0.00     0.111 A 
ATOM      6  C   UNL     1      23.309   5.737 121.949  1.00  0.00     0.134 A 
ATOM      7  C   UNL     1      21.915   5.608 121.937  1.00  0.00     0.093 A 
ATOM      8  C   UNL     1      21.088   6.730 121.903  1.00  0.00     0.123 A 
ATOM      9  C   UNL     1      21.652   8.007 121.887  1.00  0.00     0.094 A 
ATOM     10  C   UNL     1      23.039   8.168 121.935  1.00  0.00     0.146 A 
ATOM     11  O   UNL     1      23.535   9.400 121.929  1.00  0.00    -0.452 OA
ENDROOT
BRANCH   1  12
ATOM     12  C   UNL     1      25.259  11.084 121.953  1.00  0.00     0.025 A 
ATOM     13  C   UNL     1      24.319  12.129 121.911  1.00  0.00     0.016 A 
ATOM     14  C   UNL     1      24.742  13.460 121.896  1.00  0.00     0.051 A 
ATOM     15  C   UNL     1      26.108  13.768 121.936  1.00  0.00     0.157 A 
ATOM     16  C   UNL     1      26.627  11.399 122.013  1.00  0.00     0.062 A 
ATOM     17  C   UNL     1      27.054  12.732 121.997  1.00  0.00     0.158 A 
BRANCH  15  18
ATOM     18  O   UNL     1      26.528  15.098 121.919  1.00  0.00    -0.504 OA
ATOM     19  H   UNL     1      26.780  15.586 122.771  1.00  0.00     0.293 HD
ENDBRANCH  15  18
BRANCH  17  20
ATOM     20  O   UNL     1      28.420  13.005 122.046  1.00  0.00    -0.504 OA
ATOM     21  H   UNL     1      29.118  12.300 121.839  1.00  0.00     0.293 HD
ENDBRANCH  17  20
ENDBRANCH   1  12
BRANCH   2  22
ATOM     22  O   UNL     1      27.116   8.886 122.290  1.00  0.00    -0.502 OA
ATOM     23  H   UNL     1      27.838   8.230 122.018  1.00  0.00     0.293 HD
ENDBRANCH   2  22
BRANCH   6  24
ATOM     24  O   UNL     1      24.047   4.551 121.887  1.00  0.00    -0.507 OA
ATOM     25  H   UNL     1      25.054   4.502 121.854  1.00  0.00     0.293 HD
ENDBRANCH   6  24
BRANCH   8  26
ATOM     26  O   UNL     1      19.705   6.564 121.876  1.00  0.00    -0.508 OA
ATOM     27  H   UNL     1      19.258   5.944 121.211  1.00  0.00     0.293 HD
ENDBRANCH   8  26
TORSDOF 6
ENDMDL
