MODEL 1
REMARK VINA RESULT:    -3.771      0.000      0.000
REMARK INTER + INTRA:          -6.446
REMARK INTER:                  -5.756
REMARK INTRA:                  -0.691
REMARK UNBOUND:                -0.691
REMARK SMILES CCCCCCCCCCC(=O)[O-]
REMARK SMILES IDX 7 1 8 2 9 3 10 4 11 5 12 6 13 7 6 8 5 9 4 10 3 11 2 12 1 13
REMARK H PARENT
REMARK Flexibility Score: inf
ROOT
ATOM      1  C   UNL     1     -23.546   5.984  22.912  1.00  0.00     0.000 C 
ENDROOT
BRANCH   1   2
ATOM      2  C   UNL     1     -23.390   7.294  22.113  1.00  0.00     0.000 C 
BRANCH   2   3
ATOM      3  C   UNL     1     -21.947   7.647  21.713  1.00  0.00     0.006 C 
BRANCH   3   4
ATOM      4  C   UNL     1     -21.743   7.691  20.194  1.00  0.00     0.053 C 
BRANCH   4   5
ATOM      5  C   UNL     1     -21.148   6.407  19.710  1.00  0.00     0.041 C 
ATOM      6  O   UNL     1     -21.348   6.022  18.527  1.00  0.00    -0.550 OA
ATOM      7  O   UNL     1     -20.413   5.610  20.578  1.00  0.00    -0.550 OA
ENDBRANCH   4   5
ENDBRANCH   3   4
ENDBRANCH   2   3
ENDBRANCH   1   2
BRANCH   1   8
ATOM      8  C   UNL     1     -24.911   5.796  23.596  1.00  0.00     0.000 C 
BRANCH   8   9
ATOM      9  C   UNL     1     -24.966   4.543  24.485  1.00  0.00    -0.000 C 
BRANCH   9  10
ATOM     10  C   UNL     1     -23.696   3.696  24.315  1.00  0.00    -0.000 C 
BRANCH  10  11
ATOM     11  C   UNL     1     -24.002   2.246  23.905  1.00  0.00    -0.000 C 
BRANCH  11  12
ATOM     12  C   UNL     1     -23.494   1.910  22.496  1.00  0.00    -0.003 C 
ATOM     13  C   UNL     1     -22.223   2.689  22.170  1.00  0.00     0.004 C 
ENDBRANCH  11  12
ENDBRANCH  10  11
ENDBRANCH   9  10
ENDBRANCH   8   9
ENDBRANCH   1   8
TORSDOF 9
ENDMDL
MODEL 2
REMARK VINA RESULT:    -3.700      2.973      5.035
REMARK INTER + INTRA:          -6.338
REMARK INTER:                  -5.325
REMARK INTRA:                  -1.013
REMARK UNBOUND:                -0.691
REMARK SMILES CCCCCCCCCCC(=O)[O-]
REMARK SMILES IDX 7 1 8 2 9 3 10 4 11 5 12 6 13 7 6 8 5 9 4 10 3 11 2 12 1 13
REMARK H PARENT
REMARK Flexibility Score: inf
ROOT
ATOM      1  C   UNL     1     -22.043   7.418  22.720  1.00  0.00     0.000 C 
ENDROOT
BRANCH   1   2
ATOM      2  C   UNL     1     -23.509   7.114  22.351  1.00  0.00     0.000 C 
BRANCH   2   3
ATOM      3  C   UNL     1     -24.087   5.832  22.975  1.00  0.00     0.006 C 
BRANCH   3   4
ATOM      4  C   UNL     1     -23.074   5.090  23.856  1.00  0.00     0.053 C 
BRANCH   4   5
ATOM      5  C   UNL     1     -23.780   4.311  24.920  1.00  0.00     0.041 C 
ATOM      6  O   UNL     1     -24.015   3.084  24.757  1.00  0.00    -0.550 OA
ATOM      7  O   UNL     1     -24.221   4.949  26.072  1.00  0.00    -0.550 OA
ENDBRANCH   4   5
ENDBRANCH   3   4
ENDBRANCH   2   3
ENDBRANCH   1   2
BRANCH   1   8
ATOM      8  C   UNL     1     -21.170   7.924  21.558  1.00  0.00     0.000 C 
BRANCH   8   9
ATOM      9  C   UNL     1     -21.847   7.762  20.188  1.00  0.00    -0.000 C 
BRANCH   9  10
ATOM     10  C   UNL     1     -21.172   6.649  19.373  1.00  0.00    -0.000 C 
BRANCH  10  11
ATOM     11  C   UNL     1     -21.531   5.242  19.881  1.00  0.00    -0.000 C 
BRANCH  11  12
ATOM     12  C   UNL     1     -20.356   4.551  20.587  1.00  0.00    -0.003 C 
ATOM     13  C   UNL     1     -20.829   3.335  21.378  1.00  0.00     0.004 C 
ENDBRANCH  11  12
ENDBRANCH  10  11
ENDBRANCH   9  10
ENDBRANCH   8   9
ENDBRANCH   1   8
TORSDOF 9
ENDMDL
MODEL 3
REMARK VINA RESULT:    -3.672      2.183      3.330
REMARK INTER + INTRA:          -6.295
REMARK INTER:                  -5.812
REMARK INTRA:                  -0.482
REMARK UNBOUND:                -0.691
REMARK SMILES CCCCCCCCCCC(=O)[O-]
REMARK SMILES IDX 7 1 8 2 9 3 10 4 11 5 12 6 13 7 6 8 5 9 4 10 3 11 2 12 1 13
REMARK H PARENT
REMARK Flexibility Score: inf
ROOT
ATOM      1  C   UNL     1     -23.650   5.491  23.185  1.00  0.00     0.000 C 
ENDROOT
BRANCH   1   2
ATOM      2  C   UNL     1     -23.709   6.784  22.347  1.00  0.00     0.000 C 
BRANCH   2   3
ATOM      3  C   UNL     1     -22.353   7.471  22.111  1.00  0.00     0.006 C 
BRANCH   3   4
ATOM      4  C   UNL     1     -22.104   7.806  20.635  1.00  0.00     0.053 C 
BRANCH   4   5
ATOM      5  C   UNL     1     -21.136   6.836  20.035  1.00  0.00     0.041 C 
ATOM      6  O   UNL     1     -20.096   6.506  20.666  1.00  0.00    -0.550 OA
ATOM      7  O   UNL     1     -21.355   6.333  18.760  1.00  0.00    -0.550 OA
ENDBRANCH   4   5
ENDBRANCH   3   4
ENDBRANCH   2   3
ENDBRANCH   1   2
BRANCH   1   8
ATOM      8  C   UNL     1     -24.831   5.285  24.150  1.00  0.00     0.000 C 
BRANCH   8   9
ATOM      9  C   UNL     1     -24.412   4.627  25.474  1.00  0.00    -0.000 C 
BRANCH   9  10
ATOM     10  C   UNL     1     -22.889   4.690  25.658  1.00  0.00    -0.000 C 
BRANCH  10  11
ATOM     11  C   UNL     1     -22.481   5.020  27.104  1.00  0.00    -0.000 C 
BRANCH  11  12
ATOM     12  C   UNL     1     -23.624   5.647  27.913  1.00  0.00    -0.003 C 
ATOM     13  C   UNL     1     -23.085   6.571  29.001  1.00  0.00     0.004 C 
ENDBRANCH  11  12
ENDBRANCH  10  11
ENDBRANCH   9  10
ENDBRANCH   8   9
ENDBRANCH   1   8
TORSDOF 9
ENDMDL
MODEL 4
REMARK VINA RESULT:    -3.656      1.234      2.054
REMARK INTER + INTRA:          -6.270
REMARK INTER:                  -5.216
REMARK INTRA:                  -1.053
REMARK UNBOUND:                -0.691
REMARK SMILES CCCCCCCCCCC(=O)[O-]
REMARK SMILES IDX 7 1 8 2 9 3 10 4 11 5 12 6 13 7 6 8 5 9 4 10 3 11 2 12 1 13
REMARK H PARENT
REMARK Flexibility Score: inf
ROOT
ATOM      1  C   UNL     1     -22.859   5.111  24.197  1.00  0.00     0.000 C 
ENDROOT
BRANCH   1   2
ATOM      2  C   UNL     1     -24.025   5.660  23.348  1.00  0.00     0.000 C 
BRANCH   2   3
ATOM      3  C   UNL     1     -23.627   6.706  22.292  1.00  0.00     0.006 C 
BRANCH   3   4
ATOM      4  C   UNL     1     -22.177   7.182  22.443  1.00  0.00     0.053 C 
BRANCH   4   5
ATOM      5  C   UNL     1     -21.552   7.384  21.099  1.00  0.00     0.041 C 
ATOM      6  O   UNL     1     -22.129   8.090  20.230  1.00  0.00    -0.550 OA
ATOM      7  O   UNL     1     -20.355   6.752  20.787  1.00  0.00    -0.550 OA
ENDBRANCH   4   5
ENDBRANCH   3   4
ENDBRANCH   2   3
ENDBRANCH   1   2
BRANCH   1   8
ATOM      8  C   UNL     1     -23.151   3.788  24.926  1.00  0.00     0.000 C 
BRANCH   8   9
ATOM      9  C   UNL     1     -24.220   2.940  24.221  1.00  0.00    -0.000 C 
BRANCH   9  10
ATOM     10  C   UNL     1     -23.604   1.662  23.632  1.00  0.00    -0.000 C 
BRANCH  10  11
ATOM     11  C   UNL     1     -23.270   1.801  22.137  1.00  0.00    -0.000 C 
BRANCH  11  12
ATOM     12  C   UNL     1     -21.770   2.006  21.882  1.00  0.00    -0.003 C 
ATOM     13  C   UNL     1     -21.489   3.412  21.361  1.00  0.00     0.004 C 
ENDBRANCH  11  12
ENDBRANCH  10  11
ENDBRANCH   9  10
ENDBRANCH   8   9
ENDBRANCH   1   8
TORSDOF 9
ENDMDL
MODEL 5
REMARK VINA RESULT:    -3.655     23.316     24.858
REMARK INTER + INTRA:          -6.269
REMARK INTER:                  -5.460
REMARK INTRA:                  -0.810
REMARK UNBOUND:                -0.691
REMARK SMILES CCCCCCCCCCC(=O)[O-]
REMARK SMILES IDX 7 1 8 2 9 3 10 4 11 5 12 6 13 7 6 8 5 9 4 10 3 11 2 12 1 13
REMARK H PARENT
REMARK Flexibility Score: inf
ROOT
ATOM      1  C   UNL     1      -5.042  -9.484  31.584  1.00  0.00     0.000 C 
ENDROOT
BRANCH   1   2
ATOM      2  C   UNL     1      -5.047 -11.008  31.821  1.00  0.00     0.000 C 
BRANCH   2   3
ATOM      3  C   UNL     1      -6.168 -11.778  31.100  1.00  0.00     0.006 C 
BRANCH   3   4
ATOM      4  C   UNL     1      -6.939 -10.908  30.100  1.00  0.00     0.053 C 
BRANCH   4   5
ATOM      5  C   UNL     1      -8.409 -10.984  30.368  1.00  0.00     0.041 C 
ATOM      6  O   UNL     1      -8.861 -10.706  31.511  1.00  0.00    -0.550 OA
ATOM      7  O   UNL     1      -9.277 -11.409  29.371  1.00  0.00    -0.550 OA
ENDBRANCH   4   5
ENDBRANCH   3   4
ENDBRANCH   2   3
ENDBRANCH   1   2
BRANCH   1   8
ATOM      8  C   UNL     1      -5.334  -8.629  32.830  1.00  0.00     0.000 C 
BRANCH   8   9
ATOM      9  C   UNL     1      -6.598  -9.079  33.579  1.00  0.00    -0.000 C 
BRANCH   9  10
ATOM     10  C   UNL     1      -6.361  -9.084  35.097  1.00  0.00    -0.000 C 
BRANCH  10  11
ATOM     11  C   UNL     1      -5.165  -8.210  35.512  1.00  0.00    -0.000 C 
BRANCH  11  12
ATOM     12  C   UNL     1      -5.596  -6.895  36.177  1.00  0.00    -0.003 C 
ATOM     13  C   UNL     1      -5.709  -5.772  35.150  1.00  0.00     0.004 C 
ENDBRANCH  11  12
ENDBRANCH  10  11
ENDBRANCH   9  10
ENDBRANCH   8   9
ENDBRANCH   1   8
TORSDOF 9
ENDMDL
MODEL 6
REMARK VINA RESULT:    -3.621      1.395      2.328
REMARK INTER + INTRA:          -6.217
REMARK INTER:                  -5.293
REMARK INTRA:                  -0.924
REMARK UNBOUND:                -0.691
REMARK SMILES CCCCCCCCCCC(=O)[O-]
REMARK SMILES IDX 7 1 8 2 9 3 10 4 11 5 12 6 13 7 6 8 5 9 4 10 3 11 2 12 1 13
REMARK H PARENT
REMARK Flexibility Score: inf
ROOT
ATOM      1  C   UNL     1     -23.968   5.450  23.452  1.00  0.00     0.000 C 
ENDROOT
BRANCH   1   2
ATOM      2  C   UNL     1     -23.971   6.669  22.507  1.00  0.00     0.000 C 
BRANCH   2   3
ATOM      3  C   UNL     1     -22.608   7.357  22.324  1.00  0.00     0.006 C 
BRANCH   3   4
ATOM      4  C   UNL     1     -22.355   7.803  20.878  1.00  0.00     0.053 C 
BRANCH   4   5
ATOM      5  C   UNL     1     -21.250   6.999  20.270  1.00  0.00     0.041 C 
ATOM      6  O   UNL     1     -20.220   6.727  20.941  1.00  0.00    -0.550 OA
ATOM      7  O   UNL     1     -21.335   6.591  18.945  1.00  0.00    -0.550 OA
ENDBRANCH   4   5
ENDBRANCH   3   4
ENDBRANCH   2   3
ENDBRANCH   1   2
BRANCH   1   8
ATOM      8  C   UNL     1     -22.590   5.069  24.021  1.00  0.00     0.000 C 
BRANCH   8   9
ATOM      9  C   UNL     1     -22.265   3.578  23.849  1.00  0.00    -0.000 C 
BRANCH   9  10
ATOM     10  C   UNL     1     -22.643   3.095  22.441  1.00  0.00    -0.000 C 
BRANCH  10  11
ATOM     11  C   UNL     1     -21.626   3.530  21.372  1.00  0.00    -0.000 C 
BRANCH  11  12
ATOM     12  C   UNL     1     -20.175   3.243  21.784  1.00  0.00    -0.003 C 
ATOM     13  C   UNL     1     -19.737   1.857  21.318  1.00  0.00     0.004 C 
ENDBRANCH  11  12
ENDBRANCH  10  11
ENDBRANCH   9  10
ENDBRANCH   8   9
ENDBRANCH   1   8
TORSDOF 9
ENDMDL
MODEL 7
REMARK VINA RESULT:    -3.563     22.856     24.664
REMARK INTER + INTRA:          -6.129
REMARK INTER:                  -5.197
REMARK INTRA:                  -0.932
REMARK UNBOUND:                -0.691
REMARK SMILES CCCCCCCCCCC(=O)[O-]
REMARK SMILES IDX 7 1 8 2 9 3 10 4 11 5 12 6 13 7 6 8 5 9 4 10 3 11 2 12 1 13
REMARK H PARENT
REMARK Flexibility Score: inf
ROOT
ATOM      1  C   UNL     1      -6.655  -9.223  33.722  1.00  0.00     0.000 C 
ENDROOT
BRANCH   1   2
ATOM      2  C   UNL     1      -5.473  -8.863  32.799  1.00  0.00     0.000 C 
BRANCH   2   3
ATOM      3  C   UNL     1      -5.456  -9.594  31.446  1.00  0.00     0.006 C 
BRANCH   3   4
ATOM      4  C   UNL     1      -5.942 -11.045  31.546  1.00  0.00     0.053 C 
BRANCH   4   5
ATOM      5  C   UNL     1      -7.116 -11.266  30.645  1.00  0.00     0.041 C 
ATOM      6  O   UNL     1      -8.218 -10.709  30.892  1.00  0.00    -0.550 OA
ATOM      7  O   UNL     1      -7.007 -12.125  29.560  1.00  0.00    -0.550 OA
ENDBRANCH   4   5
ENDBRANCH   3   4
ENDBRANCH   2   3
ENDBRANCH   1   2
BRANCH   1   8
ATOM      8  C   UNL     1      -6.368  -9.099  35.229  1.00  0.00     0.000 C 
BRANCH   8   9
ATOM      9  C   UNL     1      -5.148  -8.216  35.533  1.00  0.00    -0.000 C 
BRANCH   9  10
ATOM     10  C   UNL     1      -5.585  -6.830  36.028  1.00  0.00    -0.000 C 
BRANCH  10  11
ATOM     11  C   UNL     1      -5.458  -5.746  34.945  1.00  0.00    -0.000 C 
BRANCH  11  12
ATOM     12  C   UNL     1      -6.759  -4.958  34.741  1.00  0.00    -0.003 C 
ATOM     13  C   UNL     1      -7.659  -5.640  33.716  1.00  0.00     0.004 C 
ENDBRANCH  11  12
ENDBRANCH  10  11
ENDBRANCH   9  10
ENDBRANCH   8   9
ENDBRANCH   1   8
TORSDOF 9
ENDMDL
MODEL 8
REMARK VINA RESULT:    -3.537      2.448      4.690
REMARK INTER + INTRA:          -6.089
REMARK INTER:                  -5.199
REMARK INTRA:                  -0.890
REMARK UNBOUND:                -0.691
REMARK SMILES CCCCCCCCCCC(=O)[O-]
REMARK SMILES IDX 7 1 8 2 9 3 10 4 11 5 12 6 13 7 6 8 5 9 4 10 3 11 2 12 1 13
REMARK H PARENT
REMARK Flexibility Score: inf
ROOT
ATOM      1  C   UNL     1     -20.565   6.381  20.728  1.00  0.00     0.000 C 
ENDROOT
BRANCH   1   2
ATOM      2  C   UNL     1     -20.494   4.897  20.316  1.00  0.00     0.000 C 
BRANCH   2   3
ATOM      3  C   UNL     1     -21.476   3.968  21.050  1.00  0.00     0.006 C 
BRANCH   3   4
ATOM      4  C   UNL     1     -20.844   2.628  21.447  1.00  0.00     0.053 C 
BRANCH   4   5
ATOM      5  C   UNL     1     -21.896   1.672  21.911  1.00  0.00     0.041 C 
ATOM      6  O   UNL     1     -21.615   0.457  22.091  1.00  0.00    -0.550 OA
ATOM      7  O   UNL     1     -23.200   2.111  22.099  1.00  0.00    -0.550 OA
ENDBRANCH   4   5
ENDBRANCH   3   4
ENDBRANCH   2   3
ENDBRANCH   1   2
BRANCH   1   8
ATOM      8  C   UNL     1     -20.370   6.651  22.231  1.00  0.00     0.000 C 
BRANCH   8   9
ATOM      9  C   UNL     1     -21.566   7.374  22.867  1.00  0.00    -0.000 C 
BRANCH   9  10
ATOM     10  C   UNL     1     -22.767   7.392  21.910  1.00  0.00    -0.000 C 
BRANCH  10  11
ATOM     11  C   UNL     1     -23.997   6.674  22.490  1.00  0.00    -0.000 C 
BRANCH  11  12
ATOM     12  C   UNL     1     -23.620   5.524  23.434  1.00  0.00    -0.003 C 
ATOM     13  C   UNL     1     -24.789   5.153  24.342  1.00  0.00     0.004 C 
ENDBRANCH  11  12
ENDBRANCH  10  11
ENDBRANCH   9  10
ENDBRANCH   8   9
ENDBRANCH   1   8
TORSDOF 9
ENDMDL
MODEL 9
REMARK VINA RESULT:    -3.504      2.910      4.628
REMARK INTER + INTRA:          -6.038
REMARK INTER:                  -5.150
REMARK INTRA:                  -0.889
REMARK UNBOUND:                -0.691
REMARK SMILES CCCCCCCCCCC(=O)[O-]
REMARK SMILES IDX 7 1 8 2 9 3 10 4 11 5 12 6 13 7 6 8 5 9 4 10 3 11 2 12 1 13
REMARK H PARENT
REMARK Flexibility Score: inf
ROOT
ATOM      1  C   UNL     1     -21.779   7.031  22.429  1.00  0.00     0.000 C 
ENDROOT
BRANCH   1   2
ATOM      2  C   UNL     1     -23.267   7.275  22.101  1.00  0.00     0.000 C 
BRANCH   2   3
ATOM      3  C   UNL     1     -24.255   6.338  22.817  1.00  0.00     0.006 C 
BRANCH   3   4
ATOM      4  C   UNL     1     -23.555   5.241  23.628  1.00  0.00     0.053 C 
BRANCH   4   5
ATOM      5  C   UNL     1     -24.525   4.575  24.551  1.00  0.00     0.041 C 
ATOM      6  O   UNL     1     -24.986   5.198  25.544  1.00  0.00    -0.550 OA
ATOM      7  O   UNL     1     -24.884   3.250  24.344  1.00  0.00    -0.550 OA
ENDBRANCH   4   5
ENDBRANCH   3   4
ENDBRANCH   2   3
ENDBRANCH   1   2
BRANCH   1   8
ATOM      8  C   UNL     1     -20.881   6.749  21.212  1.00  0.00     0.000 C 
BRANCH   8   9
ATOM      9  C   UNL     1     -21.328   5.514  20.413  1.00  0.00    -0.000 C 
BRANCH   9  10
ATOM     10  C   UNL     1     -20.347   4.349  20.613  1.00  0.00    -0.000 C 
BRANCH  10  11
ATOM     11  C   UNL     1     -20.611   3.569  21.912  1.00  0.00    -0.000 C 
BRANCH  11  12
ATOM     12  C   UNL     1     -21.057   2.123  21.652  1.00  0.00    -0.003 C 
ATOM     13  C   UNL     1     -22.522   1.924  22.029  1.00  0.00     0.004 C 
ENDBRANCH  11  12
ENDBRANCH  10  11
ENDBRANCH   9  10
ENDBRANCH   8   9
ENDBRANCH   1   8
TORSDOF 9
ENDMDL
