MODEL 1
REMARK VINA RESULT:    -3.834      0.000      0.000
REMARK INTER + INTRA:          -6.843
REMARK INTER:                  -5.851
REMARK INTRA:                  -0.993
REMARK UNBOUND:                -0.993
REMARK SMILES CCCCCCCCCC=CC(=O)[O-]
REMARK SMILES IDX 7 1 8 2 9 3 10 4 11 5 12 6 13 7 14 8 6 9 5 10 4 11 3 12 2 13
REMARK SMILES IDX 1 14
REMARK H PARENT
REMARK Flexibility Score: inf
ROOT
ATOM      1  C   UNL     1       3.416  30.954  20.270  1.00  0.00     0.000 C 
ENDROOT
BRANCH   1   2
ATOM      2  C   UNL     1       3.528  29.577  19.591  1.00  0.00     0.004 C 
BRANCH   2   3
ATOM      3  C   UNL     1       4.589  28.689  20.262  1.00  0.00     0.027 C 
BRANCH   3   4
ATOM      4  C   UNL     1       5.528  28.066  19.262  1.00  0.00    -0.025 C 
ATOM      5  C   UNL     1       6.157  26.887  19.394  1.00  0.00     0.020 C 
BRANCH   5   6
ATOM      6  C   UNL     1       6.017  25.935  20.517  1.00  0.00     0.064 C 
ATOM      7  O   UNL     1       6.012  26.380  21.694  1.00  0.00    -0.545 OA
ATOM      8  O   UNL     1       5.922  24.565  20.318  1.00  0.00    -0.545 OA
ENDBRANCH   5   6
ENDBRANCH   3   4
ENDBRANCH   2   3
ENDBRANCH   1   2
BRANCH   1   9
ATOM      9  C   UNL     1       4.732  31.401  20.925  1.00  0.00     0.000 C 
BRANCH   9  10
ATOM     10  C   UNL     1       5.281  32.704  20.315  1.00  0.00     0.000 C 
BRANCH  10  11
ATOM     11  C   UNL     1       6.410  32.451  19.303  1.00  0.00    -0.000 C 
BRANCH  11  12
ATOM     12  C   UNL     1       5.880  32.171  17.885  1.00  0.00    -0.000 C 
BRANCH  12  13
ATOM     13  C   UNL     1       6.611  31.003  17.204  1.00  0.00    -0.003 C 
ATOM     14  C   UNL     1       7.843  30.539  17.981  1.00  0.00     0.004 C 
ENDBRANCH  12  13
ENDBRANCH  11  12
ENDBRANCH  10  11
ENDBRANCH   9  10
ENDBRANCH   1   9
TORSDOF 9
ENDMDL
MODEL 2
REMARK VINA RESULT:    -3.791      8.982     10.994
REMARK INTER + INTRA:          -6.779
REMARK INTER:                  -6.366
REMARK INTRA:                  -0.413
REMARK UNBOUND:                -0.993
REMARK SMILES CCCCCCCCCC=CC(=O)[O-]
REMARK SMILES IDX 7 1 8 2 9 3 10 4 11 5 12 6 13 7 14 8 6 9 5 10 4 11 3 12 2 13
REMARK SMILES IDX 1 14
REMARK H PARENT
REMARK Flexibility Score: inf
ROOT
ATOM      1  C   UNL     1      11.552  28.263   9.637  1.00  0.00     0.000 C 
ENDROOT
BRANCH   1   2
ATOM      2  C   UNL     1      11.195  27.188   8.594  1.00  0.00     0.004 C 
BRANCH   2   3
ATOM      3  C   UNL     1      10.881  25.833   9.248  1.00  0.00     0.027 C 
BRANCH   3   4
ATOM      4  C   UNL     1      10.289  25.985  10.625  1.00  0.00    -0.025 C 
ATOM      5  C   UNL     1      10.380  25.098  11.628  1.00  0.00     0.020 C 
BRANCH   5   6
ATOM      6  C   UNL     1      11.124  23.820  11.609  1.00  0.00     0.064 C 
ATOM      7  O   UNL     1      11.683  23.426  12.665  1.00  0.00    -0.545 OA
ATOM      8  O   UNL     1      11.253  23.056  10.457  1.00  0.00    -0.545 OA
ENDBRANCH   5   6
ENDBRANCH   3   4
ENDBRANCH   2   3
ENDBRANCH   1   2
BRANCH   1   9
ATOM      9  C   UNL     1      13.004  28.750   9.512  1.00  0.00     0.000 C 
BRANCH   9  10
ATOM     10  C   UNL     1      13.447  29.598  10.718  1.00  0.00     0.000 C 
BRANCH  10  11
ATOM     11  C   UNL     1      12.271  29.989  11.629  1.00  0.00    -0.000 C 
BRANCH  11  12
ATOM     12  C   UNL     1      12.720  30.320  13.063  1.00  0.00    -0.000 C 
BRANCH  12  13
ATOM     13  C   UNL     1      11.533  30.551  14.012  1.00  0.00    -0.003 C 
ATOM     14  C   UNL     1      10.211  30.032  13.448  1.00  0.00     0.004 C 
ENDBRANCH  12  13
ENDBRANCH  11  12
ENDBRANCH  10  11
ENDBRANCH   9  10
ENDBRANCH   1   9
TORSDOF 9
ENDMDL
MODEL 3
REMARK VINA RESULT:    -3.706     10.350     11.288
REMARK INTER + INTRA:          -6.649
REMARK INTER:                  -5.545
REMARK INTRA:                  -1.104
REMARK UNBOUND:                -0.993
REMARK SMILES CCCCCCCCCC=CC(=O)[O-]
REMARK SMILES IDX 7 1 8 2 9 3 10 4 11 5 12 6 13 7 14 8 6 9 5 10 4 11 3 12 2 13
REMARK SMILES IDX 1 14
REMARK H PARENT
REMARK Flexibility Score: inf
ROOT
ATOM      1  C   UNL     1       8.779  26.464   8.519  1.00  0.00     0.000 C 
ENDROOT
BRANCH   1   2
ATOM      2  C   UNL     1      10.288  26.525   8.218  1.00  0.00     0.004 C 
BRANCH   2   3
ATOM      3  C   UNL     1      11.130  25.986   9.386  1.00  0.00     0.027 C 
BRANCH   3   4
ATOM      4  C   UNL     1      10.390  26.042  10.698  1.00  0.00    -0.025 C 
ATOM      5  C   UNL     1      10.377  25.086  11.640  1.00  0.00     0.020 C 
BRANCH   5   6
ATOM      6  C   UNL     1      11.126  23.812  11.613  1.00  0.00     0.064 C 
ATOM      7  O   UNL     1      11.684  23.411  12.667  1.00  0.00    -0.545 OA
ATOM      8  O   UNL     1      11.261  23.057  10.455  1.00  0.00    -0.545 OA
ENDBRANCH   5   6
ENDBRANCH   3   4
ENDBRANCH   2   3
ENDBRANCH   1   2
BRANCH   1   9
ATOM      9  C   UNL     1       8.076  27.812   8.299  1.00  0.00     0.000 C 
BRANCH   9  10
ATOM     10  C   UNL     1       8.431  28.847   9.382  1.00  0.00     0.000 C 
BRANCH  10  11
ATOM     11  C   UNL     1       9.244  30.028   8.827  1.00  0.00    -0.000 C 
BRANCH  11  12
ATOM     12  C   UNL     1      10.173  30.653   9.882  1.00  0.00    -0.000 C 
BRANCH  12  13
ATOM     13  C   UNL     1      11.235  29.666  10.392  1.00  0.00    -0.003 C 
ATOM     14  C   UNL     1      12.368  29.442   9.390  1.00  0.00     0.004 C 
ENDBRANCH  12  13
ENDBRANCH  11  12
ENDBRANCH  10  11
ENDBRANCH   9  10
ENDBRANCH   1   9
TORSDOF 9
ENDMDL
MODEL 4
REMARK VINA RESULT:    -3.671      9.618     11.522
REMARK INTER + INTRA:          -6.595
REMARK INTER:                  -4.837
REMARK INTRA:                  -1.758
REMARK UNBOUND:                -0.993
REMARK SMILES CCCCCCCCCC=CC(=O)[O-]
REMARK SMILES IDX 7 1 8 2 9 3 10 4 11 5 12 6 13 7 14 8 6 9 5 10 4 11 3 12 2 13
REMARK SMILES IDX 1 14
REMARK H PARENT
REMARK Flexibility Score: inf
ROOT
ATOM      1  C   UNL     1      10.165  25.686   9.417  1.00  0.00     0.000 C 
ENDROOT
BRANCH   1   2
ATOM      2  C   UNL     1      10.465  25.896  10.912  1.00  0.00     0.004 C 
BRANCH   2   3
ATOM      3  C   UNL     1       9.290  26.563  11.647  1.00  0.00     0.027 C 
BRANCH   3   4
ATOM      4  C   UNL     1       9.199  28.039  11.358  1.00  0.00    -0.025 C 
ATOM      5  C   UNL     1       8.284  28.638  10.580  1.00  0.00     0.020 C 
BRANCH   5   6
ATOM      6  C   UNL     1       7.148  27.986   9.894  1.00  0.00     0.064 C 
ATOM      7  O   UNL     1       6.069  27.826  10.521  1.00  0.00    -0.545 OA
ATOM      8  O   UNL     1       7.242  27.515   8.591  1.00  0.00    -0.545 OA
ENDBRANCH   5   6
ENDBRANCH   3   4
ENDBRANCH   2   3
ENDBRANCH   1   2
BRANCH   1   9
ATOM      9  C   UNL     1      11.227  26.319   8.505  1.00  0.00     0.000 C 
BRANCH   9  10
ATOM     10  C   UNL     1      10.746  27.634   7.865  1.00  0.00     0.000 C 
BRANCH  10  11
ATOM     11  C   UNL     1      11.418  28.871   8.482  1.00  0.00    -0.000 C 
BRANCH  11  12
ATOM     12  C   UNL     1      12.714  28.525   9.235  1.00  0.00    -0.000 C 
BRANCH  12  13
ATOM     13  C   UNL     1      12.716  29.055  10.678  1.00  0.00    -0.003 C 
ATOM     14  C   UNL     1      12.023  30.410  10.815  1.00  0.00     0.004 C 
ENDBRANCH  12  13
ENDBRANCH  11  12
ENDBRANCH  10  11
ENDBRANCH   9  10
ENDBRANCH   1   9
TORSDOF 9
ENDMDL
MODEL 5
REMARK VINA RESULT:    -3.661      9.598     11.142
REMARK INTER + INTRA:          -6.579
REMARK INTER:                  -5.162
REMARK INTRA:                  -1.418
REMARK UNBOUND:                -0.993
REMARK SMILES CCCCCCCCCC=CC(=O)[O-]
REMARK SMILES IDX 7 1 8 2 9 3 10 4 11 5 12 6 13 7 14 8 6 9 5 10 4 11 3 12 2 13
REMARK SMILES IDX 1 14
REMARK H PARENT
REMARK Flexibility Score: inf
ROOT
ATOM      1  C   UNL     1       9.742  27.506   7.832  1.00  0.00     0.000 C 
ENDROOT
BRANCH   1   2
ATOM      2  C   UNL     1       8.559  27.819   8.766  1.00  0.00     0.004 C 
BRANCH   2   3
ATOM      3  C   UNL     1       8.361  26.728   9.830  1.00  0.00     0.027 C 
BRANCH   3   4
ATOM      4  C   UNL     1       9.123  27.018  11.097  1.00  0.00    -0.025 C 
ATOM      5  C   UNL     1      10.048  26.227  11.664  1.00  0.00     0.020 C 
BRANCH   5   6
ATOM      6  C   UNL     1      10.549  24.941  11.136  1.00  0.00     0.064 C 
ATOM      7  O   UNL     1      10.711  23.978  11.931  1.00  0.00    -0.545 OA
ATOM      8  O   UNL     1      10.877  24.766   9.798  1.00  0.00    -0.545 OA
ENDBRANCH   5   6
ENDBRANCH   3   4
ENDBRANCH   2   3
ENDBRANCH   1   2
BRANCH   1   9
ATOM      9  C   UNL     1      10.922  28.470   8.026  1.00  0.00     0.000 C 
BRANCH   9  10
ATOM     10  C   UNL     1      12.034  27.872   8.908  1.00  0.00     0.000 C 
BRANCH  10  11
ATOM     11  C   UNL     1      12.400  28.779  10.093  1.00  0.00    -0.000 C 
BRANCH  11  12
ATOM     12  C   UNL     1      11.421  29.954  10.262  1.00  0.00    -0.000 C 
BRANCH  12  13
ATOM     13  C   UNL     1      10.903  30.087  11.703  1.00  0.00    -0.003 C 
ATOM     14  C   UNL     1      12.022  30.033  12.744  1.00  0.00     0.004 C 
ENDBRANCH  12  13
ENDBRANCH  11  12
ENDBRANCH  10  11
ENDBRANCH   9  10
ENDBRANCH   1   9
TORSDOF 9
ENDMDL
MODEL 6
REMARK VINA RESULT:    -3.654      1.734      3.782
REMARK INTER + INTRA:          -6.569
REMARK INTER:                  -5.317
REMARK INTRA:                  -1.252
REMARK UNBOUND:                -0.993
REMARK SMILES CCCCCCCCCC=CC(=O)[O-]
REMARK SMILES IDX 7 1 8 2 9 3 10 4 11 5 12 6 13 7 14 8 6 9 5 10 4 11 3 12 2 13
REMARK SMILES IDX 1 14
REMARK H PARENT
REMARK Flexibility Score: inf
ROOT
ATOM      1  C   UNL     1       6.391  31.200  20.295  1.00  0.00     0.000 C 
ENDROOT
BRANCH   1   2
ATOM      2  C   UNL     1       6.868  31.209  18.832  1.00  0.00     0.004 C 
BRANCH   2   3
ATOM      3  C   UNL     1       7.081  29.788  18.287  1.00  0.00     0.027 C 
BRANCH   3   4
ATOM      4  C   UNL     1       5.782  29.109  17.938  1.00  0.00    -0.025 C 
ATOM      5  C   UNL     1       5.224  28.080  18.596  1.00  0.00     0.020 C 
BRANCH   5   6
ATOM      6  C   UNL     1       5.738  27.440  19.826  1.00  0.00     0.064 C 
ATOM      7  O   UNL     1       6.454  26.410  19.723  1.00  0.00    -0.545 OA
ATOM      8  O   UNL     1       5.431  27.917  21.093  1.00  0.00    -0.545 OA
ENDBRANCH   5   6
ENDBRANCH   3   4
ENDBRANCH   2   3
ENDBRANCH   1   2
BRANCH   1   9
ATOM      9  C   UNL     1       5.086  31.985  20.499  1.00  0.00     0.000 C 
BRANCH   9  10
ATOM     10  C   UNL     1       3.881  31.065  20.768  1.00  0.00     0.000 C 
BRANCH  10  11
ATOM     11  C   UNL     1       2.977  30.901  19.535  1.00  0.00    -0.000 C 
BRANCH  11  12
ATOM     12  C   UNL     1       2.110  29.631  19.604  1.00  0.00    -0.000 C 
BRANCH  12  13
ATOM     13  C   UNL     1       1.355  29.362  18.292  1.00  0.00    -0.003 C 
ATOM     14  C   UNL     1      -0.146  29.161  18.500  1.00  0.00     0.004 C 
ENDBRANCH  12  13
ENDBRANCH  11  12
ENDBRANCH  10  11
ENDBRANCH   9  10
ENDBRANCH   1   9
TORSDOF 9
ENDMDL
MODEL 7
REMARK VINA RESULT:    -3.636      9.427     11.223
REMARK INTER + INTRA:          -6.542
REMARK INTER:                  -5.022
REMARK INTRA:                  -1.521
REMARK UNBOUND:                -0.993
REMARK SMILES CCCCCCCCCC=CC(=O)[O-]
REMARK SMILES IDX 7 1 8 2 9 3 10 4 11 5 12 6 13 7 14 8 6 9 5 10 4 11 3 12 2 13
REMARK SMILES IDX 1 14
REMARK H PARENT
REMARK Flexibility Score: inf
ROOT
ATOM      1  C   UNL     1       8.294  28.869   9.400  1.00  0.00     0.000 C 
ENDROOT
BRANCH   1   2
ATOM      2  C   UNL     1       7.989  27.840   8.296  1.00  0.00     0.004 C 
BRANCH   2   3
ATOM      3  C   UNL     1       8.633  26.475   8.587  1.00  0.00     0.027 C 
BRANCH   3   4
ATOM      4  C   UNL     1      10.080  26.425   8.168  1.00  0.00    -0.025 C 
ATOM      5  C   UNL     1      11.061  25.751   8.789  1.00  0.00     0.020 C 
BRANCH   5   6
ATOM      6  C   UNL     1      10.916  24.878   9.973  1.00  0.00     0.064 C 
ATOM      7  O   UNL     1      11.296  23.680   9.896  1.00  0.00    -0.545 OA
ATOM      8  O   UNL     1      10.347  25.324  11.157  1.00  0.00    -0.545 OA
ENDBRANCH   5   6
ENDBRANCH   3   4
ENDBRANCH   2   3
ENDBRANCH   1   2
BRANCH   1   9
ATOM      9  C   UNL     1       8.182  28.273  10.812  1.00  0.00     0.000 C 
BRANCH   9  10
ATOM     10  C   UNL     1       9.230  28.850  11.780  1.00  0.00     0.000 C 
BRANCH  10  11
ATOM     11  C   UNL     1      10.438  29.457  11.049  1.00  0.00    -0.000 C 
BRANCH  11  12
ATOM     12  C   UNL     1      11.690  28.567  11.136  1.00  0.00    -0.000 C 
BRANCH  12  13
ATOM     13  C   UNL     1      12.734  28.910  10.061  1.00  0.00    -0.003 C 
ATOM     14  C   UNL     1      12.106  29.434   8.770  1.00  0.00     0.004 C 
ENDBRANCH  12  13
ENDBRANCH  11  12
ENDBRANCH  10  11
ENDBRANCH   9  10
ENDBRANCH   1   9
TORSDOF 9
ENDMDL
MODEL 8
REMARK VINA RESULT:    -3.566     10.455     11.561
REMARK INTER + INTRA:          -6.435
REMARK INTER:                  -5.237
REMARK INTRA:                  -1.198
REMARK UNBOUND:                -0.993
REMARK SMILES CCCCCCCCCC=CC(=O)[O-]
REMARK SMILES IDX 7 1 8 2 9 3 10 4 11 5 12 6 13 7 14 8 6 9 5 10 4 11 3 12 2 13
REMARK SMILES IDX 1 14
REMARK H PARENT
REMARK Flexibility Score: inf
ROOT
ATOM      1  C   UNL     1       8.939  28.464   7.359  1.00  0.00     0.000 C 
ENDROOT
BRANCH   1   2
ATOM      2  C   UNL     1       8.204  27.973   8.618  1.00  0.00     0.004 C 
BRANCH   2   3
ATOM      3  C   UNL     1       8.442  26.476   8.877  1.00  0.00     0.027 C 
BRANCH   3   4
ATOM      4  C   UNL     1       9.871  26.072   8.623  1.00  0.00    -0.025 C 
ATOM      5  C   UNL     1      10.730  25.587   9.533  1.00  0.00     0.020 C 
BRANCH   5   6
ATOM      6  C   UNL     1      10.438  25.298  10.953  1.00  0.00     0.064 C 
ATOM      7  O   UNL     1      10.708  24.157  11.410  1.00  0.00    -0.545 OA
ATOM      8  O   UNL     1       9.847  26.233  11.793  1.00  0.00    -0.545 OA
ENDBRANCH   5   6
ENDBRANCH   3   4
ENDBRANCH   2   3
ENDBRANCH   1   2
BRANCH   1   9
ATOM      9  C   UNL     1       9.760  29.739   7.610  1.00  0.00     0.000 C 
BRANCH   9  10
ATOM     10  C   UNL     1      10.599  29.656   8.898  1.00  0.00     0.000 C 
BRANCH  10  11
ATOM     11  C   UNL     1      12.049  29.223   8.631  1.00  0.00    -0.000 C 
BRANCH  11  12
ATOM     12  C   UNL     1      12.728  28.629   9.877  1.00  0.00    -0.000 C 
BRANCH  12  13
ATOM     13  C   UNL     1      12.008  29.015  11.180  1.00  0.00    -0.003 C 
ATOM     14  C   UNL     1      12.816  29.987  12.039  1.00  0.00     0.004 C 
ENDBRANCH  12  13
ENDBRANCH  11  12
ENDBRANCH  10  11
ENDBRANCH   9  10
ENDBRANCH   1   9
TORSDOF 9
ENDMDL
MODEL 9
REMARK VINA RESULT:    -3.534      9.592     11.554
REMARK INTER + INTRA:          -6.386
REMARK INTER:                  -4.580
REMARK INTRA:                  -1.807
REMARK UNBOUND:                -0.993
REMARK SMILES CCCCCCCCCC=CC(=O)[O-]
REMARK SMILES IDX 7 1 8 2 9 3 10 4 11 5 12 6 13 7 14 8 6 9 5 10 4 11 3 12 2 13
REMARK SMILES IDX 1 14
REMARK H PARENT
REMARK Flexibility Score: inf
ROOT
ATOM      1  C   UNL     1      10.316  25.939  10.748  1.00  0.00     0.000 C 
ENDROOT
BRANCH   1   2
ATOM      2  C   UNL     1      10.298  25.793   9.216  1.00  0.00     0.004 C 
BRANCH   2   3
ATOM      3  C   UNL     1       9.026  26.395   8.596  1.00  0.00     0.027 C 
BRANCH   3   4
ATOM      4  C   UNL     1       9.309  27.651   7.814  1.00  0.00    -0.025 C 
ATOM      5  C   UNL     1       8.573  28.773   7.824  1.00  0.00     0.020 C 
BRANCH   5   6
ATOM      6  C   UNL     1       7.370  29.029   8.644  1.00  0.00     0.064 C 
ATOM      7  O   UNL     1       6.266  28.554   8.269  1.00  0.00    -0.545 OA
ATOM      8  O   UNL     1       7.409  29.802   9.796  1.00  0.00    -0.545 OA
ENDBRANCH   5   6
ENDBRANCH   3   4
ENDBRANCH   2   3
ENDBRANCH   1   2
BRANCH   1   9
ATOM      9  C   UNL     1       9.113  26.730  11.283  1.00  0.00     0.000 C 
BRANCH   9  10
ATOM     10  C   UNL     1       9.529  28.040  11.977  1.00  0.00     0.000 C 
BRANCH  10  11
ATOM     11  C   UNL     1      10.915  28.531  11.527  1.00  0.00    -0.000 C 
BRANCH  11  12
ATOM     12  C   UNL     1      10.837  29.790  10.645  1.00  0.00    -0.000 C 
BRANCH  12  13
ATOM     13  C   UNL     1      11.845  29.759   9.485  1.00  0.00    -0.003 C 
ATOM     14  C   UNL     1      12.774  28.546   9.537  1.00  0.00     0.004 C 
ENDBRANCH  12  13
ENDBRANCH  11  12
ENDBRANCH  10  11
ENDBRANCH   9  10
ENDBRANCH   1   9
TORSDOF 9
ENDMDL
