MODEL 1
REMARK VINA RESULT:    -3.661      0.000      0.000
REMARK INTER + INTRA:          -5.755
REMARK INTER:                  -4.945
REMARK INTRA:                  -0.810
REMARK UNBOUND:                -0.810
REMARK SMILES CCCCCCC=CC(=O)[O-]
REMARK SMILES IDX 5 1 6 2 7 3 8 4 9 5 10 6 11 7 4 8 3 9 2 10 1 11
REMARK H PARENT
REMARK Flexibility Score: inf
ROOT
ATOM      1  C   UNL     1      98.043   2.307 -26.135  1.00  0.00     0.004 C 
ENDROOT
BRANCH   1   2
ATOM      2  C   UNL     1      98.896   1.132 -26.647  1.00  0.00     0.027 C 
BRANCH   2   3
ATOM      3  C   UNL     1     100.031   1.581 -27.531  1.00  0.00    -0.025 C 
ATOM      4  C   UNL     1     100.020   1.617 -28.875  1.00  0.00     0.020 C 
BRANCH   4   5
ATOM      5  C   UNL     1      98.924   1.174 -29.761  1.00  0.00     0.064 C 
ATOM      6  O   UNL     1      98.886   0.015 -30.249  1.00  0.00    -0.545 OA
ATOM      7  O   UNL     1      97.922   2.077 -30.091  1.00  0.00    -0.545 OA
ENDBRANCH   4   5
ENDBRANCH   2   3
ENDBRANCH   1   2
BRANCH   1   8
ATOM      8  C   UNL     1      98.678   3.693 -26.351  1.00  0.00     0.000 C 
BRANCH   8   9
ATOM      9  C   UNL     1      97.836   4.600 -27.265  1.00  0.00    -0.000 C 
BRANCH   9  10
ATOM     10  C   UNL     1      98.630   5.116 -28.475  1.00  0.00    -0.003 C 
ATOM     11  C   UNL     1     100.125   5.256 -28.188  1.00  0.00     0.004 C 
ENDBRANCH   9  10
ENDBRANCH   8   9
ENDBRANCH   1   8
TORSDOF 6
ENDMDL
MODEL 2
REMARK VINA RESULT:    -3.575      1.577      3.162
REMARK INTER + INTRA:          -5.639
REMARK INTER:                  -4.738
REMARK INTRA:                  -0.901
REMARK UNBOUND:                -0.810
REMARK SMILES CCCCCCC=CC(=O)[O-]
REMARK SMILES IDX 5 1 6 2 7 3 8 4 9 5 10 6 11 7 4 8 3 9 2 10 1 11
REMARK H PARENT
REMARK Flexibility Score: inf
ROOT
ATOM      1  C   UNL     1      98.662   4.294 -26.121  1.00  0.00     0.004 C 
ENDROOT
BRANCH   1   2
ATOM      2  C   UNL     1      99.355   4.799 -27.399  1.00  0.00     0.027 C 
BRANCH   2   3
ATOM      3  C   UNL     1      98.402   4.950 -28.556  1.00  0.00    -0.025 C 
ATOM      4  C   UNL     1      98.223   4.067 -29.554  1.00  0.00     0.020 C 
BRANCH   4   5
ATOM      5  C   UNL     1      98.960   2.803 -29.756  1.00  0.00     0.064 C 
ATOM      6  O   UNL     1     100.079   2.765 -30.329  1.00  0.00    -0.545 OA
ATOM      7  O   UNL     1      98.382   1.614 -29.329  1.00  0.00    -0.545 OA
ENDBRANCH   4   5
ENDBRANCH   2   3
ENDBRANCH   1   2
BRANCH   1   8
ATOM      8  C   UNL     1      98.667   2.762 -25.961  1.00  0.00     0.000 C 
BRANCH   8   9
ATOM      9  C   UNL     1      97.252   2.160 -25.936  1.00  0.00    -0.000 C 
BRANCH   9  10
ATOM     10  C   UNL     1      96.155   3.236 -25.890  1.00  0.00    -0.003 C 
ATOM     11  C   UNL     1      95.282   3.246 -27.145  1.00  0.00     0.004 C 
ENDBRANCH   9  10
ENDBRANCH   8   9
ENDBRANCH   1   8
TORSDOF 6
ENDMDL
MODEL 3
REMARK VINA RESULT:    -3.568      3.131      3.463
REMARK INTER + INTRA:          -5.630
REMARK INTER:                  -5.275
REMARK INTRA:                  -0.355
REMARK UNBOUND:                -0.810
REMARK SMILES CCCCCCC=CC(=O)[O-]
REMARK SMILES IDX 5 1 6 2 7 3 8 4 9 5 10 6 11 7 4 8 3 9 2 10 1 11
REMARK H PARENT
REMARK Flexibility Score: inf
ROOT
ATOM      1  C   UNL     1      98.420   3.274 -25.125  1.00  0.00     0.004 C 
ENDROOT
BRANCH   1   2
ATOM      2  C   UNL     1      98.905   1.854 -24.783  1.00  0.00     0.027 C 
BRANCH   2   3
ATOM      3  C   UNL     1      99.153   1.013 -26.008  1.00  0.00    -0.025 C 
ATOM      4  C   UNL     1      99.031  -0.323 -26.089  1.00  0.00     0.020 C 
BRANCH   4   5
ATOM      5  C   UNL     1      98.689  -1.246 -24.988  1.00  0.00     0.064 C 
ATOM      6  O   UNL     1      99.565  -1.907 -24.372  1.00  0.00    -0.545 OA
ATOM      7  O   UNL     1      97.354  -1.414 -24.644  1.00  0.00    -0.545 OA
ENDBRANCH   4   5
ENDBRANCH   2   3
ENDBRANCH   1   2
BRANCH   1   8
ATOM      8  C   UNL     1      98.946   3.817 -26.468  1.00  0.00     0.000 C 
BRANCH   8   9
ATOM      9  C   UNL     1      97.857   4.523 -27.293  1.00  0.00    -0.000 C 
BRANCH   9  10
ATOM     10  C   UNL     1      98.433   5.294 -28.491  1.00  0.00    -0.003 C 
ATOM     11  C   UNL     1      99.960   5.244 -28.550  1.00  0.00     0.004 C 
ENDBRANCH   9  10
ENDBRANCH   8   9
ENDBRANCH   1   8
TORSDOF 6
ENDMDL
MODEL 4
REMARK VINA RESULT:    -3.518      3.745      4.681
REMARK INTER + INTRA:          -5.563
REMARK INTER:                  -4.956
REMARK INTRA:                  -0.606
REMARK UNBOUND:                -0.810
REMARK SMILES CCCCCCC=CC(=O)[O-]
REMARK SMILES IDX 5 1 6 2 7 3 8 4 9 5 10 6 11 7 4 8 3 9 2 10 1 11
REMARK H PARENT
REMARK Flexibility Score: inf
ROOT
ATOM      1  C   UNL     1      98.326   3.503 -25.408  1.00  0.00     0.004 C 
ENDROOT
BRANCH   1   2
ATOM      2  C   UNL     1      96.828   3.213 -25.205  1.00  0.00     0.027 C 
BRANCH   2   3
ATOM      3  C   UNL     1      96.094   3.009 -26.505  1.00  0.00    -0.025 C 
ATOM      4  C   UNL     1      94.865   3.465 -26.799  1.00  0.00     0.020 C 
BRANCH   4   5
ATOM      5  C   UNL     1      93.959   4.206 -25.899  1.00  0.00     0.064 C 
ATOM      6  O   UNL     1      93.384   3.653 -24.925  1.00  0.00    -0.545 OA
ATOM      7  O   UNL     1      93.708   5.548 -26.154  1.00  0.00    -0.545 OA
ENDBRANCH   4   5
ENDBRANCH   2   3
ENDBRANCH   1   2
BRANCH   1   8
ATOM      8  C   UNL     1      98.768   3.551 -26.883  1.00  0.00     0.000 C 
BRANCH   8   9
ATOM      9  C   UNL     1      99.224   4.953 -27.322  1.00  0.00    -0.000 C 
BRANCH   9  10
ATOM     10  C   UNL     1      98.661   5.352 -28.695  1.00  0.00    -0.003 C 
ATOM     11  C   UNL     1      98.046   4.173 -29.450  1.00  0.00     0.004 C 
ENDBRANCH   9  10
ENDBRANCH   8   9
ENDBRANCH   1   8
TORSDOF 6
ENDMDL
MODEL 5
REMARK VINA RESULT:    -3.517      1.769      3.528
REMARK INTER + INTRA:          -5.561
REMARK INTER:                  -4.820
REMARK INTRA:                  -0.741
REMARK UNBOUND:                -0.810
REMARK SMILES CCCCCCC=CC(=O)[O-]
REMARK SMILES IDX 5 1 6 2 7 3 8 4 9 5 10 6 11 7 4 8 3 9 2 10 1 11
REMARK H PARENT
REMARK Flexibility Score: inf
ROOT
ATOM      1  C   UNL     1      97.389   2.828 -25.282  1.00  0.00     0.004 C 
ENDROOT
BRANCH   1   2
ATOM      2  C   UNL     1      97.444   3.729 -26.529  1.00  0.00     0.027 C 
BRANCH   2   3
ATOM      3  C   UNL     1      98.769   4.430 -26.681  1.00  0.00    -0.025 C 
ATOM      4  C   UNL     1      99.456   4.581 -27.826  1.00  0.00     0.020 C 
BRANCH   4   5
ATOM      5  C   UNL     1      99.090   4.046 -29.153  1.00  0.00     0.064 C 
ATOM      6  O   UNL     1      98.014   4.358 -29.726  1.00  0.00    -0.545 OA
ATOM      7  O   UNL     1      99.947   3.146 -29.773  1.00  0.00    -0.545 OA
ENDBRANCH   4   5
ENDBRANCH   2   3
ENDBRANCH   1   2
BRANCH   1   8
ATOM      8  C   UNL     1      98.770   2.430 -24.727  1.00  0.00     0.000 C 
BRANCH   8   9
ATOM      9  C   UNL     1      99.171   0.992 -25.097  1.00  0.00    -0.000 C 
BRANCH   9  10
ATOM     10  C   UNL     1      99.929   0.917 -26.431  1.00  0.00    -0.003 C 
ATOM     11  C   UNL     1      99.055   0.422 -27.584  1.00  0.00     0.004 C 
ENDBRANCH   9  10
ENDBRANCH   8   9
ENDBRANCH   1   8
TORSDOF 6
ENDMDL
MODEL 6
REMARK VINA RESULT:    -3.480     21.881     23.118
REMARK INTER + INTRA:          -5.511
REMARK INTER:                  -4.576
REMARK INTRA:                  -0.936
REMARK UNBOUND:                -0.810
REMARK SMILES CCCCCCC=CC(=O)[O-]
REMARK SMILES IDX 5 1 6 2 7 3 8 4 9 5 10 6 11 7 4 8 3 9 2 10 1 11
REMARK H PARENT
REMARK Flexibility Score: inf
ROOT
ATOM      1  C   UNL     1      81.447  -5.268 -12.969  1.00  0.00     0.004 C 
ENDROOT
BRANCH   1   2
ATOM      2  C   UNL     1      80.208  -4.997 -13.841  1.00  0.00     0.027 C 
BRANCH   2   3
ATOM      3  C   UNL     1      80.096  -5.949 -15.003  1.00  0.00    -0.025 C 
ATOM      4  C   UNL     1      80.458  -5.695 -16.272  1.00  0.00     0.020 C 
BRANCH   4   5
ATOM      5  C   UNL     1      80.983  -4.420 -16.802  1.00  0.00     0.064 C 
ATOM      6  O   UNL     1      80.230  -3.453 -17.085  1.00  0.00    -0.545 OA
ATOM      7  O   UNL     1      82.348  -4.298 -17.025  1.00  0.00    -0.545 OA
ENDBRANCH   4   5
ENDBRANCH   2   3
ENDBRANCH   1   2
BRANCH   1   8
ATOM      8  C   UNL     1      82.609  -4.282 -13.193  1.00  0.00     0.000 C 
BRANCH   8   9
ATOM      9  C   UNL     1      83.840  -4.946 -13.834  1.00  0.00    -0.000 C 
BRANCH   9  10
ATOM     10  C   UNL     1      83.680  -6.467 -13.979  1.00  0.00    -0.003 C 
ATOM     11  C   UNL     1      83.836  -6.946 -15.422  1.00  0.00     0.004 C 
ENDBRANCH   9  10
ENDBRANCH   8   9
ENDBRANCH   1   8
TORSDOF 6
ENDMDL
MODEL 7
REMARK VINA RESULT:    -3.380      2.267      4.289
REMARK INTER + INTRA:          -5.376
REMARK INTER:                  -4.783
REMARK INTRA:                  -0.593
REMARK UNBOUND:                -0.810
REMARK SMILES CCCCCCC=CC(=O)[O-]
REMARK SMILES IDX 5 1 6 2 7 3 8 4 9 5 10 6 11 7 4 8 3 9 2 10 1 11
REMARK H PARENT
REMARK Flexibility Score: inf
ROOT
ATOM      1  C   UNL     1      98.380   4.049 -29.430  1.00  0.00     0.004 C 
ENDROOT
BRANCH   1   2
ATOM      2  C   UNL     1      98.278   5.010 -28.231  1.00  0.00     0.027 C 
BRANCH   2   3
ATOM      3  C   UNL     1      99.011   4.503 -27.016  1.00  0.00    -0.025 C 
ATOM      4  C   UNL     1      98.505   3.698 -26.066  1.00  0.00     0.020 C 
BRANCH   4   5
ATOM      5  C   UNL     1      97.119   3.193 -25.983  1.00  0.00     0.064 C 
ATOM      6  O   UNL     1      96.523   2.706 -26.979  1.00  0.00    -0.545 OA
ATOM      7  O   UNL     1      96.441   3.291 -24.775  1.00  0.00    -0.545 OA
ENDBRANCH   4   5
ENDBRANCH   2   3
ENDBRANCH   1   2
BRANCH   1   8
ATOM      8  C   UNL     1      99.790   3.475 -29.664  1.00  0.00     0.000 C 
BRANCH   8   9
ATOM      9  C   UNL     1      99.767   2.027 -30.180  1.00  0.00    -0.000 C 
BRANCH   9  10
ATOM     10  C   UNL     1      98.812   1.131 -29.377  1.00  0.00    -0.003 C 
ATOM     11  C   UNL     1      99.383   0.722 -28.019  1.00  0.00     0.004 C 
ENDBRANCH   9  10
ENDBRANCH   8   9
ENDBRANCH   1   8
TORSDOF 6
ENDMDL
MODEL 8
REMARK VINA RESULT:    -3.336      1.123      2.727
REMARK INTER + INTRA:          -5.316
REMARK INTER:                  -4.634
REMARK INTRA:                  -0.682
REMARK UNBOUND:                -0.810
REMARK SMILES CCCCCCC=CC(=O)[O-]
REMARK SMILES IDX 5 1 6 2 7 3 8 4 9 5 10 6 11 7 4 8 3 9 2 10 1 11
REMARK H PARENT
REMARK Flexibility Score: inf
ROOT
ATOM      1  C   UNL     1      98.324   4.890 -28.061  1.00  0.00     0.004 C 
ENDROOT
BRANCH   1   2
ATOM      2  C   UNL     1      98.505   4.135 -29.391  1.00  0.00     0.027 C 
BRANCH   2   3
ATOM      3  C   UNL     1      99.860   3.486 -29.510  1.00  0.00    -0.025 C 
ATOM      4  C   UNL     1     100.099   2.218 -29.886  1.00  0.00     0.020 C 
BRANCH   4   5
ATOM      5  C   UNL     1      99.090   1.186 -30.200  1.00  0.00     0.064 C 
ATOM      6  O   UNL     1      98.737   0.318 -29.360  1.00  0.00    -0.545 OA
ATOM      7  O   UNL     1      98.539   1.153 -31.474  1.00  0.00    -0.545 OA
ENDBRANCH   4   5
ENDBRANCH   2   3
ENDBRANCH   1   2
BRANCH   1   8
ATOM      8  C   UNL     1      97.651   4.064 -26.950  1.00  0.00     0.000 C 
BRANCH   8   9
ATOM      9  C   UNL     1      98.623   3.677 -25.822  1.00  0.00    -0.000 C 
BRANCH   9  10
ATOM     10  C   UNL     1      98.604   2.171 -25.519  1.00  0.00    -0.003 C 
ATOM     11  C   UNL     1      99.739   1.412 -26.207  1.00  0.00     0.004 C 
ENDBRANCH   9  10
ENDBRANCH   8   9
ENDBRANCH   1   8
TORSDOF 6
ENDMDL
