MODEL 1
REMARK VINA RESULT:    -3.320      0.000      0.000
REMARK INTER + INTRA:          -8.997
REMARK INTER:                  -6.426
REMARK INTRA:                  -2.571
REMARK UNBOUND:                -2.571
REMARK SMILES CCCCCCCCCCCCCCCC(=O)OCC
REMARK SMILES IDX 10 1 9 2 8 3 7 4 6 5 5 6 4 7 3 8 2 9 1 10 11 11 12 12 13 13
REMARK SMILES IDX 14 14 15 15 16 16 17 17 18 18 19 19 20 20
REMARK H PARENT
REMARK Flexibility Score: inf
ROOT
ATOM      1  C   UNL     1     194.853 206.364 217.075  1.00  0.00     0.000 C 
ENDROOT
BRANCH   1   2
ATOM      2  C   UNL     1     196.021 206.673 218.039  1.00  0.00     0.000 C 
BRANCH   2   3
ATOM      3  C   UNL     1     196.693 205.416 218.625  1.00  0.00     0.000 C 
BRANCH   3   4
ATOM      4  C   UNL     1     195.740 204.232 218.874  1.00  0.00    -0.000 C 
BRANCH   4   5
ATOM      5  C   UNL     1     196.001 202.992 217.995  1.00  0.00    -0.000 C 
BRANCH   5   6
ATOM      6  C   UNL     1     197.184 203.120 217.015  1.00  0.00    -0.000 C 
BRANCH   6   7
ATOM      7  C   UNL     1     196.795 203.493 215.574  1.00  0.00    -0.000 C 
BRANCH   7   8
ATOM      8  C   UNL     1     197.675 204.611 214.988  1.00  0.00    -0.000 C 
BRANCH   8   9
ATOM      9  C   UNL     1     199.058 204.684 215.653  1.00  0.00    -0.003 C 
ATOM     10  C   UNL     1     199.366 206.065 216.229  1.00  0.00     0.004 C 
ENDBRANCH   8   9
ENDBRANCH   7   8
ENDBRANCH   6   7
ENDBRANCH   5   6
ENDBRANCH   4   5
ENDBRANCH   3   4
ENDBRANCH   2   3
ENDBRANCH   1   2
BRANCH   1  11
ATOM     11  C   UNL     1     194.856 207.187 215.769  1.00  0.00     0.000 C 
BRANCH  11  12
ATOM     12  C   UNL     1     196.168 207.936 215.458  1.00  0.00     0.000 C 
BRANCH  12  13
ATOM     13  C   UNL     1     195.947 209.250 214.697  1.00  0.00     0.001 C 
BRANCH  13  14
ATOM     14  C   UNL     1     197.260 210.034 214.549  1.00  0.00     0.012 C 
BRANCH  14  15
ATOM     15  C   UNL     1     198.493 209.132 214.700  1.00  0.00     0.123 C 
BRANCH  15  16
ATOM     16  C   UNL     1     199.214 208.966 213.397  1.00  0.00     0.305 C 
ATOM     17  O   UNL     1     198.586 209.104 212.311  1.00  0.00    -0.252 OA
BRANCH  16  18
ATOM     18  O   UNL     1     200.568 208.614 213.404  1.00  0.00    -0.466 OA
BRANCH  18  19
ATOM     19  C   UNL     1     201.144 207.696 212.479  1.00  0.00     0.229 C 
ATOM     20  C   UNL     1     200.564 206.302 212.680  1.00  0.00     0.049 C 
ENDBRANCH  18  19
ENDBRANCH  16  18
ENDBRANCH  15  16
ENDBRANCH  14  15
ENDBRANCH  13  14
ENDBRANCH  12  13
ENDBRANCH  11  12
ENDBRANCH   1  11
TORSDOF 16
ENDMDL
MODEL 2
REMARK VINA RESULT:    -3.299      1.366      2.481
REMARK INTER + INTRA:          -8.955
REMARK INTER:                  -6.431
REMARK INTRA:                  -2.523
REMARK UNBOUND:                -2.571
REMARK SMILES CCCCCCCCCCCCCCCC(=O)OCC
REMARK SMILES IDX 10 1 9 2 8 3 7 4 6 5 5 6 4 7 3 8 2 9 1 10 11 11 12 12 13 13
REMARK SMILES IDX 14 14 15 15 16 16 17 17 18 18 19 19 20 20
REMARK H PARENT
REMARK Flexibility Score: inf
ROOT
ATOM      1  C   UNL     1     193.765 206.498 216.717  1.00  0.00     0.000 C 
ENDROOT
BRANCH   1   2
ATOM      2  C   UNL     1     194.488 206.043 218.005  1.00  0.00     0.000 C 
BRANCH   2   3
ATOM      3  C   UNL     1     195.840 206.743 218.241  1.00  0.00     0.000 C 
BRANCH   3   4
ATOM      4  C   UNL     1     197.061 205.804 218.239  1.00  0.00    -0.000 C 
BRANCH   4   5
ATOM      5  C   UNL     1     197.903 205.833 216.948  1.00  0.00    -0.000 C 
BRANCH   5   6
ATOM      6  C   UNL     1     197.963 204.501 216.175  1.00  0.00    -0.000 C 
BRANCH   6   7
ATOM      7  C   UNL     1     196.611 203.783 216.013  1.00  0.00    -0.000 C 
BRANCH   7   8
ATOM      8  C   UNL     1     196.695 202.276 216.311  1.00  0.00    -0.000 C 
BRANCH   8   9
ATOM      9  C   UNL     1     196.904 201.980 217.804  1.00  0.00    -0.003 C 
ATOM     10  C   UNL     1     195.753 202.483 218.674  1.00  0.00     0.004 C 
ENDBRANCH   8   9
ENDBRANCH   7   8
ENDBRANCH   6   7
ENDBRANCH   5   6
ENDBRANCH   4   5
ENDBRANCH   3   4
ENDBRANCH   2   3
ENDBRANCH   1   2
BRANCH   1  11
ATOM     11  C   UNL     1     194.699 206.974 215.583  1.00  0.00     0.000 C 
BRANCH  11  12
ATOM     12  C   UNL     1     194.207 208.201 214.789  1.00  0.00     0.000 C 
BRANCH  12  13
ATOM     13  C   UNL     1     195.310 209.236 214.534  1.00  0.00     0.001 C 
BRANCH  13  14
ATOM     14  C   UNL     1     196.566 208.927 215.364  1.00  0.00     0.012 C 
BRANCH  14  15
ATOM     15  C   UNL     1     197.756 209.810 214.965  1.00  0.00     0.123 C 
BRANCH  15  16
ATOM     16  C   UNL     1     198.825 209.014 214.281  1.00  0.00     0.305 C 
ATOM     17  O   UNL     1     199.733 208.465 214.964  1.00  0.00    -0.252 OA
BRANCH  16  18
ATOM     18  O   UNL     1     198.825 208.926 212.885  1.00  0.00    -0.466 OA
BRANCH  18  19
ATOM     19  C   UNL     1     197.981 208.040 212.154  1.00  0.00     0.229 C 
ATOM     20  C   UNL     1     197.925 206.677 212.832  1.00  0.00     0.049 C 
ENDBRANCH  18  19
ENDBRANCH  16  18
ENDBRANCH  15  16
ENDBRANCH  14  15
ENDBRANCH  13  14
ENDBRANCH  12  13
ENDBRANCH  11  12
ENDBRANCH   1  11
TORSDOF 16
ENDMDL
MODEL 3
REMARK VINA RESULT:    -3.279      8.707     11.654
REMARK INTER + INTRA:          -8.917
REMARK INTER:                  -6.319
REMARK INTRA:                  -2.598
REMARK UNBOUND:                -2.571
REMARK SMILES CCCCCCCCCCCCCCCC(=O)OCC
REMARK SMILES IDX 10 1 9 2 8 3 7 4 6 5 5 6 4 7 3 8 2 9 1 10 11 11 12 12 13 13
REMARK SMILES IDX 14 14 15 15 16 16 17 17 18 18 19 19 20 20
REMARK H PARENT
REMARK Flexibility Score: inf
ROOT
ATOM      1  C   UNL     1     206.955 197.943 217.714  1.00  0.00     0.000 C 
ENDROOT
BRANCH   1   2
ATOM      2  C   UNL     1     206.539 196.622 217.027  1.00  0.00     0.000 C 
BRANCH   2   3
ATOM      3  C   UNL     1     207.262 196.361 215.692  1.00  0.00     0.000 C 
BRANCH   3   4
ATOM      4  C   UNL     1     207.955 197.593 215.082  1.00  0.00    -0.000 C 
BRANCH   4   5
ATOM      5  C   UNL     1     207.257 198.183 213.840  1.00  0.00    -0.000 C 
BRANCH   5   6
ATOM      6  C   UNL     1     206.290 199.349 214.123  1.00  0.00    -0.000 C 
BRANCH   6   7
ATOM      7  C   UNL     1     206.937 200.586 214.770  1.00  0.00    -0.000 C 
BRANCH   7   8
ATOM      8  C   UNL     1     206.028 201.827 214.728  1.00  0.00    -0.000 C 
BRANCH   8   9
ATOM      9  C   UNL     1     204.890 201.691 213.706  1.00  0.00    -0.003 C 
ATOM     10  C   UNL     1     203.607 202.391 214.152  1.00  0.00     0.004 C 
ENDBRANCH   8   9
ENDBRANCH   7   8
ENDBRANCH   6   7
ENDBRANCH   5   6
ENDBRANCH   4   5
ENDBRANCH   3   4
ENDBRANCH   2   3
ENDBRANCH   1   2
BRANCH   1  11
ATOM     11  C   UNL     1     205.823 198.982 217.861  1.00  0.00     0.000 C 
BRANCH  11  12
ATOM     12  C   UNL     1     204.434 198.526 217.371  1.00  0.00     0.000 C 
BRANCH  12  13
ATOM     13  C   UNL     1     203.668 199.623 216.620  1.00  0.00     0.001 C 
BRANCH  13  14
ATOM     14  C   UNL     1     202.958 200.573 217.598  1.00  0.00     0.012 C 
BRANCH  14  15
ATOM     15  C   UNL     1     201.436 200.572 217.403  1.00  0.00     0.123 C 
BRANCH  15  16
ATOM     16  C   UNL     1     200.756 199.676 218.393  1.00  0.00     0.305 C 
ATOM     17  O   UNL     1     200.220 200.171 219.423  1.00  0.00    -0.252 OA
BRANCH  16  18
ATOM     18  O   UNL     1     200.764 198.293 218.182  1.00  0.00    -0.466 OA
BRANCH  18  19
ATOM     19  C   UNL     1     200.202 197.672 217.028  1.00  0.00     0.229 C 
ATOM     20  C   UNL     1     201.242 196.805 216.329  1.00  0.00     0.049 C 
ENDBRANCH  18  19
ENDBRANCH  16  18
ENDBRANCH  15  16
ENDBRANCH  14  15
ENDBRANCH  13  14
ENDBRANCH  12  13
ENDBRANCH  11  12
ENDBRANCH   1  11
TORSDOF 16
ENDMDL
MODEL 4
REMARK VINA RESULT:    -3.272      7.808     10.612
REMARK INTER + INTRA:          -8.904
REMARK INTER:                  -6.333
REMARK INTRA:                  -2.571
REMARK UNBOUND:                -2.571
REMARK SMILES CCCCCCCCCCCCCCCC(=O)OCC
REMARK SMILES IDX 10 1 9 2 8 3 7 4 6 5 5 6 4 7 3 8 2 9 1 10 11 11 12 12 13 13
REMARK SMILES IDX 14 14 15 15 16 16 17 17 18 18 19 19 20 20
REMARK H PARENT
REMARK Flexibility Score: inf
ROOT
ATOM      1  C   UNL     1     204.718 201.338 214.104  1.00  0.00     0.000 C 
ENDROOT
BRANCH   1   2
ATOM      2  C   UNL     1     206.077 201.734 214.724  1.00  0.00     0.000 C 
BRANCH   2   3
ATOM      3  C   UNL     1     206.956 200.531 215.117  1.00  0.00     0.000 C 
BRANCH   3   4
ATOM      4  C   UNL     1     207.257 200.416 216.623  1.00  0.00    -0.000 C 
BRANCH   4   5
ATOM      5  C   UNL     1     206.059 199.991 217.496  1.00  0.00    -0.000 C 
BRANCH   5   6
ATOM      6  C   UNL     1     206.155 198.574 218.093  1.00  0.00    -0.000 C 
BRANCH   6   7
ATOM      7  C   UNL     1     205.640 197.448 217.179  1.00  0.00    -0.000 C 
BRANCH   7   8
ATOM      8  C   UNL     1     204.540 197.920 216.211  1.00  0.00    -0.000 C 
BRANCH   8   9
ATOM      9  C   UNL     1     204.843 197.558 214.750  1.00  0.00    -0.003 C 
ATOM     10  C   UNL     1     203.617 197.670 213.845  1.00  0.00     0.004 C 
ENDBRANCH   8   9
ENDBRANCH   7   8
ENDBRANCH   6   7
ENDBRANCH   5   6
ENDBRANCH   4   5
ENDBRANCH   3   4
ENDBRANCH   2   3
ENDBRANCH   1   2
BRANCH   1  11
ATOM     11  C   UNL     1     203.483 201.920 214.824  1.00  0.00     0.000 C 
BRANCH  11  12
ATOM     12  C   UNL     1     202.469 200.883 215.349  1.00  0.00     0.000 C 
BRANCH  12  13
ATOM     13  C   UNL     1     201.776 201.320 216.647  1.00  0.00     0.001 C 
BRANCH  13  14
ATOM     14  C   UNL     1     202.163 200.404 217.819  1.00  0.00     0.012 C 
BRANCH  14  15
ATOM     15  C   UNL     1     200.986 200.152 218.770  1.00  0.00     0.123 C 
BRANCH  15  16
ATOM     16  C   UNL     1     199.732 199.828 218.018  1.00  0.00     0.305 C 
ATOM     17  O   UNL     1     198.727 200.586 218.116  1.00  0.00    -0.252 OA
BRANCH  16  18
ATOM     18  O   UNL     1     199.677 198.661 217.248  1.00  0.00    -0.466 OA
BRANCH  18  19
ATOM     19  C   UNL     1     200.258 197.425 217.656  1.00  0.00     0.229 C 
ATOM     20  C   UNL     1     201.085 196.826 216.525  1.00  0.00     0.049 C 
ENDBRANCH  18  19
ENDBRANCH  16  18
ENDBRANCH  15  16
ENDBRANCH  14  15
ENDBRANCH  13  14
ENDBRANCH  12  13
ENDBRANCH  11  12
ENDBRANCH   1  11
TORSDOF 16
ENDMDL
MODEL 5
REMARK VINA RESULT:    -3.257      3.828      6.770
REMARK INTER + INTRA:          -8.874
REMARK INTER:                  -6.785
REMARK INTRA:                  -2.089
REMARK UNBOUND:                -2.571
REMARK SMILES CCCCCCCCCCCCCCCC(=O)OCC
REMARK SMILES IDX 10 1 9 2 8 3 7 4 6 5 5 6 4 7 3 8 2 9 1 10 11 11 12 12 13 13
REMARK SMILES IDX 14 14 15 15 16 16 17 17 18 18 19 19 20 20
REMARK H PARENT
REMARK Flexibility Score: inf
ROOT
ATOM      1  C   UNL     1     196.036 207.161 216.884  1.00  0.00     0.000 C 
ENDROOT
BRANCH   1   2
ATOM      2  C   UNL     1     195.328 207.294 215.516  1.00  0.00     0.000 C 
BRANCH   2   3
ATOM      3  C   UNL     1     195.658 208.600 214.769  1.00  0.00     0.000 C 
BRANCH   3   4
ATOM      4  C   UNL     1     196.978 209.270 215.193  1.00  0.00    -0.000 C 
BRANCH   4   5
ATOM      5  C   UNL     1     198.162 209.040 214.232  1.00  0.00    -0.000 C 
BRANCH   5   6
ATOM      6  C   UNL     1     199.299 208.163 214.791  1.00  0.00    -0.000 C 
BRANCH   6   7
ATOM      7  C   UNL     1     199.077 206.646 214.651  1.00  0.00    -0.000 C 
BRANCH   7   8
ATOM      8  C   UNL     1     199.164 205.903 215.996  1.00  0.00    -0.000 C 
BRANCH   8   9
ATOM      9  C   UNL     1     198.552 204.496 215.933  1.00  0.00    -0.003 C 
ATOM     10  C   UNL     1     197.462 204.371 214.870  1.00  0.00     0.004 C 
ENDBRANCH   8   9
ENDBRANCH   7   8
ENDBRANCH   6   7
ENDBRANCH   5   6
ENDBRANCH   4   5
ENDBRANCH   3   4
ENDBRANCH   2   3
ENDBRANCH   1   2
BRANCH   1  11
ATOM     11  C   UNL     1     195.227 206.411 217.963  1.00  0.00     0.000 C 
BRANCH  11  12
ATOM     12  C   UNL     1     195.924 205.184 218.584  1.00  0.00     0.000 C 
BRANCH  12  13
ATOM     13  C   UNL     1     195.392 203.850 218.044  1.00  0.00     0.001 C 
BRANCH  13  14
ATOM     14  C   UNL     1     195.924 202.666 218.867  1.00  0.00     0.012 C 
BRANCH  14  15
ATOM     15  C   UNL     1     196.697 201.661 218.002  1.00  0.00     0.123 C 
BRANCH  15  16
ATOM     16  C   UNL     1     197.312 200.578 218.835  1.00  0.00     0.305 C 
ATOM     17  O   UNL     1     196.967 200.443 220.042  1.00  0.00    -0.252 OA
BRANCH  16  18
ATOM     18  O   UNL     1     198.295 199.757 218.274  1.00  0.00    -0.466 OA
BRANCH  18  19
ATOM     19  C   UNL     1     199.557 200.242 217.823  1.00  0.00     0.229 C 
ATOM     20  C   UNL     1     200.617 200.055 218.901  1.00  0.00     0.049 C 
ENDBRANCH  18  19
ENDBRANCH  16  18
ENDBRANCH  15  16
ENDBRANCH  14  15
ENDBRANCH  13  14
ENDBRANCH  12  13
ENDBRANCH  11  12
ENDBRANCH   1  11
TORSDOF 16
ENDMDL
MODEL 6
REMARK VINA RESULT:    -3.257      3.355      6.380
REMARK INTER + INTRA:          -8.874
REMARK INTER:                  -7.241
REMARK INTRA:                  -1.633
REMARK UNBOUND:                -2.571
REMARK SMILES CCCCCCCCCCCCCCCC(=O)OCC
REMARK SMILES IDX 10 1 9 2 8 3 7 4 6 5 5 6 4 7 3 8 2 9 1 10 11 11 12 12 13 13
REMARK SMILES IDX 14 14 15 15 16 16 17 17 18 18 19 19 20 20
REMARK H PARENT
REMARK Flexibility Score: inf
ROOT
ATOM      1  C   UNL     1     201.680 201.033 216.315  1.00  0.00     0.000 C 
ENDROOT
BRANCH   1   2
ATOM      2  C   UNL     1     202.141 200.630 217.734  1.00  0.00     0.000 C 
BRANCH   2   3
ATOM      3  C   UNL     1     201.027 200.004 218.595  1.00  0.00     0.000 C 
BRANCH   3   4
ATOM      4  C   UNL     1     199.794 199.524 217.806  1.00  0.00    -0.000 C 
BRANCH   4   5
ATOM      5  C   UNL     1     198.475 200.238 218.164  1.00  0.00    -0.000 C 
BRANCH   5   6
ATOM      6  C   UNL     1     198.130 200.262 219.665  1.00  0.00    -0.000 C 
BRANCH   6   7
ATOM      7  C   UNL     1     196.657 199.961 219.997  1.00  0.00    -0.000 C 
BRANCH   7   8
ATOM      8  C   UNL     1     195.845 201.228 220.316  1.00  0.00    -0.000 C 
BRANCH   8   9
ATOM      9  C   UNL     1     195.170 201.825 219.072  1.00  0.00    -0.003 C 
ATOM     10  C   UNL     1     195.889 203.066 218.546  1.00  0.00     0.004 C 
ENDBRANCH   8   9
ENDBRANCH   7   8
ENDBRANCH   6   7
ENDBRANCH   5   6
ENDBRANCH   4   5
ENDBRANCH   3   4
ENDBRANCH   2   3
ENDBRANCH   1   2
BRANCH   1  11
ATOM     11  C   UNL     1     202.204 202.400 215.826  1.00  0.00     0.000 C 
BRANCH  11  12
ATOM     12  C   UNL     1     201.120 203.430 215.447  1.00  0.00     0.000 C 
BRANCH  12  13
ATOM     13  C   UNL     1     199.722 202.813 215.314  1.00  0.00     0.001 C 
BRANCH  13  14
ATOM     14  C   UNL     1     198.645 203.747 215.887  1.00  0.00     0.012 C 
BRANCH  14  15
ATOM     15  C   UNL     1     199.082 205.218 215.863  1.00  0.00     0.123 C 
BRANCH  15  16
ATOM     16  C   UNL     1     197.904 206.142 215.906  1.00  0.00     0.305 C 
ATOM     17  O   UNL     1     197.874 207.157 215.156  1.00  0.00    -0.252 OA
BRANCH  16  18
ATOM     18  O   UNL     1     196.869 205.889 216.813  1.00  0.00    -0.466 OA
BRANCH  18  19
ATOM     19  C   UNL     1     195.985 206.898 217.295  1.00  0.00     0.229 C 
ATOM     20  C   UNL     1     195.771 206.747 218.796  1.00  0.00     0.049 C 
ENDBRANCH  18  19
ENDBRANCH  16  18
ENDBRANCH  15  16
ENDBRANCH  14  15
ENDBRANCH  13  14
ENDBRANCH  12  13
ENDBRANCH  11  12
ENDBRANCH   1  11
TORSDOF 16
ENDMDL
MODEL 7
REMARK VINA RESULT:    -3.231      4.362      7.271
REMARK INTER + INTRA:          -8.823
REMARK INTER:                  -6.953
REMARK INTRA:                  -1.871
REMARK UNBOUND:                -2.571
REMARK SMILES CCCCCCCCCCCCCCCC(=O)OCC
REMARK SMILES IDX 10 1 9 2 8 3 7 4 6 5 5 6 4 7 3 8 2 9 1 10 11 11 12 12 13 13
REMARK SMILES IDX 14 14 15 15 16 16 17 17 18 18 19 19 20 20
REMARK H PARENT
REMARK Flexibility Score: inf
ROOT
ATOM      1  C   UNL     1     196.881 203.099 217.361  1.00  0.00     0.000 C 
ENDROOT
BRANCH   1   2
ATOM      2  C   UNL     1     195.869 203.842 218.263  1.00  0.00     0.000 C 
BRANCH   2   3
ATOM      3  C   UNL     1     196.459 205.075 218.975  1.00  0.00     0.000 C 
BRANCH   3   4
ATOM      4  C   UNL     1     195.851 206.422 218.544  1.00  0.00    -0.000 C 
BRANCH   4   5
ATOM      5  C   UNL     1     194.722 206.321 217.499  1.00  0.00    -0.000 C 
BRANCH   5   6
ATOM      6  C   UNL     1     195.019 206.994 216.145  1.00  0.00    -0.000 C 
BRANCH   6   7
ATOM      7  C   UNL     1     196.510 207.070 215.773  1.00  0.00    -0.000 C 
BRANCH   7   8
ATOM      8  C   UNL     1     196.979 205.868 214.934  1.00  0.00    -0.000 C 
BRANCH   8   9
ATOM      9  C   UNL     1     198.502 205.680 214.971  1.00  0.00    -0.003 C 
ATOM     10  C   UNL     1     199.097 205.933 216.355  1.00  0.00     0.004 C 
ENDBRANCH   8   9
ENDBRANCH   7   8
ENDBRANCH   6   7
ENDBRANCH   5   6
ENDBRANCH   4   5
ENDBRANCH   3   4
ENDBRANCH   2   3
ENDBRANCH   1   2
BRANCH   1  11
ATOM     11  C   UNL     1     196.816 201.559 217.447  1.00  0.00     0.000 C 
BRANCH  11  12
ATOM     12  C   UNL     1     196.715 200.976 218.872  1.00  0.00     0.000 C 
BRANCH  12  13
ATOM     13  C   UNL     1     197.960 200.183 219.290  1.00  0.00     0.001 C 
BRANCH  13  14
ATOM     14  C   UNL     1     199.091 200.342 218.262  1.00  0.00     0.012 C 
BRANCH  14  15
ATOM     15  C   UNL     1     200.463 199.985 218.850  1.00  0.00     0.123 C 
BRANCH  15  16
ATOM     16  C   UNL     1     201.516 199.917 217.787  1.00  0.00     0.305 C 
ATOM     17  O   UNL     1     202.058 200.979 217.373  1.00  0.00    -0.252 OA
BRANCH  16  18
ATOM     18  O   UNL     1     201.852 198.677 217.234  1.00  0.00    -0.466 OA
BRANCH  18  19
ATOM     19  C   UNL     1     201.214 197.456 217.602  1.00  0.00     0.229 C 
ATOM     20  C   UNL     1     200.176 197.061 216.559  1.00  0.00     0.049 C 
ENDBRANCH  18  19
ENDBRANCH  16  18
ENDBRANCH  15  16
ENDBRANCH  14  15
ENDBRANCH  13  14
ENDBRANCH  12  13
ENDBRANCH  11  12
ENDBRANCH   1  11
TORSDOF 16
ENDMDL
MODEL 8
REMARK VINA RESULT:    -3.225      1.343      2.050
REMARK INTER + INTRA:          -8.812
REMARK INTER:                  -6.240
REMARK INTRA:                  -2.572
REMARK UNBOUND:                -2.571
REMARK SMILES CCCCCCCCCCCCCCCC(=O)OCC
REMARK SMILES IDX 10 1 9 2 8 3 7 4 6 5 5 6 4 7 3 8 2 9 1 10 11 11 12 12 13 13
REMARK SMILES IDX 14 14 15 15 16 16 17 17 18 18 19 19 20 20
REMARK H PARENT
REMARK Flexibility Score: inf
ROOT
ATOM      1  C   UNL     1     194.677 206.868 215.518  1.00  0.00     0.000 C 
ENDROOT
BRANCH   1   2
ATOM      2  C   UNL     1     193.695 206.426 216.627  1.00  0.00     0.000 C 
BRANCH   2   3
ATOM      3  C   UNL     1     194.380 206.072 217.960  1.00  0.00     0.000 C 
BRANCH   3   4
ATOM      4  C   UNL     1     195.699 206.821 218.227  1.00  0.00    -0.000 C 
BRANCH   4   5
ATOM      5  C   UNL     1     196.936 205.917 218.400  1.00  0.00    -0.000 C 
BRANCH   5   6
ATOM      6  C   UNL     1     197.472 205.283 217.102  1.00  0.00    -0.000 C 
BRANCH   6   7
ATOM      7  C   UNL     1     198.765 205.916 216.557  1.00  0.00    -0.000 C 
BRANCH   7   8
ATOM      8  C   UNL     1     199.024 205.567 215.081  1.00  0.00    -0.000 C 
BRANCH   8   9
ATOM      9  C   UNL     1     197.823 204.878 214.416  1.00  0.00    -0.003 C 
ATOM     10  C   UNL     1     197.273 205.664 213.227  1.00  0.00     0.004 C 
ENDBRANCH   8   9
ENDBRANCH   7   8
ENDBRANCH   6   7
ENDBRANCH   5   6
ENDBRANCH   4   5
ENDBRANCH   3   4
ENDBRANCH   2   3
ENDBRANCH   1   2
BRANCH   1  11
ATOM     11  C   UNL     1     194.264 208.147 214.759  1.00  0.00     0.000 C 
BRANCH  11  12
ATOM     12  C   UNL     1     195.362 209.222 214.621  1.00  0.00     0.000 C 
BRANCH  12  13
ATOM     13  C   UNL     1     196.699 208.802 215.246  1.00  0.00     0.001 C 
BRANCH  13  14
ATOM     14  C   UNL     1     197.834 209.746 214.817  1.00  0.00     0.012 C 
BRANCH  14  15
ATOM     15  C   UNL     1     198.967 209.001 214.098  1.00  0.00     0.123 C 
BRANCH  15  16
ATOM     16  C   UNL     1     198.767 208.998 212.613  1.00  0.00     0.305 C 
ATOM     17  O   UNL     1     197.907 209.764 212.095  1.00  0.00    -0.252 OA
BRANCH  16  18
ATOM     18  O   UNL     1     199.508 208.112 211.824  1.00  0.00    -0.466 OA
BRANCH  18  19
ATOM     19  C   UNL     1     200.914 208.229 211.624  1.00  0.00     0.229 C 
ATOM     20  C   UNL     1     201.647 207.087 212.316  1.00  0.00     0.049 C 
ENDBRANCH  18  19
ENDBRANCH  16  18
ENDBRANCH  15  16
ENDBRANCH  14  15
ENDBRANCH  13  14
ENDBRANCH  12  13
ENDBRANCH  11  12
ENDBRANCH   1  11
TORSDOF 16
ENDMDL
MODEL 9
REMARK VINA RESULT:    -3.180      9.336     11.697
REMARK INTER + INTRA:          -8.726
REMARK INTER:                  -6.123
REMARK INTRA:                  -2.602
REMARK UNBOUND:                -2.571
REMARK SMILES CCCCCCCCCCCCCCCC(=O)OCC
REMARK SMILES IDX 10 1 9 2 8 3 7 4 6 5 5 6 4 7 3 8 2 9 1 10 11 11 12 12 13 13
REMARK SMILES IDX 14 14 15 15 16 16 17 17 18 18 19 19 20 20
REMARK H PARENT
REMARK Flexibility Score: inf
ROOT
ATOM      1  C   UNL     1     203.908 197.767 216.988  1.00  0.00     0.000 C 
ENDROOT
BRANCH   1   2
ATOM      2  C   UNL     1     202.945 197.406 215.834  1.00  0.00     0.000 C 
BRANCH   2   3
ATOM      3  C   UNL     1     201.462 197.369 216.250  1.00  0.00     0.000 C 
BRANCH   3   4
ATOM      4  C   UNL     1     201.199 197.699 217.731  1.00  0.00    -0.000 C 
BRANCH   4   5
ATOM      5  C   UNL     1     200.282 198.915 217.974  1.00  0.00    -0.000 C 
BRANCH   5   6
ATOM      6  C   UNL     1     200.956 200.118 218.661  1.00  0.00    -0.000 C 
BRANCH   6   7
ATOM      7  C   UNL     1     202.158 200.709 217.902  1.00  0.00    -0.000 C 
BRANCH   7   8
ATOM      8  C   UNL     1     201.811 201.119 216.460  1.00  0.00    -0.000 C 
BRANCH   8   9
ATOM      9  C   UNL     1     203.055 201.454 215.626  1.00  0.00    -0.003 C 
ATOM     10  C   UNL     1     203.044 200.788 214.251  1.00  0.00     0.004 C 
ENDBRANCH   8   9
ENDBRANCH   7   8
ENDBRANCH   6   7
ENDBRANCH   5   6
ENDBRANCH   4   5
ENDBRANCH   3   4
ENDBRANCH   2   3
ENDBRANCH   1   2
BRANCH   1  11
ATOM     11  C   UNL     1     205.174 198.538 216.559  1.00  0.00     0.000 C 
BRANCH  11  12
ATOM     12  C   UNL     1     205.725 199.540 217.594  1.00  0.00     0.000 C 
BRANCH  12  13
ATOM     13  C   UNL     1     206.889 200.383 217.058  1.00  0.00     0.001 C 
BRANCH  13  14
ATOM     14  C   UNL     1     207.582 199.686 215.876  1.00  0.00     0.012 C 
BRANCH  14  15
ATOM     15  C   UNL     1     209.019 199.266 216.213  1.00  0.00     0.123 C 
BRANCH  15  16
ATOM     16  C   UNL     1     209.087 197.829 216.633  1.00  0.00     0.305 C 
ATOM     17  O   UNL     1     209.692 197.514 217.695  1.00  0.00    -0.252 OA
BRANCH  16  18
ATOM     18  O   UNL     1     208.514 196.850 215.815  1.00  0.00    -0.466 OA
BRANCH  18  19
ATOM     19  C   UNL     1     207.815 195.716 216.322  1.00  0.00     0.229 C 
ATOM     20  C   UNL     1     206.579 195.429 215.478  1.00  0.00     0.049 C 
ENDBRANCH  18  19
ENDBRANCH  16  18
ENDBRANCH  15  16
ENDBRANCH  14  15
ENDBRANCH  13  14
ENDBRANCH  12  13
ENDBRANCH  11  12
ENDBRANCH   1  11
TORSDOF 16
ENDMDL
