MODEL 1
REMARK VINA RESULT:    -3.757      0.000      0.000
REMARK INTER + INTRA:          -6.909
REMARK INTER:                  -5.404
REMARK INTRA:                  -1.505
REMARK UNBOUND:                -1.505
REMARK SMILES O=C(CO)[C@@H](O)[C@H](O)[C@H](O)CO
REMARK SMILES IDX 7 1 9 2 11 3 12 4 10 6 5 8 2 9 1 10 3 11 4 12 6 14 8 16
REMARK H PARENT 12 5 10 7 4 13 6 15 8 17
REMARK Flexibility Score: inf
ROOT
ATOM      1  C   UNL     1      19.117  24.993  10.205  1.00  0.00     0.181 C 
ENDROOT
BRANCH   1   2
ATOM      2  C   UNL     1      19.021  26.117   9.131  1.00  0.00     0.171 C 
BRANCH   2   3
ATOM      3  C   UNL     1      17.613  26.260   8.526  1.00  0.00     0.190 C 
BRANCH   3   4
ATOM      4  O   UNL     1      17.301  25.138   7.744  1.00  0.00    -0.394 OA
ATOM      5  H   UNL     1      16.312  25.120   7.654  1.00  0.00     0.210 HD
ENDBRANCH   3   4
ENDBRANCH   2   3
BRANCH   2   6
ATOM      6  O   UNL     1      19.448  27.345   9.666  1.00  0.00    -0.388 OA
ATOM      7  H   UNL     1      19.638  27.195  10.628  1.00  0.00     0.211 HD
ENDBRANCH   2   6
ENDBRANCH   1   2
BRANCH   1   8
ATOM      8  C   UNL     1      19.878  23.710   9.754  1.00  0.00     0.214 C 
BRANCH   8   9
ATOM      9  C   UNL     1      19.164  22.441  10.154  1.00  0.00     0.189 C 
ATOM     10  O   UNL     1      19.201  22.071  11.318  1.00  0.00    -0.294 OA
BRANCH   9  11
ATOM     11  C   UNL     1      18.445  21.591   9.139  1.00  0.00     0.234 C 
BRANCH  11  12
ATOM     12  O   UNL     1      17.396  22.316   8.557  1.00  0.00    -0.388 OA
ATOM     13  H   UNL     1      17.026  21.749   7.832  1.00  0.00     0.211 HD
ENDBRANCH  11  12
ENDBRANCH   9  11
ENDBRANCH   8   9
BRANCH   8  14
ATOM     14  O   UNL     1      20.023  23.706   8.356  1.00  0.00    -0.382 OA
ATOM     15  H   UNL     1      20.619  22.947   8.121  1.00  0.00     0.211 HD
ENDBRANCH   8  14
ENDBRANCH   1   8
BRANCH   1  16
ATOM     16  O   UNL     1      17.819  24.651  10.625  1.00  0.00    -0.387 OA
ATOM     17  H   UNL     1      17.181  25.051   9.976  1.00  0.00     0.211 HD
ENDBRANCH   1  16
TORSDOF 10
ENDMDL
MODEL 2
REMARK VINA RESULT:    -3.684      1.751      2.642
REMARK INTER + INTRA:          -6.805
REMARK INTER:                  -6.284
REMARK INTRA:                  -0.521
REMARK UNBOUND:                -1.505
REMARK SMILES O=C(CO)[C@@H](O)[C@H](O)[C@H](O)CO
REMARK SMILES IDX 7 1 9 2 11 3 12 4 10 6 5 8 2 9 1 10 3 11 4 12 6 14 8 16
REMARK H PARENT 12 5 10 7 4 13 6 15 8 17
REMARK Flexibility Score: inf
ROOT
ATOM      1  C   UNL     1      18.645  24.826   9.654  1.00  0.00     0.181 C 
ENDROOT
BRANCH   1   2
ATOM      2  C   UNL     1      17.597  25.706   8.911  1.00  0.00     0.171 C 
BRANCH   2   3
ATOM      3  C   UNL     1      18.058  27.162   8.712  1.00  0.00     0.190 C 
BRANCH   3   4
ATOM      4  O   UNL     1      16.989  28.045   8.919  1.00  0.00    -0.394 OA
ATOM      5  H   UNL     1      16.690  27.918   9.857  1.00  0.00     0.210 HD
ENDBRANCH   3   4
ENDBRANCH   2   3
BRANCH   2   6
ATOM      6  O   UNL     1      17.260  25.129   7.673  1.00  0.00    -0.388 OA
ATOM      7  H   UNL     1      16.269  25.130   7.611  1.00  0.00     0.211 HD
ENDBRANCH   2   6
ENDBRANCH   1   2
BRANCH   1   8
ATOM      8  C   UNL     1      19.509  23.909   8.737  1.00  0.00     0.214 C 
BRANCH   8   9
ATOM      9  C   UNL     1      20.713  23.342   9.451  1.00  0.00     0.189 C 
ATOM     10  O   UNL     1      20.898  23.617  10.627  1.00  0.00    -0.294 OA
BRANCH   9  11
ATOM     11  C   UNL     1      21.720  22.483   8.732  1.00  0.00     0.234 C 
BRANCH  11  12
ATOM     12  O   UNL     1      22.897  22.382   9.486  1.00  0.00    -0.388 OA
ATOM     13  H   UNL     1      22.678  22.702  10.399  1.00  0.00     0.211 HD
ENDBRANCH  11  12
ENDBRANCH   9  11
ENDBRANCH   8   9
BRANCH   8  14
ATOM     14  O   UNL     1      18.734  22.834   8.270  1.00  0.00    -0.382 OA
ATOM     15  H   UNL     1      18.308  22.409   9.060  1.00  0.00     0.211 HD
ENDBRANCH   8  14
ENDBRANCH   1   8
BRANCH   1  16
ATOM     16  O   UNL     1      17.982  24.043  10.618  1.00  0.00    -0.387 OA
ATOM     17  H   UNL     1      17.156  24.530  10.880  1.00  0.00     0.211 HD
ENDBRANCH   1  16
TORSDOF 10
ENDMDL
MODEL 3
REMARK VINA RESULT:    -3.606      1.741      4.474
REMARK INTER + INTRA:          -6.693
REMARK INTER:                  -6.168
REMARK INTRA:                  -0.525
REMARK UNBOUND:                -1.505
REMARK SMILES O=C(CO)[C@@H](O)[C@H](O)[C@H](O)CO
REMARK SMILES IDX 7 1 9 2 11 3 12 4 10 6 5 8 2 9 1 10 3 11 4 12 6 14 8 16
REMARK H PARENT 12 5 10 7 4 13 6 15 8 17
REMARK Flexibility Score: inf
ROOT
ATOM      1  C   UNL     1      20.033  23.825   8.751  1.00  0.00     0.181 C 
ENDROOT
BRANCH   1   2
ATOM      2  C   UNL     1      20.891  22.782   9.525  1.00  0.00     0.171 C 
BRANCH   2   3
ATOM      3  C   UNL     1      22.095  22.265   8.717  1.00  0.00     0.190 C 
BRANCH   3   4
ATOM      4  O   UNL     1      23.226  22.160   9.538  1.00  0.00    -0.394 OA
ATOM      5  H   UNL     1      23.015  22.643  10.379  1.00  0.00     0.210 HD
ENDBRANCH   3   4
ENDBRANCH   2   3
BRANCH   2   6
ATOM      6  O   UNL     1      21.323  23.315  10.753  1.00  0.00    -0.388 OA
ATOM      7  H   UNL     1      21.572  22.549  11.333  1.00  0.00     0.211 HD
ENDBRANCH   2   6
ENDBRANCH   1   2
BRANCH   1   8
ATOM      8  C   UNL     1      19.005  24.612   9.619  1.00  0.00     0.214 C 
BRANCH   8   9
ATOM      9  C   UNL     1      18.108  25.502   8.792  1.00  0.00     0.189 C 
ATOM     10  O   UNL     1      17.219  25.002   8.119  1.00  0.00    -0.294 OA
BRANCH   9  11
ATOM     11  C   UNL     1      18.314  26.994   8.740  1.00  0.00     0.234 C 
BRANCH  11  12
ATOM     12  O   UNL     1      19.386  27.363   9.563  1.00  0.00    -0.388 OA
ATOM     13  H   UNL     1      20.167  27.505   8.968  1.00  0.00     0.211 HD
ENDBRANCH  11  12
ENDBRANCH   9  11
ENDBRANCH   8   9
BRANCH   8  14
ATOM     14  O   UNL     1      18.191  23.712  10.328  1.00  0.00    -0.382 OA
ATOM     15  H   UNL     1      18.532  23.675  11.260  1.00  0.00     0.211 HD
ENDBRANCH   8  14
ENDBRANCH   1   8
BRANCH   1  16
ATOM     16  O   UNL     1      19.364  23.174   7.697  1.00  0.00    -0.387 OA
ATOM     17  H   UNL     1      18.391  23.204   7.899  1.00  0.00     0.211 HD
ENDBRANCH   1  16
TORSDOF 10
ENDMDL
MODEL 4
REMARK VINA RESULT:    -3.563      1.892      4.098
REMARK INTER + INTRA:          -6.631
REMARK INTER:                  -5.559
REMARK INTRA:                  -1.072
REMARK UNBOUND:                -1.505
REMARK SMILES O=C(CO)[C@@H](O)[C@H](O)[C@H](O)CO
REMARK SMILES IDX 7 1 9 2 11 3 12 4 10 6 5 8 2 9 1 10 3 11 4 12 6 14 8 16
REMARK H PARENT 12 5 10 7 4 13 6 15 8 17
REMARK Flexibility Score: inf
ROOT
ATOM      1  C   UNL     1      18.595  23.072   8.289  1.00  0.00     0.181 C 
ENDROOT
BRANCH   1   2
ATOM      2  C   UNL     1      19.745  23.268   7.258  1.00  0.00     0.171 C 
BRANCH   2   3
ATOM      3  C   UNL     1      21.077  22.640   7.707  1.00  0.00     0.190 C 
BRANCH   3   4
ATOM      4  O   UNL     1      21.754  23.503   8.579  1.00  0.00    -0.394 OA
ATOM      5  H   UNL     1      21.861  24.366   8.102  1.00  0.00     0.210 HD
ENDBRANCH   3   4
ENDBRANCH   2   3
BRANCH   2   6
ATOM      6  O   UNL     1      19.369  22.762   6.000  1.00  0.00    -0.388 OA
ATOM      7  H   UNL     1      18.403  22.538   6.053  1.00  0.00     0.211 HD
ENDBRANCH   2   6
ENDBRANCH   1   2
BRANCH   1   8
ATOM      8  C   UNL     1      17.845  24.376   8.699  1.00  0.00     0.214 C 
BRANCH   8   9
ATOM      9  C   UNL     1      18.775  25.435   9.240  1.00  0.00     0.189 C 
ATOM     10  O   UNL     1      19.550  25.152  10.141  1.00  0.00    -0.294 OA
BRANCH   9  11
ATOM     11  C   UNL     1      18.737  26.850   8.725  1.00  0.00     0.234 C 
BRANCH  11  12
ATOM     12  O   UNL     1      17.441  27.372   8.836  1.00  0.00    -0.388 OA
ATOM     13  H   UNL     1      16.835  26.600   8.985  1.00  0.00     0.211 HD
ENDBRANCH  11  12
ENDBRANCH   9  11
ENDBRANCH   8   9
BRANCH   8  14
ATOM     14  O   UNL     1      17.175  24.912   7.585  1.00  0.00    -0.382 OA
ATOM     15  H   UNL     1      16.605  25.657   7.912  1.00  0.00     0.211 HD
ENDBRANCH   8  14
ENDBRANCH   1   8
BRANCH   1  16
ATOM     16  O   UNL     1      19.112  22.442   9.436  1.00  0.00    -0.387 OA
ATOM     17  H   UNL     1      19.695  21.698   9.129  1.00  0.00     0.211 HD
ENDBRANCH   1  16
TORSDOF 10
ENDMDL
MODEL 5
REMARK VINA RESULT:    -3.544      1.549      2.585
REMARK INTER + INTRA:          -6.604
REMARK INTER:                  -5.410
REMARK INTRA:                  -1.194
REMARK UNBOUND:                -1.505
REMARK SMILES O=C(CO)[C@@H](O)[C@H](O)[C@H](O)CO
REMARK SMILES IDX 7 1 9 2 11 3 12 4 10 6 5 8 2 9 1 10 3 11 4 12 6 14 8 16
REMARK H PARENT 12 5 10 7 4 13 6 15 8 17
REMARK Flexibility Score: inf
ROOT
ATOM      1  C   UNL     1      17.799  24.705   8.928  1.00  0.00     0.181 C 
ENDROOT
BRANCH   1   2
ATOM      2  C   UNL     1      18.832  25.865   9.029  1.00  0.00     0.171 C 
BRANCH   2   3
ATOM      3  C   UNL     1      18.229  27.246   8.712  1.00  0.00     0.190 C 
BRANCH   3   4
ATOM      4  O   UNL     1      16.875  27.282   9.076  1.00  0.00    -0.394 OA
ATOM      5  H   UNL     1      16.829  27.724   9.964  1.00  0.00     0.210 HD
ENDBRANCH   3   4
ENDBRANCH   2   3
BRANCH   2   6
ATOM      6  O   UNL     1      19.434  25.878  10.300  1.00  0.00    -0.388 OA
ATOM      7  H   UNL     1      19.688  26.818  10.494  1.00  0.00     0.211 HD
ENDBRANCH   2   6
ENDBRANCH   1   2
BRANCH   1   8
ATOM      8  C   UNL     1      18.363  23.287   9.244  1.00  0.00     0.214 C 
BRANCH   8   9
ATOM      9  C   UNL     1      19.694  23.029   8.579  1.00  0.00     0.189 C 
ATOM     10  O   UNL     1      19.795  23.159   7.368  1.00  0.00    -0.294 OA
BRANCH   9  11
ATOM     11  C   UNL     1      20.890  22.567   9.368  1.00  0.00     0.234 C 
BRANCH  11  12
ATOM     12  O   UNL     1      21.209  23.507  10.358  1.00  0.00    -0.388 OA
ATOM     13  H   UNL     1      21.267  24.388   9.907  1.00  0.00     0.211 HD
ENDBRANCH  11  12
ENDBRANCH   9  11
ENDBRANCH   8   9
BRANCH   8  14
ATOM     14  O   UNL     1      18.534  23.140  10.632  1.00  0.00    -0.382 OA
ATOM     15  H   UNL     1      19.340  22.576  10.773  1.00  0.00     0.211 HD
ENDBRANCH   8  14
ENDBRANCH   1   8
BRANCH   1  16
ATOM     16  O   UNL     1      17.229  24.712   7.641  1.00  0.00    -0.387 OA
ATOM     17  H   UNL     1      16.274  24.454   7.737  1.00  0.00     0.211 HD
ENDBRANCH   1  16
TORSDOF 10
ENDMDL
MODEL 6
REMARK VINA RESULT:    -3.533      1.849      2.643
REMARK INTER + INTRA:          -6.587
REMARK INTER:                  -5.474
REMARK INTRA:                  -1.114
REMARK UNBOUND:                -1.505
REMARK SMILES O=C(CO)[C@@H](O)[C@H](O)[C@H](O)CO
REMARK SMILES IDX 7 1 9 2 11 3 12 4 10 6 5 8 2 9 1 10 3 11 4 12 6 14 8 16
REMARK H PARENT 12 5 10 7 4 13 6 15 8 17
REMARK Flexibility Score: inf
ROOT
ATOM      1  C   UNL     1      19.076  24.906   8.877  1.00  0.00     0.181 C 
ENDROOT
BRANCH   1   2
ATOM      2  C   UNL     1      17.542  25.148   8.997  1.00  0.00     0.171 C 
BRANCH   2   3
ATOM      3  C   UNL     1      16.962  24.708  10.354  1.00  0.00     0.190 C 
BRANCH   3   4
ATOM      4  O   UNL     1      17.113  23.325  10.525  1.00  0.00    -0.394 OA
ATOM      5  H   UNL     1      18.087  23.138  10.501  1.00  0.00     0.210 HD
ENDBRANCH   3   4
ENDBRANCH   2   3
BRANCH   2   6
ATOM      6  O   UNL     1      17.237  26.499   8.753  1.00  0.00    -0.388 OA
ATOM      7  H   UNL     1      17.874  27.043   9.284  1.00  0.00     0.211 HD
ENDBRANCH   2   6
ENDBRANCH   1   2
BRANCH   1   8
ATOM      8  C   UNL     1      19.484  23.613   8.109  1.00  0.00     0.214 C 
BRANCH   8   9
ATOM      9  C   UNL     1      20.292  22.662   8.959  1.00  0.00     0.189 C 
ATOM     10  O   UNL     1      19.767  22.123   9.922  1.00  0.00    -0.294 OA
BRANCH   9  11
ATOM     11  C   UNL     1      21.748  22.400   8.677  1.00  0.00     0.234 C 
BRANCH  11  12
ATOM     12  O   UNL     1      22.534  22.810   9.762  1.00  0.00    -0.388 OA
ATOM     13  H   UNL     1      21.910  23.000  10.510  1.00  0.00     0.211 HD
ENDBRANCH  11  12
ENDBRANCH   9  11
ENDBRANCH   8   9
BRANCH   8  14
ATOM     14  O   UNL     1      18.334  22.935   7.670  1.00  0.00    -0.382 OA
ATOM     15  H   UNL     1      17.692  22.917   8.428  1.00  0.00     0.211 HD
ENDBRANCH   8  14
ENDBRANCH   1   8
BRANCH   1  16
ATOM     16  O   UNL     1      19.637  24.888  10.167  1.00  0.00    -0.387 OA
ATOM     17  H   UNL     1      20.605  24.685  10.068  1.00  0.00     0.211 HD
ENDBRANCH   1  16
TORSDOF 10
ENDMDL
MODEL 7
REMARK VINA RESULT:    -3.528      1.808      2.498
REMARK INTER + INTRA:          -6.580
REMARK INTER:                  -5.582
REMARK INTRA:                  -0.998
REMARK UNBOUND:                -1.505
REMARK SMILES O=C(CO)[C@@H](O)[C@H](O)[C@H](O)CO
REMARK SMILES IDX 7 1 9 2 11 3 12 4 10 6 5 8 2 9 1 10 3 11 4 12 6 14 8 16
REMARK H PARENT 12 5 10 7 4 13 6 15 8 17
REMARK Flexibility Score: inf
ROOT
ATOM      1  C   UNL     1      18.710  23.610  10.296  1.00  0.00     0.181 C 
ENDROOT
BRANCH   1   2
ATOM      2  C   UNL     1      18.915  24.946   9.525  1.00  0.00     0.171 C 
BRANCH   2   3
ATOM      3  C   UNL     1      17.600  25.562   9.014  1.00  0.00     0.190 C 
BRANCH   3   4
ATOM      4  O   UNL     1      17.314  25.101   7.721  1.00  0.00    -0.394 OA
ATOM      5  H   UNL     1      18.053  25.413   7.136  1.00  0.00     0.210 HD
ENDBRANCH   3   4
ENDBRANCH   2   3
BRANCH   2   6
ATOM      6  O   UNL     1      19.608  25.873  10.324  1.00  0.00    -0.388 OA
ATOM      7  H   UNL     1      20.386  26.191   9.795  1.00  0.00     0.211 HD
ENDBRANCH   2   6
ENDBRANCH   1   2
BRANCH   1   8
ATOM      8  C   UNL     1      19.988  22.734  10.456  1.00  0.00     0.214 C 
BRANCH   8   9
ATOM      9  C   UNL     1      20.476  22.173   9.141  1.00  0.00     0.189 C 
ATOM     10  O   UNL     1      19.825  21.305   8.579  1.00  0.00    -0.294 OA
BRANCH   9  11
ATOM     11  C   UNL     1      21.775  22.626   8.528  1.00  0.00     0.234 C 
BRANCH  11  12
ATOM     12  O   UNL     1      22.844  22.333   9.386  1.00  0.00    -0.388 OA
ATOM     13  H   UNL     1      23.037  23.162   9.895  1.00  0.00     0.211 HD
ENDBRANCH  11  12
ENDBRANCH   9  11
ENDBRANCH   8   9
BRANCH   8  14
ATOM     14  O   UNL     1      21.026  23.500  11.014  1.00  0.00    -0.382 OA
ATOM     15  H   UNL     1      21.870  22.990  10.895  1.00  0.00     0.211 HD
ENDBRANCH   8  14
ENDBRANCH   1   8
BRANCH   1  16
ATOM     16  O   UNL     1      17.701  22.864   9.658  1.00  0.00    -0.387 OA
ATOM     17  H   UNL     1      17.248  23.469   9.012  1.00  0.00     0.211 HD
ENDBRANCH   1  16
TORSDOF 10
ENDMDL
MODEL 8
REMARK VINA RESULT:    -3.504      1.770      3.957
REMARK INTER + INTRA:          -6.546
REMARK INTER:                  -5.387
REMARK INTRA:                  -1.159
REMARK UNBOUND:                -1.505
REMARK SMILES O=C(CO)[C@@H](O)[C@H](O)[C@H](O)CO
REMARK SMILES IDX 7 1 9 2 11 3 12 4 10 6 5 8 2 9 1 10 3 11 4 12 6 14 8 16
REMARK H PARENT 12 5 10 7 4 13 6 15 8 17
REMARK Flexibility Score: inf
ROOT
ATOM      1  C   UNL     1      20.124  22.878  10.160  1.00  0.00     0.181 C 
ENDROOT
BRANCH   1   2
ATOM      2  C   UNL     1      20.692  22.946   8.712  1.00  0.00     0.171 C 
BRANCH   2   3
ATOM      3  C   UNL     1      21.934  22.061   8.504  1.00  0.00     0.190 C 
BRANCH   3   4
ATOM      4  O   UNL     1      22.923  22.378   9.447  1.00  0.00    -0.394 OA
ATOM      5  H   UNL     1      22.456  22.773  10.229  1.00  0.00     0.210 HD
ENDBRANCH   3   4
ENDBRANCH   2   3
BRANCH   2   6
ATOM      6  O   UNL     1      19.696  22.613   7.777  1.00  0.00    -0.388 OA
ATOM      7  H   UNL     1      20.056  21.878   7.215  1.00  0.00     0.211 HD
ENDBRANCH   2   6
ENDBRANCH   1   2
BRANCH   1   8
ATOM      8  C   UNL     1      18.714  23.516  10.349  1.00  0.00     0.214 C 
BRANCH   8   9
ATOM      9  C   UNL     1      18.651  24.941   9.852  1.00  0.00     0.189 C 
ATOM     10  O   UNL     1      19.459  25.759  10.266  1.00  0.00    -0.294 OA
BRANCH   9  11
ATOM     11  C   UNL     1      17.581  25.391   8.891  1.00  0.00     0.234 C 
BRANCH  11  12
ATOM     12  O   UNL     1      17.747  24.759   7.652  1.00  0.00    -0.388 OA
ATOM     13  H   UNL     1      17.893  25.477   6.983  1.00  0.00     0.211 HD
ENDBRANCH  11  12
ENDBRANCH   9  11
ENDBRANCH   8   9
BRANCH   8  14
ATOM     14  O   UNL     1      17.753  22.768   9.648  1.00  0.00    -0.382 OA
ATOM     15  H   UNL     1      17.559  23.251   8.801  1.00  0.00     0.211 HD
ENDBRANCH   8  14
ENDBRANCH   1   8
BRANCH   1  16
ATOM     16  O   UNL     1      21.040  23.484  11.039  1.00  0.00    -0.387 OA
ATOM     17  H   UNL     1      21.668  24.024  10.489  1.00  0.00     0.211 HD
ENDBRANCH   1  16
TORSDOF 10
ENDMDL
MODEL 9
REMARK VINA RESULT:    -3.490      1.928      3.498
REMARK INTER + INTRA:          -6.526
REMARK INTER:                  -5.025
REMARK INTRA:                  -1.501
REMARK UNBOUND:                -1.505
REMARK SMILES O=C(CO)[C@@H](O)[C@H](O)[C@H](O)CO
REMARK SMILES IDX 7 1 9 2 11 3 12 4 10 6 5 8 2 9 1 10 3 11 4 12 6 14 8 16
REMARK H PARENT 12 5 10 7 4 13 6 15 8 17
REMARK Flexibility Score: inf
ROOT
ATOM      1  C   UNL     1      20.603  23.378   9.744  1.00  0.00     0.181 C 
ENDROOT
BRANCH   1   2
ATOM      2  C   UNL     1      21.577  22.357   9.084  1.00  0.00     0.171 C 
BRANCH   2   3
ATOM      3  C   UNL     1      21.594  22.441   7.546  1.00  0.00     0.190 C 
BRANCH   3   4
ATOM      4  O   UNL     1      20.341  22.089   7.024  1.00  0.00    -0.394 OA
ATOM      5  H   UNL     1      20.275  22.514   6.129  1.00  0.00     0.210 HD
ENDBRANCH   3   4
ENDBRANCH   2   3
BRANCH   2   6
ATOM      6  O   UNL     1      22.878  22.518   9.594  1.00  0.00    -0.388 OA
ATOM      7  H   UNL     1      23.214  21.613   9.826  1.00  0.00     0.211 HD
ENDBRANCH   2   6
ENDBRANCH   1   2
BRANCH   1   8
ATOM      8  C   UNL     1      19.308  22.760  10.351  1.00  0.00     0.214 C 
BRANCH   8   9
ATOM      9  C   UNL     1      18.078  23.586  10.060  1.00  0.00     0.189 C 
ATOM     10  O   UNL     1      17.884  24.616  10.689  1.00  0.00    -0.294 OA
BRANCH   9  11
ATOM     11  C   UNL     1      17.058  23.146   9.044  1.00  0.00     0.234 C 
BRANCH  11  12
ATOM     12  O   UNL     1      17.645  23.057   7.775  1.00  0.00    -0.388 OA
ATOM     13  H   UNL     1      18.523  22.612   7.898  1.00  0.00     0.211 HD
ENDBRANCH  11  12
ENDBRANCH   9  11
ENDBRANCH   8   9
BRANCH   8  14
ATOM     14  O   UNL     1      19.101  21.472   9.825  1.00  0.00    -0.382 OA
ATOM     15  H   UNL     1      19.624  20.837  10.381  1.00  0.00     0.211 HD
ENDBRANCH   8  14
ENDBRANCH   1   8
BRANCH   1  16
ATOM     16  O   UNL     1      20.261  24.361   8.797  1.00  0.00    -0.387 OA
ATOM     17  H   UNL     1      20.261  23.926   7.903  1.00  0.00     0.211 HD
ENDBRANCH   1  16
TORSDOF 10
ENDMDL
