MODEL 1
REMARK VINA RESULT:    -3.454      0.000      0.000
REMARK INTER + INTRA:          -3.970
REMARK INTER:                  -3.959
REMARK INTRA:                  -0.011
REMARK UNBOUND:                -0.011
REMARK SMILES CC(C)[C@@H]([NH3+])C(=O)[O-]
REMARK SMILES IDX 4 1 5 2 6 6 7 7 8 8 2 9 1 10 3 11
REMARK H PARENT 5 3 5 4 5 5
REMARK Flexibility Score: inf
ROOT
ATOM      1  C   UNL     1    -138.818  41.289  89.458  1.00  0.00     0.230 C 
ENDROOT
BRANCH   1   2
ATOM      2  N   UNL     1    -137.985  42.500  89.388  1.00  0.00    -0.350 N 
ATOM      3  H   UNL     1    -138.513  43.333  89.735  1.00  0.00     0.345 HD
ATOM      4  H   UNL     1    -137.123  42.377  89.969  1.00  0.00     0.345 HD
ATOM      5  H   UNL     1    -137.672  42.667  88.405  1.00  0.00     0.345 HD
ENDBRANCH   1   2
BRANCH   1   6
ATOM      6  C   UNL     1    -140.266  41.664  89.255  1.00  0.00     0.099 C 
ATOM      7  O   UNL     1    -141.186  40.918  89.686  1.00  0.00    -0.544 OA
ATOM      8  O   UNL     1    -140.592  42.843  88.596  1.00  0.00    -0.544 OA
ENDBRANCH   1   6
BRANCH   1   9
ATOM      9  C   UNL     1    -138.371  40.214  88.420  1.00  0.00     0.047 C 
ATOM     10  C   UNL     1    -136.878  39.875  88.578  1.00  0.00     0.014 C 
ATOM     11  C   UNL     1    -138.635  40.669  86.975  1.00  0.00     0.014 C 
ENDBRANCH   1   9
TORSDOF 3
ENDMDL
MODEL 2
REMARK VINA RESULT:    -3.267      2.362      3.034
REMARK INTER + INTRA:          -3.755
REMARK INTER:                  -3.705
REMARK INTRA:                  -0.050
REMARK UNBOUND:                -0.011
REMARK SMILES CC(C)[C@@H]([NH3+])C(=O)[O-]
REMARK SMILES IDX 4 1 5 2 6 6 7 7 8 8 2 9 1 10 3 11
REMARK H PARENT 5 3 5 4 5 5
REMARK Flexibility Score: inf
ROOT
ATOM      1  C   UNL     1    -138.972  41.072  87.556  1.00  0.00     0.230 C 
ENDROOT
BRANCH   1   2
ATOM      2  N   UNL     1    -140.441  41.014  87.623  1.00  0.00    -0.350 N 
ATOM      3  H   UNL     1    -140.752  40.406  88.415  1.00  0.00     0.345 HD
ATOM      4  H   UNL     1    -140.832  41.976  87.759  1.00  0.00     0.345 HD
ATOM      5  H   UNL     1    -140.830  40.648  86.726  1.00  0.00     0.345 HD
ENDBRANCH   1   2
BRANCH   1   6
ATOM      6  C   UNL     1    -138.386  40.239  88.669  1.00  0.00     0.099 C 
ATOM      7  O   UNL     1    -137.180  39.875  88.628  1.00  0.00    -0.544 OA
ATOM      8  O   UNL     1    -139.174  39.875  89.754  1.00  0.00    -0.544 OA
ENDBRANCH   1   6
BRANCH   1   9
ATOM      9  C   UNL     1    -138.435  40.602  86.169  1.00  0.00     0.047 C 
ATOM     10  C   UNL     1    -137.518  41.665  85.538  1.00  0.00     0.014 C 
ATOM     11  C   UNL     1    -139.578  40.278  85.192  1.00  0.00     0.014 C 
ENDBRANCH   1   9
TORSDOF 3
ENDMDL
MODEL 3
REMARK VINA RESULT:    -3.142     21.829     22.588
REMARK INTER + INTRA:          -3.612
REMARK INTER:                  -3.552
REMARK INTRA:                  -0.060
REMARK UNBOUND:                -0.011
REMARK SMILES CC(C)[C@@H]([NH3+])C(=O)[O-]
REMARK SMILES IDX 4 1 5 2 6 6 7 7 8 8 2 9 1 10 3 11
REMARK H PARENT 5 3 5 4 5 5
REMARK Flexibility Score: inf
ROOT
ATOM      1  C   UNL     1    -153.131  42.299  71.656  1.00  0.00     0.230 C 
ENDROOT
BRANCH   1   2
ATOM      2  N   UNL     1    -154.595  42.415  71.748  1.00  0.00    -0.350 N 
ATOM      3  H   UNL     1    -154.916  43.346  71.394  1.00  0.00     0.345 HD
ATOM      4  H   UNL     1    -155.052  41.660  71.185  1.00  0.00     0.345 HD
ATOM      5  H   UNL     1    -154.907  42.291  72.738  1.00  0.00     0.345 HD
ENDBRANCH   1   2
BRANCH   1   6
ATOM      6  C   UNL     1    -152.765  40.901  71.225  1.00  0.00     0.099 C 
ATOM      7  O   UNL     1    -152.624  39.985  72.080  1.00  0.00    -0.544 OA
ATOM      8  O   UNL     1    -152.590  40.612  69.877  1.00  0.00    -0.544 OA
ENDBRANCH   1   6
BRANCH   1   9
ATOM      9  C   UNL     1    -152.524  43.357  70.684  1.00  0.00     0.047 C 
ATOM     10  C   UNL     1    -151.101  43.756  71.113  1.00  0.00     0.014 C 
ATOM     11  C   UNL     1    -153.397  44.621  70.595  1.00  0.00     0.014 C 
ENDBRANCH   1   9
TORSDOF 3
ENDMDL
MODEL 4
REMARK VINA RESULT:    -3.100      1.209      1.533
REMARK INTER + INTRA:          -3.564
REMARK INTER:                  -3.528
REMARK INTRA:                  -0.036
REMARK UNBOUND:                -0.011
REMARK SMILES CC(C)[C@@H]([NH3+])C(=O)[O-]
REMARK SMILES IDX 4 1 5 2 6 6 7 7 8 8 2 9 1 10 3 11
REMARK H PARENT 5 3 5 4 5 5
REMARK Flexibility Score: inf
ROOT
ATOM      1  C   UNL     1    -138.542  41.264  88.781  1.00  0.00     0.230 C 
ENDROOT
BRANCH   1   2
ATOM      2  N   UNL     1    -137.990  42.497  89.364  1.00  0.00    -0.350 N 
ATOM      3  H   UNL     1    -138.012  42.454  90.409  1.00  0.00     0.345 HD
ATOM      4  H   UNL     1    -137.000  42.631  89.050  1.00  0.00     0.345 HD
ATOM      5  H   UNL     1    -138.532  43.327  89.036  1.00  0.00     0.345 HD
ENDBRANCH   1   2
BRANCH   1   6
ATOM      6  C   UNL     1    -139.856  40.939  89.447  1.00  0.00     0.099 C 
ATOM      7  O   UNL     1    -139.992  39.875  90.108  1.00  0.00    -0.544 OA
ATOM      8  O   UNL     1    -140.926  41.821  89.342  1.00  0.00    -0.544 OA
ENDBRANCH   1   6
BRANCH   1   9
ATOM      9  C   UNL     1    -138.716  41.380  87.235  1.00  0.00     0.047 C 
ATOM     10  C   UNL     1    -137.575  40.663  86.491  1.00  0.00     0.014 C 
ATOM     11  C   UNL     1    -138.776  42.846  86.774  1.00  0.00     0.014 C 
ENDBRANCH   1   9
TORSDOF 3
ENDMDL
MODEL 5
REMARK VINA RESULT:    -3.047     16.118     16.904
REMARK INTER + INTRA:          -3.504
REMARK INTER:                  -3.459
REMARK INTRA:                  -0.045
REMARK UNBOUND:                -0.011
REMARK SMILES CC(C)[C@@H]([NH3+])C(=O)[O-]
REMARK SMILES IDX 4 1 5 2 6 6 7 7 8 8 2 9 1 10 3 11
REMARK H PARENT 5 3 5 4 5 5
REMARK Flexibility Score: inf
ROOT
ATOM      1  C   UNL     1    -140.983  57.713  85.630  1.00  0.00     0.230 C 
ENDROOT
BRANCH   1   2
ATOM      2  N   UNL     1    -142.027  57.764  86.666  1.00  0.00    -0.350 N 
ATOM      3  H   UNL     1    -142.251  58.754  86.918  1.00  0.00     0.345 HD
ATOM      4  H   UNL     1    -142.897  57.294  86.324  1.00  0.00     0.345 HD
ATOM      5  H   UNL     1    -141.714  57.247  87.520  1.00  0.00     0.345 HD
ENDBRANCH   1   2
BRANCH   1   6
ATOM      6  C   UNL     1    -140.093  58.924  85.755  1.00  0.00     0.099 C 
ATOM      7  O   UNL     1    -139.555  59.211  86.858  1.00  0.00    -0.544 OA
ATOM      8  O   UNL     1    -139.853  59.728  84.647  1.00  0.00    -0.544 OA
ENDBRANCH   1   6
BRANCH   1   9
ATOM      9  C   UNL     1    -140.148  56.398  85.710  1.00  0.00     0.047 C 
ATOM     10  C   UNL     1    -138.972  56.424  84.718  1.00  0.00     0.014 C 
ATOM     11  C   UNL     1    -141.010  55.154  85.439  1.00  0.00     0.014 C 
ENDBRANCH   1   9
TORSDOF 3
ENDMDL
MODEL 6
REMARK VINA RESULT:    -3.034     20.672     21.559
REMARK INTER + INTRA:          -3.488
REMARK INTER:                  -3.440
REMARK INTRA:                  -0.048
REMARK UNBOUND:                -0.011
REMARK SMILES CC(C)[C@@H]([NH3+])C(=O)[O-]
REMARK SMILES IDX 4 1 5 2 6 6 7 7 8 8 2 9 1 10 3 11
REMARK H PARENT 5 3 5 4 5 5
REMARK Flexibility Score: inf
ROOT
ATOM      1  C   UNL     1    -151.960  41.217  72.261  1.00  0.00     0.230 C 
ENDROOT
BRANCH   1   2
ATOM      2  N   UNL     1    -152.572  39.887  72.409  1.00  0.00    -0.350 N 
ATOM      3  H   UNL     1    -152.058  39.321  73.123  1.00  0.00     0.345 HD
ATOM      4  H   UNL     1    -153.571  39.982  72.706  1.00  0.00     0.345 HD
ATOM      5  H   UNL     1    -152.569  39.384  71.494  1.00  0.00     0.345 HD
ENDBRANCH   1   2
BRANCH   1   6
ATOM      6  C   UNL     1    -150.471  41.066  72.073  1.00  0.00     0.099 C 
ATOM      7  O   UNL     1    -149.843  40.143  72.658  1.00  0.00    -0.544 OA
ATOM      8  O   UNL     1    -149.783  41.943  71.243  1.00  0.00    -0.544 OA
ENDBRANCH   1   6
BRANCH   1   9
ATOM      9  C   UNL     1    -152.591  42.019  71.081  1.00  0.00     0.047 C 
ATOM     10  C   UNL     1    -153.879  42.738  71.522  1.00  0.00     0.014 C 
ATOM     11  C   UNL     1    -152.905  41.115  69.878  1.00  0.00     0.014 C 
ENDBRANCH   1   9
TORSDOF 3
ENDMDL
MODEL 7
REMARK VINA RESULT:    -3.000      2.188      2.927
REMARK INTER + INTRA:          -3.450
REMARK INTER:                  -3.382
REMARK INTRA:                  -0.068
REMARK UNBOUND:                -0.011
REMARK SMILES CC(C)[C@@H]([NH3+])C(=O)[O-]
REMARK SMILES IDX 4 1 5 2 6 6 7 7 8 8 2 9 1 10 3 11
REMARK H PARENT 5 3 5 4 5 5
REMARK Flexibility Score: inf
ROOT
ATOM      1  C   UNL     1    -138.257  42.202  88.149  1.00  0.00     0.230 C 
ENDROOT
BRANCH   1   2
ATOM      2  N   UNL     1    -137.892  42.429  89.556  1.00  0.00    -0.350 N 
ATOM      3  H   UNL     1    -137.314  41.636  89.921  1.00  0.00     0.345 HD
ATOM      4  H   UNL     1    -137.346  43.317  89.647  1.00  0.00     0.345 HD
ATOM      5  H   UNL     1    -138.752  42.534  90.140  1.00  0.00     0.345 HD
ENDBRANCH   1   2
BRANCH   1   6
ATOM      6  C   UNL     1    -138.170  43.504  87.392  1.00  0.00     0.099 C 
ATOM      7  O   UNL     1    -137.049  43.999  87.098  1.00  0.00    -0.544 OA
ATOM      8  O   UNL     1    -139.332  44.162  87.006  1.00  0.00    -0.544 OA
ENDBRANCH   1   6
BRANCH   1   9
ATOM      9  C   UNL     1    -137.361  41.112  87.484  1.00  0.00     0.047 C 
ATOM     10  C   UNL     1    -138.038  40.521  86.234  1.00  0.00     0.014 C 
ATOM     11  C   UNL     1    -137.024  39.973  88.461  1.00  0.00     0.014 C 
ENDBRANCH   1   9
TORSDOF 3
ENDMDL
MODEL 8
REMARK VINA RESULT:    -2.899     17.701     18.644
REMARK INTER + INTRA:          -3.333
REMARK INTER:                  -3.267
REMARK INTRA:                  -0.066
REMARK UNBOUND:                -0.011
REMARK SMILES CC(C)[C@@H]([NH3+])C(=O)[O-]
REMARK SMILES IDX 4 1 5 2 6 6 7 7 8 8 2 9 1 10 3 11
REMARK H PARENT 5 3 5 4 5 5
REMARK Flexibility Score: inf
ROOT
ATOM      1  C   UNL     1    -151.085  55.629  88.433  1.00  0.00     0.230 C 
ENDROOT
BRANCH   1   2
ATOM      2  N   UNL     1    -151.923  56.766  88.845  1.00  0.00    -0.350 N 
ATOM      3  H   UNL     1    -151.421  57.363  89.543  1.00  0.00     0.345 HD
ATOM      4  H   UNL     1    -152.171  57.351  88.013  1.00  0.00     0.345 HD
ATOM      5  H   UNL     1    -152.820  56.424  89.259  1.00  0.00     0.345 HD
ENDBRANCH   1   2
BRANCH   1   6
ATOM      6  C   UNL     1    -151.750  54.340  88.846  1.00  0.00     0.099 C 
ATOM      7  O   UNL     1    -151.194  53.571  89.675  1.00  0.00    -0.544 OA
ATOM      8  O   UNL     1    -152.990  53.997  88.320  1.00  0.00    -0.544 OA
ENDBRANCH   1   6
BRANCH   1   9
ATOM      9  C   UNL     1    -150.802  55.642  86.899  1.00  0.00     0.047 C 
ATOM     10  C   UNL     1    -149.579  54.776  86.551  1.00  0.00     0.014 C 
ATOM     11  C   UNL     1    -150.578  57.068  86.370  1.00  0.00     0.014 C 
ENDBRANCH   1   9
TORSDOF 3
ENDMDL
MODEL 9
REMARK VINA RESULT:    -2.714      2.255      3.318
REMARK INTER + INTRA:          -3.121
REMARK INTER:                  -3.070
REMARK INTRA:                  -0.051
REMARK UNBOUND:                -0.011
REMARK SMILES CC(C)[C@@H]([NH3+])C(=O)[O-]
REMARK SMILES IDX 4 1 5 2 6 6 7 7 8 8 2 9 1 10 3 11
REMARK H PARENT 5 3 5 4 5 5
REMARK Flexibility Score: inf
ROOT
ATOM      1  C   UNL     1    -138.769  41.721  88.509  1.00  0.00     0.230 C 
ENDROOT
BRANCH   1   2
ATOM      2  N   UNL     1    -138.113  42.165  89.749  1.00  0.00    -0.350 N 
ATOM      3  H   UNL     1    -138.639  41.827  90.588  1.00  0.00     0.345 HD
ATOM      4  H   UNL     1    -137.135  41.795  89.790  1.00  0.00     0.345 HD
ATOM      5  H   UNL     1    -138.049  43.207  89.771  1.00  0.00     0.345 HD
ENDBRANCH   1   2
BRANCH   1   6
ATOM      6  C   UNL     1    -137.999  40.564  87.920  1.00  0.00     0.099 C 
ATOM      7  O   UNL     1    -137.230  39.875  88.643  1.00  0.00    -0.544 OA
ATOM      8  O   UNL     1    -138.143  40.246  86.575  1.00  0.00    -0.544 OA
ENDBRANCH   1   6
BRANCH   1   9
ATOM      9  C   UNL     1    -140.261  41.332  88.747  1.00  0.00     0.047 C 
ATOM     10  C   UNL     1    -141.182  42.558  88.623  1.00  0.00     0.014 C 
ATOM     11  C   UNL     1    -140.470  40.681  90.125  1.00  0.00     0.014 C 
ENDBRANCH   1   9
TORSDOF 3
ENDMDL
