MODEL 1
REMARK VINA RESULT:    -5.116      0.000      0.000
REMARK INTER + INTRA:         -11.712
REMARK INTER:                  -9.603
REMARK INTRA:                  -2.109
REMARK UNBOUND:                -2.109
REMARK SMILES O=C([O-])CCCCCCCCCCCCCCC(=O)[O-]
REMARK SMILES IDX 10 1 9 2 8 3 7 4 6 5 5 6 4 7 2 8 1 9 3 10 11 11 12 12 13 13
REMARK SMILES IDX 14 14 15 15 16 16 17 17 18 18 19 19 20 20
REMARK H PARENT
REMARK Flexibility Score: inf
ROOT
ATOM      1  C   UNL     1       9.728  17.442  70.296  1.00  0.00     0.000 C 
ENDROOT
BRANCH   1   2
ATOM      2  C   UNL     1       9.820  17.026  71.774  1.00  0.00     0.000 C 
BRANCH   2   3
ATOM      3  C   UNL     1      11.200  16.460  72.146  1.00  0.00     0.000 C 
BRANCH   3   4
ATOM      4  C   UNL     1      11.112  14.955  72.444  1.00  0.00     0.000 C 
BRANCH   4   5
ATOM      5  C   UNL     1      11.800  14.098  71.369  1.00  0.00     0.000 C 
BRANCH   5   6
ATOM      6  C   UNL     1      10.854  13.056  70.747  1.00  0.00     0.006 C 
BRANCH   6   7
ATOM      7  C   UNL     1      10.236  13.549  69.432  1.00  0.00     0.053 C 
BRANCH   7   8
ATOM      8  C   UNL     1      10.136  12.447  68.422  1.00  0.00     0.041 C 
ATOM      9  O   UNL     1      10.544  12.627  67.245  1.00  0.00    -0.550 OA
ATOM     10  O   UNL     1       9.561  11.231  68.773  1.00  0.00    -0.550 OA
ENDBRANCH   7   8
ENDBRANCH   6   7
ENDBRANCH   5   6
ENDBRANCH   4   5
ENDBRANCH   3   4
ENDBRANCH   2   3
ENDBRANCH   1   2
BRANCH   1  11
ATOM     11  C   UNL     1      11.107  17.518  69.617  1.00  0.00     0.000 C 
BRANCH  11  12
ATOM     12  C   UNL     1      11.078  18.340  68.318  1.00  0.00     0.000 C 
BRANCH  12  13
ATOM     13  C   UNL     1      11.420  17.498  67.076  1.00  0.00     0.000 C 
BRANCH  13  14
ATOM     14  C   UNL     1      11.640  16.014  67.412  1.00  0.00     0.000 C 
BRANCH  14  15
ATOM     15  C   UNL     1      13.107  15.586  67.261  1.00  0.00     0.000 C 
BRANCH  15  16
ATOM     16  C   UNL     1      13.564  14.757  68.470  1.00  0.00     0.006 C 
BRANCH  16  17
ATOM     17  C   UNL     1      14.381  15.587  69.470  1.00  0.00     0.053 C 
BRANCH  17  18
ATOM     18  C   UNL     1      15.488  14.787  70.083  1.00  0.00     0.041 C 
ATOM     19  O   UNL     1      15.263  14.055  71.083  1.00  0.00    -0.550 OA
ATOM     20  O   UNL     1      16.761  14.823  69.530  1.00  0.00    -0.550 OA
ENDBRANCH  17  18
ENDBRANCH  16  17
ENDBRANCH  15  16
ENDBRANCH  14  15
ENDBRANCH  13  14
ENDBRANCH  12  13
ENDBRANCH  11  12
ENDBRANCH   1  11
TORSDOF 15
ENDMDL
MODEL 2
REMARK VINA RESULT:    -5.083      3.559      5.412
REMARK INTER + INTRA:         -11.650
REMARK INTER:                  -9.651
REMARK INTRA:                  -1.999
REMARK UNBOUND:                -2.109
REMARK SMILES O=C([O-])CCCCCCCCCCCCCCC(=O)[O-]
REMARK SMILES IDX 10 1 9 2 8 3 7 4 6 5 5 6 4 7 2 8 1 9 3 10 11 11 12 12 13 13
REMARK SMILES IDX 14 14 15 15 16 16 17 17 18 18 19 19 20 20
REMARK H PARENT
REMARK Flexibility Score: inf
ROOT
ATOM      1  C   UNL     1      13.244  14.527  70.619  1.00  0.00     0.000 C 
ENDROOT
BRANCH   1   2
ATOM      2  C   UNL     1      13.738  15.937  70.258  1.00  0.00     0.000 C 
BRANCH   2   3
ATOM      3  C   UNL     1      13.079  17.032  71.112  1.00  0.00     0.000 C 
BRANCH   3   4
ATOM      4  C   UNL     1      12.142  16.417  72.164  1.00  0.00     0.000 C 
BRANCH   4   5
ATOM      5  C   UNL     1      10.667  16.777  71.925  1.00  0.00     0.000 C 
BRANCH   5   6
ATOM      6  C   UNL     1       9.781  16.488  73.148  1.00  0.00     0.006 C 
BRANCH   6   7
ATOM      7  C   UNL     1       8.507  17.343  73.156  1.00  0.00     0.053 C 
BRANCH   7   8
ATOM      8  C   UNL     1       7.720  17.151  74.416  1.00  0.00     0.041 C 
ATOM      9  O   UNL     1       7.692  16.026  74.981  1.00  0.00    -0.550 OA
ATOM     10  O   UNL     1       6.989  18.207  74.947  1.00  0.00    -0.550 OA
ENDBRANCH   7   8
ENDBRANCH   6   7
ENDBRANCH   5   6
ENDBRANCH   4   5
ENDBRANCH   3   4
ENDBRANCH   2   3
ENDBRANCH   1   2
BRANCH   1  11
ATOM     11  C   UNL     1      13.495  13.507  69.493  1.00  0.00     0.000 C 
BRANCH  11  12
ATOM     12  C   UNL     1      12.204  13.119  68.753  1.00  0.00     0.000 C 
BRANCH  12  13
ATOM     13  C   UNL     1      10.946  13.293  69.623  1.00  0.00     0.000 C 
BRANCH  13  14
ATOM     14  C   UNL     1       9.726  13.753  68.810  1.00  0.00     0.000 C 
BRANCH  14  15
ATOM     15  C   UNL     1       9.336  15.209  69.104  1.00  0.00     0.000 C 
BRANCH  15  16
ATOM     16  C   UNL     1       9.643  16.114  67.902  1.00  0.00     0.006 C 
BRANCH  16  17
ATOM     17  C   UNL     1      10.803  17.080  68.182  1.00  0.00     0.053 C 
BRANCH  17  18
ATOM     18  C   UNL     1      11.787  17.109  67.054  1.00  0.00     0.041 C 
ATOM     19  O   UNL     1      11.817  18.088  66.263  1.00  0.00    -0.550 OA
ATOM     20  O   UNL     1      12.694  16.069  66.896  1.00  0.00    -0.550 OA
ENDBRANCH  17  18
ENDBRANCH  16  17
ENDBRANCH  15  16
ENDBRANCH  14  15
ENDBRANCH  13  14
ENDBRANCH  12  13
ENDBRANCH  11  12
ENDBRANCH   1  11
TORSDOF 15
ENDMDL
MODEL 3
REMARK VINA RESULT:    -5.049      2.198      4.713
REMARK INTER + INTRA:         -11.587
REMARK INTER:                  -9.475
REMARK INTRA:                  -2.112
REMARK UNBOUND:                -2.109
REMARK SMILES O=C([O-])CCCCCCCCCCCCCCC(=O)[O-]
REMARK SMILES IDX 10 1 9 2 8 3 7 4 6 5 5 6 4 7 2 8 1 9 3 10 11 11 12 12 13 13
REMARK SMILES IDX 14 14 15 15 16 16 17 17 18 18 19 19 20 20
REMARK H PARENT
REMARK Flexibility Score: inf
ROOT
ATOM      1  C   UNL     1      10.900  15.937  71.724  1.00  0.00     0.000 C 
ENDROOT
BRANCH   1   2
ATOM      2  C   UNL     1       9.877  16.546  72.697  1.00  0.00     0.000 C 
BRANCH   2   3
ATOM      3  C   UNL     1       9.041  17.664  72.054  1.00  0.00     0.000 C 
BRANCH   3   4
ATOM      4  C   UNL     1       9.310  17.749  70.543  1.00  0.00     0.000 C 
BRANCH   4   5
ATOM      5  C   UNL     1       9.990  19.066  70.136  1.00  0.00     0.000 C 
BRANCH   5   6
ATOM      6  C   UNL     1      10.882  18.913  68.892  1.00  0.00     0.006 C 
BRANCH   6   7
ATOM      7  C   UNL     1      10.863  17.482  68.339  1.00  0.00     0.053 C 
BRANCH   7   8
ATOM      8  C   UNL     1      11.630  17.375  67.056  1.00  0.00     0.041 C 
ATOM      9  O   UNL     1      12.251  16.316  66.776  1.00  0.00    -0.550 OA
ATOM     10  O   UNL     1      11.685  18.457  66.186  1.00  0.00    -0.550 OA
ENDBRANCH   7   8
ENDBRANCH   6   7
ENDBRANCH   5   6
ENDBRANCH   4   5
ENDBRANCH   3   4
ENDBRANCH   2   3
ENDBRANCH   1   2
BRANCH   1  11
ATOM     11  C   UNL     1      12.354  16.164  72.176  1.00  0.00     0.000 C 
BRANCH  11  12
ATOM     12  C   UNL     1      13.180  16.937  71.134  1.00  0.00     0.000 C 
BRANCH  12  13
ATOM     13  C   UNL     1      13.729  16.027  70.020  1.00  0.00     0.000 C 
BRANCH  13  14
ATOM     14  C   UNL     1      14.242  14.682  70.557  1.00  0.00     0.000 C 
BRANCH  14  15
ATOM     15  C   UNL     1      13.624  13.480  69.826  1.00  0.00     0.000 C 
BRANCH  15  16
ATOM     16  C   UNL     1      12.331  13.883  69.102  1.00  0.00     0.006 C 
BRANCH  16  17
ATOM     17  C   UNL     1      11.655  12.690  68.412  1.00  0.00     0.053 C 
BRANCH  17  18
ATOM     18  C   UNL     1      10.166  12.727  68.573  1.00  0.00     0.041 C 
ATOM     19  O   UNL     1       9.493  11.666  68.490  1.00  0.00    -0.550 OA
ATOM     20  O   UNL     1       9.525  13.928  68.847  1.00  0.00    -0.550 OA
ENDBRANCH  17  18
ENDBRANCH  16  17
ENDBRANCH  15  16
ENDBRANCH  14  15
ENDBRANCH  13  14
ENDBRANCH  12  13
ENDBRANCH  11  12
ENDBRANCH   1  11
TORSDOF 15
ENDMDL
MODEL 4
REMARK VINA RESULT:    -5.033      3.109      4.511
REMARK INTER + INTRA:         -11.555
REMARK INTER:                  -9.567
REMARK INTRA:                  -1.989
REMARK UNBOUND:                -2.109
REMARK SMILES O=C([O-])CCCCCCCCCCCCCCC(=O)[O-]
REMARK SMILES IDX 10 1 9 2 8 3 7 4 6 5 5 6 4 7 2 8 1 9 3 10 11 11 12 12 13 13
REMARK SMILES IDX 14 14 15 15 16 16 17 17 18 18 19 19 20 20
REMARK H PARENT
REMARK Flexibility Score: inf
ROOT
ATOM      1  C   UNL     1      10.135  16.138  68.005  1.00  0.00     0.000 C 
ENDROOT
BRANCH   1   2
ATOM      2  C   UNL     1      10.217  17.459  68.788  1.00  0.00     0.000 C 
BRANCH   2   3
ATOM      3  C   UNL     1      11.103  17.352  70.039  1.00  0.00     0.000 C 
BRANCH   3   4
ATOM      4  C   UNL     1      10.249  17.356  71.317  1.00  0.00     0.000 C 
BRANCH   4   5
ATOM      5  C   UNL     1      10.766  16.371  72.378  1.00  0.00     0.000 C 
BRANCH   5   6
ATOM      6  C   UNL     1       9.754  16.135  73.512  1.00  0.00     0.006 C 
BRANCH   6   7
ATOM      7  C   UNL     1       8.581  17.123  73.455  1.00  0.00     0.053 C 
BRANCH   7   8
ATOM      8  C   UNL     1       7.651  16.944  74.616  1.00  0.00     0.041 C 
ATOM      9  O   UNL     1       7.562  15.827  75.190  1.00  0.00    -0.550 OA
ATOM     10  O   UNL     1       6.859  18.003  75.042  1.00  0.00    -0.550 OA
ENDBRANCH   7   8
ENDBRANCH   6   7
ENDBRANCH   5   6
ENDBRANCH   4   5
ENDBRANCH   3   4
ENDBRANCH   2   3
ENDBRANCH   1   2
BRANCH   1  11
ATOM     11  C   UNL     1       9.355  15.049  68.762  1.00  0.00     0.000 C 
BRANCH  11  12
ATOM     12  C   UNL     1       9.985  13.656  68.605  1.00  0.00     0.000 C 
BRANCH  12  13
ATOM     13  C   UNL     1      10.614  13.138  69.911  1.00  0.00     0.000 C 
BRANCH  13  14
ATOM     14  C   UNL     1      11.994  13.755  70.187  1.00  0.00     0.000 C 
BRANCH  14  15
ATOM     15  C   UNL     1      12.945  13.634  68.987  1.00  0.00     0.000 C 
BRANCH  15  16
ATOM     16  C   UNL     1      13.568  14.994  68.640  1.00  0.00     0.006 C 
BRANCH  16  17
ATOM     17  C   UNL     1      14.341  15.598  69.822  1.00  0.00     0.053 C 
BRANCH  17  18
ATOM     18  C   UNL     1      15.518  14.755  70.204  1.00  0.00     0.041 C 
ATOM     19  O   UNL     1      15.445  13.974  71.189  1.00  0.00    -0.550 OA
ATOM     20  O   UNL     1      16.685  14.807  69.452  1.00  0.00    -0.550 OA
ENDBRANCH  17  18
ENDBRANCH  16  17
ENDBRANCH  15  16
ENDBRANCH  14  15
ENDBRANCH  13  14
ENDBRANCH  12  13
ENDBRANCH  11  12
ENDBRANCH   1  11
TORSDOF 15
ENDMDL
MODEL 5
REMARK VINA RESULT:    -5.020      3.670      6.166
REMARK INTER + INTRA:         -11.532
REMARK INTER:                  -9.518
REMARK INTRA:                  -2.014
REMARK UNBOUND:                -2.109
REMARK SMILES O=C([O-])CCCCCCCCCCCCCCC(=O)[O-]
REMARK SMILES IDX 10 1 9 2 8 3 7 4 6 5 5 6 4 7 2 8 1 9 3 10 11 11 12 12 13 13
REMARK SMILES IDX 14 14 15 15 16 16 17 17 18 18 19 19 20 20
REMARK H PARENT
REMARK Flexibility Score: inf
ROOT
ATOM      1  C   UNL     1      13.482  14.589  70.796  1.00  0.00     0.000 C 
ENDROOT
BRANCH   1   2
ATOM      2  C   UNL     1      13.563  13.491  69.723  1.00  0.00     0.000 C 
BRANCH   2   3
ATOM      3  C   UNL     1      12.359  13.504  68.768  1.00  0.00     0.000 C 
BRANCH   3   4
ATOM      4  C   UNL     1      11.039  13.421  69.551  1.00  0.00     0.000 C 
BRANCH   4   5
ATOM      5  C   UNL     1       9.851  14.011  68.773  1.00  0.00     0.000 C 
BRANCH   5   6
ATOM      6  C   UNL     1       9.811  15.547  68.827  1.00  0.00     0.006 C 
BRANCH   6   7
ATOM      7  C   UNL     1       9.948  16.180  67.436  1.00  0.00     0.053 C 
BRANCH   7   8
ATOM      8  C   UNL     1      11.219  16.962  67.308  1.00  0.00     0.041 C 
ATOM      9  O   UNL     1      11.258  18.170  67.660  1.00  0.00    -0.550 OA
ATOM     10  O   UNL     1      12.353  16.365  66.769  1.00  0.00    -0.550 OA
ENDBRANCH   7   8
ENDBRANCH   6   7
ENDBRANCH   5   6
ENDBRANCH   4   5
ENDBRANCH   3   4
ENDBRANCH   2   3
ENDBRANCH   1   2
BRANCH   1  11
ATOM     11  C   UNL     1      13.516  16.006  70.195  1.00  0.00     0.000 C 
BRANCH  11  12
ATOM     12  C   UNL     1      12.520  16.958  70.876  1.00  0.00     0.000 C 
BRANCH  12  13
ATOM     13  C   UNL     1      12.043  16.438  72.245  1.00  0.00     0.000 C 
BRANCH  13  14
ATOM     14  C   UNL     1      10.523  16.221  72.296  1.00  0.00     0.000 C 
BRANCH  14  15
ATOM     15  C   UNL     1       9.736  17.428  71.762  1.00  0.00     0.000 C 
BRANCH  15  16
ATOM     16  C   UNL     1       8.556  17.766  72.685  1.00  0.00     0.006 C 
BRANCH  16  17
ATOM     17  C   UNL     1       8.573  16.938  73.978  1.00  0.00     0.053 C 
BRANCH  17  18
ATOM     18  C   UNL     1       7.326  17.140  74.783  1.00  0.00     0.041 C 
ATOM     19  O   UNL     1       6.528  18.070  74.493  1.00  0.00    -0.550 OA
ATOM     20  O   UNL     1       7.030  16.281  75.834  1.00  0.00    -0.550 OA
ENDBRANCH  17  18
ENDBRANCH  16  17
ENDBRANCH  15  16
ENDBRANCH  14  15
ENDBRANCH  13  14
ENDBRANCH  12  13
ENDBRANCH  11  12
ENDBRANCH   1  11
TORSDOF 15
ENDMDL
MODEL 6
REMARK VINA RESULT:    -5.015      0.597      5.100
REMARK INTER + INTRA:         -11.522
REMARK INTER:                  -9.173
REMARK INTRA:                  -2.349
REMARK UNBOUND:                -2.109
REMARK SMILES O=C([O-])CCCCCCCCCCCCCCC(=O)[O-]
REMARK SMILES IDX 10 1 9 2 8 3 7 4 6 5 5 6 4 7 2 8 1 9 3 10 11 11 12 12 13 13
REMARK SMILES IDX 14 14 15 15 16 16 17 17 18 18 19 19 20 20
REMARK H PARENT
REMARK Flexibility Score: inf
ROOT
ATOM      1  C   UNL     1       9.849  17.125  69.616  1.00  0.00     0.000 C 
ENDROOT
BRANCH   1   2
ATOM      2  C   UNL     1      10.792  18.203  69.055  1.00  0.00     0.000 C 
BRANCH   2   3
ATOM      3  C   UNL     1      11.362  17.832  67.677  1.00  0.00     0.000 C 
BRANCH   3   4
ATOM      4  C   UNL     1      11.360  16.309  67.475  1.00  0.00     0.000 C 
BRANCH   4   5
ATOM      5  C   UNL     1      12.767  15.743  67.223  1.00  0.00     0.000 C 
BRANCH   5   6
ATOM      6  C   UNL     1      13.296  14.919  68.410  1.00  0.00     0.006 C 
BRANCH   6   7
ATOM      7  C   UNL     1      14.197  15.749  69.334  1.00  0.00     0.053 C 
BRANCH   7   8
ATOM      8  C   UNL     1      15.232  14.898  70.005  1.00  0.00     0.041 C 
ATOM      9  O   UNL     1      14.913  14.156  70.971  1.00  0.00    -0.550 OA
ATOM     10  O   UNL     1      16.556  14.951  69.585  1.00  0.00    -0.550 OA
ENDBRANCH   7   8
ENDBRANCH   6   7
ENDBRANCH   5   6
ENDBRANCH   4   5
ENDBRANCH   3   4
ENDBRANCH   2   3
ENDBRANCH   1   2
BRANCH   1  11
ATOM     11  C   UNL     1      10.044  16.897  71.125  1.00  0.00     0.000 C 
BRANCH  11  12
ATOM     12  C   UNL     1      11.523  16.957  71.543  1.00  0.00     0.000 C 
BRANCH  12  13
ATOM     13  C   UNL     1      12.004  15.655  72.209  1.00  0.00     0.000 C 
BRANCH  13  14
ATOM     14  C   UNL     1      10.873  14.629  72.383  1.00  0.00     0.000 C 
BRANCH  14  15
ATOM     15  C   UNL     1      11.245  13.242  71.837  1.00  0.00     0.000 C 
BRANCH  15  16
ATOM     16  C   UNL     1      11.448  13.287  70.315  1.00  0.00     0.006 C 
BRANCH  16  17
ATOM     17  C   UNL     1      10.117  13.378  69.554  1.00  0.00     0.053 C 
BRANCH  17  18
ATOM     18  C   UNL     1      10.010  12.324  68.496  1.00  0.00     0.041 C 
ATOM     19  O   UNL     1       9.405  11.246  68.734  1.00  0.00    -0.550 OA
ATOM     20  O   UNL     1      10.548  12.547  67.235  1.00  0.00    -0.550 OA
ENDBRANCH  17  18
ENDBRANCH  16  17
ENDBRANCH  15  16
ENDBRANCH  14  15
ENDBRANCH  13  14
ENDBRANCH  12  13
ENDBRANCH  11  12
ENDBRANCH   1  11
TORSDOF 15
ENDMDL
MODEL 7
REMARK VINA RESULT:    -5.007      3.008      5.461
REMARK INTER + INTRA:         -11.506
REMARK INTER:                  -9.360
REMARK INTRA:                  -2.146
REMARK UNBOUND:                -2.109
REMARK SMILES O=C([O-])CCCCCCCCCCCCCCC(=O)[O-]
REMARK SMILES IDX 10 1 9 2 8 3 7 4 6 5 5 6 4 7 2 8 1 9 3 10 11 11 12 12 13 13
REMARK SMILES IDX 14 14 15 15 16 16 17 17 18 18 19 19 20 20
REMARK H PARENT
REMARK Flexibility Score: inf
ROOT
ATOM      1  C   UNL     1      11.243  16.470  67.597  1.00  0.00     0.000 C 
ENDROOT
BRANCH   1   2
ATOM      2  C   UNL     1      11.221  17.990  67.827  1.00  0.00     0.000 C 
BRANCH   2   3
ATOM      3  C   UNL     1      10.710  18.371  69.225  1.00  0.00     0.000 C 
BRANCH   3   4
ATOM      4  C   UNL     1       9.874  17.233  69.832  1.00  0.00     0.000 C 
BRANCH   4   5
ATOM      5  C   UNL     1      10.169  17.012  71.324  1.00  0.00     0.000 C 
BRANCH   5   6
ATOM      6  C   UNL     1       9.038  17.521  72.234  1.00  0.00     0.006 C 
BRANCH   6   7
ATOM      7  C   UNL     1       9.054  16.845  73.611  1.00  0.00     0.053 C 
BRANCH   7   8
ATOM      8  C   UNL     1       7.781  17.088  74.361  1.00  0.00     0.041 C 
ATOM      9  O   UNL     1       7.012  16.129  74.635  1.00  0.00    -0.550 OA
ATOM     10  O   UNL     1       7.427  18.381  74.731  1.00  0.00    -0.550 OA
ENDBRANCH   7   8
ENDBRANCH   6   7
ENDBRANCH   5   6
ENDBRANCH   4   5
ENDBRANCH   3   4
ENDBRANCH   2   3
ENDBRANCH   1   2
BRANCH   1  11
ATOM     11  C   UNL     1      12.597  15.973  67.060  1.00  0.00     0.000 C 
BRANCH  11  12
ATOM     12  C   UNL     1      13.318  15.044  68.050  1.00  0.00     0.000 C 
BRANCH  12  13
ATOM     13  C   UNL     1      13.591  15.720  69.406  1.00  0.00     0.000 C 
BRANCH  13  14
ATOM     14  C   UNL     1      13.048  14.907  70.591  1.00  0.00     0.000 C 
BRANCH  14  15
ATOM     15  C   UNL     1      12.526  13.525  70.169  1.00  0.00     0.000 C 
BRANCH  15  16
ATOM     16  C   UNL     1      11.055  13.348  70.571  1.00  0.00     0.006 C 
BRANCH  16  17
ATOM     17  C   UNL     1      10.096  13.622  69.404  1.00  0.00     0.053 C 
BRANCH  17  18
ATOM     18  C   UNL     1      10.092  12.500  68.413  1.00  0.00     0.041 C 
ATOM     19  O   UNL     1      10.664  12.636  67.299  1.00  0.00    -0.550 OA
ATOM     20  O   UNL     1       9.485  11.292  68.732  1.00  0.00    -0.550 OA
ENDBRANCH  17  18
ENDBRANCH  16  17
ENDBRANCH  15  16
ENDBRANCH  14  15
ENDBRANCH  13  14
ENDBRANCH  12  13
ENDBRANCH  11  12
ENDBRANCH   1  11
TORSDOF 15
ENDMDL
MODEL 8
REMARK VINA RESULT:    -5.004      3.512      5.372
REMARK INTER + INTRA:         -11.502
REMARK INTER:                  -9.477
REMARK INTRA:                  -2.025
REMARK UNBOUND:                -2.109
REMARK SMILES O=C([O-])CCCCCCCCCCCCCCC(=O)[O-]
REMARK SMILES IDX 10 1 9 2 8 3 7 4 6 5 5 6 4 7 2 8 1 9 3 10 11 11 12 12 13 13
REMARK SMILES IDX 14 14 15 15 16 16 17 17 18 18 19 19 20 20
REMARK H PARENT
REMARK Flexibility Score: inf
ROOT
ATOM      1  C   UNL     1      13.391  16.836  70.974  1.00  0.00     0.000 C 
ENDROOT
BRANCH   1   2
ATOM      2  C   UNL     1      12.038  17.401  70.509  1.00  0.00     0.000 C 
BRANCH   2   3
ATOM      3  C   UNL     1      10.866  16.929  71.383  1.00  0.00     0.000 C 
BRANCH   3   4
ATOM      4  C   UNL     1       9.523  17.381  70.790  1.00  0.00     0.000 C 
BRANCH   4   5
ATOM      5  C   UNL     1       8.509  17.798  71.868  1.00  0.00     0.000 C 
BRANCH   5   6
ATOM      6  C   UNL     1       8.852  17.230  73.255  1.00  0.00     0.006 C 
BRANCH   6   7
ATOM      7  C   UNL     1       7.854  17.684  74.329  1.00  0.00     0.053 C 
BRANCH   7   8
ATOM      8  C   UNL     1       6.972  16.558  74.775  1.00  0.00     0.041 C 
ATOM      9  O   UNL     1       5.853  16.374  74.227  1.00  0.00    -0.550 OA
ATOM     10  O   UNL     1       7.372  15.731  75.818  1.00  0.00    -0.550 OA
ENDBRANCH   7   8
ENDBRANCH   6   7
ENDBRANCH   5   6
ENDBRANCH   4   5
ENDBRANCH   3   4
ENDBRANCH   2   3
ENDBRANCH   1   2
BRANCH   1  11
ATOM     11  C   UNL     1      13.934  15.750  70.029  1.00  0.00     0.000 C 
BRANCH  11  12
ATOM     12  C   UNL     1      13.735  14.331  70.586  1.00  0.00     0.000 C 
BRANCH  12  13
ATOM     13  C   UNL     1      12.804  13.475  69.709  1.00  0.00     0.000 C 
BRANCH  13  14
ATOM     14  C   UNL     1      11.362  13.439  70.239  1.00  0.00     0.000 C 
BRANCH  14  15
ATOM     15  C   UNL     1      10.347  13.989  69.225  1.00  0.00     0.000 C 
BRANCH  15  16
ATOM     16  C   UNL     1      11.051  14.474  67.950  1.00  0.00     0.006 C 
BRANCH  16  17
ATOM     17  C   UNL     1      10.671  15.916  67.588  1.00  0.00     0.053 C 
BRANCH  17  18
ATOM     18  C   UNL     1      11.804  16.641  66.929  1.00  0.00     0.041 C 
ATOM     19  O   UNL     1      12.881  16.039  66.677  1.00  0.00    -0.550 OA
ATOM     20  O   UNL     1      11.659  17.973  66.562  1.00  0.00    -0.550 OA
ENDBRANCH  17  18
ENDBRANCH  16  17
ENDBRANCH  15  16
ENDBRANCH  14  15
ENDBRANCH  13  14
ENDBRANCH  12  13
ENDBRANCH  11  12
ENDBRANCH   1  11
TORSDOF 15
ENDMDL
MODEL 9
REMARK VINA RESULT:    -4.961      3.255      4.650
REMARK INTER + INTRA:         -11.422
REMARK INTER:                  -9.229
REMARK INTRA:                  -2.193
REMARK UNBOUND:                -2.109
REMARK SMILES O=C([O-])CCCCCCCCCCCCCCC(=O)[O-]
REMARK SMILES IDX 10 1 9 2 8 3 7 4 6 5 5 6 4 7 2 8 1 9 3 10 11 11 12 12 13 13
REMARK SMILES IDX 14 14 15 15 16 16 17 17 18 18 19 19 20 20
REMARK H PARENT
REMARK Flexibility Score: inf
ROOT
ATOM      1  C   UNL     1      11.294  17.446  68.321  1.00  0.00     0.000 C 
ENDROOT
BRANCH   1   2
ATOM      2  C   UNL     1      10.617  17.927  69.615  1.00  0.00     0.000 C 
BRANCH   2   3
ATOM      3  C   UNL     1      11.255  17.323  70.877  1.00  0.00     0.000 C 
BRANCH   3   4
ATOM      4  C   UNL     1      10.176  16.835  71.856  1.00  0.00     0.000 C 
BRANCH   4   5
ATOM      5  C   UNL     1       8.849  17.597  71.703  1.00  0.00     0.000 C 
BRANCH   5   6
ATOM      6  C   UNL     1       8.191  17.918  73.056  1.00  0.00     0.006 C 
BRANCH   6   7
ATOM      7  C   UNL     1       8.453  16.826  74.101  1.00  0.00     0.053 C 
BRANCH   7   8
ATOM      8  C   UNL     1       7.186  16.381  74.764  1.00  0.00     0.041 C 
ATOM      9  O   UNL     1       7.200  15.991  75.962  1.00  0.00    -0.550 OA
ATOM     10  O   UNL     1       5.994  16.365  74.049  1.00  0.00    -0.550 OA
ENDBRANCH   7   8
ENDBRANCH   6   7
ENDBRANCH   5   6
ENDBRANCH   4   5
ENDBRANCH   3   4
ENDBRANCH   2   3
ENDBRANCH   1   2
BRANCH   1  11
ATOM     11  C   UNL     1      10.509  16.319  67.627  1.00  0.00     0.000 C 
BRANCH  11  12
ATOM     12  C   UNL     1       9.167  16.025  68.318  1.00  0.00     0.000 C 
BRANCH  12  13
ATOM     13  C   UNL     1       9.078  14.583  68.851  1.00  0.00     0.000 C 
BRANCH  13  14
ATOM     14  C   UNL     1      10.416  13.834  68.752  1.00  0.00     0.000 C 
BRANCH  14  15
ATOM     15  C   UNL     1      10.873  13.258  70.101  1.00  0.00     0.000 C 
BRANCH  15  16
ATOM     16  C   UNL     1      12.175  13.924  70.569  1.00  0.00     0.006 C 
BRANCH  16  17
ATOM     17  C   UNL     1      13.342  13.659  69.607  1.00  0.00     0.053 C 
BRANCH  17  18
ATOM     18  C   UNL     1      13.935  14.933  69.090  1.00  0.00     0.041 C 
ATOM     19  O   UNL     1      14.541  15.713  69.871  1.00  0.00    -0.550 OA
ATOM     20  O   UNL     1      13.848  15.243  67.739  1.00  0.00    -0.550 OA
ENDBRANCH  17  18
ENDBRANCH  16  17
ENDBRANCH  15  16
ENDBRANCH  14  15
ENDBRANCH  13  14
ENDBRANCH  12  13
ENDBRANCH  11  12
ENDBRANCH   1  11
TORSDOF 15
ENDMDL
