MODEL 1
REMARK VINA RESULT:    -8.158      0.000      0.000
REMARK INTER + INTRA:         -13.436
REMARK INTER:                 -11.973
REMARK INTRA:                  -1.463
REMARK UNBOUND:                -1.463
REMARK SMILES O=c1c(O[C@H]2O[C@H](CO)[C@H](O)[C@@H](O)[C@@H]2O)c(-c2ccc(O)c(O)c2)oc2cc(O)cc(O)c12
REMARK SMILES IDX 4 1 3 2 16 3 25 4 2 5 26 6 1 7 33 8 27 9 31 10 28 11 30 12
REMARK SMILES IDX 17 13 18 14 19 15 20 16 24 17 22 18 21 19 23 21 32 23 29 25
REMARK SMILES IDX 5 27 14 28 6 29 12 30 7 31 10 32 15 33 13 35 8 37 9 38 11 40
REMARK H PARENT 21 20 23 22 32 24 29 26 15 34 13 36 9 39 11 41
REMARK Flexibility Score: inf
ROOT
ATOM      1  O   UNL     1     -67.868 -38.989 -35.437  1.00  0.00    -0.454 OA
ENDROOT
BRANCH   1   2
ATOM      2  C   UNL     1     -67.495 -39.298 -36.746  1.00  0.00     0.214 A 
ATOM      3  C   UNL     1     -67.315 -38.310 -37.750  1.00  0.00     0.180 A 
ATOM      4  O   UNL     1     -67.300 -38.697 -39.031  1.00  0.00    -0.452 OA
ATOM      5  C   UNL     1     -67.385 -40.649 -37.104  1.00  0.00     0.239 A 
ATOM      6  C   UNL     1     -67.355 -39.969 -39.423  1.00  0.00     0.146 A 
ATOM      7  O   UNL     1     -67.382 -41.533 -36.202  1.00  0.00    -0.285 OA
ATOM      8  C   UNL     1     -67.327 -41.011 -38.463  1.00  0.00     0.111 A 
ATOM      9  C   UNL     1     -67.448 -40.271 -40.791  1.00  0.00     0.094 A 
ATOM     10  C   UNL     1     -67.274 -42.352 -38.902  1.00  0.00     0.134 A 
ATOM     11  C   UNL     1     -67.478 -41.609 -41.212  1.00  0.00     0.123 A 
ATOM     12  C   UNL     1     -67.353 -42.640 -40.271  1.00  0.00     0.093 A 
BRANCH   3  13
ATOM     13  C   UNL     1     -67.069 -36.863 -37.467  1.00  0.00     0.025 A 
ATOM     14  C   UNL     1     -65.814 -36.341 -37.113  1.00  0.00     0.016 A 
ATOM     15  C   UNL     1     -65.640 -34.973 -36.903  1.00  0.00     0.051 A 
ATOM     16  C   UNL     1     -66.706 -34.082 -37.036  1.00  0.00     0.157 A 
ATOM     17  C   UNL     1     -68.148 -35.969 -37.581  1.00  0.00     0.062 A 
ATOM     18  C   UNL     1     -67.974 -34.588 -37.392  1.00  0.00     0.158 A 
BRANCH  16  19
ATOM     19  O   UNL     1     -66.477 -32.732 -36.784  1.00  0.00    -0.504 OA
ATOM     20  H   UNL     1     -67.205 -32.032 -36.724  1.00  0.00     0.293 HD
ENDBRANCH  16  19
BRANCH  18  21
ATOM     21  O   UNL     1     -69.085 -33.758 -37.582  1.00  0.00    -0.504 OA
ATOM     22  H   UNL     1     -70.025 -34.103 -37.718  1.00  0.00     0.293 HD
ENDBRANCH  18  21
ENDBRANCH   3  13
BRANCH  10  23
ATOM     23  O   UNL     1     -67.153 -43.398 -37.984  1.00  0.00    -0.507 OA
ATOM     24  H   UNL     1     -67.599 -44.296 -38.107  1.00  0.00     0.293 HD
ENDBRANCH  10  23
BRANCH  11  25
ATOM     25  O   UNL     1     -67.674 -41.904 -42.558  1.00  0.00    -0.508 OA
ATOM     26  H   UNL     1     -66.899 -41.889 -43.209  1.00  0.00     0.293 HD
ENDBRANCH  11  25
ENDBRANCH   1   2
BRANCH   1  27
ATOM     27  C   UNL     1     -66.953 -38.302 -34.574  1.00  0.00     0.339 C 
ATOM     28  C   UNL     1     -66.672 -39.147 -33.327  1.00  0.00     0.214 C 
ATOM     29  O   UNL     1     -67.492 -37.035 -34.229  1.00  0.00    -0.332 OA
ATOM     30  C   UNL     1     -65.540 -38.501 -32.497  1.00  0.00     0.180 C 
ATOM     31  C   UNL     1     -66.837 -36.373 -33.146  1.00  0.00     0.179 C 
ATOM     32  C   UNL     1     -65.458 -36.971 -32.721  1.00  0.00     0.177 C 
BRANCH  28  33
ATOM     33  O   UNL     1     -66.325 -40.456 -33.704  1.00  0.00    -0.384 OA
ATOM     34  H   UNL     1     -65.385 -40.412 -34.027  1.00  0.00     0.211 HD
ENDBRANCH  28  33
BRANCH  30  35
ATOM     35  O   UNL     1     -65.753 -38.767 -31.122  1.00  0.00    -0.387 OA
ATOM     36  H   UNL     1     -66.493 -38.174 -30.819  1.00  0.00     0.211 HD
ENDBRANCH  30  35
BRANCH  31  37
ATOM     37  C   UNL     1     -66.716 -34.868 -33.472  1.00  0.00     0.191 C 
BRANCH  37  38
ATOM     38  O   UNL     1     -65.826 -34.230 -32.596  1.00  0.00    -0.394 OA
ATOM     39  H   UNL     1     -65.696 -34.826 -31.811  1.00  0.00     0.210 HD
ENDBRANCH  37  38
ENDBRANCH  31  37
BRANCH  32  40
ATOM     40  O   UNL     1     -64.493 -36.695 -33.707  1.00  0.00    -0.387 OA
ATOM     41  H   UNL     1     -63.606 -36.847 -33.285  1.00  0.00     0.211 HD
ENDBRANCH  32  40
ENDBRANCH   1  27
TORSDOF 12
ENDMDL
MODEL 2
REMARK VINA RESULT:    -7.747      1.221      2.468
REMARK INTER + INTRA:         -12.833
REMARK INTER:                 -11.928
REMARK INTRA:                  -0.905
REMARK UNBOUND:                -1.463
REMARK SMILES O=c1c(O[C@H]2O[C@H](CO)[C@H](O)[C@@H](O)[C@@H]2O)c(-c2ccc(O)c(O)c2)oc2cc(O)cc(O)c12
REMARK SMILES IDX 4 1 3 2 16 3 25 4 2 5 26 6 1 7 33 8 27 9 31 10 28 11 30 12
REMARK SMILES IDX 17 13 18 14 19 15 20 16 24 17 22 18 21 19 23 21 32 23 29 25
REMARK SMILES IDX 5 27 14 28 6 29 12 30 7 31 10 32 15 33 13 35 8 37 9 38 11 40
REMARK H PARENT 21 20 23 22 32 24 29 26 15 34 13 36 9 39 11 41
REMARK Flexibility Score: inf
ROOT
ATOM      1  O   UNL     1     -68.355 -38.226 -35.333  1.00  0.00    -0.454 OA
ENDROOT
BRANCH   1   2
ATOM      2  C   UNL     1     -67.829 -38.724 -36.526  1.00  0.00     0.214 A 
ATOM      3  C   UNL     1     -67.793 -37.968 -37.729  1.00  0.00     0.180 A 
ATOM      4  O   UNL     1     -67.600 -38.616 -38.884  1.00  0.00    -0.452 OA
ATOM      5  C   UNL     1     -67.403 -40.060 -36.559  1.00  0.00     0.239 A 
ATOM      6  C   UNL     1     -67.351 -39.921 -38.971  1.00  0.00     0.146 A 
ATOM      7  O   UNL     1     -67.276 -40.698 -35.477  1.00  0.00    -0.285 OA
ATOM      8  C   UNL     1     -67.168 -40.691 -37.795  1.00  0.00     0.111 A 
ATOM      9  C   UNL     1     -67.275 -40.531 -40.234  1.00  0.00     0.094 A 
ATOM     10  C   UNL     1     -66.794 -42.048 -37.910  1.00  0.00     0.134 A 
ATOM     11  C   UNL     1     -66.984 -41.900 -40.333  1.00  0.00     0.123 A 
ATOM     12  C   UNL     1     -66.709 -42.641 -39.176  1.00  0.00     0.093 A 
BRANCH   3  13
ATOM     13  C   UNL     1     -67.887 -36.478 -37.784  1.00  0.00     0.025 A 
ATOM     14  C   UNL     1     -69.015 -35.785 -38.254  1.00  0.00     0.016 A 
ATOM     15  C   UNL     1     -69.057 -34.391 -38.240  1.00  0.00     0.051 A 
ATOM     16  C   UNL     1     -67.981 -33.642 -37.762  1.00  0.00     0.157 A 
ATOM     17  C   UNL     1     -66.794 -35.724 -37.322  1.00  0.00     0.062 A 
ATOM     18  C   UNL     1     -66.839 -34.320 -37.287  1.00  0.00     0.158 A 
BRANCH  16  19
ATOM     19  O   UNL     1     -68.070 -32.253 -37.803  1.00  0.00    -0.504 OA
ATOM     20  H   UNL     1     -68.288 -31.672 -37.004  1.00  0.00     0.293 HD
ENDBRANCH  16  19
BRANCH  18  21
ATOM     21  O   UNL     1     -65.734 -33.645 -36.757  1.00  0.00    -0.504 OA
ATOM     22  H   UNL     1     -64.859 -33.528 -37.250  1.00  0.00     0.293 HD
ENDBRANCH  18  21
ENDBRANCH   3  13
BRANCH  10  23
ATOM     23  O   UNL     1     -66.518 -42.809 -36.772  1.00  0.00    -0.507 OA
ATOM     24  H   UNL     1     -67.235 -43.266 -36.225  1.00  0.00     0.293 HD
ENDBRANCH  10  23
BRANCH  11  25
ATOM     25  O   UNL     1     -67.012 -42.522 -41.577  1.00  0.00    -0.508 OA
ATOM     26  H   UNL     1     -67.854 -42.977 -41.909  1.00  0.00     0.293 HD
ENDBRANCH  11  25
ENDBRANCH   1   2
BRANCH   1  27
ATOM     27  C   UNL     1     -67.496 -37.587 -34.382  1.00  0.00     0.339 C 
ATOM     28  C   UNL     1     -67.686 -36.067 -34.441  1.00  0.00     0.214 C 
ATOM     29  O   UNL     1     -66.150 -37.950 -34.646  1.00  0.00    -0.332 OA
ATOM     30  C   UNL     1     -66.910 -35.395 -33.286  1.00  0.00     0.180 C 
ATOM     31  C   UNL     1     -65.167 -37.160 -33.976  1.00  0.00     0.179 C 
ATOM     32  C   UNL     1     -65.701 -36.246 -32.826  1.00  0.00     0.177 C 
BRANCH  28  33
ATOM     33  O   UNL     1     -69.054 -35.753 -34.369  1.00  0.00    -0.384 OA
ATOM     34  H   UNL     1     -69.520 -36.400 -34.962  1.00  0.00     0.211 HD
ENDBRANCH  28  33
BRANCH  30  35
ATOM     35  O   UNL     1     -66.460 -34.118 -33.701  1.00  0.00    -0.387 OA
ATOM     36  H   UNL     1     -67.267 -33.550 -33.832  1.00  0.00     0.211 HD
ENDBRANCH  30  35
BRANCH  31  37
ATOM     37  C   UNL     1     -64.033 -38.081 -33.473  1.00  0.00     0.191 C 
BRANCH  37  38
ATOM     38  O   UNL     1     -64.526 -39.061 -32.600  1.00  0.00    -0.394 OA
ATOM     39  H   UNL     1     -64.334 -38.761 -31.671  1.00  0.00     0.210 HD
ENDBRANCH  37  38
ENDBRANCH  31  37
BRANCH  32  40
ATOM     40  O   UNL     1     -66.077 -37.035 -31.723  1.00  0.00    -0.387 OA
ATOM     41  H   UNL     1     -67.038 -37.258 -31.850  1.00  0.00     0.211 HD
ENDBRANCH  32  40
ENDBRANCH   1  27
TORSDOF 12
ENDMDL
MODEL 3
REMARK VINA RESULT:    -7.548      2.150      6.826
REMARK INTER + INTRA:         -12.541
REMARK INTER:                 -11.500
REMARK INTRA:                  -1.041
REMARK UNBOUND:                -1.463
REMARK SMILES O=c1c(O[C@H]2O[C@H](CO)[C@H](O)[C@@H](O)[C@@H]2O)c(-c2ccc(O)c(O)c2)oc2cc(O)cc(O)c12
REMARK SMILES IDX 4 1 3 2 16 3 25 4 2 5 26 6 1 7 33 8 27 9 31 10 28 11 30 12
REMARK SMILES IDX 17 13 18 14 19 15 20 16 24 17 22 18 21 19 23 21 32 23 29 25
REMARK SMILES IDX 5 27 14 28 6 29 12 30 7 31 10 32 15 33 13 35 8 37 9 38 11 40
REMARK H PARENT 21 20 23 22 32 24 29 26 15 34 13 36 9 39 11 41
REMARK Flexibility Score: inf
ROOT
ATOM      1  O   UNL     1     -65.743 -39.278 -34.679  1.00  0.00    -0.454 OA
ENDROOT
BRANCH   1   2
ATOM      2  C   UNL     1     -65.896 -38.790 -33.380  1.00  0.00     0.214 A 
ATOM      3  C   UNL     1     -65.731 -37.418 -33.048  1.00  0.00     0.180 A 
ATOM      4  O   UNL     1     -65.554 -37.090 -31.762  1.00  0.00    -0.452 OA
ATOM      5  C   UNL     1     -66.129 -39.709 -32.348  1.00  0.00     0.239 A 
ATOM      6  C   UNL     1     -65.609 -37.964 -30.759  1.00  0.00     0.146 A 
ATOM      7  O   UNL     1     -66.436 -40.900 -32.634  1.00  0.00    -0.285 OA
ATOM      8  C   UNL     1     -65.974 -39.311 -31.007  1.00  0.00     0.111 A 
ATOM      9  C   UNL     1     -65.297 -37.545 -29.455  1.00  0.00     0.094 A 
ATOM     10  C   UNL     1     -66.136 -40.194 -29.917  1.00  0.00     0.134 A 
ATOM     11  C   UNL     1     -65.381 -38.453 -28.389  1.00  0.00     0.123 A 
ATOM     12  C   UNL     1     -65.835 -39.760 -28.619  1.00  0.00     0.093 A 
BRANCH   3  13
ATOM     13  C   UNL     1     -65.814 -36.300 -34.036  1.00  0.00     0.025 A 
ATOM     14  C   UNL     1     -66.577 -35.138 -33.836  1.00  0.00     0.016 A 
ATOM     15  C   UNL     1     -66.580 -34.111 -34.780  1.00  0.00     0.051 A 
ATOM     16  C   UNL     1     -65.827 -34.206 -35.951  1.00  0.00     0.157 A 
ATOM     17  C   UNL     1     -65.072 -36.406 -35.226  1.00  0.00     0.062 A 
ATOM     18  C   UNL     1     -65.054 -35.366 -36.169  1.00  0.00     0.158 A 
BRANCH  16  19
ATOM     19  O   UNL     1     -65.894 -33.162 -36.869  1.00  0.00    -0.504 OA
ATOM     20  H   UNL     1     -65.440 -33.167 -37.773  1.00  0.00     0.293 HD
ENDBRANCH  16  19
BRANCH  18  21
ATOM     21  O   UNL     1     -64.243 -35.524 -37.299  1.00  0.00    -0.504 OA
ATOM     22  H   UNL     1     -64.497 -35.199 -38.221  1.00  0.00     0.293 HD
ENDBRANCH  18  21
ENDBRANCH   3  13
BRANCH  10  23
ATOM     23  O   UNL     1     -66.584 -41.501 -30.120  1.00  0.00    -0.507 OA
ATOM     24  H   UNL     1     -66.437 -42.246 -29.452  1.00  0.00     0.293 HD
ENDBRANCH  10  23
BRANCH  11  25
ATOM     25  O   UNL     1     -64.973 -38.064 -27.117  1.00  0.00    -0.508 OA
ATOM     26  H   UNL     1     -65.364 -37.240 -26.678  1.00  0.00     0.293 HD
ENDBRANCH  11  25
ENDBRANCH   1   2
BRANCH   1  27
ATOM     27  C   UNL     1     -66.887 -39.427 -35.528  1.00  0.00     0.339 C 
ATOM     28  C   UNL     1     -66.807 -40.756 -36.289  1.00  0.00     0.214 C 
ATOM     29  O   UNL     1     -66.959 -38.325 -36.419  1.00  0.00    -0.332 OA
ATOM     30  C   UNL     1     -68.128 -41.008 -37.048  1.00  0.00     0.180 C 
ATOM     31  C   UNL     1     -67.864 -38.489 -37.512  1.00  0.00     0.179 C 
ATOM     32  C   UNL     1     -68.860 -39.687 -37.394  1.00  0.00     0.177 C 
BRANCH  28  33
ATOM     33  O   UNL     1     -66.543 -41.805 -35.391  1.00  0.00    -0.384 OA
ATOM     34  H   UNL     1     -66.066 -42.504 -35.913  1.00  0.00     0.211 HD
ENDBRANCH  28  33
BRANCH  30  35
ATOM     35  O   UNL     1     -67.857 -41.725 -38.240  1.00  0.00    -0.387 OA
ATOM     36  H   UNL     1     -68.529 -42.457 -38.301  1.00  0.00     0.211 HD
ENDBRANCH  30  35
BRANCH  31  37
ATOM     37  C   UNL     1     -68.617 -37.161 -37.748  1.00  0.00     0.191 C 
BRANCH  37  38
ATOM     38  O   UNL     1     -68.689 -36.403 -36.571  1.00  0.00    -0.394 OA
ATOM     39  H   UNL     1     -68.915 -35.469 -36.827  1.00  0.00     0.210 HD
ENDBRANCH  37  38
ENDBRANCH  31  37
BRANCH  32  40
ATOM     40  O   UNL     1     -69.822 -39.414 -36.405  1.00  0.00    -0.387 OA
ATOM     41  H   UNL     1     -70.504 -38.827 -36.829  1.00  0.00     0.211 HD
ENDBRANCH  32  40
ENDBRANCH   1  27
TORSDOF 12
ENDMDL
MODEL 4
REMARK VINA RESULT:    -7.369      1.822      5.117
REMARK INTER + INTRA:         -12.278
REMARK INTER:                 -11.651
REMARK INTRA:                  -0.627
REMARK UNBOUND:                -1.463
REMARK SMILES O=c1c(O[C@H]2O[C@H](CO)[C@H](O)[C@@H](O)[C@@H]2O)c(-c2ccc(O)c(O)c2)oc2cc(O)cc(O)c12
REMARK SMILES IDX 4 1 3 2 16 3 25 4 2 5 26 6 1 7 33 8 27 9 31 10 28 11 30 12
REMARK SMILES IDX 17 13 18 14 19 15 20 16 24 17 22 18 21 19 23 21 32 23 29 25
REMARK SMILES IDX 5 27 14 28 6 29 12 30 7 31 10 32 15 33 13 35 8 37 9 38 11 40
REMARK H PARENT 21 20 23 22 32 24 29 26 15 34 13 36 9 39 11 41
REMARK Flexibility Score: inf
ROOT
ATOM      1  O   UNL     1     -67.774 -37.606 -34.367  1.00  0.00    -0.454 OA
ENDROOT
BRANCH   1   2
ATOM      2  C   UNL     1     -67.450 -38.853 -34.904  1.00  0.00     0.214 A 
ATOM      3  C   UNL     1     -66.426 -39.680 -34.369  1.00  0.00     0.180 A 
ATOM      4  O   UNL     1     -65.949 -40.675 -35.127  1.00  0.00    -0.452 OA
ATOM      5  C   UNL     1     -68.102 -39.261 -36.076  1.00  0.00     0.239 A 
ATOM      6  C   UNL     1     -66.438 -40.997 -36.323  1.00  0.00     0.146 A 
ATOM      7  O   UNL     1     -69.117 -38.627 -36.476  1.00  0.00    -0.285 OA
ATOM      8  C   UNL     1     -67.592 -40.343 -36.820  1.00  0.00     0.111 A 
ATOM      9  C   UNL     1     -65.798 -41.983 -37.092  1.00  0.00     0.094 A 
ATOM     10  C   UNL     1     -68.160 -40.775 -38.039  1.00  0.00     0.134 A 
ATOM     11  C   UNL     1     -66.324 -42.347 -38.341  1.00  0.00     0.123 A 
ATOM     12  C   UNL     1     -67.520 -41.769 -38.790  1.00  0.00     0.093 A 
BRANCH   3  13
ATOM     13  C   UNL     1     -65.888 -39.556 -32.980  1.00  0.00     0.025 A 
ATOM     14  C   UNL     1     -64.720 -38.847 -32.657  1.00  0.00     0.016 A 
ATOM     15  C   UNL     1     -64.294 -38.734 -31.333  1.00  0.00     0.051 A 
ATOM     16  C   UNL     1     -65.013 -39.322 -30.291  1.00  0.00     0.157 A 
ATOM     17  C   UNL     1     -66.602 -40.167 -31.934  1.00  0.00     0.062 A 
ATOM     18  C   UNL     1     -66.189 -40.038 -30.597  1.00  0.00     0.158 A 
BRANCH  16  19
ATOM     19  O   UNL     1     -64.520 -39.200 -28.995  1.00  0.00    -0.504 OA
ATOM     20  H   UNL     1     -63.537 -39.167 -28.759  1.00  0.00     0.293 HD
ENDBRANCH  16  19
BRANCH  18  21
ATOM     21  O   UNL     1     -66.987 -40.626 -29.608  1.00  0.00    -0.504 OA
ATOM     22  H   UNL     1     -67.900 -41.019 -29.786  1.00  0.00     0.293 HD
ENDBRANCH  18  21
ENDBRANCH   3  13
BRANCH  10  23
ATOM     23  O   UNL     1     -69.348 -40.213 -38.510  1.00  0.00    -0.507 OA
ATOM     24  H   UNL     1     -70.259 -40.464 -38.150  1.00  0.00     0.293 HD
ENDBRANCH  10  23
BRANCH  11  25
ATOM     25  O   UNL     1     -65.633 -43.248 -39.145  1.00  0.00    -0.508 OA
ATOM     26  H   UNL     1     -64.995 -43.921 -38.737  1.00  0.00     0.293 HD
ENDBRANCH  11  25
ENDBRANCH   1   2
BRANCH   1  27
ATOM     27  C   UNL     1     -67.121 -36.426 -34.850  1.00  0.00     0.339 C 
ATOM     28  C   UNL     1     -66.692 -35.543 -33.672  1.00  0.00     0.214 C 
ATOM     29  O   UNL     1     -67.994 -35.730 -35.726  1.00  0.00    -0.332 OA
ATOM     30  C   UNL     1     -65.818 -34.376 -34.181  1.00  0.00     0.180 C 
ATOM     31  C   UNL     1     -67.597 -34.396 -36.043  1.00  0.00     0.179 C 
ATOM     32  C   UNL     1     -66.132 -34.015 -35.654  1.00  0.00     0.177 C 
BRANCH  28  33
ATOM     33  O   UNL     1     -65.991 -36.313 -32.728  1.00  0.00    -0.384 OA
ATOM     34  H   UNL     1     -65.314 -35.708 -32.322  1.00  0.00     0.211 HD
ENDBRANCH  28  33
BRANCH  30  35
ATOM     35  O   UNL     1     -66.025 -33.240 -33.360  1.00  0.00    -0.387 OA
ATOM     36  H   UNL     1     -66.583 -33.532 -32.590  1.00  0.00     0.211 HD
ENDBRANCH  30  35
BRANCH  31  37
ATOM     37  C   UNL     1     -67.862 -34.131 -37.541  1.00  0.00     0.191 C 
BRANCH  37  38
ATOM     38  O   UNL     1     -68.621 -32.967 -37.724  1.00  0.00    -0.394 OA
ATOM     39  H   UNL     1     -67.989 -32.207 -37.829  1.00  0.00     0.210 HD
ENDBRANCH  37  38
ENDBRANCH  31  37
BRANCH  32  40
ATOM     40  O   UNL     1     -65.224 -34.676 -36.501  1.00  0.00    -0.387 OA
ATOM     41  H   UNL     1     -65.367 -35.650 -36.362  1.00  0.00     0.211 HD
ENDBRANCH  32  40
ENDBRANCH   1  27
TORSDOF 12
ENDMDL
MODEL 5
REMARK VINA RESULT:    -7.355      1.995      6.649
REMARK INTER + INTRA:         -12.257
REMARK INTER:                 -11.438
REMARK INTRA:                  -0.819
REMARK UNBOUND:                -1.463
REMARK SMILES O=c1c(O[C@H]2O[C@H](CO)[C@H](O)[C@@H](O)[C@@H]2O)c(-c2ccc(O)c(O)c2)oc2cc(O)cc(O)c12
REMARK SMILES IDX 4 1 3 2 16 3 25 4 2 5 26 6 1 7 33 8 27 9 31 10 28 11 30 12
REMARK SMILES IDX 17 13 18 14 19 15 20 16 24 17 22 18 21 19 23 21 32 23 29 25
REMARK SMILES IDX 5 27 14 28 6 29 12 30 7 31 10 32 15 33 13 35 8 37 9 38 11 40
REMARK H PARENT 21 20 23 22 32 24 29 26 15 34 13 36 9 39 11 41
REMARK Flexibility Score: inf
ROOT
ATOM      1  O   UNL     1     -65.795 -38.949 -35.392  1.00  0.00    -0.454 OA
ENDROOT
BRANCH   1   2
ATOM      2  C   UNL     1     -66.073 -38.557 -34.081  1.00  0.00     0.214 A 
ATOM      3  C   UNL     1     -66.190 -37.195 -33.693  1.00  0.00     0.180 A 
ATOM      4  O   UNL     1     -66.112 -36.895 -32.390  1.00  0.00    -0.452 OA
ATOM      5  C   UNL     1     -66.146 -39.548 -33.092  1.00  0.00     0.239 A 
ATOM      6  C   UNL     1     -66.018 -37.805 -31.423  1.00  0.00     0.146 A 
ATOM      7  O   UNL     1     -66.205 -40.762 -33.433  1.00  0.00    -0.285 OA
ATOM      8  C   UNL     1     -66.105 -39.185 -31.733  1.00  0.00     0.111 A 
ATOM      9  C   UNL     1     -65.827 -37.389 -30.095  1.00  0.00     0.094 A 
ATOM     10  C   UNL     1     -66.116 -40.129 -30.682  1.00  0.00     0.134 A 
ATOM     11  C   UNL     1     -65.756 -38.342 -29.067  1.00  0.00     0.123 A 
ATOM     12  C   UNL     1     -65.938 -39.700 -29.360  1.00  0.00     0.093 A 
BRANCH   3  13
ATOM     13  C   UNL     1     -66.468 -36.074 -34.641  1.00  0.00     0.025 A 
ATOM     14  C   UNL     1     -65.790 -34.844 -34.613  1.00  0.00     0.016 A 
ATOM     15  C   UNL     1     -66.066 -33.852 -35.553  1.00  0.00     0.051 A 
ATOM     16  C   UNL     1     -67.024 -34.049 -36.549  1.00  0.00     0.157 A 
ATOM     17  C   UNL     1     -67.448 -36.266 -35.630  1.00  0.00     0.062 A 
ATOM     18  C   UNL     1     -67.715 -35.278 -36.593  1.00  0.00     0.158 A 
BRANCH  16  19
ATOM     19  O   UNL     1     -67.278 -33.009 -37.440  1.00  0.00    -0.504 OA
ATOM     20  H   UNL     1     -66.580 -32.353 -37.763  1.00  0.00     0.293 HD
ENDBRANCH  16  19
BRANCH  18  21
ATOM     21  O   UNL     1     -68.663 -35.570 -37.580  1.00  0.00    -0.504 OA
ATOM     22  H   UNL     1     -69.651 -35.378 -37.483  1.00  0.00     0.293 HD
ENDBRANCH  18  21
ENDBRANCH   3  13
BRANCH  10  23
ATOM     23  O   UNL     1     -66.292 -41.488 -30.949  1.00  0.00    -0.507 OA
ATOM     24  H   UNL     1     -66.316 -41.870 -31.884  1.00  0.00     0.293 HD
ENDBRANCH  10  23
BRANCH  11  25
ATOM     25  O   UNL     1     -65.463 -37.935 -27.769  1.00  0.00    -0.508 OA
ATOM     26  H   UNL     1     -64.838 -37.157 -27.600  1.00  0.00     0.293 HD
ENDBRANCH  11  25
ENDBRANCH   1   2
BRANCH   1  27
ATOM     27  C   UNL     1     -66.537 -40.017 -35.993  1.00  0.00     0.339 C 
ATOM     28  C   UNL     1     -65.587 -40.968 -36.730  1.00  0.00     0.214 C 
ATOM     29  O   UNL     1     -67.512 -39.478 -36.871  1.00  0.00    -0.332 OA
ATOM     30  C   UNL     1     -66.358 -42.219 -37.206  1.00  0.00     0.180 C 
ATOM     31  C   UNL     1     -68.116 -40.421 -37.758  1.00  0.00     0.179 C 
ATOM     32  C   UNL     1     -67.863 -41.925 -37.422  1.00  0.00     0.177 C 
BRANCH  28  33
ATOM     33  O   UNL     1     -64.524 -41.332 -35.884  1.00  0.00    -0.384 OA
ATOM     34  H   UNL     1     -64.201 -42.215 -36.207  1.00  0.00     0.211 HD
ENDBRANCH  28  33
BRANCH  30  35
ATOM     35  O   UNL     1     -65.789 -42.691 -38.414  1.00  0.00    -0.387 OA
ATOM     36  H   UNL     1     -65.295 -43.528 -38.198  1.00  0.00     0.211 HD
ENDBRANCH  30  35
BRANCH  31  37
ATOM     37  C   UNL     1     -69.627 -40.120 -37.864  1.00  0.00     0.191 C 
BRANCH  37  38
ATOM     38  O   UNL     1     -70.125 -39.597 -36.662  1.00  0.00    -0.394 OA
ATOM     39  H   UNL     1     -69.402 -39.057 -36.246  1.00  0.00     0.210 HD
ENDBRANCH  37  38
ENDBRANCH  31  37
BRANCH  32  40
ATOM     40  O   UNL     1     -68.579 -42.285 -36.266  1.00  0.00    -0.387 OA
ATOM     41  H   UNL     1     -67.915 -42.348 -35.530  1.00  0.00     0.211 HD
ENDBRANCH  32  40
ENDBRANCH   1  27
TORSDOF 12
ENDMDL
MODEL 6
REMARK VINA RESULT:    -7.187      1.643      6.411
REMARK INTER + INTRA:         -12.011
REMARK INTER:                 -11.846
REMARK INTRA:                  -0.165
REMARK UNBOUND:                -1.463
REMARK SMILES O=c1c(O[C@H]2O[C@H](CO)[C@H](O)[C@@H](O)[C@@H]2O)c(-c2ccc(O)c(O)c2)oc2cc(O)cc(O)c12
REMARK SMILES IDX 4 1 3 2 16 3 25 4 2 5 26 6 1 7 33 8 27 9 31 10 28 11 30 12
REMARK SMILES IDX 17 13 18 14 19 15 20 16 24 17 22 18 21 19 23 21 32 23 29 25
REMARK SMILES IDX 5 27 14 28 6 29 12 30 7 31 10 32 15 33 13 35 8 37 9 38 11 40
REMARK H PARENT 21 20 23 22 32 24 29 26 15 34 13 36 9 39 11 41
REMARK Flexibility Score: inf
ROOT
ATOM      1  O   UNL     1     -65.947 -38.386 -36.900  1.00  0.00    -0.454 OA
ENDROOT
BRANCH   1   2
ATOM      2  C   UNL     1     -66.216 -38.055 -35.571  1.00  0.00     0.214 A 
ATOM      3  C   UNL     1     -66.380 -36.715 -35.128  1.00  0.00     0.180 A 
ATOM      4  O   UNL     1     -66.289 -36.461 -33.817  1.00  0.00    -0.452 OA
ATOM      5  C   UNL     1     -66.231 -39.085 -34.619  1.00  0.00     0.239 A 
ATOM      6  C   UNL     1     -66.141 -37.402 -32.887  1.00  0.00     0.146 A 
ATOM      7  O   UNL     1     -66.248 -40.287 -35.005  1.00  0.00    -0.285 OA
ATOM      8  C   UNL     1     -66.179 -38.772 -33.248  1.00  0.00     0.111 A 
ATOM      9  C   UNL     1     -65.942 -37.030 -31.547  1.00  0.00     0.094 A 
ATOM     10  C   UNL     1     -66.133 -39.755 -32.234  1.00  0.00     0.134 A 
ATOM     11  C   UNL     1     -65.815 -38.017 -30.558  1.00  0.00     0.123 A 
ATOM     12  C   UNL     1     -65.948 -39.370 -30.900  1.00  0.00     0.093 A 
BRANCH   3  13
ATOM     13  C   UNL     1     -66.719 -35.571 -36.027  1.00  0.00     0.025 A 
ATOM     14  C   UNL     1     -65.946 -34.403 -36.128  1.00  0.00     0.016 A 
ATOM     15  C   UNL     1     -66.294 -33.387 -37.018  1.00  0.00     0.051 A 
ATOM     16  C   UNL     1     -67.420 -33.499 -37.835  1.00  0.00     0.157 A 
ATOM     17  C   UNL     1     -67.865 -35.676 -36.835  1.00  0.00     0.062 A 
ATOM     18  C   UNL     1     -68.209 -34.666 -37.749  1.00  0.00     0.158 A 
BRANCH  16  19
ATOM     19  O   UNL     1     -67.733 -32.439 -38.682  1.00  0.00    -0.504 OA
ATOM     20  H   UNL     1     -67.224 -32.215 -39.527  1.00  0.00     0.293 HD
ENDBRANCH  16  19
BRANCH  18  21
ATOM     21  O   UNL     1     -69.331 -34.873 -38.558  1.00  0.00    -0.504 OA
ATOM     22  H   UNL     1     -70.221 -34.416 -38.411  1.00  0.00     0.293 HD
ENDBRANCH  18  21
ENDBRANCH   3  13
BRANCH  10  23
ATOM     23  O   UNL     1     -66.260 -41.109 -32.550  1.00  0.00    -0.507 OA
ATOM     24  H   UNL     1     -66.406 -41.446 -33.491  1.00  0.00     0.293 HD
ENDBRANCH  10  23
BRANCH  11  25
ATOM     25  O   UNL     1     -65.514 -37.648 -29.250  1.00  0.00    -0.508 OA
ATOM     26  H   UNL     1     -66.161 -37.086 -28.710  1.00  0.00     0.293 HD
ENDBRANCH  11  25
ENDBRANCH   1   2
BRANCH   1  27
ATOM     27  C   UNL     1     -66.628 -39.485 -37.516  1.00  0.00     0.339 C 
ATOM     28  C   UNL     1     -66.071 -39.725 -38.924  1.00  0.00     0.214 C 
ATOM     29  O   UNL     1     -68.021 -39.218 -37.551  1.00  0.00    -0.332 OA
ATOM     30  C   UNL     1     -66.662 -41.027 -39.510  1.00  0.00     0.180 C 
ATOM     31  C   UNL     1     -68.782 -40.079 -38.398  1.00  0.00     0.179 C 
ATOM     32  C   UNL     1     -68.045 -41.362 -38.898  1.00  0.00     0.177 C 
BRANCH  28  33
ATOM     33  O   UNL     1     -64.668 -39.795 -38.878  1.00  0.00    -0.384 OA
ATOM     34  H   UNL     1     -64.445 -40.717 -38.579  1.00  0.00     0.211 HD
ENDBRANCH  28  33
BRANCH  30  35
ATOM     35  O   UNL     1     -66.784 -40.899 -40.915  1.00  0.00    -0.387 OA
ATOM     36  H   UNL     1     -67.756 -40.924 -41.129  1.00  0.00     0.211 HD
ENDBRANCH  30  35
BRANCH  31  37
ATOM     37  C   UNL     1     -70.109 -40.438 -37.693  1.00  0.00     0.191 C 
BRANCH  37  38
ATOM     38  O   UNL     1     -69.979 -41.608 -36.933  1.00  0.00    -0.394 OA
ATOM     39  H   UNL     1     -70.422 -41.450 -36.057  1.00  0.00     0.210 HD
ENDBRANCH  37  38
ENDBRANCH  31  37
BRANCH  32  40
ATOM     40  O   UNL     1     -67.878 -42.265 -37.832  1.00  0.00    -0.387 OA
ATOM     41  H   UNL     1     -67.549 -43.114 -38.230  1.00  0.00     0.211 HD
ENDBRANCH  32  40
ENDBRANCH   1  27
TORSDOF 12
ENDMDL
MODEL 7
REMARK VINA RESULT:    -7.061      2.165      6.524
REMARK INTER + INTRA:         -11.827
REMARK INTER:                 -12.597
REMARK INTRA:                   0.770
REMARK UNBOUND:                -1.463
REMARK SMILES O=c1c(O[C@H]2O[C@H](CO)[C@H](O)[C@@H](O)[C@@H]2O)c(-c2ccc(O)c(O)c2)oc2cc(O)cc(O)c12
REMARK SMILES IDX 4 1 3 2 16 3 25 4 2 5 26 6 1 7 33 8 27 9 31 10 28 11 30 12
REMARK SMILES IDX 17 13 18 14 19 15 20 16 24 17 22 18 21 19 23 21 32 23 29 25
REMARK SMILES IDX 5 27 14 28 6 29 12 30 7 31 10 32 15 33 13 35 8 37 9 38 11 40
REMARK H PARENT 21 20 23 22 32 24 29 26 15 34 13 36 9 39 11 41
REMARK Flexibility Score: inf
ROOT
ATOM      1  O   UNL     1     -66.220 -39.671 -33.058  1.00  0.00    -0.454 OA
ENDROOT
BRANCH   1   2
ATOM      2  C   UNL     1     -66.513 -38.603 -33.907  1.00  0.00     0.214 A 
ATOM      3  C   UNL     1     -66.706 -38.760 -35.306  1.00  0.00     0.180 A 
ATOM      4  O   UNL     1     -66.639 -37.674 -36.086  1.00  0.00    -0.452 OA
ATOM      5  C   UNL     1     -66.524 -37.309 -33.368  1.00  0.00     0.239 A 
ATOM      6  C   UNL     1     -66.488 -36.435 -35.621  1.00  0.00     0.146 A 
ATOM      7  O   UNL     1     -66.514 -37.158 -32.115  1.00  0.00    -0.285 OA
ATOM      8  C   UNL     1     -66.497 -36.192 -34.225  1.00  0.00     0.111 A 
ATOM      9  C   UNL     1     -66.315 -35.372 -36.523  1.00  0.00     0.094 A 
ATOM     10  C   UNL     1     -66.449 -34.861 -33.756  1.00  0.00     0.134 A 
ATOM     11  C   UNL     1     -66.185 -34.061 -36.041  1.00  0.00     0.123 A 
ATOM     12  C   UNL     1     -66.289 -33.808 -34.666  1.00  0.00     0.093 A 
BRANCH   3  13
ATOM     13  C   UNL     1     -67.053 -40.057 -35.963  1.00  0.00     0.025 A 
ATOM     14  C   UNL     1     -66.351 -41.253 -35.744  1.00  0.00     0.016 A 
ATOM     15  C   UNL     1     -66.750 -42.442 -36.357  1.00  0.00     0.051 A 
ATOM     16  C   UNL     1     -67.858 -42.478 -37.205  1.00  0.00     0.157 A 
ATOM     17  C   UNL     1     -68.156 -40.088 -36.835  1.00  0.00     0.062 A 
ATOM     18  C   UNL     1     -68.576 -41.286 -37.437  1.00  0.00     0.158 A 
BRANCH  16  19
ATOM     19  O   UNL     1     -68.189 -43.687 -37.811  1.00  0.00    -0.504 OA
ATOM     20  H   UNL     1     -69.105 -43.908 -38.180  1.00  0.00     0.293 HD
ENDBRANCH  16  19
BRANCH  18  21
ATOM     21  O   UNL     1     -69.718 -41.244 -38.244  1.00  0.00    -0.504 OA
ATOM     22  H   UNL     1     -70.340 -40.449 -38.295  1.00  0.00     0.293 HD
ENDBRANCH  18  21
ENDBRANCH   3  13
BRANCH  10  23
ATOM     23  O   UNL     1     -66.548 -34.583 -32.391  1.00  0.00    -0.507 OA
ATOM     24  H   UNL     1     -66.314 -35.254 -31.672  1.00  0.00     0.293 HD
ENDBRANCH  10  23
BRANCH  11  25
ATOM     25  O   UNL     1     -65.909 -33.025 -36.928  1.00  0.00    -0.508 OA
ATOM     26  H   UNL     1     -64.989 -32.604 -36.962  1.00  0.00     0.293 HD
ENDBRANCH  11  25
ENDBRANCH   1   2
BRANCH   1  27
ATOM     27  C   UNL     1     -66.045 -39.444 -31.655  1.00  0.00     0.339 C 
ATOM     28  C   UNL     1     -64.554 -39.307 -31.326  1.00  0.00     0.214 C 
ATOM     29  O   UNL     1     -66.639 -40.508 -30.928  1.00  0.00    -0.332 OA
ATOM     30  C   UNL     1     -64.378 -38.866 -29.856  1.00  0.00     0.180 C 
ATOM     31  C   UNL     1     -66.283 -40.570 -29.546  1.00  0.00     0.179 C 
ATOM     32  C   UNL     1     -65.572 -39.303 -28.972  1.00  0.00     0.177 C 
BRANCH  28  33
ATOM     33  O   UNL     1     -63.956 -38.379 -32.196  1.00  0.00    -0.384 OA
ATOM     34  H   UNL     1     -63.236 -37.932 -31.675  1.00  0.00     0.211 HD
ENDBRANCH  28  33
BRANCH  30  35
ATOM     35  O   UNL     1     -63.180 -39.418 -29.339  1.00  0.00    -0.387 OA
ATOM     36  H   UNL     1     -63.383 -40.353 -29.062  1.00  0.00     0.211 HD
ENDBRANCH  30  35
BRANCH  31  37
ATOM     37  C   UNL     1     -67.536 -40.929 -28.717  1.00  0.00     0.191 C 
BRANCH  37  38
ATOM     38  O   UNL     1     -67.503 -40.316 -27.457  1.00  0.00    -0.394 OA
ATOM     39  H   UNL     1     -66.624 -39.861 -27.366  1.00  0.00     0.210 HD
ENDBRANCH  37  38
ENDBRANCH  31  37
BRANCH  32  40
ATOM     40  O   UNL     1     -66.491 -38.242 -28.872  1.00  0.00    -0.387 OA
ATOM     41  H   UNL     1     -67.084 -38.307 -29.667  1.00  0.00     0.211 HD
ENDBRANCH  32  40
ENDBRANCH   1  27
TORSDOF 12
ENDMDL
MODEL 8
REMARK VINA RESULT:    -6.765      1.766      4.567
REMARK INTER + INTRA:         -11.391
REMARK INTER:                 -11.944
REMARK INTRA:                   0.552
REMARK UNBOUND:                -1.463
REMARK SMILES O=c1c(O[C@H]2O[C@H](CO)[C@H](O)[C@@H](O)[C@@H]2O)c(-c2ccc(O)c(O)c2)oc2cc(O)cc(O)c12
REMARK SMILES IDX 4 1 3 2 16 3 25 4 2 5 26 6 1 7 33 8 27 9 31 10 28 11 30 12
REMARK SMILES IDX 17 13 18 14 19 15 20 16 24 17 22 18 21 19 23 21 32 23 29 25
REMARK SMILES IDX 5 27 14 28 6 29 12 30 7 31 10 32 15 33 13 35 8 37 9 38 11 40
REMARK H PARENT 21 20 23 22 32 24 29 26 15 34 13 36 9 39 11 41
REMARK Flexibility Score: inf
ROOT
ATOM      1  O   UNL     1     -68.336 -37.712 -35.090  1.00  0.00    -0.454 OA
ENDROOT
BRANCH   1   2
ATOM      2  C   UNL     1     -67.858 -38.937 -35.560  1.00  0.00     0.214 A 
ATOM      3  C   UNL     1     -66.663 -39.534 -35.078  1.00  0.00     0.180 A 
ATOM      4  O   UNL     1     -66.099 -40.508 -35.803  1.00  0.00    -0.452 OA
ATOM      5  C   UNL     1     -68.540 -39.554 -36.619  1.00  0.00     0.239 A 
ATOM      6  C   UNL     1     -66.637 -41.016 -36.910  1.00  0.00     0.146 A 
ATOM      7  O   UNL     1     -69.681 -39.131 -36.953  1.00  0.00    -0.285 OA
ATOM      8  C   UNL     1     -67.928 -40.606 -37.327  1.00  0.00     0.111 A 
ATOM      9  C   UNL     1     -65.916 -41.956 -37.664  1.00  0.00     0.094 A 
ATOM     10  C   UNL     1     -68.528 -41.238 -38.439  1.00  0.00     0.134 A 
ATOM     11  C   UNL     1     -66.489 -42.517 -38.816  1.00  0.00     0.123 A 
ATOM     12  C   UNL     1     -67.803 -42.184 -39.175  1.00  0.00     0.093 A 
BRANCH   3  13
ATOM     13  C   UNL     1     -66.025 -39.195 -33.770  1.00  0.00     0.025 A 
ATOM     14  C   UNL     1     -64.918 -38.339 -33.642  1.00  0.00     0.016 A 
ATOM     15  C   UNL     1     -64.394 -38.028 -32.387  1.00  0.00     0.051 A 
ATOM     16  C   UNL     1     -64.952 -38.558 -31.222  1.00  0.00     0.157 A 
ATOM     17  C   UNL     1     -66.574 -39.745 -32.598  1.00  0.00     0.062 A 
ATOM     18  C   UNL     1     -66.064 -39.419 -31.331  1.00  0.00     0.158 A 
BRANCH  16  19
ATOM     19  O   UNL     1     -64.366 -38.235 -30.001  1.00  0.00    -0.504 OA
ATOM     20  H   UNL     1     -63.773 -37.429 -29.848  1.00  0.00     0.293 HD
ENDBRANCH  16  19
BRANCH  18  21
ATOM     21  O   UNL     1     -66.704 -39.962 -30.211  1.00  0.00    -0.504 OA
ATOM     22  H   UNL     1     -67.691 -40.173 -30.177  1.00  0.00     0.293 HD
ENDBRANCH  18  21
ENDBRANCH   3  13
BRANCH  10  23
ATOM     23  O   UNL     1     -69.833 -40.921 -38.819  1.00  0.00    -0.507 OA
ATOM     24  H   UNL     1     -70.632 -41.492 -38.581  1.00  0.00     0.293 HD
ENDBRANCH  10  23
BRANCH  11  25
ATOM     25  O   UNL     1     -65.735 -43.368 -39.618  1.00  0.00    -0.508 OA
ATOM     26  H   UNL     1     -66.047 -43.611 -40.550  1.00  0.00     0.293 HD
ENDBRANCH  11  25
ENDBRANCH   1   2
BRANCH   1  27
ATOM     27  C   UNL     1     -67.601 -36.510 -35.348  1.00  0.00     0.339 C 
ATOM     28  C   UNL     1     -66.630 -36.728 -36.513  1.00  0.00     0.214 C 
ATOM     29  O   UNL     1     -66.915 -36.116 -34.170  1.00  0.00    -0.332 OA
ATOM     30  C   UNL     1     -65.984 -35.384 -36.919  1.00  0.00     0.180 C 
ATOM     31  C   UNL     1     -65.913 -35.116 -34.359  1.00  0.00     0.179 C 
ATOM     32  C   UNL     1     -65.939 -34.383 -35.738  1.00  0.00     0.177 C 
BRANCH  28  33
ATOM     33  O   UNL     1     -67.310 -37.300 -37.602  1.00  0.00    -0.384 OA
ATOM     34  H   UNL     1     -68.275 -37.100 -37.465  1.00  0.00     0.211 HD
ENDBRANCH  28  33
BRANCH  30  35
ATOM     35  O   UNL     1     -64.670 -35.617 -37.393  1.00  0.00    -0.387 OA
ATOM     36  H   UNL     1     -64.729 -36.333 -38.081  1.00  0.00     0.211 HD
ENDBRANCH  30  35
BRANCH  31  37
ATOM     37  C   UNL     1     -65.979 -34.107 -33.191  1.00  0.00     0.191 C 
BRANCH  37  38
ATOM     38  O   UNL     1     -66.770 -34.597 -32.142  1.00  0.00    -0.394 OA
ATOM     39  H   UNL     1     -67.624 -34.089 -32.147  1.00  0.00     0.210 HD
ENDBRANCH  37  38
ENDBRANCH  31  37
BRANCH  32  40
ATOM     40  O   UNL     1     -67.056 -33.530 -35.806  1.00  0.00    -0.387 OA
ATOM     41  H   UNL     1     -67.341 -33.362 -34.869  1.00  0.00     0.211 HD
ENDBRANCH  32  40
ENDBRANCH   1  27
TORSDOF 12
ENDMDL
MODEL 9
REMARK VINA RESULT:    -6.594      2.362      7.610
REMARK INTER + INTRA:         -11.140
REMARK INTER:                  -9.914
REMARK INTRA:                  -1.227
REMARK UNBOUND:                -1.463
REMARK SMILES O=c1c(O[C@H]2O[C@H](CO)[C@H](O)[C@@H](O)[C@@H]2O)c(-c2ccc(O)c(O)c2)oc2cc(O)cc(O)c12
REMARK SMILES IDX 4 1 3 2 16 3 25 4 2 5 26 6 1 7 33 8 27 9 31 10 28 11 30 12
REMARK SMILES IDX 17 13 18 14 19 15 20 16 24 17 22 18 21 19 23 21 32 23 29 25
REMARK SMILES IDX 5 27 14 28 6 29 12 30 7 31 10 32 15 33 13 35 8 37 9 38 11 40
REMARK H PARENT 21 20 23 22 32 24 29 26 15 34 13 36 9 39 11 41
REMARK Flexibility Score: inf
ROOT
ATOM      1  O   UNL     1     -66.840 -36.724 -33.130  1.00  0.00    -0.454 OA
ENDROOT
BRANCH   1   2
ATOM      2  C   UNL     1     -65.953 -37.556 -32.446  1.00  0.00     0.214 A 
ATOM      3  C   UNL     1     -65.590 -38.847 -32.915  1.00  0.00     0.180 A 
ATOM      4  O   UNL     1     -65.024 -39.703 -32.055  1.00  0.00    -0.452 OA
ATOM      5  C   UNL     1     -65.475 -37.134 -31.197  1.00  0.00     0.239 A 
ATOM      6  C   UNL     1     -64.698 -39.389 -30.802  1.00  0.00     0.146 A 
ATOM      7  O   UNL     1     -65.652 -35.938 -30.836  1.00  0.00    -0.285 OA
ATOM      8  C   UNL     1     -64.845 -38.057 -30.341  1.00  0.00     0.111 A 
ATOM      9  C   UNL     1     -64.213 -40.386 -29.941  1.00  0.00     0.094 A 
ATOM     10  C   UNL     1     -64.390 -37.721 -29.047  1.00  0.00     0.134 A 
ATOM     11  C   UNL     1     -63.840 -40.057 -28.629  1.00  0.00     0.123 A 
ATOM     12  C   UNL     1     -63.895 -38.723 -28.201  1.00  0.00     0.093 A 
BRANCH   3  13
ATOM     13  C   UNL     1     -65.733 -39.294 -34.334  1.00  0.00     0.025 A 
ATOM     14  C   UNL     1     -64.669 -39.335 -35.250  1.00  0.00     0.016 A 
ATOM     15  C   UNL     1     -64.859 -39.802 -36.550  1.00  0.00     0.051 A 
ATOM     16  C   UNL     1     -66.112 -40.243 -36.981  1.00  0.00     0.157 A 
ATOM     17  C   UNL     1     -67.000 -39.718 -34.774  1.00  0.00     0.062 A 
ATOM     18  C   UNL     1     -67.193 -40.210 -36.075  1.00  0.00     0.158 A 
BRANCH  16  19
ATOM     19  O   UNL     1     -66.246 -40.670 -38.300  1.00  0.00    -0.504 OA
ATOM     20  H   UNL     1     -65.631 -40.394 -39.054  1.00  0.00     0.293 HD
ENDBRANCH  16  19
BRANCH  18  21
ATOM     21  O   UNL     1     -68.470 -40.668 -36.417  1.00  0.00    -0.504 OA
ATOM     22  H   UNL     1     -69.324 -40.282 -36.038  1.00  0.00     0.293 HD
ENDBRANCH  18  21
ENDBRANCH   3  13
BRANCH  10  23
ATOM     23  O   UNL     1     -64.437 -36.400 -28.596  1.00  0.00    -0.507 OA
ATOM     24  H   UNL     1     -64.143 -35.614 -29.158  1.00  0.00     0.293 HD
ENDBRANCH  10  23
BRANCH  11  25
ATOM     25  O   UNL     1     -63.459 -41.063 -27.747  1.00  0.00    -0.508 OA
ATOM     26  H   UNL     1     -62.484 -41.317 -27.642  1.00  0.00     0.293 HD
ENDBRANCH  11  25
ENDBRANCH   1   2
BRANCH   1  27
ATOM     27  C   UNL     1     -66.534 -36.289 -34.460  1.00  0.00     0.339 C 
ATOM     28  C   UNL     1     -66.290 -34.775 -34.475  1.00  0.00     0.214 C 
ATOM     29  O   UNL     1     -67.596 -36.648 -35.330  1.00  0.00    -0.332 OA
ATOM     30  C   UNL     1     -65.768 -34.340 -35.862  1.00  0.00     0.180 C 
ATOM     31  C   UNL     1     -67.568 -36.021 -36.612  1.00  0.00     0.179 C 
ATOM     32  C   UNL     1     -66.233 -35.300 -36.984  1.00  0.00     0.177 C 
BRANCH  28  33
ATOM     33  O   UNL     1     -65.371 -34.430 -33.468  1.00  0.00    -0.384 OA
ATOM     34  H   UNL     1     -65.787 -33.686 -32.955  1.00  0.00     0.211 HD
ENDBRANCH  28  33
BRANCH  30  35
ATOM     35  O   UNL     1     -66.219 -33.027 -36.144  1.00  0.00    -0.387 OA
ATOM     36  H   UNL     1     -67.040 -33.112 -36.700  1.00  0.00     0.211 HD
ENDBRANCH  30  35
BRANCH  31  37
ATOM     37  C   UNL     1     -67.962 -37.054 -37.690  1.00  0.00     0.191 C 
BRANCH  37  38
ATOM     38  O   UNL     1     -69.099 -37.778 -37.307  1.00  0.00    -0.394 OA
ATOM     39  H   UNL     1     -69.810 -37.123 -37.075  1.00  0.00     0.210 HD
ENDBRANCH  37  38
ENDBRANCH  31  37
BRANCH  32  40
ATOM     40  O   UNL     1     -65.227 -36.252 -37.231  1.00  0.00    -0.387 OA
ATOM     41  H   UNL     1     -64.733 -36.368 -36.377  1.00  0.00     0.211 HD
ENDBRANCH  32  40
ENDBRANCH   1  27
TORSDOF 12
ENDMDL
