MODEL 1
REMARK VINA RESULT:    -2.137      0.000      0.000
REMARK INTER + INTRA:          -4.552
REMARK INTER:                  -3.012
REMARK INTRA:                  -1.540
REMARK UNBOUND:                -1.540
REMARK SMILES C=C(CC[C@@H](C(=O)[O-])[C@@H]1[C@@H](O)C[C@]2(C)C3=C(CC[C@]12C)[C@@]1(C)CC[C@@H](O)C(C)(C)[C@H]1CC3)C(C)C
REMARK SMILES IDX 4 1 5 2 6 3 7 4 8 5 9 6 10 7 19 8 12 9 13 10 18 11 20 12
REMARK SMILES IDX 14 13 15 14 17 15 16 16 32 17 21 18 31 19 30 20 23 21 22 22
REMARK SMILES IDX 27 23 24 24 25 25 28 26 29 27 11 28 26 30 3 32 2 33 1 34
REMARK SMILES IDX 33 35 34 36 35 37
REMARK H PARENT 11 29 26 31
REMARK Flexibility Score: inf
ROOT
ATOM      1  C   UNL     1      97.418 112.388 109.878  1.00  0.00     0.014 C 
ENDROOT
BRANCH   1   2
ATOM      2  C   UNL     1      97.121 113.210 111.157  1.00  0.00     0.042 C 
BRANCH   2   3
ATOM      3  C   UNL     1      95.683 113.680 111.142  1.00  0.00     0.045 C 
ATOM      4  O   UNL     1      95.366 114.832 111.541  1.00  0.00    -0.550 OA
ATOM      5  O   UNL     1      94.677 112.798 110.764  1.00  0.00    -0.550 OA
ENDBRANCH   2   3
BRANCH   2   6
ATOM      6  C   UNL     1      97.573 112.419 112.438  1.00  0.00     0.033 C 
ATOM      7  C   UNL     1      96.489 112.193 113.507  1.00  0.00     0.119 C 
ATOM      8  C   UNL     1      98.854 112.884 113.205  1.00  0.00    -0.017 C 
ATOM      9  C   UNL     1      97.220 112.089 114.851  1.00  0.00     0.043 C 
ATOM     10  C   UNL     1      98.742 112.123 114.575  1.00  0.00    -0.003 C 
ATOM     11  C   UNL     1      98.839 114.405 113.472  1.00  0.00     0.012 C 
ATOM     12  C   UNL     1     100.133 112.527 112.394  1.00  0.00     0.013 C 
ATOM     13  C   UNL     1      99.265 110.657 114.454  1.00  0.00     0.017 C 
ATOM     14  C   UNL     1      99.460 112.801 115.766  1.00  0.00    -0.064 C 
ATOM     15  C   UNL     1      99.963 114.838 114.404  1.00  0.00     0.032 C 
ATOM     16  C   UNL     1     100.016 114.052 115.708  1.00  0.00    -0.064 C 
ATOM     17  C   UNL     1      99.437 112.077 117.093  1.00  0.00     0.032 C 
ATOM     18  C   UNL     1     100.909 114.586 116.880  1.00  0.00    -0.008 C 
ATOM     19  C   UNL     1      99.267 113.073 118.225  1.00  0.00     0.009 C 
ATOM     20  C   UNL     1     100.523 113.960 118.302  1.00  0.00     0.007 C 
ATOM     21  C   UNL     1     100.850 116.142 116.921  1.00  0.00     0.014 C 
ATOM     22  C   UNL     1     102.361 114.174 116.517  1.00  0.00     0.016 C 
ATOM     23  C   UNL     1     100.495 114.950 119.538  1.00  0.00    -0.006 C 
ATOM     24  C   UNL     1     101.554 116.820 118.109  1.00  0.00     0.033 C 
ATOM     25  C   UNL     1     101.654 115.974 119.386  1.00  0.00     0.120 C 
ATOM     26  C   UNL     1     100.742 114.149 120.848  1.00  0.00     0.014 C 
ATOM     27  C   UNL     1      99.130 115.678 119.704  1.00  0.00     0.014 C 
BRANCH   7  28
ATOM     28  O   UNL     1      95.783 111.007 113.237  1.00  0.00    -0.393 OA
ATOM     29  H   UNL     1      95.537 110.614 114.115  1.00  0.00     0.210 HD
ENDBRANCH   7  28
BRANCH  25  30
ATOM     30  O   UNL     1     101.709 116.847 120.491  1.00  0.00    -0.393 OA
ATOM     31  H   UNL     1     102.175 116.373 121.230  1.00  0.00     0.210 HD
ENDBRANCH  25  30
ENDBRANCH   2   6
ENDBRANCH   1   2
BRANCH   1  32
ATOM     32  C   UNL     1      98.598 112.952 109.067  1.00  0.00     0.031 C 
BRANCH  32  33
ATOM     33  C   UNL     1      99.779 112.000 109.094  1.00  0.00    -0.075 C 
ATOM     34  C   UNL     1      99.556 110.685 109.259  1.00  0.00     0.008 C 
BRANCH  33  35
ATOM     35  C   UNL     1     101.197 112.505 108.875  1.00  0.00     0.008 C 
ATOM     36  C   UNL     1     102.221 111.646 109.631  1.00  0.00     0.012 C 
ATOM     37  C   UNL     1     101.321 113.982 109.271  1.00  0.00     0.012 C 
ENDBRANCH  33  35
ENDBRANCH  32  33
ENDBRANCH   1  32
TORSDOF 8
ENDMDL
MODEL 2
REMARK VINA RESULT:    -1.106      2.649      5.389
REMARK INTER + INTRA:          -3.099
REMARK INTER:                  -3.516
REMARK INTRA:                   0.417
REMARK UNBOUND:                -1.540
REMARK SMILES C=C(CC[C@@H](C(=O)[O-])[C@@H]1[C@@H](O)C[C@]2(C)C3=C(CC[C@]12C)[C@@]1(C)CC[C@@H](O)C(C)(C)[C@H]1CC3)C(C)C
REMARK SMILES IDX 4 1 5 2 6 3 7 4 8 5 9 6 10 7 19 8 12 9 13 10 18 11 20 12
REMARK SMILES IDX 14 13 15 14 17 15 16 16 32 17 21 18 31 19 30 20 23 21 22 22
REMARK SMILES IDX 27 23 24 24 25 25 28 26 29 27 11 28 26 30 3 32 2 33 1 34
REMARK SMILES IDX 33 35 34 36 35 37
REMARK H PARENT 11 29 26 31
REMARK Flexibility Score: inf
ROOT
ATOM      1  C   UNL     1     101.133 113.217 113.518  1.00  0.00     0.014 C 
ENDROOT
BRANCH   1   2
ATOM      2  C   UNL     1     100.390 113.403 114.864  1.00  0.00     0.042 C 
BRANCH   2   3
ATOM      3  C   UNL     1     100.065 112.052 115.462  1.00  0.00     0.045 C 
ATOM      4  O   UNL     1     100.329 111.787 116.664  1.00  0.00    -0.550 OA
ATOM      5  O   UNL     1      99.545 111.051 114.649  1.00  0.00    -0.550 OA
ENDBRANCH   2   3
BRANCH   2   6
ATOM      6  C   UNL     1     101.177 114.396 115.795  1.00  0.00     0.033 C 
ATOM      7  C   UNL     1     102.438 113.829 116.472  1.00  0.00     0.119 C 
ATOM      8  C   UNL     1     100.398 115.176 116.905  1.00  0.00    -0.017 C 
ATOM      9  C   UNL     1     102.618 114.610 117.779  1.00  0.00     0.043 C 
ATOM     10  C   UNL     1     101.548 115.727 117.824  1.00  0.00    -0.003 C 
ATOM     11  C   UNL     1      99.496 114.238 117.736  1.00  0.00     0.012 C 
ATOM     12  C   UNL     1      99.517 116.291 116.270  1.00  0.00     0.013 C 
ATOM     13  C   UNL     1     102.161 117.038 117.240  1.00  0.00     0.017 C 
ATOM     14  C   UNL     1     101.146 115.988 119.295  1.00  0.00    -0.064 C 
ATOM     15  C   UNL     1      98.904 114.936 118.953  1.00  0.00     0.032 C 
ATOM     16  C   UNL     1      99.941 115.621 119.833  1.00  0.00    -0.064 C 
ATOM     17  C   UNL     1     102.199 116.579 120.206  1.00  0.00     0.032 C 
ATOM     18  C   UNL     1      99.521 116.106 121.263  1.00  0.00    -0.008 C 
ATOM     19  C   UNL     1     102.103 115.952 121.584  1.00  0.00     0.009 C 
ATOM     20  C   UNL     1     100.769 116.367 122.231  1.00  0.00     0.007 C 
ATOM     21  C   UNL     1      98.529 115.085 121.896  1.00  0.00     0.014 C 
ATOM     22  C   UNL     1      98.758 117.439 121.042  1.00  0.00     0.016 C 
ATOM     23  C   UNL     1     100.635 115.864 123.727  1.00  0.00    -0.006 C 
ATOM     24  C   UNL     1      98.135 115.336 123.361  1.00  0.00     0.033 C 
ATOM     25  C   UNL     1      99.173 116.093 124.202  1.00  0.00     0.120 C 
ATOM     26  C   UNL     1     101.565 116.709 124.642  1.00  0.00     0.014 C 
ATOM     27  C   UNL     1     101.051 114.377 123.909  1.00  0.00     0.014 C 
BRANCH   7  28
ATOM     28  O   UNL     1     103.556 114.002 115.636  1.00  0.00    -0.393 OA
ATOM     29  H   UNL     1     103.608 114.971 115.426  1.00  0.00     0.210 HD
ENDBRANCH   7  28
BRANCH  25  30
ATOM     30  O   UNL     1      99.011 115.713 125.550  1.00  0.00    -0.393 OA
ATOM     31  H   UNL     1      99.861 115.912 126.025  1.00  0.00     0.210 HD
ENDBRANCH  25  30
ENDBRANCH   2   6
ENDBRANCH   1   2
BRANCH   1  32
ATOM     32  C   UNL     1     100.277 113.617 112.304  1.00  0.00     0.031 C 
BRANCH  32  33
ATOM     33  C   UNL     1     100.962 113.231 111.006  1.00  0.00    -0.075 C 
ATOM     34  C   UNL     1     101.782 114.113 110.411  1.00  0.00     0.008 C 
BRANCH  33  35
ATOM     35  C   UNL     1     100.781 111.844 110.407  1.00  0.00     0.008 C 
ATOM     36  C   UNL     1     102.005 111.427 109.579  1.00  0.00     0.012 C 
ATOM     37  C   UNL     1      99.499 111.772 109.567  1.00  0.00     0.012 C 
ENDBRANCH  33  35
ENDBRANCH  32  33
ENDBRANCH   1  32
TORSDOF 8
ENDMDL
MODEL 3
REMARK VINA RESULT:    -0.913      3.151      6.320
REMARK INTER + INTRA:          -2.826
REMARK INTER:                  -2.780
REMARK INTRA:                  -0.047
REMARK UNBOUND:                -1.540
REMARK SMILES C=C(CC[C@@H](C(=O)[O-])[C@@H]1[C@@H](O)C[C@]2(C)C3=C(CC[C@]12C)[C@@]1(C)CC[C@@H](O)C(C)(C)[C@H]1CC3)C(C)C
REMARK SMILES IDX 4 1 5 2 6 3 7 4 8 5 9 6 10 7 19 8 12 9 13 10 18 11 20 12
REMARK SMILES IDX 14 13 15 14 17 15 16 16 32 17 21 18 31 19 30 20 23 21 22 22
REMARK SMILES IDX 27 23 24 24 25 25 28 26 29 27 11 28 26 30 3 32 2 33 1 34
REMARK SMILES IDX 33 35 34 36 35 37
REMARK H PARENT 11 29 26 31
REMARK Flexibility Score: inf
ROOT
ATOM      1  C   UNL     1      99.494 112.391 115.645  1.00  0.00     0.014 C 
ENDROOT
BRANCH   1   2
ATOM      2  C   UNL     1     100.566 113.141 114.815  1.00  0.00     0.042 C 
BRANCH   2   3
ATOM      3  C   UNL     1      99.955 113.648 113.527  1.00  0.00     0.045 C 
ATOM      4  O   UNL     1      98.742 113.981 113.464  1.00  0.00    -0.550 OA
ATOM      5  O   UNL     1     100.720 113.667 112.366  1.00  0.00    -0.550 OA
ENDBRANCH   2   3
BRANCH   2   6
ATOM      6  C   UNL     1     101.297 114.214 115.700  1.00  0.00     0.033 C 
ATOM      7  C   UNL     1     102.581 113.744 116.405  1.00  0.00     0.119 C 
ATOM      8  C   UNL     1     100.474 115.005 116.770  1.00  0.00    -0.017 C 
ATOM      9  C   UNL     1     102.716 114.594 117.675  1.00  0.00     0.043 C 
ATOM     10  C   UNL     1     101.590 115.656 117.664  1.00  0.00    -0.003 C 
ATOM     11  C   UNL     1      99.617 114.063 117.642  1.00  0.00     0.012 C 
ATOM     12  C   UNL     1      99.541 116.043 116.080  1.00  0.00     0.013 C 
ATOM     13  C   UNL     1     102.140 116.967 117.020  1.00  0.00     0.017 C 
ATOM     14  C   UNL     1     101.169 115.965 119.120  1.00  0.00    -0.064 C 
ATOM     15  C   UNL     1      98.984 114.787 118.822  1.00  0.00     0.032 C 
ATOM     16  C   UNL     1      99.981 115.564 119.672  1.00  0.00    -0.064 C 
ATOM     17  C   UNL     1     102.186 116.651 120.005  1.00  0.00     0.032 C 
ATOM     18  C   UNL     1      99.530 116.094 121.076  1.00  0.00    -0.008 C 
ATOM     19  C   UNL     1     102.115 116.085 121.411  1.00  0.00     0.009 C 
ATOM     20  C   UNL     1     100.759 116.463 122.034  1.00  0.00     0.007 C 
ATOM     21  C   UNL     1      98.587 115.055 121.754  1.00  0.00     0.014 C 
ATOM     22  C   UNL     1      98.702 117.375 120.791  1.00  0.00     0.016 C 
ATOM     23  C   UNL     1     100.643 116.024 123.552  1.00  0.00    -0.006 C 
ATOM     24  C   UNL     1      98.174 115.355 123.205  1.00  0.00     0.033 C 
ATOM     25  C   UNL     1      99.169 116.201 124.012  1.00  0.00     0.120 C 
ATOM     26  C   UNL     1     101.525 116.958 124.429  1.00  0.00     0.014 C 
ATOM     27  C   UNL     1     101.132 114.570 123.805  1.00  0.00     0.014 C 
BRANCH   7  28
ATOM     28  O   UNL     1     103.693 113.934 115.565  1.00  0.00    -0.393 OA
ATOM     29  H   UNL     1     103.875 114.910 115.548  1.00  0.00     0.210 HD
ENDBRANCH   7  28
BRANCH  25  30
ATOM     30  O   UNL     1      99.020 115.877 125.375  1.00  0.00    -0.393 OA
ATOM     31  H   UNL     1      98.953 116.729 125.885  1.00  0.00     0.210 HD
ENDBRANCH  25  30
ENDBRANCH   2   6
ENDBRANCH   1   2
BRANCH   1  32
ATOM     32  C   UNL     1      99.936 110.974 116.049  1.00  0.00     0.031 C 
BRANCH  32  33
ATOM     33  C   UNL     1      99.664 110.719 117.520  1.00  0.00    -0.075 C 
ATOM     34  C   UNL     1      98.446 110.293 117.896  1.00  0.00     0.008 C 
BRANCH  33  35
ATOM     35  C   UNL     1     100.763 110.880 118.559  1.00  0.00     0.008 C 
ATOM     36  C   UNL     1     101.073 109.549 119.257  1.00  0.00     0.012 C 
ATOM     37  C   UNL     1     100.396 111.964 119.582  1.00  0.00     0.012 C 
ENDBRANCH  33  35
ENDBRANCH  32  33
ENDBRANCH   1  32
TORSDOF 8
ENDMDL
MODEL 4
REMARK VINA RESULT:     0.109      2.499      5.204
REMARK INTER + INTRA:          -1.387
REMARK INTER:                  -2.055
REMARK INTRA:                   0.668
REMARK UNBOUND:                -1.540
REMARK SMILES C=C(CC[C@@H](C(=O)[O-])[C@@H]1[C@@H](O)C[C@]2(C)C3=C(CC[C@]12C)[C@@]1(C)CC[C@@H](O)C(C)(C)[C@H]1CC3)C(C)C
REMARK SMILES IDX 4 1 5 2 6 3 7 4 8 5 9 6 10 7 19 8 12 9 13 10 18 11 20 12
REMARK SMILES IDX 14 13 15 14 17 15 16 16 32 17 21 18 31 19 30 20 23 21 22 22
REMARK SMILES IDX 27 23 24 24 25 25 28 26 29 27 11 28 26 30 3 32 2 33 1 34
REMARK SMILES IDX 33 35 34 36 35 37
REMARK H PARENT 11 29 26 31
REMARK Flexibility Score: inf
ROOT
ATOM      1  C   UNL     1      99.012 112.802 114.634  1.00  0.00     0.014 C 
ENDROOT
BRANCH   1   2
ATOM      2  C   UNL     1     100.516 112.884 114.276  1.00  0.00     0.042 C 
BRANCH   2   3
ATOM      3  C   UNL     1     100.682 112.989 112.776  1.00  0.00     0.045 C 
ATOM      4  O   UNL     1     100.977 114.082 112.225  1.00  0.00    -0.550 OA
ATOM      5  O   UNL     1     100.418 111.881 111.978  1.00  0.00    -0.550 OA
ENDBRANCH   2   3
BRANCH   2   6
ATOM      6  C   UNL     1     101.226 113.999 115.127  1.00  0.00     0.033 C 
ATOM      7  C   UNL     1     102.573 113.609 115.760  1.00  0.00     0.119 C 
ATOM      8  C   UNL     1     100.414 114.735 116.243  1.00  0.00    -0.017 C 
ATOM      9  C   UNL     1     102.722 114.463 117.025  1.00  0.00     0.043 C 
ATOM     10  C   UNL     1     101.534 115.453 117.080  1.00  0.00    -0.003 C 
ATOM     11  C   UNL     1      99.665 113.740 117.155  1.00  0.00     0.012 C 
ATOM     12  C   UNL     1      99.383 115.714 115.610  1.00  0.00     0.013 C 
ATOM     13  C   UNL     1     101.966 116.797 116.415  1.00  0.00     0.017 C 
ATOM     14  C   UNL     1     101.173 115.732 118.559  1.00  0.00    -0.064 C 
ATOM     15  C   UNL     1      99.053 114.420 118.372  1.00  0.00     0.032 C 
ATOM     16  C   UNL     1     100.044 115.256 119.170  1.00  0.00    -0.064 C 
ATOM     17  C   UNL     1     102.192 116.479 119.391  1.00  0.00     0.032 C 
ATOM     18  C   UNL     1      99.637 115.754 120.600  1.00  0.00    -0.008 C 
ATOM     19  C   UNL     1     102.232 115.907 120.796  1.00  0.00     0.009 C 
ATOM     20  C   UNL     1     100.890 116.197 121.493  1.00  0.00     0.007 C 
ATOM     21  C   UNL     1      98.799 114.657 121.322  1.00  0.00     0.014 C 
ATOM     22  C   UNL     1      98.717 116.982 120.366  1.00  0.00     0.016 C 
ATOM     23  C   UNL     1     100.883 115.749 123.012  1.00  0.00    -0.006 C 
ATOM     24  C   UNL     1      98.447 114.927 122.794  1.00  0.00     0.033 C 
ATOM     25  C   UNL     1      99.428 115.833 123.552  1.00  0.00     0.120 C 
ATOM     26  C   UNL     1     101.752 116.734 123.845  1.00  0.00     0.014 C 
ATOM     27  C   UNL     1     101.476 114.328 123.231  1.00  0.00     0.014 C 
BRANCH   7  28
ATOM     28  O   UNL     1     103.624 113.869 114.862  1.00  0.00    -0.393 OA
ATOM     29  H   UNL     1     104.321 114.359 115.373  1.00  0.00     0.210 HD
ENDBRANCH   7  28
BRANCH  25  30
ATOM     30  O   UNL     1      99.374 115.497 124.919  1.00  0.00    -0.393 OA
ATOM     31  H   UNL     1      98.443 115.653 125.233  1.00  0.00     0.210 HD
ENDBRANCH  25  30
ENDBRANCH   2   6
ENDBRANCH   1   2
BRANCH   1  32
ATOM     32  C   UNL     1      98.176 112.105 113.547  1.00  0.00     0.031 C 
BRANCH  32  33
ATOM     33  C   UNL     1      97.276 113.097 112.835  1.00  0.00    -0.075 C 
ATOM     34  C   UNL     1      97.185 114.353 113.305  1.00  0.00     0.008 C 
BRANCH  33  35
ATOM     35  C   UNL     1      96.528 112.708 111.568  1.00  0.00     0.008 C 
ATOM     36  C   UNL     1      97.497 112.370 110.427  1.00  0.00     0.012 C 
ATOM     37  C   UNL     1      95.548 113.811 111.148  1.00  0.00     0.012 C 
ENDBRANCH  33  35
ENDBRANCH  32  33
ENDBRANCH   1  32
TORSDOF 8
ENDMDL
MODEL 5
REMARK VINA RESULT:     0.380      1.891      3.378
REMARK INTER + INTRA:          -1.005
REMARK INTER:                  -0.823
REMARK INTRA:                  -0.182
REMARK UNBOUND:                -1.540
REMARK SMILES C=C(CC[C@@H](C(=O)[O-])[C@@H]1[C@@H](O)C[C@]2(C)C3=C(CC[C@]12C)[C@@]1(C)CC[C@@H](O)C(C)(C)[C@H]1CC3)C(C)C
REMARK SMILES IDX 4 1 5 2 6 3 7 4 8 5 9 6 10 7 19 8 12 9 13 10 18 11 20 12
REMARK SMILES IDX 14 13 15 14 17 15 16 16 32 17 21 18 31 19 30 20 23 21 22 22
REMARK SMILES IDX 27 23 24 24 25 25 28 26 29 27 11 28 26 30 3 32 2 33 1 34
REMARK SMILES IDX 33 35 34 36 35 37
REMARK H PARENT 11 29 26 31
REMARK Flexibility Score: inf
ROOT
ATOM      1  C   UNL     1     100.083 113.328 112.621  1.00  0.00     0.014 C 
ENDROOT
BRANCH   1   2
ATOM      2  C   UNL     1      99.226 113.754 113.839  1.00  0.00     0.042 C 
BRANCH   2   3
ATOM      3  C   UNL     1      97.756 113.625 113.502  1.00  0.00     0.045 C 
ATOM      4  O   UNL     1      97.029 114.641 113.344  1.00  0.00    -0.550 OA
ATOM      5  O   UNL     1      97.173 112.365 113.451  1.00  0.00    -0.550 OA
ENDBRANCH   2   3
BRANCH   2   6
ATOM      6  C   UNL     1      99.702 113.006 115.136  1.00  0.00     0.033 C 
ATOM      7  C   UNL     1      98.639 112.151 115.850  1.00  0.00     0.119 C 
ATOM      8  C   UNL     1     100.436 113.817 116.255  1.00  0.00    -0.017 C 
ATOM      9  C   UNL     1      99.032 112.119 117.332  1.00  0.00     0.043 C 
ATOM     10  C   UNL     1     100.392 112.841 117.486  1.00  0.00    -0.003 C 
ATOM     11  C   UNL     1      99.676 115.112 116.613  1.00  0.00     0.012 C 
ATOM     12  C   UNL     1     101.878 114.187 115.802  1.00  0.00     0.013 C 
ATOM     13  C   UNL     1     101.536 111.782 117.411  1.00  0.00     0.017 C 
ATOM     14  C   UNL     1     100.451 113.526 118.872  1.00  0.00    -0.064 C 
ATOM     15  C   UNL     1     100.252 115.798 117.844  1.00  0.00     0.032 C 
ATOM     16  C   UNL     1     100.376 114.882 119.055  1.00  0.00    -0.064 C 
ATOM     17  C   UNL     1     100.476 112.629 120.089  1.00  0.00     0.032 C 
ATOM     18  C   UNL     1     100.657 115.517 120.460  1.00  0.00    -0.008 C 
ATOM     19  C   UNL     1      99.636 113.234 121.197  1.00  0.00     0.009 C 
ATOM     20  C   UNL     1     100.303 114.537 121.676  1.00  0.00     0.007 C 
ATOM     21  C   UNL     1      99.889 116.866 120.592  1.00  0.00     0.014 C 
ATOM     22  C   UNL     1     102.177 115.828 120.480  1.00  0.00     0.016 C 
ATOM     23  C   UNL     1      99.565 115.176 122.923  1.00  0.00    -0.006 C 
ATOM     24  C   UNL     1      99.937 117.546 121.971  1.00  0.00     0.033 C 
ATOM     25  C   UNL     1     100.135 116.602 123.165  1.00  0.00     0.120 C 
ATOM     26  C   UNL     1      99.863 114.328 124.192  1.00  0.00     0.014 C 
ATOM     27  C   UNL     1      98.019 115.218 122.760  1.00  0.00     0.014 C 
BRANCH   7  28
ATOM     28  O   UNL     1      98.625 110.851 115.316  1.00  0.00    -0.393 OA
ATOM     29  H   UNL     1      97.699 110.682 114.999  1.00  0.00     0.210 HD
ENDBRANCH   7  28
BRANCH  25  30
ATOM     30  O   UNL     1      99.551 117.197 124.301  1.00  0.00    -0.393 OA
ATOM     31  H   UNL     1      99.545 118.181 124.159  1.00  0.00     0.210 HD
ENDBRANCH  25  30
ENDBRANCH   2   6
ENDBRANCH   1   2
BRANCH   1  32
ATOM     32  C   UNL     1      99.458 112.169 111.826  1.00  0.00     0.031 C 
BRANCH  32  33
ATOM     33  C   UNL     1      99.941 112.173 110.389  1.00  0.00    -0.075 C 
ATOM     34  C   UNL     1      99.094 111.805 109.412  1.00  0.00     0.008 C 
BRANCH  33  35
ATOM     35  C   UNL     1     101.344 112.645 110.034  1.00  0.00     0.008 C 
ATOM     36  C   UNL     1     101.313 113.743 108.963  1.00  0.00     0.012 C 
ATOM     37  C   UNL     1     102.222 111.468 109.589  1.00  0.00     0.012 C 
ENDBRANCH  33  35
ENDBRANCH  32  33
ENDBRANCH   1  32
TORSDOF 8
ENDMDL
