MODEL 1
REMARK VINA RESULT:    -6.505      0.000      0.000
REMARK INTER + INTRA:          -8.099
REMARK INTER:                  -7.456
REMARK INTRA:                  -0.643
REMARK UNBOUND:                -0.643
REMARK SMILES C=C(C)[C@@H]1CC[C@@]2(C(=O)[O-])CC[C@@]3(C)[C@H](CC[C@@H]4[C@@]5(C)CC[C@H](O)C(C)(C)[C@@H]5CC[C@@]43C)[C@@H]12
REMARK SMILES IDX 7 1 6 2 33 3 11 4 5 5 15 6 4 7 12 8 16 9 13 10 17 11 31 12
REMARK SMILES IDX 14 13 18 14 30 15 32 16 19 17 29 18 21 19 20 20 28 21 22 22
REMARK SMILES IDX 25 23 23 24 26 25 27 26 8 27 9 28 10 29 2 30 3 31 1 32 24 33
REMARK H PARENT 24 34
REMARK Flexibility Score: inf
ROOT
ATOM      1  C   UNL     1       8.243 -32.005   6.317  1.00  0.00     0.014 C 
ATOM      2  C   UNL     1       8.109 -32.223   7.835  1.00  0.00     0.014 C 
ATOM      3  C   UNL     1       9.634 -31.354   6.187  1.00  0.00     0.012 C 
ATOM      4  C   UNL     1       7.139 -31.032   5.839  1.00  0.00     0.014 C 
ATOM      5  C   UNL     1       8.846 -31.063   8.505  1.00  0.00     0.009 C 
ATOM      6  C   UNL     1       9.938 -30.645   4.815  1.00  0.00     0.000 C 
ATOM      7  C   UNL     1       9.793 -30.469   7.445  1.00  0.00     0.018 C 
ATOM      8  C   UNL     1       7.366 -30.494   4.418  1.00  0.00     0.008 C 
ATOM      9  C   UNL     1      10.605 -31.644   3.828  1.00  0.00     0.005 C 
ATOM     10  C   UNL     1       8.751 -29.783   4.178  1.00  0.00    -0.024 C 
ATOM     11  C   UNL     1       9.686 -32.075   2.699  1.00  0.00     0.005 C 
ATOM     12  C   UNL     1       8.975 -29.532   2.584  1.00  0.00    -0.024 C 
ATOM     13  C   UNL     1       8.701 -28.396   4.925  1.00  0.00     0.012 C 
ATOM     14  C   UNL     1       9.291 -30.892   1.784  1.00  0.00     0.002 C 
ATOM     15  C   UNL     1      10.168 -28.550   2.353  1.00  0.00     0.008 C 
ATOM     16  C   UNL     1       7.674 -28.855   1.982  1.00  0.00     0.012 C 
ATOM     17  C   UNL     1      10.227 -30.775   0.475  1.00  0.00    -0.026 C 
ATOM     18  C   UNL     1      10.496 -28.240   0.870  1.00  0.00     0.005 C 
ATOM     19  C   UNL     1       9.732 -31.838  -0.564  1.00  0.00     0.010 C 
ATOM     20  C   UNL     1      11.736 -31.050   0.788  1.00  0.00     0.012 C 
ATOM     21  C   UNL     1      10.056 -29.346  -0.137  1.00  0.00     0.003 C 
ATOM     22  C   UNL     1      10.301 -31.661  -1.974  1.00  0.00     0.033 C 
ATOM     23  C   UNL     1      10.549 -29.119  -1.634  1.00  0.00    -0.006 C 
ATOM     24  C   UNL     1       9.983 -30.264  -2.534  1.00  0.00     0.120 C 
ATOM     25  C   UNL     1       9.940 -27.784  -2.148  1.00  0.00     0.014 C 
ATOM     26  C   UNL     1      12.093 -29.005  -1.821  1.00  0.00     0.014 C 
ENDROOT
BRANCH   1  27
ATOM     27  C   UNL     1       8.149 -33.348   5.607  1.00  0.00     0.048 C 
ATOM     28  O   UNL     1       9.152 -34.110   5.551  1.00  0.00    -0.550 OA
ATOM     29  O   UNL     1       6.940 -33.797   5.087  1.00  0.00    -0.550 OA
ENDBRANCH   1  27
BRANCH   7  30
ATOM     30  C   UNL     1      11.240 -30.372   7.913  1.00  0.00    -0.077 C 
ATOM     31  C   UNL     1      11.742 -29.163   8.666  1.00  0.00     0.039 C 
ATOM     32  C   UNL     1      12.081 -31.401   7.721  1.00  0.00     0.008 C 
ENDBRANCH   7  30
BRANCH  24  33
ATOM     33  O   UNL     1      10.490 -30.159  -3.840  1.00  0.00    -0.393 OA
ATOM     34  H   UNL     1      11.061 -29.346  -3.865  1.00  0.00     0.210 HD
ENDBRANCH  24  33
TORSDOF 3
ENDMDL
MODEL 2
REMARK VINA RESULT:    -6.102      1.982      8.107
REMARK INTER + INTRA:          -7.637
REMARK INTER:                  -7.085
REMARK INTRA:                  -0.552
REMARK UNBOUND:                -0.643
REMARK SMILES C=C(C)[C@@H]1CC[C@@]2(C(=O)[O-])CC[C@@]3(C)[C@H](CC[C@@H]4[C@@]5(C)CC[C@H](O)C(C)(C)[C@@H]5CC[C@@]43C)[C@@H]12
REMARK SMILES IDX 7 1 6 2 33 3 11 4 5 5 15 6 4 7 12 8 16 9 13 10 17 11 31 12
REMARK SMILES IDX 14 13 18 14 30 15 32 16 19 17 29 18 21 19 20 20 28 21 22 22
REMARK SMILES IDX 25 23 23 24 26 25 27 26 8 27 9 28 10 29 2 30 3 31 1 32 24 33
REMARK H PARENT 24 34
REMARK Flexibility Score: inf
ROOT
ATOM      1  C   UNL     1      11.003 -29.452  -2.709  1.00  0.00     0.014 C 
ATOM      2  C   UNL     1      11.615 -28.809  -3.966  1.00  0.00     0.014 C 
ATOM      3  C   UNL     1      10.060 -28.350  -2.187  1.00  0.00     0.012 C 
ATOM      4  C   UNL     1      12.125 -29.742  -1.682  1.00  0.00     0.014 C 
ATOM      5  C   UNL     1      11.729 -27.312  -3.674  1.00  0.00     0.009 C 
ATOM      6  C   UNL     1       9.561 -28.517  -0.703  1.00  0.00     0.000 C 
ATOM      7  C   UNL     1      10.772 -27.015  -2.505  1.00  0.00     0.018 C 
ATOM      8  C   UNL     1      11.601 -30.083  -0.279  1.00  0.00     0.008 C 
ATOM      9  C   UNL     1       8.224 -29.309  -0.670  1.00  0.00     0.005 C 
ATOM     10  C   UNL     1      10.645 -29.009   0.364  1.00  0.00    -0.024 C 
ATOM     11  C   UNL     1       8.375 -30.719  -0.127  1.00  0.00     0.005 C 
ATOM     12  C   UNL     1       9.942 -29.626   1.699  1.00  0.00    -0.024 C 
ATOM     13  C   UNL     1      11.532 -27.771   0.764  1.00  0.00     0.012 C 
ATOM     14  C   UNL     1       8.823 -30.729   1.354  1.00  0.00     0.002 C 
ATOM     15  C   UNL     1       9.256 -28.488   2.524  1.00  0.00     0.008 C 
ATOM     16  C   UNL     1      11.059 -30.275   2.616  1.00  0.00     0.012 C 
ATOM     17  C   UNL     1       7.586 -30.869   2.379  1.00  0.00    -0.026 C 
ATOM     18  C   UNL     1       8.534 -28.948   3.816  1.00  0.00     0.005 C 
ATOM     19  C   UNL     1       7.167 -32.378   2.421  1.00  0.00     0.010 C 
ATOM     20  C   UNL     1       6.345 -30.020   1.946  1.00  0.00     0.012 C 
ATOM     21  C   UNL     1       8.064 -30.434   3.803  1.00  0.00     0.003 C 
ATOM     22  C   UNL     1       6.219 -32.743   3.566  1.00  0.00     0.033 C 
ATOM     23  C   UNL     1       7.166 -30.859   5.047  1.00  0.00    -0.006 C 
ATOM     24  C   UNL     1       6.827 -32.380   4.932  1.00  0.00     0.120 C 
ATOM     25  C   UNL     1       8.008 -30.671   6.341  1.00  0.00     0.014 C 
ATOM     26  C   UNL     1       5.858 -30.033   5.244  1.00  0.00     0.014 C 
ENDROOT
BRANCH   1  27
ATOM     27  C   UNL     1      10.266 -30.724  -3.105  1.00  0.00     0.048 C 
ATOM     28  O   UNL     1       9.152 -30.658  -3.691  1.00  0.00    -0.550 OA
ATOM     29  O   UNL     1      10.843 -31.974  -2.907  1.00  0.00    -0.550 OA
ENDBRANCH   1  27
BRANCH   7  30
ATOM     30  C   UNL     1       9.792 -25.886  -2.799  1.00  0.00    -0.077 C 
ATOM     31  C   UNL     1      10.263 -24.461  -2.968  1.00  0.00     0.039 C 
ATOM     32  C   UNL     1       8.488 -26.154  -2.981  1.00  0.00     0.008 C 
ENDBRANCH   7  30
BRANCH  24  33
ATOM     33  O   UNL     1       5.942 -32.766   5.953  1.00  0.00    -0.393 OA
ATOM     34  H   UNL     1       5.021 -32.653   5.596  1.00  0.00     0.210 HD
ENDBRANCH  24  33
TORSDOF 3
ENDMDL
MODEL 3
REMARK VINA RESULT:    -5.709      3.513      6.540
REMARK INTER + INTRA:          -7.187
REMARK INTER:                  -6.503
REMARK INTRA:                  -0.684
REMARK UNBOUND:                -0.643
REMARK SMILES C=C(C)[C@@H]1CC[C@@]2(C(=O)[O-])CC[C@@]3(C)[C@H](CC[C@@H]4[C@@]5(C)CC[C@H](O)C(C)(C)[C@@H]5CC[C@@]43C)[C@@H]12
REMARK SMILES IDX 7 1 6 2 33 3 11 4 5 5 15 6 4 7 12 8 16 9 13 10 17 11 31 12
REMARK SMILES IDX 14 13 18 14 30 15 32 16 19 17 29 18 21 19 20 20 28 21 22 22
REMARK SMILES IDX 25 23 23 24 26 25 27 26 8 27 9 28 10 29 2 30 3 31 1 32 24 33
REMARK H PARENT 24 34
REMARK Flexibility Score: inf
ROOT
ATOM      1  C   UNL     1      10.895 -30.333   1.361  1.00  0.00     0.014 C 
ATOM      2  C   UNL     1      11.440 -31.261   2.461  1.00  0.00     0.014 C 
ATOM      3  C   UNL     1       9.422 -30.773   1.243  1.00  0.00     0.012 C 
ATOM      4  C   UNL     1      11.652 -30.603   0.038  1.00  0.00     0.014 C 
ATOM      5  C   UNL     1      10.699 -32.590   2.312  1.00  0.00     0.009 C 
ATOM      6  C   UNL     1       8.664 -30.300  -0.053  1.00  0.00     0.000 C 
ATOM      7  C   UNL     1       9.427 -32.298   1.494  1.00  0.00     0.018 C 
ATOM      8  C   UNL     1      10.984 -29.972  -1.193  1.00  0.00     0.008 C 
ATOM      9  C   UNL     1       7.961 -28.937   0.201  1.00  0.00     0.005 C 
ATOM     10  C   UNL     1       9.480 -30.375  -1.426  1.00  0.00    -0.024 C 
ATOM     11  C   UNL     1       8.630 -27.775  -0.511  1.00  0.00     0.005 C 
ATOM     12  C   UNL     1       8.823 -29.420  -2.571  1.00  0.00    -0.024 C 
ATOM     13  C   UNL     1       9.466 -31.871  -1.920  1.00  0.00     0.012 C 
ATOM     14  C   UNL     1       8.565 -27.919  -2.050  1.00  0.00     0.002 C 
ATOM     15  C   UNL     1       7.454 -30.005  -3.046  1.00  0.00     0.008 C 
ATOM     16  C   UNL     1       9.790 -29.384  -3.827  1.00  0.00     0.012 C 
ATOM     17  C   UNL     1       7.327 -27.117  -2.702  1.00  0.00    -0.026 C 
ATOM     18  C   UNL     1       6.716 -29.177  -4.128  1.00  0.00     0.005 C 
ATOM     19  C   UNL     1       7.728 -25.605  -2.788  1.00  0.00     0.010 C 
ATOM     20  C   UNL     1       6.018 -27.237  -1.851  1.00  0.00     0.012 C 
ATOM     21  C   UNL     1       7.081 -27.662  -4.147  1.00  0.00     0.003 C 
ATOM     22  C   UNL     1       6.803 -24.751  -3.657  1.00  0.00     0.033 C 
ATOM     23  C   UNL     1       6.197 -26.776  -5.131  1.00  0.00    -0.006 C 
ATOM     24  C   UNL     1       6.716 -25.302  -5.091  1.00  0.00     0.120 C 
ATOM     25  C   UNL     1       6.410 -27.301  -6.579  1.00  0.00     0.014 C 
ATOM     26  C   UNL     1       4.660 -26.810  -4.866  1.00  0.00     0.014 C 
ENDROOT
BRANCH   1  27
ATOM     27  C   UNL     1      11.047 -28.885   1.806  1.00  0.00     0.048 C 
ATOM     28  O   UNL     1      10.236 -28.384   2.632  1.00  0.00    -0.550 OA
ATOM     29  O   UNL     1      12.125 -28.117   1.379  1.00  0.00    -0.550 OA
ENDBRANCH   1  27
BRANCH   7  30
ATOM     30  C   UNL     1       8.150 -32.785   2.168  1.00  0.00    -0.077 C 
ATOM     31  C   UNL     1       7.429 -31.936   3.188  1.00  0.00     0.039 C 
ATOM     32  C   UNL     1       7.605 -33.959   1.812  1.00  0.00     0.008 C 
ENDBRANCH   7  30
BRANCH  24  33
ATOM     33  O   UNL     1       5.888 -24.468  -5.862  1.00  0.00    -0.393 OA
ATOM     34  H   UNL     1       4.982 -24.502  -5.453  1.00  0.00     0.210 HD
ENDBRANCH  24  33
TORSDOF 3
ENDMDL
MODEL 4
REMARK VINA RESULT:    -5.569      2.038      4.203
REMARK INTER + INTRA:          -7.026
REMARK INTER:                  -6.334
REMARK INTRA:                  -0.692
REMARK UNBOUND:                -0.643
REMARK SMILES C=C(C)[C@@H]1CC[C@@]2(C(=O)[O-])CC[C@@]3(C)[C@H](CC[C@@H]4[C@@]5(C)CC[C@H](O)C(C)(C)[C@@H]5CC[C@@]43C)[C@@H]12
REMARK SMILES IDX 7 1 6 2 33 3 11 4 5 5 15 6 4 7 12 8 16 9 13 10 17 11 31 12
REMARK SMILES IDX 14 13 18 14 30 15 32 16 19 17 29 18 21 19 20 20 28 21 22 22
REMARK SMILES IDX 25 23 23 24 26 25 27 26 8 27 9 28 10 29 2 30 3 31 1 32 24 33
REMARK H PARENT 24 34
REMARK Flexibility Score: inf
ROOT
ATOM      1  C   UNL     1       8.385 -31.682   5.691  1.00  0.00     0.014 C 
ATOM      2  C   UNL     1       7.666 -32.299   6.904  1.00  0.00     0.014 C 
ATOM      3  C   UNL     1       7.391 -31.937   4.540  1.00  0.00     0.012 C 
ATOM      4  C   UNL     1       9.713 -32.437   5.442  1.00  0.00     0.014 C 
ATOM      5  C   UNL     1       6.881 -33.501   6.376  1.00  0.00     0.009 C 
ATOM      6  C   UNL     1       7.969 -31.781   3.084  1.00  0.00     0.000 C 
ATOM      7  C   UNL     1       6.739 -33.302   4.856  1.00  0.00     0.018 C 
ATOM      8  C   UNL     1      10.353 -32.123   4.081  1.00  0.00     0.008 C 
ATOM      9  C   UNL     1       7.772 -30.323   2.580  1.00  0.00     0.005 C 
ATOM     10  C   UNL     1       9.432 -32.374   2.829  1.00  0.00    -0.024 C 
ATOM     11  C   UNL     1       9.065 -29.530   2.516  1.00  0.00     0.005 C 
ATOM     12  C   UNL     1      10.121 -31.729   1.500  1.00  0.00    -0.024 C 
ATOM     13  C   UNL     1       9.301 -33.933   2.647  1.00  0.00     0.012 C 
ATOM     14  C   UNL     1      10.062 -30.121   1.491  1.00  0.00     0.002 C 
ATOM     15  C   UNL     1       9.399 -32.243   0.212  1.00  0.00     0.008 C 
ATOM     16  C   UNL     1      11.632 -32.203   1.422  1.00  0.00     0.012 C 
ATOM     17  C   UNL     1       9.984 -29.396   0.053  1.00  0.00    -0.026 C 
ATOM     18  C   UNL     1       9.951 -31.690  -1.126  1.00  0.00     0.005 C 
ATOM     19  C   UNL     1      10.776 -28.047   0.153  1.00  0.00     0.010 C 
ATOM     20  C   UNL     1       8.514 -29.078  -0.382  1.00  0.00     0.012 C 
ATOM     21  C   UNL     1      10.673 -30.313  -1.010  1.00  0.00     0.003 C 
ATOM     22  C   UNL     1      11.067 -27.380  -1.192  1.00  0.00     0.033 C 
ATOM     23  C   UNL     1      11.082 -29.656  -2.401  1.00  0.00    -0.006 C 
ATOM     24  C   UNL     1      11.847 -28.321  -2.126  1.00  0.00     0.120 C 
ATOM     25  C   UNL     1      12.072 -30.616  -3.119  1.00  0.00     0.014 C 
ATOM     26  C   UNL     1       9.906 -29.403  -3.395  1.00  0.00     0.014 C 
ENDROOT
BRANCH   1  27
ATOM     27  C   UNL     1       8.624 -30.201   5.950  1.00  0.00     0.048 C 
ATOM     28  O   UNL     1       7.675 -29.377   5.854  1.00  0.00    -0.550 OA
ATOM     29  O   UNL     1       9.865 -29.743   6.380  1.00  0.00    -0.550 OA
ENDBRANCH   1  27
BRANCH   7  30
ATOM     30  C   UNL     1       5.298 -33.388   4.367  1.00  0.00    -0.077 C 
ATOM     31  C   UNL     1       4.189 -32.629   5.056  1.00  0.00     0.039 C 
ATOM     32  C   UNL     1       5.001 -34.095   3.264  1.00  0.00     0.008 C 
ENDBRANCH   7  30
BRANCH  24  33
ATOM     33  O   UNL     1      12.125 -27.656  -3.333  1.00  0.00    -0.393 OA
ATOM     34  H   UNL     1      11.260 -27.307  -3.676  1.00  0.00     0.210 HD
ENDBRANCH  24  33
TORSDOF 3
ENDMDL
MODEL 5
REMARK VINA RESULT:    -4.855      1.530      7.903
REMARK INTER + INTRA:          -6.207
REMARK INTER:                  -5.836
REMARK INTRA:                  -0.371
REMARK UNBOUND:                -0.643
REMARK SMILES C=C(C)[C@@H]1CC[C@@]2(C(=O)[O-])CC[C@@]3(C)[C@H](CC[C@@H]4[C@@]5(C)CC[C@H](O)C(C)(C)[C@@H]5CC[C@@]43C)[C@@H]12
REMARK SMILES IDX 7 1 6 2 33 3 11 4 5 5 15 6 4 7 12 8 16 9 13 10 17 11 31 12
REMARK SMILES IDX 14 13 18 14 30 15 32 16 19 17 29 18 21 19 20 20 28 21 22 22
REMARK SMILES IDX 25 23 23 24 26 25 27 26 8 27 9 28 10 29 2 30 3 31 1 32 24 33
REMARK H PARENT 24 34
REMARK Flexibility Score: inf
ROOT
ATOM      1  C   UNL     1      10.869 -30.180  -2.223  1.00  0.00     0.014 C 
ATOM      2  C   UNL     1      11.184 -29.535  -3.584  1.00  0.00     0.014 C 
ATOM      3  C   UNL     1       9.749 -29.278  -1.668  1.00  0.00     0.012 C 
ATOM      4  C   UNL     1      12.124 -30.111  -1.319  1.00  0.00     0.014 C 
ATOM      5  C   UNL     1      10.970 -28.031  -3.409  1.00  0.00     0.009 C 
ATOM      6  C   UNL     1       9.453 -29.415  -0.128  1.00  0.00     0.000 C 
ATOM      7  C   UNL     1      10.090 -27.852  -2.158  1.00  0.00     0.018 C 
ATOM      8  C   UNL     1      11.837 -30.429   0.157  1.00  0.00     0.008 C 
ATOM      9  C   UNL     1       8.351 -30.484   0.117  1.00  0.00     0.005 C 
ATOM     10  C   UNL     1      10.724 -29.546   0.834  1.00  0.00    -0.024 C 
ATOM     11  C   UNL     1       8.884 -31.765   0.731  1.00  0.00     0.005 C 
ATOM     12  C   UNL     1      10.322 -30.179   2.281  1.00  0.00    -0.024 C 
ATOM     13  C   UNL     1      11.328 -28.107   1.042  1.00  0.00     0.012 C 
ATOM     14  C   UNL     1       9.466 -31.536   2.146  1.00  0.00     0.002 C 
ATOM     15  C   UNL     1       9.472 -29.156   3.103  1.00  0.00     0.008 C 
ATOM     16  C   UNL     1      11.646 -30.469   3.102  1.00  0.00     0.012 C 
ATOM     17  C   UNL     1       8.406 -31.857   3.318  1.00  0.00    -0.026 C 
ATOM     18  C   UNL     1       9.011 -29.645   4.499  1.00  0.00     0.005 C 
ATOM     19  C   UNL     1       8.361 -33.411   3.511  1.00  0.00     0.010 C 
ATOM     20  C   UNL     1       6.962 -31.356   2.978  1.00  0.00     0.012 C 
ATOM     21  C   UNL     1       8.907 -31.194   4.643  1.00  0.00     0.003 C 
ATOM     22  C   UNL     1       7.645 -33.873   4.781  1.00  0.00     0.033 C 
ATOM     23  C   UNL     1       8.263 -31.694   6.010  1.00  0.00    -0.006 C 
ATOM     24  C   UNL     1       8.283 -33.256   6.038  1.00  0.00     0.120 C 
ATOM     25  C   UNL     1       9.161 -31.200   7.179  1.00  0.00     0.014 C 
ATOM     26  C   UNL     1       6.822 -31.172   6.304  1.00  0.00     0.014 C 
ENDROOT
BRANCH   1  27
ATOM     27  C   UNL     1      10.418 -31.617  -2.442  1.00  0.00     0.048 C 
ATOM     28  O   UNL     1      11.171 -32.577  -2.124  1.00  0.00    -0.550 OA
ATOM     29  O   UNL     1       9.140 -31.900  -2.912  1.00  0.00    -0.550 OA
ENDBRANCH   1  27
BRANCH   7  30
ATOM     30  C   UNL     1       8.847 -27.007  -2.409  1.00  0.00    -0.077 C 
ATOM     31  C   UNL     1       7.501 -27.405  -1.851  1.00  0.00     0.039 C 
ATOM     32  C   UNL     1       8.944 -25.848  -3.081  1.00  0.00     0.008 C 
ENDBRANCH   7  30
BRANCH  24  33
ATOM     33  O   UNL     1       7.620 -33.737   7.181  1.00  0.00    -0.393 OA
ATOM     34  H   UNL     1       7.204 -32.950   7.625  1.00  0.00     0.210 HD
ENDBRANCH  24  33
TORSDOF 3
ENDMDL
MODEL 6
REMARK VINA RESULT:    -4.609      3.833      9.940
REMARK INTER + INTRA:          -5.926
REMARK INTER:                  -5.270
REMARK INTRA:                  -0.655
REMARK UNBOUND:                -0.643
REMARK SMILES C=C(C)[C@@H]1CC[C@@]2(C(=O)[O-])CC[C@@]3(C)[C@H](CC[C@@H]4[C@@]5(C)CC[C@H](O)C(C)(C)[C@@H]5CC[C@@]43C)[C@@H]12
REMARK SMILES IDX 7 1 6 2 33 3 11 4 5 5 15 6 4 7 12 8 16 9 13 10 17 11 31 12
REMARK SMILES IDX 14 13 18 14 30 15 32 16 19 17 29 18 21 19 20 20 28 21 22 22
REMARK SMILES IDX 25 23 23 24 26 25 27 26 8 27 9 28 10 29 2 30 3 31 1 32 24 33
REMARK H PARENT 24 34
REMARK Flexibility Score: inf
ROOT
ATOM      1  C   UNL     1       8.255 -32.084  -6.480  1.00  0.00     0.014 C 
ATOM      2  C   UNL     1       8.187 -32.447  -7.974  1.00  0.00     0.014 C 
ATOM      3  C   UNL     1       9.318 -30.969  -6.447  1.00  0.00     0.012 C 
ATOM      4  C   UNL     1       8.731 -33.316  -5.673  1.00  0.00     0.014 C 
ATOM      5  C   UNL     1       9.601 -32.259  -8.528  1.00  0.00     0.009 C 
ATOM      6  C   UNL     1       9.919 -30.631  -5.031  1.00  0.00     0.000 C 
ATOM      7  C   UNL     1      10.349 -31.352  -7.534  1.00  0.00     0.018 C 
ATOM      8  C   UNL     1       9.140 -32.985  -4.229  1.00  0.00     0.008 C 
ATOM      9  C   UNL     1       9.095 -29.501  -4.352  1.00  0.00     0.005 C 
ATOM     10  C   UNL     1      10.244 -31.873  -4.078  1.00  0.00    -0.024 C 
ATOM     11  C   UNL     1       8.245 -29.992  -3.193  1.00  0.00     0.005 C 
ATOM     12  C   UNL     1      10.363 -31.422  -2.517  1.00  0.00    -0.024 C 
ATOM     13  C   UNL     1      11.611 -32.502  -4.547  1.00  0.00     0.012 C 
ATOM     14  C   UNL     1       9.106 -30.543  -2.031  1.00  0.00     0.002 C 
ATOM     15  C   UNL     1      11.657 -30.573  -2.296  1.00  0.00     0.008 C 
ATOM     16  C   UNL     1      10.482 -32.719  -1.614  1.00  0.00     0.012 C 
ATOM     17  C   UNL     1       9.376 -29.446  -0.880  1.00  0.00    -0.026 C 
ATOM     18  C   UNL     1      11.879 -30.065  -0.849  1.00  0.00     0.005 C 
ATOM     19  C   UNL     1       8.092 -29.365   0.015  1.00  0.00     0.010 C 
ATOM     20  C   UNL     1       9.668 -28.022  -1.461  1.00  0.00     0.012 C 
ATOM     21  C   UNL     1      10.578 -29.926  -0.002  1.00  0.00     0.003 C 
ATOM     22  C   UNL     1       8.281 -28.607   1.330  1.00  0.00     0.033 C 
ATOM     23  C   UNL     1      10.778 -29.237   1.419  1.00  0.00    -0.006 C 
ATOM     24  C   UNL     1       9.409 -29.224   2.174  1.00  0.00     0.120 C 
ATOM     25  C   UNL     1      11.755 -30.115   2.251  1.00  0.00     0.014 C 
ATOM     26  C   UNL     1      11.385 -27.801   1.389  1.00  0.00     0.014 C 
ENDROOT
BRANCH   1  27
ATOM     27  C   UNL     1       6.885 -31.609  -6.017  1.00  0.00     0.048 C 
ATOM     28  O   UNL     1       6.482 -30.449  -6.304  1.00  0.00    -0.550 OA
ATOM     29  O   UNL     1       6.020 -32.469  -5.349  1.00  0.00    -0.550 OA
ENDBRANCH   1  27
BRANCH   7  30
ATOM     30  C   UNL     1      10.986 -30.133  -8.191  1.00  0.00    -0.077 C 
ATOM     31  C   UNL     1      10.323 -29.430  -9.351  1.00  0.00     0.039 C 
ATOM     32  C   UNL     1      12.125 -29.620  -7.698  1.00  0.00     0.008 C 
ENDBRANCH   7  30
BRANCH  24  33
ATOM     33  O   UNL     1       9.523 -28.522   3.386  1.00  0.00    -0.393 OA
ATOM     34  H   UNL     1       9.709 -29.196   4.094  1.00  0.00     0.210 HD
ENDBRANCH  24  33
TORSDOF 3
ENDMDL
MODEL 7
REMARK VINA RESULT:    -4.596      4.563      8.432
REMARK INTER + INTRA:          -5.911
REMARK INTER:                  -5.263
REMARK INTRA:                  -0.648
REMARK UNBOUND:                -0.643
REMARK SMILES C=C(C)[C@@H]1CC[C@@]2(C(=O)[O-])CC[C@@]3(C)[C@H](CC[C@@H]4[C@@]5(C)CC[C@H](O)C(C)(C)[C@@H]5CC[C@@]43C)[C@@H]12
REMARK SMILES IDX 7 1 6 2 33 3 11 4 5 5 15 6 4 7 12 8 16 9 13 10 17 11 31 12
REMARK SMILES IDX 14 13 18 14 30 15 32 16 19 17 29 18 21 19 20 20 28 21 22 22
REMARK SMILES IDX 25 23 23 24 26 25 27 26 8 27 9 28 10 29 2 30 3 31 1 32 24 33
REMARK H PARENT 24 34
REMARK Flexibility Score: inf
ROOT
ATOM      1  C   UNL     1      11.004 -28.692  -1.508  1.00  0.00     0.014 C 
ATOM      2  C   UNL     1      11.629 -28.294  -0.160  1.00  0.00     0.014 C 
ATOM      3  C   UNL     1      10.324 -30.038  -1.185  1.00  0.00     0.012 C 
ATOM      4  C   UNL     1      12.124 -28.884  -2.558  1.00  0.00     0.014 C 
ATOM      5  C   UNL     1      12.043 -29.597   0.526  1.00  0.00     0.009 C 
ATOM      6  C   UNL     1       9.915 -30.917  -2.425  1.00  0.00     0.000 C 
ATOM      7  C   UNL     1      11.248 -30.727  -0.154  1.00  0.00     0.018 C 
ATOM      8  C   UNL     1      11.652 -29.586  -3.840  1.00  0.00     0.008 C 
ATOM      9  C   UNL     1       8.459 -30.589  -2.862  1.00  0.00     0.005 C 
ATOM     10  C   UNL     1      10.964 -30.987  -3.630  1.00  0.00    -0.024 C 
ATOM     11  C   UNL     1       8.384 -29.814  -4.165  1.00  0.00     0.005 C 
ATOM     12  C   UNL     1      10.259 -31.470  -5.017  1.00  0.00    -0.024 C 
ATOM     13  C   UNL     1      12.095 -32.010  -3.232  1.00  0.00     0.012 C 
ATOM     14  C   UNL     1       8.931 -30.629  -5.361  1.00  0.00     0.002 C 
ATOM     15  C   UNL     1       9.862 -32.979  -4.925  1.00  0.00     0.008 C 
ATOM     16  C   UNL     1      11.301 -31.321  -6.203  1.00  0.00     0.012 C 
ATOM     17  C   UNL     1       7.770 -31.390  -6.181  1.00  0.00    -0.026 C 
ATOM     18  C   UNL     1       9.164 -33.560  -6.181  1.00  0.00     0.005 C 
ATOM     19  C   UNL     1       7.080 -30.342  -7.119  1.00  0.00     0.010 C 
ATOM     20  C   UNL     1       6.680 -32.013  -5.245  1.00  0.00     0.012 C 
ATOM     21  C   UNL     1       8.425 -32.505  -7.060  1.00  0.00     0.003 C 
ATOM     22  C   UNL     1       6.169 -30.948  -8.188  1.00  0.00     0.033 C 
ATOM     23  C   UNL     1       7.559 -33.117  -8.247  1.00  0.00    -0.006 C 
ATOM     24  C   UNL     1       6.934 -31.947  -9.073  1.00  0.00     0.120 C 
ATOM     25  C   UNL     1       8.515 -33.893  -9.197  1.00  0.00     0.014 C 
ATOM     26  C   UNL     1       6.446 -34.122  -7.817  1.00  0.00     0.014 C 
ENDROOT
BRANCH   1  27
ATOM     27  C   UNL     1      10.015 -27.618  -1.938  1.00  0.00     0.048 C 
ATOM     28  O   UNL     1       8.834 -27.625  -1.495  1.00  0.00    -0.550 OA
ATOM     29  O   UNL     1      10.415 -26.564  -2.753  1.00  0.00    -0.550 OA
ENDBRANCH   1  27
BRANCH   7  30
ATOM     30  C   UNL     1      10.477 -31.600   0.829  1.00  0.00    -0.077 C 
ATOM     31  C   UNL     1       9.092 -31.221   1.296  1.00  0.00     0.039 C 
ATOM     32  C   UNL     1      10.997 -32.766   1.246  1.00  0.00     0.008 C 
ENDBRANCH   7  30
BRANCH  24  33
ATOM     33  O   UNL     1       6.070 -32.449 -10.062  1.00  0.00    -0.393 OA
ATOM     34  H   UNL     1       6.473 -32.220 -10.942  1.00  0.00     0.210 HD
ENDBRANCH  24  33
TORSDOF 3
ENDMDL
MODEL 8
REMARK VINA RESULT:    -4.507      3.062      8.376
REMARK INTER + INTRA:          -5.808
REMARK INTER:                  -5.511
REMARK INTRA:                  -0.297
REMARK UNBOUND:                -0.643
REMARK SMILES C=C(C)[C@@H]1CC[C@@]2(C(=O)[O-])CC[C@@]3(C)[C@H](CC[C@@H]4[C@@]5(C)CC[C@H](O)C(C)(C)[C@@H]5CC[C@@]43C)[C@@H]12
REMARK SMILES IDX 7 1 6 2 33 3 11 4 5 5 15 6 4 7 12 8 16 9 13 10 17 11 31 12
REMARK SMILES IDX 14 13 18 14 30 15 32 16 19 17 29 18 21 19 20 20 28 21 22 22
REMARK SMILES IDX 25 23 23 24 26 25 27 26 8 27 9 28 10 29 2 30 3 31 1 32 24 33
REMARK H PARENT 24 34
REMARK Flexibility Score: inf
ROOT
ATOM      1  C   UNL     1       6.171 -27.416  -3.199  1.00  0.00     0.014 C 
ATOM      2  C   UNL     1       5.656 -26.378  -4.213  1.00  0.00     0.014 C 
ATOM      3  C   UNL     1       7.329 -26.671  -2.506  1.00  0.00     0.012 C 
ATOM      4  C   UNL     1       6.697 -28.658  -3.958  1.00  0.00     0.014 C 
ATOM      5  C   UNL     1       6.877 -25.578  -4.669  1.00  0.00     0.009 C 
ATOM      6  C   UNL     1       8.328 -27.566  -1.682  1.00  0.00     0.000 C 
ATOM      7  C   UNL     1       7.971 -25.796  -3.607  1.00  0.00     0.018 C 
ATOM      8  C   UNL     1       7.520 -29.612  -3.079  1.00  0.00     0.008 C 
ATOM      9  C   UNL     1       7.862 -27.672  -0.203  1.00  0.00     0.005 C 
ATOM     10  C   UNL     1       8.749 -28.961  -2.341  1.00  0.00    -0.024 C 
ATOM     11  C   UNL     1       7.307 -29.039   0.156  1.00  0.00     0.005 C 
ATOM     12  C   UNL     1       9.341 -29.998  -1.233  1.00  0.00    -0.024 C 
ATOM     13  C   UNL     1       9.850 -28.672  -3.430  1.00  0.00     0.012 C 
ATOM     14  C   UNL     1       8.379 -30.149   0.048  1.00  0.00     0.002 C 
ATOM     15  C   UNL     1      10.739 -29.512  -0.729  1.00  0.00     0.008 C 
ATOM     16  C   UNL     1       9.545 -31.416  -1.912  1.00  0.00     0.012 C 
ATOM     17  C   UNL     1       9.081 -30.479   1.461  1.00  0.00    -0.026 C 
ATOM     18  C   UNL     1      11.406 -30.408   0.346  1.00  0.00     0.005 C 
ATOM     19  C   UNL     1       8.109 -31.397   2.277  1.00  0.00     0.010 C 
ATOM     20  C   UNL     1       9.374 -29.192   2.303  1.00  0.00     0.012 C 
ATOM     21  C   UNL     1      10.410 -31.258   1.191  1.00  0.00     0.003 C 
ATOM     22  C   UNL     1       8.738 -32.056   3.506  1.00  0.00     0.033 C 
ATOM     23  C   UNL     1      11.071 -32.039   2.411  1.00  0.00    -0.006 C 
ATOM     24  C   UNL     1       9.971 -32.892   3.122  1.00  0.00     0.120 C 
ATOM     25  C   UNL     1      12.125 -33.030   1.840  1.00  0.00     0.014 C 
ATOM     26  C   UNL     1      11.815 -31.149   3.454  1.00  0.00     0.014 C 
ENDROOT
BRANCH   1  27
ATOM     27  C   UNL     1       5.046 -27.781  -2.241  1.00  0.00     0.048 C 
ATOM     28  O   UNL     1       4.237 -26.900  -1.842  1.00  0.00    -0.550 OA
ATOM     29  O   UNL     1       4.835 -29.102  -1.859  1.00  0.00    -0.550 OA
ENDBRANCH   1  27
BRANCH   7  30
ATOM     30  C   UNL     1       8.547 -24.496  -3.059  1.00  0.00    -0.077 C 
ATOM     31  C   UNL     1      10.036 -24.246  -3.032  1.00  0.00     0.039 C 
ATOM     32  C   UNL     1       7.727 -23.515  -2.648  1.00  0.00     0.008 C 
ENDBRANCH   7  30
BRANCH  24  33
ATOM     33  O   UNL     1      10.493 -33.508   4.273  1.00  0.00    -0.393 OA
ATOM     34  H   UNL     1       9.906 -33.248   5.032  1.00  0.00     0.210 HD
ENDBRANCH  24  33
TORSDOF 3
ENDMDL
MODEL 9
REMARK VINA RESULT:    -4.480      1.997      8.233
REMARK INTER + INTRA:          -5.777
REMARK INTER:                  -5.381
REMARK INTRA:                  -0.396
REMARK UNBOUND:                -0.643
REMARK SMILES C=C(C)[C@@H]1CC[C@@]2(C(=O)[O-])CC[C@@]3(C)[C@H](CC[C@@H]4[C@@]5(C)CC[C@H](O)C(C)(C)[C@@H]5CC[C@@]43C)[C@@H]12
REMARK SMILES IDX 7 1 6 2 33 3 11 4 5 5 15 6 4 7 12 8 16 9 13 10 17 11 31 12
REMARK SMILES IDX 14 13 18 14 30 15 32 16 19 17 29 18 21 19 20 20 28 21 22 22
REMARK SMILES IDX 25 23 23 24 26 25 27 26 8 27 9 28 10 29 2 30 3 31 1 32 24 33
REMARK H PARENT 24 34
REMARK Flexibility Score: inf
ROOT
ATOM      1  C   UNL     1       9.521 -30.407  -3.489  1.00  0.00     0.014 C 
ATOM      2  C   UNL     1      10.045 -30.140  -4.911  1.00  0.00     0.014 C 
ATOM      3  C   UNL     1      10.141 -29.255  -2.673  1.00  0.00     0.012 C 
ATOM      4  C   UNL     1      10.052 -31.774  -2.993  1.00  0.00     0.014 C 
ATOM      5  C   UNL     1      11.441 -29.534  -4.749  1.00  0.00     0.009 C 
ATOM      6  C   UNL     1      10.128 -29.433  -1.110  1.00  0.00     0.000 C 
ATOM      7  C   UNL     1      11.530 -29.006  -3.305  1.00  0.00     0.018 C 
ATOM      8  C   UNL     1       9.861 -31.998  -1.485  1.00  0.00     0.008 C 
ATOM      9  C   UNL     1       8.837 -28.812  -0.506  1.00  0.00     0.005 C 
ATOM     10  C   UNL     1      10.480 -30.891  -0.554  1.00  0.00    -0.024 C 
ATOM     11  C   UNL     1       7.844 -29.851  -0.016  1.00  0.00     0.005 C 
ATOM     12  C   UNL     1       9.954 -31.097   0.975  1.00  0.00    -0.024 C 
ATOM     13  C   UNL     1      12.046 -31.063  -0.596  1.00  0.00     0.012 C 
ATOM     14  C   UNL     1       8.408 -30.689   1.156  1.00  0.00     0.002 C 
ATOM     15  C   UNL     1      10.799 -30.227   1.960  1.00  0.00     0.008 C 
ATOM     16  C   UNL     1      10.152 -32.615   1.387  1.00  0.00     0.012 C 
ATOM     17  C   UNL     1       7.960 -30.125   2.599  1.00  0.00    -0.026 C 
ATOM     18  C   UNL     1      10.387 -30.322   3.451  1.00  0.00     0.005 C 
ATOM     19  C   UNL     1       6.493 -30.606   2.867  1.00  0.00     0.010 C 
ATOM     20  C   UNL     1       7.992 -28.562   2.671  1.00  0.00     0.012 C 
ATOM     21  C   UNL     1       8.902 -30.733   3.689  1.00  0.00     0.003 C 
ATOM     22  C   UNL     1       6.019 -30.426   4.310  1.00  0.00     0.033 C 
ATOM     23  C   UNL     1       8.424 -30.657   5.206  1.00  0.00    -0.006 C 
ATOM     24  C   UNL     1       6.946 -31.156   5.298  1.00  0.00     0.120 C 
ATOM     25  C   UNL     1       9.295 -31.639   6.040  1.00  0.00     0.014 C 
ATOM     26  C   UNL     1       8.560 -29.257   5.882  1.00  0.00     0.014 C 
ENDROOT
BRANCH   1  27
ATOM     27  C   UNL     1       7.999 -30.371  -3.501  1.00  0.00     0.048 C 
ATOM     28  O   UNL     1       7.386 -29.278  -3.363  1.00  0.00    -0.550 OA
ATOM     29  O   UNL     1       7.260 -31.523  -3.751  1.00  0.00    -0.550 OA
ENDBRANCH   1  27
BRANCH   7  30
ATOM     30  C   UNL     1      11.956 -27.545  -3.222  1.00  0.00    -0.077 C 
ATOM     31  C   UNL     1      12.125 -26.705  -4.465  1.00  0.00     0.039 C 
ATOM     32  C   UNL     1      12.125 -26.959  -2.026  1.00  0.00     0.008 C 
ENDBRANCH   7  30
BRANCH  24  33
ATOM     33  O   UNL     1       6.453 -30.996   6.605  1.00  0.00    -0.393 OA
ATOM     34  H   UNL     1       5.729 -30.316   6.559  1.00  0.00     0.210 HD
ENDBRANCH  24  33
TORSDOF 3
ENDMDL
