MODEL 1
REMARK VINA RESULT:    -5.589      0.000      0.000
REMARK INTER + INTRA:          -6.839
REMARK INTER:                  -6.569
REMARK INTRA:                  -0.269
REMARK UNBOUND:                -0.269
REMARK SMILES O=c1cc(-c2ccc(O)c(O)c2)oc2cc(O)cc(O)c12
REMARK SMILES IDX 4 1 3 2 2 3 1 4 21 5 19 6 18 7 16 8 15 9 14 10 13 11 5 12
REMARK SMILES IDX 6 13 7 14 8 15 12 16 10 17 9 18 11 20 20 22 17 24
REMARK H PARENT 9 19 11 21 20 23 17 25
REMARK Flexibility Score: inf
ROOT
ATOM      1  C   UNL     1       2.675  -4.734  -8.401  1.00  0.00     0.138 A 
ATOM      2  C   UNL     1       3.763  -4.937  -9.263  1.00  0.00     0.100 A 
ATOM      3  C   UNL     1       4.909  -5.577  -8.789  1.00  0.00     0.197 A 
ATOM      4  O   UNL     1       5.888  -5.694  -9.571  1.00  0.00    -0.289 OA
ATOM      5  C   UNL     1       4.953  -6.045  -7.454  1.00  0.00     0.107 A 
ATOM      6  C   UNL     1       6.056  -6.741  -6.871  1.00  0.00     0.134 A 
ATOM      7  C   UNL     1       6.022  -7.068  -5.510  1.00  0.00     0.093 A 
ATOM      8  C   UNL     1       4.903  -6.778  -4.725  1.00  0.00     0.123 A 
ATOM      9  C   UNL     1       3.802  -6.145  -5.296  1.00  0.00     0.094 A 
ATOM     10  C   UNL     1       3.819  -5.773  -6.642  1.00  0.00     0.146 A 
ATOM     11  O   UNL     1       2.754  -5.155  -7.143  1.00  0.00    -0.456 OA
ENDROOT
BRANCH   1  12
ATOM     12  C   UNL     1       1.431  -4.063  -8.852  1.00  0.00     0.021 A 
ATOM     13  C   UNL     1       0.513  -4.701  -9.708  1.00  0.00     0.016 A 
ATOM     14  C   UNL     1      -0.645  -4.041 -10.125  1.00  0.00     0.051 A 
ATOM     15  C   UNL     1      -0.905  -2.731  -9.702  1.00  0.00     0.157 A 
ATOM     16  C   UNL     1       1.170  -2.743  -8.443  1.00  0.00     0.062 A 
ATOM     17  C   UNL     1       0.009  -2.079  -8.859  1.00  0.00     0.158 A 
BRANCH  15  18
ATOM     18  O   UNL     1      -2.063  -2.076 -10.118  1.00  0.00    -0.504 OA
ATOM     19  H   UNL     1      -2.386  -2.129 -11.077  1.00  0.00     0.293 HD
ENDBRANCH  15  18
BRANCH  17  20
ATOM     20  O   UNL     1      -0.217  -0.774  -8.423  1.00  0.00    -0.504 OA
ATOM     21  H   UNL     1       0.255   0.021  -8.835  1.00  0.00     0.293 HD
ENDBRANCH  17  20
ENDBRANCH   1  12
BRANCH   6  22
ATOM     22  O   UNL     1       7.188  -7.150  -7.581  1.00  0.00    -0.507 OA
ATOM     23  H   UNL     1       7.560  -6.687  -8.396  1.00  0.00     0.293 HD
ENDBRANCH   6  22
BRANCH   8  24
ATOM     24  O   UNL     1       4.874  -7.123  -3.375  1.00  0.00    -0.508 OA
ATOM     25  H   UNL     1       4.767  -6.423  -2.651  1.00  0.00     0.293 HD
ENDBRANCH   8  24
TORSDOF 5
ENDMDL
MODEL 2
REMARK VINA RESULT:    -5.302      2.206      7.407
REMARK INTER + INTRA:          -6.501
REMARK INTER:                  -6.235
REMARK INTRA:                  -0.267
REMARK UNBOUND:                -0.269
REMARK SMILES O=c1cc(-c2ccc(O)c(O)c2)oc2cc(O)cc(O)c12
REMARK SMILES IDX 4 1 3 2 2 3 1 4 21 5 19 6 18 7 16 8 15 9 14 10 13 11 5 12
REMARK SMILES IDX 6 13 7 14 8 15 12 16 10 17 9 18 11 20 20 22 17 24
REMARK H PARENT 9 19 11 21 20 23 17 25
REMARK Flexibility Score: inf
ROOT
ATOM      1  C   UNL     1       4.789  -6.903  -6.918  1.00  0.00     0.138 A 
ATOM      2  C   UNL     1       4.074  -7.787  -7.739  1.00  0.00     0.100 A 
ATOM      3  C   UNL     1       2.986  -7.318  -8.477  1.00  0.00     0.197 A 
ATOM      4  O   UNL     1       2.332  -8.148  -9.160  1.00  0.00    -0.289 OA
ATOM      5  C   UNL     1       2.634  -5.949  -8.417  1.00  0.00     0.107 A 
ATOM      6  C   UNL     1       1.565  -5.351  -9.152  1.00  0.00     0.134 A 
ATOM      7  C   UNL     1       1.250  -4.003  -8.935  1.00  0.00     0.093 A 
ATOM      8  C   UNL     1       2.000  -3.219  -8.057  1.00  0.00     0.123 A 
ATOM      9  C   UNL     1       3.076  -3.780  -7.374  1.00  0.00     0.094 A 
ATOM     10  C   UNL     1       3.394  -5.129  -7.540  1.00  0.00     0.146 A 
ATOM     11  O   UNL     1       4.418  -5.629  -6.856  1.00  0.00    -0.456 OA
ENDROOT
BRANCH   1  12
ATOM     12  C   UNL     1       5.956  -7.347  -6.115  1.00  0.00     0.021 A 
ATOM     13  C   UNL     1       5.800  -7.963  -4.858  1.00  0.00     0.016 A 
ATOM     14  C   UNL     1       6.918  -8.361  -4.120  1.00  0.00     0.051 A 
ATOM     15  C   UNL     1       8.209  -8.146  -4.620  1.00  0.00     0.157 A 
ATOM     16  C   UNL     1       7.255  -7.122  -6.603  1.00  0.00     0.062 A 
ATOM     17  C   UNL     1       8.377  -7.522  -5.866  1.00  0.00     0.158 A 
BRANCH  15  18
ATOM     18  O   UNL     1       9.322  -8.546  -3.882  1.00  0.00    -0.504 OA
ATOM     19  H   UNL     1       9.463  -9.515  -3.619  1.00  0.00     0.293 HD
ENDBRANCH  15  18
BRANCH  17  20
ATOM     20  O   UNL     1       9.649  -7.290  -6.389  1.00  0.00    -0.504 OA
ATOM     21  H   UNL     1      10.451  -7.118  -5.797  1.00  0.00     0.293 HD
ENDBRANCH  17  20
ENDBRANCH   1  12
BRANCH   6  22
ATOM     22  O   UNL     1       0.803  -6.021 -10.112  1.00  0.00    -0.507 OA
ATOM     23  H   UNL     1       0.767  -7.022 -10.229  1.00  0.00     0.293 HD
ENDBRANCH   6  22
BRANCH   8  24
ATOM     24  O   UNL     1       1.687  -1.875  -7.861  1.00  0.00    -0.508 OA
ATOM     25  H   UNL     1       1.459  -1.265  -8.637  1.00  0.00     0.293 HD
ENDBRANCH   8  24
TORSDOF 5
ENDMDL
MODEL 3
REMARK VINA RESULT:    -5.014     12.525     15.519
REMARK INTER + INTRA:          -6.163
REMARK INTER:                  -5.895
REMARK INTRA:                  -0.269
REMARK UNBOUND:                -0.269
REMARK SMILES O=c1cc(-c2ccc(O)c(O)c2)oc2cc(O)cc(O)c12
REMARK SMILES IDX 4 1 3 2 2 3 1 4 21 5 19 6 18 7 16 8 15 9 14 10 13 11 5 12
REMARK SMILES IDX 6 13 7 14 8 15 12 16 10 17 9 18 11 20 20 22 17 24
REMARK H PARENT 9 19 11 21 20 23 17 25
REMARK Flexibility Score: inf
ROOT
ATOM      1  C   UNL     1      -6.808   6.928  -6.308  1.00  0.00     0.138 A 
ATOM      2  C   UNL     1      -7.343   6.122  -7.324  1.00  0.00     0.100 A 
ATOM      3  C   UNL     1      -6.496   5.570  -8.285  1.00  0.00     0.197 A 
ATOM      4  O   UNL     1      -7.014   4.898  -9.214  1.00  0.00    -0.289 OA
ATOM      5  C   UNL     1      -5.101   5.799  -8.209  1.00  0.00     0.107 A 
ATOM      6  C   UNL     1      -4.138   5.260  -9.116  1.00  0.00     0.134 A 
ATOM      7  C   UNL     1      -2.794   5.638  -8.997  1.00  0.00     0.093 A 
ATOM      8  C   UNL     1      -2.371   6.487  -7.972  1.00  0.00     0.123 A 
ATOM      9  C   UNL     1      -3.295   6.978  -7.053  1.00  0.00     0.094 A 
ATOM     10  C   UNL     1      -4.648   6.649  -7.165  1.00  0.00     0.146 A 
ATOM     11  O   UNL     1      -5.499   7.153  -6.278  1.00  0.00    -0.456 OA
ENDROOT
BRANCH   1  12
ATOM     12  C   UNL     1      -7.662   7.537  -5.258  1.00  0.00     0.021 A 
ATOM     13  C   UNL     1      -7.648   8.922  -5.001  1.00  0.00     0.016 A 
ATOM     14  C   UNL     1      -8.455   9.465  -3.999  1.00  0.00     0.051 A 
ATOM     15  C   UNL     1      -9.285   8.637  -3.231  1.00  0.00     0.157 A 
ATOM     16  C   UNL     1      -8.487   6.711  -4.473  1.00  0.00     0.062 A 
ATOM     17  C   UNL     1      -9.298   7.253  -3.469  1.00  0.00     0.158 A 
BRANCH  15  18
ATOM     18  O   UNL     1     -10.090   9.183  -2.233  1.00  0.00    -0.504 OA
ATOM     19  H   UNL     1     -10.633   8.597  -1.609  1.00  0.00     0.293 HD
ENDBRANCH  15  18
BRANCH  17  20
ATOM     20  O   UNL     1     -10.109   6.401  -2.720  1.00  0.00    -0.504 OA
ATOM     21  H   UNL     1      -9.977   5.398  -2.716  1.00  0.00     0.293 HD
ENDBRANCH  17  20
ENDBRANCH   1  12
BRANCH   6  22
ATOM     22  O   UNL     1      -4.439   4.342 -10.125  1.00  0.00    -0.507 OA
ATOM     23  H   UNL     1      -5.223   3.707 -10.117  1.00  0.00     0.293 HD
ENDBRANCH   6  22
BRANCH   8  24
ATOM     24  O   UNL     1      -1.029   6.844  -7.854  1.00  0.00    -0.508 OA
ATOM     25  H   UNL     1      -0.426   6.914  -8.665  1.00  0.00     0.293 HD
ENDBRANCH   8  24
TORSDOF 5
ENDMDL
MODEL 4
REMARK VINA RESULT:    -4.868     13.492     16.606
REMARK INTER + INTRA:          -5.991
REMARK INTER:                  -5.721
REMARK INTRA:                  -0.271
REMARK UNBOUND:                -0.269
REMARK SMILES O=c1cc(-c2ccc(O)c(O)c2)oc2cc(O)cc(O)c12
REMARK SMILES IDX 4 1 3 2 2 3 1 4 21 5 19 6 18 7 16 8 15 9 14 10 13 11 5 12
REMARK SMILES IDX 6 13 7 14 8 15 12 16 10 17 9 18 11 20 20 22 17 24
REMARK H PARENT 9 19 11 21 20 23 17 25
REMARK Flexibility Score: inf
ROOT
ATOM      1  C   UNL     1      -6.802   8.128  -5.645  1.00  0.00     0.138 A 
ATOM      2  C   UNL     1      -7.216   8.901  -6.740  1.00  0.00     0.100 A 
ATOM      3  C   UNL     1      -6.356   9.075  -7.826  1.00  0.00     0.197 A 
ATOM      4  O   UNL     1      -6.736   9.819  -8.767  1.00  0.00    -0.289 OA
ATOM      5  C   UNL     1      -5.090   8.443  -7.830  1.00  0.00     0.107 A 
ATOM      6  C   UNL     1      -4.144   8.522  -8.897  1.00  0.00     0.134 A 
ATOM      7  C   UNL     1      -2.883   7.933  -8.744  1.00  0.00     0.093 A 
ATOM      8  C   UNL     1      -2.553   7.221  -7.589  1.00  0.00     0.123 A 
ATOM      9  C   UNL     1      -3.487   7.096  -6.563  1.00  0.00     0.094 A 
ATOM     10  C   UNL     1      -4.741   7.701  -6.670  1.00  0.00     0.146 A 
ATOM     11  O   UNL     1      -5.596   7.571  -5.660  1.00  0.00    -0.456 OA
ENDROOT
BRANCH   1  12
ATOM     12  C   UNL     1      -7.676   7.907  -4.466  1.00  0.00     0.021 A 
ATOM     13  C   UNL     1      -8.827   7.098  -4.536  1.00  0.00     0.016 A 
ATOM     14  C   UNL     1      -9.636   6.917  -3.412  1.00  0.00     0.051 A 
ATOM     15  C   UNL     1      -9.316   7.544  -2.201  1.00  0.00     0.157 A 
ATOM     16  C   UNL     1      -7.370   8.544  -3.250  1.00  0.00     0.062 A 
ATOM     17  C   UNL     1      -8.178   8.363  -2.122  1.00  0.00     0.158 A 
BRANCH  15  18
ATOM     18  O   UNL     1     -10.125   7.359  -1.080  1.00  0.00    -0.504 OA
ATOM     19  H   UNL     1     -10.802   8.057  -0.794  1.00  0.00     0.293 HD
ENDBRANCH  15  18
BRANCH  17  20
ATOM     20  O   UNL     1      -7.834   9.004  -0.932  1.00  0.00    -0.504 OA
ATOM     21  H   UNL     1      -7.193   8.594  -0.265  1.00  0.00     0.293 HD
ENDBRANCH  17  20
ENDBRANCH   1  12
BRANCH   6  22
ATOM     22  O   UNL     1      -4.398   9.139 -10.125  1.00  0.00    -0.507 OA
ATOM     23  H   UNL     1      -4.105   8.787 -11.023  1.00  0.00     0.293 HD
ENDBRANCH   6  22
BRANCH   8  24
ATOM     24  O   UNL     1      -1.300   6.627  -7.454  1.00  0.00    -0.508 OA
ATOM     25  H   UNL     1      -0.450   7.122  -7.694  1.00  0.00     0.293 HD
ENDBRANCH   8  24
TORSDOF 5
ENDMDL
MODEL 5
REMARK VINA RESULT:    -4.817      1.543      2.006
REMARK INTER + INTRA:          -5.931
REMARK INTER:                  -5.665
REMARK INTRA:                  -0.266
REMARK UNBOUND:                -0.269
REMARK SMILES O=c1cc(-c2ccc(O)c(O)c2)oc2cc(O)cc(O)c12
REMARK SMILES IDX 4 1 3 2 2 3 1 4 21 5 19 6 18 7 16 8 15 9 14 10 13 11 5 12
REMARK SMILES IDX 6 13 7 14 8 15 12 16 10 17 9 18 11 20 20 22 17 24
REMARK H PARENT 9 19 11 21 20 23 17 25
REMARK Flexibility Score: inf
ROOT
ATOM      1  C   UNL     1       2.351  -5.386  -8.235  1.00  0.00     0.138 A 
ATOM      2  C   UNL     1       2.804  -6.281  -9.215  1.00  0.00     0.100 A 
ATOM      3  C   UNL     1       3.611  -7.358  -8.847  1.00  0.00     0.197 A 
ATOM      4  O   UNL     1       4.046  -8.110  -9.757  1.00  0.00    -0.289 OA
ATOM      5  C   UNL     1       3.938  -7.559  -7.485  1.00  0.00     0.107 A 
ATOM      6  C   UNL     1       4.726  -8.642  -6.988  1.00  0.00     0.134 A 
ATOM      7  C   UNL     1       5.066  -8.680  -5.630  1.00  0.00     0.093 A 
ATOM      8  C   UNL     1       4.598  -7.709  -4.741  1.00  0.00     0.123 A 
ATOM      9  C   UNL     1       3.788  -6.677  -5.207  1.00  0.00     0.094 A 
ATOM     10  C   UNL     1       3.461  -6.590  -6.562  1.00  0.00     0.146 A 
ATOM     11  O   UNL     1       2.699  -5.579  -6.967  1.00  0.00    -0.456 OA
ENDROOT
BRANCH   1  12
ATOM     12  C   UNL     1       1.488  -4.226  -8.570  1.00  0.00     0.021 A 
ATOM     13  C   UNL     1       1.866  -2.905  -8.260  1.00  0.00     0.016 A 
ATOM     14  C   UNL     1       1.028  -1.834  -8.578  1.00  0.00     0.051 A 
ATOM     15  C   UNL     1      -0.205  -2.062  -9.204  1.00  0.00     0.157 A 
ATOM     16  C   UNL     1       0.242  -4.447  -9.185  1.00  0.00     0.062 A 
ATOM     17  C   UNL     1      -0.599  -3.375  -9.506  1.00  0.00     0.158 A 
BRANCH  15  18
ATOM     18  O   UNL     1      -1.038  -0.990  -9.522  1.00  0.00    -0.504 OA
ATOM     19  H   UNL     1      -0.920  -0.463 -10.379  1.00  0.00     0.293 HD
ENDBRANCH  15  18
BRANCH  17  20
ATOM     20  O   UNL     1      -1.822  -3.635 -10.125  1.00  0.00    -0.504 OA
ATOM     21  H   UNL     1      -2.706  -3.412  -9.686  1.00  0.00     0.293 HD
ENDBRANCH  17  20
ENDBRANCH   1  12
BRANCH   6  22
ATOM     22  O   UNL     1       5.178  -9.706  -7.773  1.00  0.00    -0.507 OA
ATOM     23  H   UNL     1       4.602 -10.460  -8.115  1.00  0.00     0.293 HD
ENDBRANCH   6  22
BRANCH   8  24
ATOM     24  O   UNL     1       4.930  -7.765  -3.389  1.00  0.00    -0.508 OA
ATOM     25  H   UNL     1       4.250  -8.034  -2.687  1.00  0.00     0.293 HD
ENDBRANCH   8  24
TORSDOF 5
ENDMDL
MODEL 6
REMARK VINA RESULT:    -4.745      1.999      2.863
REMARK INTER + INTRA:          -5.846
REMARK INTER:                  -5.555
REMARK INTRA:                  -0.292
REMARK UNBOUND:                -0.269
REMARK SMILES O=c1cc(-c2ccc(O)c(O)c2)oc2cc(O)cc(O)c12
REMARK SMILES IDX 4 1 3 2 2 3 1 4 21 5 19 6 18 7 16 8 15 9 14 10 13 11 5 12
REMARK SMILES IDX 6 13 7 14 8 15 12 16 10 17 9 18 11 20 20 22 17 24
REMARK H PARENT 9 19 11 21 20 23 17 25
REMARK Flexibility Score: inf
ROOT
ATOM      1  C   UNL     1       4.195  -5.999  -7.977  1.00  0.00     0.138 A 
ATOM      2  C   UNL     1       4.346  -7.011  -8.937  1.00  0.00     0.100 A 
ATOM      3  C   UNL     1       5.313  -8.000  -8.750  1.00  0.00     0.197 A 
ATOM      4  O   UNL     1       5.460  -8.861  -9.656  1.00  0.00    -0.289 OA
ATOM      5  C   UNL     1       6.108  -7.996  -7.580  1.00  0.00     0.107 A 
ATOM      6  C   UNL     1       7.102  -8.973  -7.268  1.00  0.00     0.134 A 
ATOM      7  C   UNL     1       7.895  -8.808  -6.125  1.00  0.00     0.093 A 
ATOM      8  C   UNL     1       7.692  -7.735  -5.255  1.00  0.00     0.123 A 
ATOM      9  C   UNL     1       6.692  -6.804  -5.524  1.00  0.00     0.094 A 
ATOM     10  C   UNL     1       5.908  -6.920  -6.674  1.00  0.00     0.146 A 
ATOM     11  O   UNL     1       4.976  -6.000  -6.902  1.00  0.00    -0.456 OA
ENDROOT
BRANCH   1  12
ATOM     12  C   UNL     1       3.182  -4.925  -8.122  1.00  0.00     0.021 A 
ATOM     13  C   UNL     1       3.237  -3.744  -7.357  1.00  0.00     0.016 A 
ATOM     14  C   UNL     1       2.263  -2.754  -7.508  1.00  0.00     0.051 A 
ATOM     15  C   UNL     1       1.213  -2.928  -8.419  1.00  0.00     0.157 A 
ATOM     16  C   UNL     1       2.116  -5.097  -9.024  1.00  0.00     0.062 A 
ATOM     17  C   UNL     1       1.140  -4.106  -9.178  1.00  0.00     0.158 A 
BRANCH  15  18
ATOM     18  O   UNL     1       0.244  -1.937  -8.568  1.00  0.00    -0.504 OA
ATOM     19  H   UNL     1      -0.735  -2.120  -8.382  1.00  0.00     0.293 HD
ENDBRANCH  15  18
BRANCH  17  20
ATOM     20  O   UNL     1       0.105  -4.311 -10.091  1.00  0.00    -0.504 OA
ATOM     21  H   UNL     1      -0.637  -4.978  -9.922  1.00  0.00     0.293 HD
ENDBRANCH  17  20
ENDBRANCH   1  12
BRANCH   6  22
ATOM     22  O   UNL     1       7.333 -10.125  -8.025  1.00  0.00    -0.507 OA
ATOM     23  H   UNL     1       8.243 -10.477  -8.282  1.00  0.00     0.293 HD
ENDBRANCH   6  22
BRANCH   8  24
ATOM     24  O   UNL     1       8.477  -7.589  -4.112  1.00  0.00    -0.508 OA
ATOM     25  H   UNL     1       8.217  -8.017  -3.232  1.00  0.00     0.293 HD
ENDBRANCH   8  24
TORSDOF 5
ENDMDL
MODEL 7
REMARK VINA RESULT:    -4.701     13.034     16.248
REMARK INTER + INTRA:          -5.795
REMARK INTER:                  -5.532
REMARK INTRA:                  -0.262
REMARK UNBOUND:                -0.269
REMARK SMILES O=c1cc(-c2ccc(O)c(O)c2)oc2cc(O)cc(O)c12
REMARK SMILES IDX 4 1 3 2 2 3 1 4 21 5 19 6 18 7 16 8 15 9 14 10 13 11 5 12
REMARK SMILES IDX 6 13 7 14 8 15 12 16 10 17 9 18 11 20 20 22 17 24
REMARK H PARENT 9 19 11 21 20 23 17 25
REMARK Flexibility Score: inf
ROOT
ATOM      1  C   UNL     1      -5.584   7.138  -7.294  1.00  0.00     0.138 A 
ATOM      2  C   UNL     1      -6.322   5.950  -7.408  1.00  0.00     0.100 A 
ATOM      3  C   UNL     1      -7.507   5.802  -6.687  1.00  0.00     0.197 A 
ATOM      4  O   UNL     1      -8.115   4.704  -6.768  1.00  0.00    -0.289 OA
ATOM      5  C   UNL     1      -7.973   6.862  -5.874  1.00  0.00     0.107 A 
ATOM      6  C   UNL     1      -9.186   6.836  -5.119  1.00  0.00     0.134 A 
ATOM      7  C   UNL     1      -9.493   7.909  -4.273  1.00  0.00     0.093 A 
ATOM      8  C   UNL     1      -8.663   9.030  -4.198  1.00  0.00     0.123 A 
ATOM      9  C   UNL     1      -7.504   9.087  -4.968  1.00  0.00     0.094 A 
ATOM     10  C   UNL     1      -7.151   8.018  -5.795  1.00  0.00     0.146 A 
ATOM     11  O   UNL     1      -6.028   8.106  -6.500  1.00  0.00    -0.456 OA
ENDROOT
BRANCH   1  12
ATOM     12  C   UNL     1      -4.319   7.350  -8.041  1.00  0.00     0.021 A 
ATOM     13  C   UNL     1      -4.280   8.089  -9.239  1.00  0.00     0.016 A 
ATOM     14  C   UNL     1      -3.076   8.264  -9.925  1.00  0.00     0.051 A 
ATOM     15  C   UNL     1      -1.892   7.700  -9.433  1.00  0.00     0.157 A 
ATOM     16  C   UNL     1      -3.128   6.776  -7.561  1.00  0.00     0.062 A 
ATOM     17  C   UNL     1      -1.920   6.951  -8.246  1.00  0.00     0.158 A 
BRANCH  15  18
ATOM     18  O   UNL     1      -0.692   7.878 -10.120  1.00  0.00    -0.504 OA
ATOM     19  H   UNL     1       0.195   7.935  -9.633  1.00  0.00     0.293 HD
ENDBRANCH  15  18
BRANCH  17  20
ATOM     20  O   UNL     1      -0.760   6.372  -7.732  1.00  0.00    -0.504 OA
ATOM     21  H   UNL     1       0.081   6.268  -8.286  1.00  0.00     0.293 HD
ENDBRANCH  17  20
ENDBRANCH   1  12
BRANCH   6  22
ATOM     22  O   UNL     1     -10.125   5.803  -5.180  1.00  0.00    -0.507 OA
ATOM     23  H   UNL     1     -10.731   5.525  -4.424  1.00  0.00     0.293 HD
ENDBRANCH   6  22
BRANCH   8  24
ATOM     24  O   UNL     1      -8.987  10.099  -3.364  1.00  0.00    -0.508 OA
ATOM     25  H   UNL     1      -8.456  10.962  -3.377  1.00  0.00     0.293 HD
ENDBRANCH   8  24
TORSDOF 5
ENDMDL
MODEL 8
REMARK VINA RESULT:    -4.456     11.550     15.834
REMARK INTER + INTRA:          -5.507
REMARK INTER:                  -5.243
REMARK INTRA:                  -0.264
REMARK UNBOUND:                -0.269
REMARK SMILES O=c1cc(-c2ccc(O)c(O)c2)oc2cc(O)cc(O)c12
REMARK SMILES IDX 4 1 3 2 2 3 1 4 21 5 19 6 18 7 16 8 15 9 14 10 13 11 5 12
REMARK SMILES IDX 6 13 7 14 8 15 12 16 10 17 9 18 11 20 20 22 17 24
REMARK H PARENT 9 19 11 21 20 23 17 25
REMARK Flexibility Score: inf
ROOT
ATOM      1  C   UNL     1      -4.795   7.299  -8.250  1.00  0.00     0.138 A 
ATOM      2  C   UNL     1      -5.341   8.443  -8.850  1.00  0.00     0.100 A 
ATOM      3  C   UNL     1      -6.512   9.001  -8.336  1.00  0.00     0.197 A 
ATOM      4  O   UNL     1      -7.006   9.993  -8.931  1.00  0.00    -0.289 OA
ATOM      5  C   UNL     1      -7.120   8.430  -7.192  1.00  0.00     0.107 A 
ATOM      6  C   UNL     1      -8.298   8.934  -6.560  1.00  0.00     0.134 A 
ATOM      7  C   UNL     1      -8.863   8.226  -5.492  1.00  0.00     0.093 A 
ATOM      8  C   UNL     1      -8.262   7.066  -4.997  1.00  0.00     0.123 A 
ATOM      9  C   UNL     1      -7.086   6.595  -5.574  1.00  0.00     0.094 A 
ATOM     10  C   UNL     1      -6.517   7.258  -6.663  1.00  0.00     0.146 A 
ATOM     11  O   UNL     1      -5.403   6.764  -7.196  1.00  0.00    -0.456 OA
ENDROOT
BRANCH   1  12
ATOM     12  C   UNL     1      -3.551   6.666  -8.753  1.00  0.00     0.021 A 
ATOM     13  C   UNL     1      -3.550   5.376  -9.318  1.00  0.00     0.016 A 
ATOM     14  C   UNL     1      -2.361   4.802  -9.774  1.00  0.00     0.051 A 
ATOM     15  C   UNL     1      -1.151   5.500  -9.667  1.00  0.00     0.157 A 
ATOM     16  C   UNL     1      -2.330   7.354  -8.636  1.00  0.00     0.062 A 
ATOM     17  C   UNL     1      -1.137   6.782  -9.093  1.00  0.00     0.158 A 
BRANCH  15  18
ATOM     18  O   UNL     1       0.033   4.925 -10.125  1.00  0.00    -0.504 OA
ATOM     19  H   UNL     1       0.609   5.381 -10.823  1.00  0.00     0.293 HD
ENDBRANCH  15  18
BRANCH  17  20
ATOM     20  O   UNL     1       0.051   7.501  -8.968  1.00  0.00    -0.504 OA
ATOM     21  H   UNL     1       0.272   8.037  -8.138  1.00  0.00     0.293 HD
ENDBRANCH  17  20
ENDBRANCH   1  12
BRANCH   6  22
ATOM     22  O   UNL     1      -8.933  10.125  -6.923  1.00  0.00    -0.507 OA
ATOM     23  H   UNL     1      -9.781  10.480  -6.508  1.00  0.00     0.293 HD
ENDBRANCH   6  22
BRANCH   8  24
ATOM     24  O   UNL     1      -8.825   6.378  -3.924  1.00  0.00    -0.508 OA
ATOM     25  H   UNL     1      -9.132   6.860  -3.087  1.00  0.00     0.293 HD
ENDBRANCH   8  24
TORSDOF 5
ENDMDL
