MODEL 1
REMARK VINA RESULT:    -5.556      0.000      0.000
REMARK INTER + INTRA:          -6.274
REMARK INTER:                  -6.043
REMARK INTRA:                  -0.230
REMARK UNBOUND:                -0.230
REMARK SMILES C=C1C[C@@]2(O)O[C@@]3(C[C@@H]2C(C)C)[C@H](C)CC[C@@H]13
REMARK SMILES IDX 14 1 13 2 15 3 16 4 17 5 7 6 8 7 9 8 4 9 6 10 3 11 2 12 1 13
REMARK SMILES IDX 10 14 11 15 12 16 5 17
REMARK H PARENT 5 18
REMARK Flexibility Score: inf
ROOT
ATOM      1  C   UNL     1      31.786  27.005  51.267  1.00  0.00     0.011 C 
ATOM      2  C   UNL     1      31.273  28.456  51.187  1.00  0.00     0.019 C 
ATOM      3  C   UNL     1      31.949  29.321  52.254  1.00  0.00     0.007 C 
ATOM      4  C   UNL     1      31.026  29.327  53.474  1.00  0.00     0.011 C 
ATOM      5  C   UNL     1      29.700  28.680  53.044  1.00  0.00     0.047 C 
ATOM      6  C   UNL     1      29.773  28.597  51.499  1.00  0.00     0.081 C 
ATOM      7  C   UNL     1      28.874  27.519  50.902  1.00  0.00     0.046 C 
ATOM      8  C   UNL     1      27.506  28.194  50.886  1.00  0.00     0.054 C 
ATOM      9  C   UNL     1      27.889  29.701  51.091  1.00  0.00     0.173 C 
ATOM     10  O   UNL     1      29.287  29.797  50.952  1.00  0.00    -0.342 OA
ATOM     11  C   UNL     1      27.560  30.152  52.541  1.00  0.00     0.096 C 
ATOM     12  C   UNL     1      28.485  29.467  53.532  1.00  0.00    -0.066 C 
ATOM     13  C   UNL     1      28.228  29.557  54.844  1.00  0.00     0.008 C 
ENDROOT
BRANCH   8  14
ATOM     14  C   UNL     1      26.653  27.858  49.618  1.00  0.00    -0.009 C 
ATOM     15  C   UNL     1      27.503  27.212  48.504  1.00  0.00     0.008 C 
ATOM     16  C   UNL     1      25.512  26.882  49.964  1.00  0.00     0.008 C 
ENDBRANCH   8  14
BRANCH   9  17
ATOM     17  O   UNL     1      27.299  30.541  50.124  1.00  0.00    -0.365 OA
ATOM     18  H   UNL     1      28.008  31.034  49.636  1.00  0.00     0.214 HD
ENDBRANCH   9  17
TORSDOF 2
ENDMDL
MODEL 2
REMARK VINA RESULT:    -5.538      2.857      4.499
REMARK INTER + INTRA:          -6.254
REMARK INTER:                  -6.036
REMARK INTRA:                  -0.218
REMARK UNBOUND:                -0.230
REMARK SMILES C=C1C[C@@]2(O)O[C@@]3(C[C@@H]2C(C)C)[C@H](C)CC[C@@H]13
REMARK SMILES IDX 14 1 13 2 15 3 16 4 17 5 7 6 8 7 9 8 4 9 6 10 3 11 2 12 1 13
REMARK SMILES IDX 10 14 11 15 12 16 5 17
REMARK H PARENT 5 18
REMARK Flexibility Score: inf
ROOT
ATOM      1  C   UNL     1      27.119  27.002  56.118  1.00  0.00     0.011 C 
ATOM      2  C   UNL     1      27.077  28.481  55.686  1.00  0.00     0.019 C 
ATOM      3  C   UNL     1      26.421  29.336  56.773  1.00  0.00     0.007 C 
ATOM      4  C   UNL     1      24.936  29.449  56.417  1.00  0.00     0.011 C 
ATOM      5  C   UNL     1      24.765  28.880  55.000  1.00  0.00     0.047 C 
ATOM      6  C   UNL     1      26.204  28.736  54.445  1.00  0.00     0.081 C 
ATOM      7  C   UNL     1      26.328  27.701  53.332  1.00  0.00     0.046 C 
ATOM      8  C   UNL     1      25.841  28.467  52.106  1.00  0.00     0.054 C 
ATOM      9  C   UNL     1      25.896  29.951  52.611  1.00  0.00     0.173 C 
ATOM     10  O   UNL     1      26.585  29.945  53.840  1.00  0.00    -0.342 OA
ATOM     11  C   UNL     1      24.466  30.475  52.912  1.00  0.00     0.096 C 
ATOM     12  C   UNL     1      23.883  29.765  54.121  1.00  0.00    -0.066 C 
ATOM     13  C   UNL     1      22.585  29.920  54.415  1.00  0.00     0.008 C 
ENDROOT
BRANCH   8  14
ATOM     14  C   UNL     1      26.643  28.145  50.802  1.00  0.00    -0.009 C 
ATOM     15  C   UNL     1      28.093  27.717  51.106  1.00  0.00     0.008 C 
ATOM     16  C   UNL     1      25.973  27.005  50.010  1.00  0.00     0.008 C 
ENDBRANCH   8  14
BRANCH   9  17
ATOM     17  O   UNL     1      26.599  30.793  51.725  1.00  0.00    -0.365 OA
ATOM     18  H   UNL     1      27.530  30.466  51.623  1.00  0.00     0.214 HD
ENDBRANCH   9  17
TORSDOF 2
ENDMDL
MODEL 3
REMARK VINA RESULT:    -5.410      4.330      6.536
REMARK INTER + INTRA:          -6.115
REMARK INTER:                  -5.906
REMARK INTRA:                  -0.208
REMARK UNBOUND:                -0.230
REMARK SMILES C=C1C[C@@]2(O)O[C@@]3(C[C@@H]2C(C)C)[C@H](C)CC[C@@H]13
REMARK SMILES IDX 14 1 13 2 15 3 16 4 17 5 7 6 8 7 9 8 4 9 6 10 3 11 2 12 1 13
REMARK SMILES IDX 10 14 11 15 12 16 5 17
REMARK H PARENT 5 18
REMARK Flexibility Score: inf
ROOT
ATOM      1  C   UNL     1      24.389  30.077  51.898  1.00  0.00     0.011 C 
ATOM      2  C   UNL     1      25.507  30.419  52.903  1.00  0.00     0.019 C 
ATOM      3  C   UNL     1      26.833  29.799  52.458  1.00  0.00     0.007 C 
ATOM      4  C   UNL     1      26.954  28.448  53.166  1.00  0.00     0.011 C 
ATOM      5  C   UNL     1      25.832  28.382  54.214  1.00  0.00     0.047 C 
ATOM      6  C   UNL     1      25.278  29.826  54.305  1.00  0.00     0.081 C 
ATOM      7  C   UNL     1      23.846  29.899  54.823  1.00  0.00     0.046 C 
ATOM      8  C   UNL     1      24.028  29.784  56.332  1.00  0.00     0.054 C 
ATOM      9  C   UNL     1      25.561  30.075  56.494  1.00  0.00     0.173 C 
ATOM     10  O   UNL     1      26.027  30.546  55.250  1.00  0.00    -0.342 OA
ATOM     11  C   UNL     1      26.336  28.760  56.783  1.00  0.00     0.096 C 
ATOM     12  C   UNL     1      26.326  27.858  55.561  1.00  0.00    -0.066 C 
ATOM     13  C   UNL     1      26.754  26.593  55.672  1.00  0.00     0.008 C 
ENDROOT
BRANCH   8  14
ATOM     14  C   UNL     1      23.057  30.693  57.156  1.00  0.00    -0.009 C 
ATOM     15  C   UNL     1      21.829  31.125  56.328  1.00  0.00     0.008 C 
ATOM     16  C   UNL     1      22.543  29.957  58.409  1.00  0.00     0.008 C 
ENDBRANCH   8  14
BRANCH   9  17
ATOM     17  O   UNL     1      25.820  31.071  57.458  1.00  0.00    -0.365 OA
ATOM     18  H   UNL     1      26.750  30.981  57.788  1.00  0.00     0.214 HD
ENDBRANCH   9  17
TORSDOF 2
ENDMDL
MODEL 4
REMARK VINA RESULT:    -5.324      1.979      4.628
REMARK INTER + INTRA:          -6.021
REMARK INTER:                  -5.850
REMARK INTRA:                  -0.171
REMARK UNBOUND:                -0.230
REMARK SMILES C=C1C[C@@]2(O)O[C@@]3(C[C@@H]2C(C)C)[C@H](C)CC[C@@H]13
REMARK SMILES IDX 14 1 13 2 15 3 16 4 17 5 7 6 8 7 9 8 4 9 6 10 3 11 2 12 1 13
REMARK SMILES IDX 10 14 11 15 12 16 5 17
REMARK H PARENT 5 18
REMARK Flexibility Score: inf
ROOT
ATOM      1  C   UNL     1      25.130  26.973  50.484  1.00  0.00     0.011 C 
ATOM      2  C   UNL     1      25.768  28.360  50.696  1.00  0.00     0.019 C 
ATOM      3  C   UNL     1      26.591  28.762  49.470  1.00  0.00     0.007 C 
ATOM      4  C   UNL     1      28.035  28.334  49.743  1.00  0.00     0.011 C 
ATOM      5  C   UNL     1      28.113  27.912  51.219  1.00  0.00     0.047 C 
ATOM      6  C   UNL     1      26.785  28.401  51.850  1.00  0.00     0.081 C 
ATOM      7  C   UNL     1      26.386  27.632  53.104  1.00  0.00     0.046 C 
ATOM      8  C   UNL     1      27.239  28.287  54.186  1.00  0.00     0.054 C 
ATOM      9  C   UNL     1      27.700  29.607  53.475  1.00  0.00     0.173 C 
ATOM     10  O   UNL     1      26.947  29.725  52.290  1.00  0.00    -0.342 OA
ATOM     11  C   UNL     1      29.188  29.499  53.041  1.00  0.00     0.096 C 
ATOM     12  C   UNL     1      29.342  28.484  51.922  1.00  0.00    -0.066 C 
ATOM     13  C   UNL     1      30.569  28.090  51.554  1.00  0.00     0.008 C 
ENDROOT
BRANCH   8  14
ATOM     14  C   UNL     1      26.503  28.454  55.555  1.00  0.00    -0.009 C 
ATOM     15  C   UNL     1      25.002  28.761  55.370  1.00  0.00     0.008 C 
ATOM     16  C   UNL     1      26.619  27.173  56.404  1.00  0.00     0.008 C 
ENDBRANCH   8  14
BRANCH   9  17
ATOM     17  O   UNL     1      27.454  30.753  54.259  1.00  0.00    -0.365 OA
ATOM     18  H   UNL     1      28.257  30.965  54.801  1.00  0.00     0.214 HD
ENDBRANCH   9  17
TORSDOF 2
ENDMDL
MODEL 5
REMARK VINA RESULT:    -5.264      1.721      4.491
REMARK INTER + INTRA:          -5.956
REMARK INTER:                  -5.742
REMARK INTRA:                  -0.214
REMARK UNBOUND:                -0.230
REMARK SMILES C=C1C[C@@]2(O)O[C@@]3(C[C@@H]2C(C)C)[C@H](C)CC[C@@H]13
REMARK SMILES IDX 14 1 13 2 15 3 16 4 17 5 7 6 8 7 9 8 4 9 6 10 3 11 2 12 1 13
REMARK SMILES IDX 10 14 11 15 12 16 5 17
REMARK H PARENT 5 18
REMARK Flexibility Score: inf
ROOT
ATOM      1  C   UNL     1      26.859  27.200  48.939  1.00  0.00     0.011 C 
ATOM      2  C   UNL     1      26.686  26.997  50.458  1.00  0.00     0.019 C 
ATOM      3  C   UNL     1      25.202  27.018  50.833  1.00  0.00     0.007 C 
ATOM      4  C   UNL     1      24.864  28.454  51.239  1.00  0.00     0.011 C 
ATOM      5  C   UNL     1      26.192  29.220  51.345  1.00  0.00     0.047 C 
ATOM      6  C   UNL     1      27.292  28.131  51.303  1.00  0.00     0.081 C 
ATOM      7  C   UNL     1      28.647  28.649  50.832  1.00  0.00     0.046 C 
ATOM      8  C   UNL     1      29.216  29.295  52.091  1.00  0.00     0.054 C 
ATOM      9  C   UNL     1      28.289  28.697  53.206  1.00  0.00     0.173 C 
ATOM     10  O   UNL     1      27.531  27.670  52.609  1.00  0.00    -0.342 OA
ATOM     11  C   UNL     1      27.273  29.764  53.697  1.00  0.00     0.096 C 
ATOM     12  C   UNL     1      26.266  30.081  52.605  1.00  0.00    -0.066 C 
ATOM     13  C   UNL     1      25.439  31.125  52.753  1.00  0.00     0.008 C 
ENDROOT
BRANCH   8  14
ATOM     14  C   UNL     1      30.754  29.076  52.272  1.00  0.00    -0.009 C 
ATOM     15  C   UNL     1      31.229  27.758  51.626  1.00  0.00     0.008 C 
ATOM     16  C   UNL     1      31.554  30.227  51.632  1.00  0.00     0.008 C 
ENDBRANCH   8  14
BRANCH   9  17
ATOM     17  O   UNL     1      29.025  28.130  54.267  1.00  0.00    -0.365 OA
ATOM     18  H   UNL     1      28.652  28.440  55.133  1.00  0.00     0.214 HD
ENDBRANCH   9  17
TORSDOF 2
ENDMDL
MODEL 6
REMARK VINA RESULT:    -5.098      1.633      4.759
REMARK INTER + INTRA:          -5.775
REMARK INTER:                  -5.558
REMARK INTRA:                  -0.217
REMARK UNBOUND:                -0.230
REMARK SMILES C=C1C[C@@]2(O)O[C@@]3(C[C@@H]2C(C)C)[C@H](C)CC[C@@H]13
REMARK SMILES IDX 14 1 13 2 15 3 16 4 17 5 7 6 8 7 9 8 4 9 6 10 3 11 2 12 1 13
REMARK SMILES IDX 10 14 11 15 12 16 5 17
REMARK H PARENT 5 18
REMARK Flexibility Score: inf
ROOT
ATOM      1  C   UNL     1      26.234  29.892  55.182  1.00  0.00     0.011 C 
ATOM      2  C   UNL     1      26.149  30.438  53.743  1.00  0.00     0.019 C 
ATOM      3  C   UNL     1      24.687  30.557  53.303  1.00  0.00     0.007 C 
ATOM      4  C   UNL     1      24.336  29.262  52.567  1.00  0.00     0.011 C 
ATOM      5  C   UNL     1      25.648  28.491  52.352  1.00  0.00     0.047 C 
ATOM      6  C   UNL     1      26.771  29.502  52.692  1.00  0.00     0.081 C 
ATOM      7  C   UNL     1      28.085  28.842  53.097  1.00  0.00     0.046 C 
ATOM      8  C   UNL     1      28.705  28.476  51.752  1.00  0.00     0.054 C 
ATOM      9  C   UNL     1      27.856  29.344  50.760  1.00  0.00     0.173 C 
ATOM     10  O   UNL     1      27.092  30.236  51.538  1.00  0.00    -0.342 OA
ATOM     11  C   UNL     1      26.841  28.453  49.992  1.00  0.00     0.096 C 
ATOM     12  C   UNL     1      25.769  27.935  50.935  1.00  0.00    -0.066 C 
ATOM     13  C   UNL     1      24.926  26.982  50.515  1.00  0.00     0.008 C 
ENDROOT
BRANCH   8  14
ATOM     14  C   UNL     1      30.256  28.675  51.698  1.00  0.00    -0.009 C 
ATOM     15  C   UNL     1      30.841  29.035  53.080  1.00  0.00     0.008 C 
ATOM     16  C   UNL     1      30.959  27.393  51.211  1.00  0.00     0.008 C 
ENDBRANCH   8  14
BRANCH   9  17
ATOM     17  O   UNL     1      28.661  30.108  49.890  1.00  0.00    -0.365 OA
ATOM     18  H   UNL     1      29.545  30.269  50.310  1.00  0.00     0.214 HD
ENDBRANCH   9  17
TORSDOF 2
ENDMDL
MODEL 7
REMARK VINA RESULT:    -5.013      4.133      7.082
REMARK INTER + INTRA:          -5.682
REMARK INTER:                  -5.468
REMARK INTRA:                  -0.214
REMARK UNBOUND:                -0.230
REMARK SMILES C=C1C[C@@]2(O)O[C@@]3(C[C@@H]2C(C)C)[C@H](C)CC[C@@H]13
REMARK SMILES IDX 14 1 13 2 15 3 16 4 17 5 7 6 8 7 9 8 4 9 6 10 3 11 2 12 1 13
REMARK SMILES IDX 10 14 11 15 12 16 5 17
REMARK H PARENT 5 18
REMARK Flexibility Score: inf
ROOT
ATOM      1  C   UNL     1      22.363  30.404  54.320  1.00  0.00     0.011 C 
ATOM      2  C   UNL     1      23.861  30.768  54.298  1.00  0.00     0.019 C 
ATOM      3  C   UNL     1      24.367  30.855  52.856  1.00  0.00     0.007 C 
ATOM      4  C   UNL     1      24.950  29.484  52.504  1.00  0.00     0.011 C 
ATOM      5  C   UNL     1      25.018  28.672  53.806  1.00  0.00     0.047 C 
ATOM      6  C   UNL     1      24.764  29.699  54.938  1.00  0.00     0.081 C 
ATOM      7  C   UNL     1      24.231  29.073  56.222  1.00  0.00     0.046 C 
ATOM      8  C   UNL     1      25.495  28.532  56.882  1.00  0.00     0.054 C 
ATOM      9  C   UNL     1      26.619  29.283  56.086  1.00  0.00     0.173 C 
ATOM     10  O   UNL     1      25.987  30.278  55.314  1.00  0.00    -0.342 OA
ATOM     11  C   UNL     1      27.309  28.320  55.081  1.00  0.00     0.096 C 
ATOM     12  C   UNL     1      26.350  27.941  53.966  1.00  0.00    -0.066 C 
ATOM     13  C   UNL     1      26.680  26.957  53.118  1.00  0.00     0.008 C 
ENDROOT
BRANCH   8  14
ATOM     14  C   UNL     1      25.515  28.697  58.437  1.00  0.00    -0.009 C 
ATOM     15  C   UNL     1      24.129  29.085  58.994  1.00  0.00     0.008 C 
ATOM     16  C   UNL     1      25.947  27.387  59.125  1.00  0.00     0.008 C 
ENDBRANCH   8  14
BRANCH   9  17
ATOM     17  O   UNL     1      27.546  29.920  56.938  1.00  0.00    -0.365 OA
ATOM     18  H   UNL     1      28.263  30.338  56.396  1.00  0.00     0.214 HD
ENDBRANCH   9  17
TORSDOF 2
ENDMDL
MODEL 8
REMARK VINA RESULT:    -4.982      1.831      2.387
REMARK INTER + INTRA:          -5.649
REMARK INTER:                  -5.436
REMARK INTRA:                  -0.213
REMARK UNBOUND:                -0.230
REMARK SMILES C=C1C[C@@]2(O)O[C@@]3(C[C@@H]2C(C)C)[C@H](C)CC[C@@H]13
REMARK SMILES IDX 14 1 13 2 15 3 16 4 17 5 7 6 8 7 9 8 4 9 6 10 3 11 2 12 1 13
REMARK SMILES IDX 10 14 11 15 12 16 5 17
REMARK H PARENT 5 18
REMARK Flexibility Score: inf
ROOT
ATOM      1  C   UNL     1      30.374  28.287  52.273  1.00  0.00     0.011 C 
ATOM      2  C   UNL     1      29.282  29.343  52.534  1.00  0.00     0.019 C 
ATOM      3  C   UNL     1      29.499  30.010  53.895  1.00  0.00     0.007 C 
ATOM      4  C   UNL     1      28.648  29.242  54.909  1.00  0.00     0.011 C 
ATOM      5  C   UNL     1      27.741  28.290  54.113  1.00  0.00     0.047 C 
ATOM      6  C   UNL     1      27.865  28.751  52.639  1.00  0.00     0.081 C 
ATOM      7  C   UNL     1      27.534  27.660  51.628  1.00  0.00     0.046 C 
ATOM      8  C   UNL     1      26.009  27.683  51.595  1.00  0.00     0.054 C 
ATOM      9  C   UNL     1      25.695  29.059  52.281  1.00  0.00     0.173 C 
ATOM     10  O   UNL     1      26.915  29.755  52.392  1.00  0.00    -0.342 OA
ATOM     11  C   UNL     1      25.182  28.838  53.730  1.00  0.00     0.096 C 
ATOM     12  C   UNL     1      26.298  28.309  54.613  1.00  0.00    -0.066 C 
ATOM     13  C   UNL     1      26.009  27.854  55.840  1.00  0.00     0.008 C 
ENDROOT
BRANCH   8  14
ATOM     14  C   UNL     1      25.405  27.462  50.170  1.00  0.00    -0.009 C 
ATOM     15  C   UNL     1      26.456  26.931  49.173  1.00  0.00     0.008 C 
ATOM     16  C   UNL     1      24.246  26.448  50.214  1.00  0.00     0.008 C 
ENDBRANCH   8  14
BRANCH   9  17
ATOM     17  O   UNL     1      24.813  29.850  51.516  1.00  0.00    -0.365 OA
ATOM     18  H   UNL     1      24.095  29.279  51.140  1.00  0.00     0.214 HD
ENDBRANCH   9  17
TORSDOF 2
ENDMDL
MODEL 9
REMARK VINA RESULT:    -4.755      2.530      4.549
REMARK INTER + INTRA:          -5.402
REMARK INTER:                  -5.170
REMARK INTRA:                  -0.232
REMARK UNBOUND:                -0.230
REMARK SMILES C=C1C[C@@]2(O)O[C@@]3(C[C@@H]2C(C)C)[C@H](C)CC[C@@H]13
REMARK SMILES IDX 14 1 13 2 15 3 16 4 17 5 7 6 8 7 9 8 4 9 6 10 3 11 2 12 1 13
REMARK SMILES IDX 10 14 11 15 12 16 5 17
REMARK H PARENT 5 18
REMARK Flexibility Score: inf
ROOT
ATOM      1  C   UNL     1      29.469  31.061  51.962  1.00  0.00     0.011 C 
ATOM      2  C   UNL     1      29.361  29.623  52.507  1.00  0.00     0.019 C 
ATOM      3  C   UNL     1      29.994  28.632  51.527  1.00  0.00     0.007 C 
ATOM      4  C   UNL     1      28.869  28.110  50.631  1.00  0.00     0.011 C 
ATOM      5  C   UNL     1      27.543  28.595  51.238  1.00  0.00     0.047 C 
ATOM      6  C   UNL     1      27.912  29.124  52.646  1.00  0.00     0.081 C 
ATOM      7  C   UNL     1      26.918  30.141  53.196  1.00  0.00     0.046 C 
ATOM      8  C   UNL     1      25.795  29.258  53.730  1.00  0.00     0.054 C 
ATOM      9  C   UNL     1      26.489  27.852  53.782  1.00  0.00     0.173 C 
ATOM     10  O   UNL     1      27.865  28.060  53.562  1.00  0.00    -0.342 OA
ATOM     11  C   UNL     1      25.989  26.956  52.615  1.00  0.00     0.096 C 
ATOM     12  C   UNL     1      26.488  27.491  51.284  1.00  0.00    -0.066 C 
ATOM     13  C   UNL     1      25.995  26.988  50.144  1.00  0.00     0.008 C 
ENDROOT
BRANCH   8  14
ATOM     14  C   UNL     1      25.168  29.774  55.066  1.00  0.00    -0.009 C 
ATOM     15  C   UNL     1      26.111  30.741  55.811  1.00  0.00     0.008 C 
ATOM     16  C   UNL     1      23.844  30.518  54.803  1.00  0.00     0.008 C 
ENDBRANCH   8  14
BRANCH   9  17
ATOM     17  O   UNL     1      26.341  27.226  55.037  1.00  0.00    -0.365 OA
ATOM     18  H   UNL     1      25.425  26.856  55.118  1.00  0.00     0.214 HD
ENDBRANCH   9  17
TORSDOF 2
ENDMDL
