MODEL 1
REMARK VINA RESULT:    -4.342      0.000      0.000
REMARK INTER + INTRA:          -4.849
REMARK INTER:                  -4.723
REMARK INTRA:                  -0.127
REMARK UNBOUND:                -0.127
REMARK SMILES Cc1ccc(C(C)C)cc1O
REMARK SMILES IDX 1 1 2 2 10 3 9 4 5 5 4 6 3 7 11 8 6 10 7 11 8 12
REMARK H PARENT 11 9
REMARK Flexibility Score: inf
ROOT
ATOM      1  C   UNL     1     127.755 143.836 111.564  1.00  0.00     0.048 C 
ATOM      2  C   UNL     1     127.664 143.880 110.064  1.00  0.00    -0.009 A 
ATOM      3  C   UNL     1     127.690 142.689 109.318  1.00  0.00     0.118 A 
ATOM      4  C   UNL     1     127.606 142.737 107.919  1.00  0.00     0.050 A 
ATOM      5  C   UNL     1     127.496 143.968 107.248  1.00  0.00    -0.042 A 
ATOM      6  C   UNL     1     127.472 145.153 108.004  1.00  0.00     0.004 A 
ATOM      7  C   UNL     1     127.556 145.109 109.397  1.00  0.00     0.007 A 
ENDROOT
BRANCH   3   8
ATOM      8  O   UNL     1     127.799 141.459 109.968  1.00  0.00    -0.508 OA
ATOM      9  H   UNL     1     128.690 140.988 110.067  1.00  0.00     0.293 HD
ENDBRANCH   3   8
BRANCH   5  10
ATOM     10  C   UNL     1     127.406 144.001 105.734  1.00  0.00     0.013 C 
ATOM     11  C   UNL     1     127.341 145.443 105.216  1.00  0.00     0.012 C 
ATOM     12  C   UNL     1     128.571 143.237 105.094  1.00  0.00     0.012 C 
ENDBRANCH   5  10
TORSDOF 2
ENDMDL
MODEL 2
REMARK VINA RESULT:    -4.271      1.465      3.059
REMARK INTER + INTRA:          -4.772
REMARK INTER:                  -4.646
REMARK INTRA:                  -0.126
REMARK UNBOUND:                -0.127
REMARK SMILES Cc1ccc(C(C)C)cc1O
REMARK SMILES IDX 1 1 2 2 10 3 9 4 5 5 4 6 3 7 11 8 6 10 7 11 8 12
REMARK H PARENT 11 9
REMARK Flexibility Score: inf
ROOT
ATOM      1  C   UNL     1     127.836 139.700 107.643  1.00  0.00     0.048 C 
ATOM      2  C   UNL     1     127.773 141.185 107.424  1.00  0.00    -0.009 A 
ATOM      3  C   UNL     1     127.704 142.061 108.522  1.00  0.00     0.118 A 
ATOM      4  C   UNL     1     127.645 143.446 108.310  1.00  0.00     0.050 A 
ATOM      5  C   UNL     1     127.653 143.974 107.007  1.00  0.00    -0.042 A 
ATOM      6  C   UNL     1     127.721 143.090 105.916  1.00  0.00     0.004 A 
ATOM      7  C   UNL     1     127.780 141.710 106.123  1.00  0.00     0.007 A 
ENDROOT
BRANCH   3   8
ATOM      8  O   UNL     1     127.695 141.552 109.821  1.00  0.00    -0.508 OA
ATOM      9  H   UNL     1     127.471 140.583 110.010  1.00  0.00     0.293 HD
ENDBRANCH   3   8
BRANCH   5  10
ATOM     10  C   UNL     1     127.588 145.476 106.797  1.00  0.00     0.013 C 
ATOM     11  C   UNL     1     126.917 145.818 105.461  1.00  0.00     0.012 C 
ATOM     12  C   UNL     1     126.875 146.167 107.965  1.00  0.00     0.012 C 
ENDBRANCH   5  10
TORSDOF 2
ENDMDL
MODEL 3
REMARK VINA RESULT:    -4.189      2.346      3.549
REMARK INTER + INTRA:          -4.683
REMARK INTER:                  -4.557
REMARK INTRA:                  -0.126
REMARK UNBOUND:                -0.127
REMARK SMILES Cc1ccc(C(C)C)cc1O
REMARK SMILES IDX 1 1 2 2 10 3 9 4 5 5 4 6 3 7 11 8 6 10 7 11 8 12
REMARK H PARENT 11 9
REMARK Flexibility Score: inf
ROOT
ATOM      1  C   UNL     1     129.707 139.718 106.520  1.00  0.00     0.048 C 
ATOM      2  C   UNL     1     129.004 141.041 106.406  1.00  0.00    -0.009 A 
ATOM      3  C   UNL     1     127.690 141.187 106.885  1.00  0.00     0.118 A 
ATOM      4  C   UNL     1     127.039 142.424 106.774  1.00  0.00     0.050 A 
ATOM      5  C   UNL     1     127.685 143.526 106.189  1.00  0.00    -0.042 A 
ATOM      6  C   UNL     1     128.998 143.369 105.713  1.00  0.00     0.004 A 
ATOM      7  C   UNL     1     129.651 142.139 105.820  1.00  0.00     0.007 A 
ENDROOT
BRANCH   3   8
ATOM      8  O   UNL     1     127.034 140.103 107.469  1.00  0.00    -0.508 OA
ATOM      9  H   UNL     1     126.119 140.201 107.893  1.00  0.00     0.293 HD
ENDBRANCH   3   8
BRANCH   5  10
ATOM     10  C   UNL     1     126.965 144.857 106.078  1.00  0.00     0.013 C 
ATOM     11  C   UNL     1     127.333 145.784 107.243  1.00  0.00     0.012 C 
ATOM     12  C   UNL     1     127.248 145.529 104.729  1.00  0.00     0.012 C 
ENDBRANCH   5  10
TORSDOF 2
ENDMDL
MODEL 4
REMARK VINA RESULT:    -4.156      3.088      4.366
REMARK INTER + INTRA:          -4.647
REMARK INTER:                  -4.522
REMARK INTRA:                  -0.125
REMARK UNBOUND:                -0.127
REMARK SMILES Cc1ccc(C(C)C)cc1O
REMARK SMILES IDX 1 1 2 2 10 3 9 4 5 5 4 6 3 7 11 8 6 10 7 11 8 12
REMARK H PARENT 11 9
REMARK Flexibility Score: inf
ROOT
ATOM      1  C   UNL     1     133.073 143.803 105.850  1.00  0.00     0.048 C 
ATOM      2  C   UNL     1     131.597 144.086 105.848  1.00  0.00    -0.009 A 
ATOM      3  C   UNL     1     130.679 143.061 105.556  1.00  0.00     0.118 A 
ATOM      4  C   UNL     1     129.304 143.333 105.555  1.00  0.00     0.050 A 
ATOM      5  C   UNL     1     128.826 144.623 105.843  1.00  0.00    -0.042 A 
ATOM      6  C   UNL     1     129.752 145.641 106.133  1.00  0.00     0.004 A 
ATOM      7  C   UNL     1     131.123 145.375 106.135  1.00  0.00     0.007 A 
ENDROOT
BRANCH   3   8
ATOM      8  O   UNL     1     131.137 141.775 105.268  1.00  0.00    -0.508 OA
ATOM      9  H   UNL     1     130.590 140.954 105.493  1.00  0.00     0.293 HD
ENDBRANCH   3   8
BRANCH   5  10
ATOM     10  C   UNL     1     127.334 144.899 105.837  1.00  0.00     0.013 C 
ATOM     11  C   UNL     1     126.903 145.636 107.112  1.00  0.00     0.012 C 
ATOM     12  C   UNL     1     126.920 145.678 104.584  1.00  0.00     0.012 C 
ENDBRANCH   5  10
TORSDOF 2
ENDMDL
MODEL 5
REMARK VINA RESULT:    -4.056      3.626      5.049
REMARK INTER + INTRA:          -4.539
REMARK INTER:                  -4.436
REMARK INTRA:                  -0.103
REMARK UNBOUND:                -0.127
REMARK SMILES Cc1ccc(C(C)C)cc1O
REMARK SMILES IDX 1 1 2 2 10 3 9 4 5 5 4 6 3 7 11 8 6 10 7 11 8 12
REMARK H PARENT 11 9
REMARK Flexibility Score: inf
ROOT
ATOM      1  C   UNL     1     133.644 145.007 106.162  1.00  0.00     0.048 C 
ATOM      2  C   UNL     1     132.165 144.784 106.016  1.00  0.00    -0.009 A 
ATOM      3  C   UNL     1     131.268 145.852 106.191  1.00  0.00     0.118 A 
ATOM      4  C   UNL     1     129.889 145.637 106.055  1.00  0.00     0.050 A 
ATOM      5  C   UNL     1     129.388 144.361 105.743  1.00  0.00    -0.042 A 
ATOM      6  C   UNL     1     130.294 143.300 105.570  1.00  0.00     0.004 A 
ATOM      7  C   UNL     1     131.669 143.510 105.706  1.00  0.00     0.007 A 
ENDROOT
BRANCH   3   8
ATOM      8  O   UNL     1     131.748 147.125 106.501  1.00  0.00    -0.508 OA
ATOM      9  H   UNL     1     131.206 147.959 106.310  1.00  0.00     0.293 HD
ENDBRANCH   3   8
BRANCH   5  10
ATOM     10  C   UNL     1     127.893 144.147 105.599  1.00  0.00     0.013 C 
ATOM     11  C   UNL     1     127.235 143.906 106.963  1.00  0.00     0.012 C 
ATOM     12  C   UNL     1     127.234 145.322 104.868  1.00  0.00     0.012 C 
ENDBRANCH   5  10
TORSDOF 2
ENDMDL
MODEL 6
REMARK VINA RESULT:    -3.967      3.361      4.060
REMARK INTER + INTRA:          -4.441
REMARK INTER:                  -4.315
REMARK INTRA:                  -0.126
REMARK UNBOUND:                -0.127
REMARK SMILES Cc1ccc(C(C)C)cc1O
REMARK SMILES IDX 1 1 2 2 10 3 9 4 5 5 4 6 3 7 11 8 6 10 7 11 8 12
REMARK H PARENT 11 9
REMARK Flexibility Score: inf
ROOT
ATOM      1  C   UNL     1     133.072 146.388 107.807  1.00  0.00     0.048 C 
ATOM      2  C   UNL     1     131.645 146.046 107.483  1.00  0.00    -0.009 A 
ATOM      3  C   UNL     1     130.753 145.687 108.509  1.00  0.00     0.118 A 
ATOM      4  C   UNL     1     129.423 145.368 108.199  1.00  0.00     0.050 A 
ATOM      5  C   UNL     1     128.966 145.402 106.870  1.00  0.00    -0.042 A 
ATOM      6  C   UNL     1     129.867 145.762 105.852  1.00  0.00     0.004 A 
ATOM      7  C   UNL     1     131.193 146.080 106.156  1.00  0.00     0.007 A 
ENDROOT
BRANCH   3   8
ATOM      8  O   UNL     1     131.190 145.648 109.833  1.00  0.00    -0.508 OA
ATOM      9  H   UNL     1     131.776 146.377 110.221  1.00  0.00     0.293 HD
ENDBRANCH   3   8
BRANCH   5  10
ATOM     10  C   UNL     1     127.524 145.054 106.553  1.00  0.00     0.013 C 
ATOM     11  C   UNL     1     127.193 145.352 105.086  1.00  0.00     0.012 C 
ATOM     12  C   UNL     1     127.218 143.592 106.902  1.00  0.00     0.012 C 
ENDBRANCH   5  10
TORSDOF 2
ENDMDL
MODEL 7
REMARK VINA RESULT:    -3.960      3.655      4.272
REMARK INTER + INTRA:          -4.434
REMARK INTER:                  -4.309
REMARK INTRA:                  -0.125
REMARK UNBOUND:                -0.127
REMARK SMILES Cc1ccc(C(C)C)cc1O
REMARK SMILES IDX 1 1 2 2 10 3 9 4 5 5 4 6 3 7 11 8 6 10 7 11 8 12
REMARK H PARENT 11 9
REMARK Flexibility Score: inf
ROOT
ATOM      1  C   UNL     1     132.421 145.816 109.146  1.00  0.00     0.048 C 
ATOM      2  C   UNL     1     131.308 145.686 108.144  1.00  0.00    -0.009 A 
ATOM      3  C   UNL     1     131.536 145.984 106.790  1.00  0.00     0.118 A 
ATOM      4  C   UNL     1     130.493 145.862 105.861  1.00  0.00     0.050 A 
ATOM      5  C   UNL     1     129.215 145.442 106.268  1.00  0.00    -0.042 A 
ATOM      6  C   UNL     1     128.997 145.146 107.625  1.00  0.00     0.004 A 
ATOM      7  C   UNL     1     130.034 145.268 108.554  1.00  0.00     0.007 A 
ENDROOT
BRANCH   3   8
ATOM      8  O   UNL     1     132.799 146.403 106.369  1.00  0.00    -0.508 OA
ATOM      9  H   UNL     1     133.619 146.287 106.953  1.00  0.00     0.293 HD
ENDBRANCH   3   8
BRANCH   5  10
ATOM     10  C   UNL     1     128.097 145.314 105.249  1.00  0.00     0.013 C 
ATOM     11  C   UNL     1     127.718 143.845 105.025  1.00  0.00     0.012 C 
ATOM     12  C   UNL     1     126.875 146.143 105.662  1.00  0.00     0.012 C 
ENDBRANCH   5  10
TORSDOF 2
ENDMDL
MODEL 8
REMARK VINA RESULT:    -3.881      3.179      3.763
REMARK INTER + INTRA:          -4.348
REMARK INTER:                  -4.221
REMARK INTRA:                  -0.127
REMARK UNBOUND:                -0.127
REMARK SMILES Cc1ccc(C(C)C)cc1O
REMARK SMILES IDX 1 1 2 2 10 3 9 4 5 5 4 6 3 7 11 8 6 10 7 11 8 12
REMARK H PARENT 11 9
REMARK Flexibility Score: inf
ROOT
ATOM      1  C   UNL     1     127.900 139.222 106.864  1.00  0.00     0.048 C 
ATOM      2  C   UNL     1     128.016 140.668 106.473  1.00  0.00    -0.009 A 
ATOM      3  C   UNL     1     129.267 141.209 106.128  1.00  0.00     0.118 A 
ATOM      4  C   UNL     1     129.369 142.560 105.765  1.00  0.00     0.050 A 
ATOM      5  C   UNL     1     128.231 143.385 105.740  1.00  0.00    -0.042 A 
ATOM      6  C   UNL     1     126.985 142.834 106.087  1.00  0.00     0.004 A 
ATOM      7  C   UNL     1     126.879 141.489 106.450  1.00  0.00     0.007 A 
ENDROOT
BRANCH   3   8
ATOM      8  O   UNL     1     130.406 140.404 106.147  1.00  0.00    -0.508 OA
ATOM      9  H   UNL     1     131.221 140.623 105.587  1.00  0.00     0.293 HD
ENDBRANCH   3   8
BRANCH   5  10
ATOM     10  C   UNL     1     128.360 144.844 105.344  1.00  0.00     0.013 C 
ATOM     11  C   UNL     1     127.011 145.566 105.448  1.00  0.00     0.012 C 
ATOM     12  C   UNL     1     129.430 145.552 106.183  1.00  0.00     0.012 C 
ENDBRANCH   5  10
TORSDOF 2
ENDMDL
