MODEL 1
REMARK VINA RESULT:    -6.345      0.000      0.000
REMARK INTER + INTRA:          -7.583
REMARK INTER:                  -7.458
REMARK INTRA:                  -0.124
REMARK UNBOUND:                -0.124
REMARK SMILES O=c1c(O)c(-c2ccc(O)cc2)oc2cc(O)cc(O)c12
REMARK SMILES IDX 5 1 3 2 2 3 1 4 21 5 19 6 18 7 16 8 15 9 14 10 13 11 6 12
REMARK SMILES IDX 7 13 8 14 9 15 12 16 11 17 10 18 4 20 20 22 17 24
REMARK H PARENT 10 19 4 21 20 23 17 25
REMARK Flexibility Score: inf
ROOT
ATOM      1  C   UNL     1      15.447  15.156  11.800  1.00  0.00     0.180 A 
ATOM      2  C   UNL     1      15.815  15.633  10.531  1.00  0.00     0.208 A 
ATOM      3  C   UNL     1      14.844  16.253   9.728  1.00  0.00     0.238 A 
ATOM      4  O   UNL     1      15.161  16.609   8.565  1.00  0.00    -0.285 OA
ATOM      5  C   UNL     1      13.531  16.438  10.226  1.00  0.00     0.111 A 
ATOM      6  C   UNL     1      12.478  17.094   9.518  1.00  0.00     0.134 A 
ATOM      7  C   UNL     1      11.191  17.126  10.069  1.00  0.00     0.093 A 
ATOM      8  C   UNL     1      10.932  16.584  11.327  1.00  0.00     0.123 A 
ATOM      9  C   UNL     1      11.965  15.990  12.052  1.00  0.00     0.094 A 
ATOM     10  C   UNL     1      13.251  15.908  11.513  1.00  0.00     0.146 A 
ATOM     11  O   UNL     1      14.201  15.316  12.228  1.00  0.00    -0.452 OA
ENDROOT
BRANCH   1  12
ATOM     12  C   UNL     1      16.411  14.479  12.698  1.00  0.00     0.021 A 
ATOM     13  C   UNL     1      17.039  13.277  12.327  1.00  0.00     0.016 A 
ATOM     14  C   UNL     1      17.926  12.642  13.202  1.00  0.00     0.047 A 
ATOM     15  C   UNL     1      18.187  13.195  14.463  1.00  0.00     0.115 A 
ATOM     16  C   UNL     1      16.661  15.015  13.972  1.00  0.00     0.016 A 
ATOM     17  C   UNL     1      17.550  14.380  14.845  1.00  0.00     0.047 A 
BRANCH  15  18
ATOM     18  O   UNL     1      19.070  12.574  15.342  1.00  0.00    -0.508 OA
ATOM     19  H   UNL     1      19.853  13.073  15.747  1.00  0.00     0.293 HD
ENDBRANCH  15  18
ENDBRANCH   1  12
BRANCH   2  20
ATOM     20  O   UNL     1      17.135  15.509  10.087  1.00  0.00    -0.502 OA
ATOM     21  H   UNL     1      17.771  16.295  10.044  1.00  0.00     0.293 HD
ENDBRANCH   2  20
BRANCH   6  22
ATOM     22  O   UNL     1      12.646  17.746   8.293  1.00  0.00    -0.507 OA
ATOM     23  H   UNL     1      12.808  17.285   7.410  1.00  0.00     0.293 HD
ENDBRANCH   6  22
BRANCH   8  24
ATOM     24  O   UNL     1       9.642  16.649  11.851  1.00  0.00    -0.508 OA
ATOM     25  H   UNL     1       9.472  16.593  12.848  1.00  0.00     0.293 HD
ENDBRANCH   8  24
TORSDOF 5
ENDMDL
MODEL 2
REMARK VINA RESULT:    -6.320      2.552      3.465
REMARK INTER + INTRA:          -7.552
REMARK INTER:                  -7.389
REMARK INTRA:                  -0.163
REMARK UNBOUND:                -0.124
REMARK SMILES O=c1c(O)c(-c2ccc(O)cc2)oc2cc(O)cc(O)c12
REMARK SMILES IDX 5 1 3 2 2 3 1 4 21 5 19 6 18 7 16 8 15 9 14 10 13 11 6 12
REMARK SMILES IDX 7 13 8 14 9 15 12 16 11 17 10 18 4 20 20 22 17 24
REMARK H PARENT 10 19 4 21 20 23 17 25
REMARK Flexibility Score: inf
ROOT
ATOM      1  C   UNL     1      16.411  16.398  12.074  1.00  0.00     0.180 A 
ATOM      2  C   UNL     1      17.640  16.652  11.440  1.00  0.00     0.208 A 
ATOM      3  C   UNL     1      17.652  16.922  10.062  1.00  0.00     0.238 A 
ATOM      4  O   UNL     1      18.760  17.074   9.487  1.00  0.00    -0.285 OA
ATOM      5  C   UNL     1      16.431  16.990   9.346  1.00  0.00     0.111 A 
ATOM      6  C   UNL     1      16.320  17.300   7.957  1.00  0.00     0.134 A 
ATOM      7  C   UNL     1      15.069  17.234   7.332  1.00  0.00     0.093 A 
ATOM      8  C   UNL     1      13.917  16.933   8.057  1.00  0.00     0.123 A 
ATOM      9  C   UNL     1      14.006  16.683   9.426  1.00  0.00     0.094 A 
ATOM     10  C   UNL     1      15.245  16.702  10.071  1.00  0.00     0.146 A 
ATOM     11  O   UNL     1      15.287  16.438  11.371  1.00  0.00    -0.452 OA
ENDROOT
BRANCH   1  12
ATOM     12  C   UNL     1      16.320  16.093  13.521  1.00  0.00     0.021 A 
ATOM     13  C   UNL     1      16.879  14.919  14.059  1.00  0.00     0.016 A 
ATOM     14  C   UNL     1      16.757  14.639  15.424  1.00  0.00     0.047 A 
ATOM     15  C   UNL     1      16.064  15.522  16.264  1.00  0.00     0.115 A 
ATOM     16  C   UNL     1      15.608  16.960  14.366  1.00  0.00     0.016 A 
ATOM     17  C   UNL     1      15.490  16.679  15.730  1.00  0.00     0.047 A 
BRANCH  15  18
ATOM     18  O   UNL     1      15.938  15.255  17.625  1.00  0.00    -0.508 OA
ATOM     19  H   UNL     1      15.035  15.264  18.085  1.00  0.00     0.293 HD
ENDBRANCH  15  18
ENDBRANCH   1  12
BRANCH   2  20
ATOM     20  O   UNL     1      18.826  16.656  12.179  1.00  0.00    -0.502 OA
ATOM     21  H   UNL     1      19.708  16.969  11.790  1.00  0.00     0.293 HD
ENDBRANCH   2  20
BRANCH   6  22
ATOM     22  O   UNL     1      17.394  17.699   7.156  1.00  0.00    -0.507 OA
ATOM     23  H   UNL     1      17.543  18.636   6.813  1.00  0.00     0.293 HD
ENDBRANCH   6  22
BRANCH   8  24
ATOM     24  O   UNL     1      12.686  16.893   7.405  1.00  0.00    -0.508 OA
ATOM     25  H   UNL     1      11.959  17.571   7.604  1.00  0.00     0.293 HD
ENDBRANCH   8  24
TORSDOF 5
ENDMDL
MODEL 3
REMARK VINA RESULT:    -6.270      4.651      9.579
REMARK INTER + INTRA:          -7.494
REMARK INTER:                  -7.222
REMARK INTRA:                  -0.272
REMARK UNBOUND:                -0.124
REMARK SMILES O=c1c(O)c(-c2ccc(O)cc2)oc2cc(O)cc(O)c12
REMARK SMILES IDX 5 1 3 2 2 3 1 4 21 5 19 6 18 7 16 8 15 9 14 10 13 11 6 12
REMARK SMILES IDX 7 13 8 14 9 15 12 16 11 17 10 18 4 20 20 22 17 24
REMARK H PARENT 10 19 4 21 20 23 17 25
REMARK Flexibility Score: inf
ROOT
ATOM      1  C   UNL     1      17.137  13.540  17.673  1.00  0.00     0.180 A 
ATOM      2  C   UNL     1      18.067  13.852  18.679  1.00  0.00     0.208 A 
ATOM      3  C   UNL     1      18.304  12.918  19.701  1.00  0.00     0.238 A 
ATOM      4  O   UNL     1      19.080  13.235  20.638  1.00  0.00    -0.285 OA
ATOM      5  C   UNL     1      17.650  11.662  19.674  1.00  0.00     0.111 A 
ATOM      6  C   UNL     1      17.848  10.622  20.633  1.00  0.00     0.134 A 
ATOM      7  C   UNL     1      17.067   9.462  20.564  1.00  0.00     0.093 A 
ATOM      8  C   UNL     1      16.143   9.275  19.537  1.00  0.00     0.123 A 
ATOM      9  C   UNL     1      15.981  10.261  18.563  1.00  0.00     0.094 A 
ATOM     10  C   UNL     1      16.716  11.446  18.626  1.00  0.00     0.146 A 
ATOM     11  O   UNL     1      16.516  12.367  17.691  1.00  0.00    -0.452 OA
ENDROOT
BRANCH   1  12
ATOM     12  C   UNL     1      16.824  14.478  16.571  1.00  0.00     0.021 A 
ATOM     13  C   UNL     1      15.946  15.561  16.757  1.00  0.00     0.016 A 
ATOM     14  C   UNL     1      15.645  16.419  15.694  1.00  0.00     0.047 A 
ATOM     15  C   UNL     1      16.208  16.197  14.430  1.00  0.00     0.115 A 
ATOM     16  C   UNL     1      17.366  14.250  15.295  1.00  0.00     0.016 A 
ATOM     17  C   UNL     1      17.065  15.110  14.234  1.00  0.00     0.047 A 
BRANCH  15  18
ATOM     18  O   UNL     1      15.917  17.045  13.364  1.00  0.00    -0.508 OA
ATOM     19  H   UNL     1      15.629  16.683  12.462  1.00  0.00     0.293 HD
ENDBRANCH  15  18
ENDBRANCH   1  12
BRANCH   2  20
ATOM     20  O   UNL     1      18.759  15.066  18.647  1.00  0.00    -0.502 OA
ATOM     21  H   UNL     1      19.712  15.140  18.312  1.00  0.00     0.293 HD
ENDBRANCH   2  20
BRANCH   6  22
ATOM     22  O   UNL     1      18.807  10.666  21.649  1.00  0.00    -0.507 OA
ATOM     23  H   UNL     1      19.181   9.860  22.126  1.00  0.00     0.293 HD
ENDBRANCH   6  22
BRANCH   8  24
ATOM     24  O   UNL     1      15.395   8.100  19.491  1.00  0.00    -0.508 OA
ATOM     25  H   UNL     1      15.085   7.636  20.337  1.00  0.00     0.293 HD
ENDBRANCH   8  24
TORSDOF 5
ENDMDL
MODEL 4
REMARK VINA RESULT:    -6.240      1.611      2.006
REMARK INTER + INTRA:          -7.459
REMARK INTER:                  -7.346
REMARK INTRA:                  -0.113
REMARK UNBOUND:                -0.124
REMARK SMILES O=c1c(O)c(-c2ccc(O)cc2)oc2cc(O)cc(O)c12
REMARK SMILES IDX 5 1 3 2 2 3 1 4 21 5 19 6 18 7 16 8 15 9 14 10 13 11 6 12
REMARK SMILES IDX 7 13 8 14 9 15 12 16 11 17 10 18 4 20 20 22 17 24
REMARK H PARENT 10 19 4 21 20 23 17 25
REMARK Flexibility Score: inf
ROOT
ATOM      1  C   UNL     1      15.784  15.809  13.290  1.00  0.00     0.180 A 
ATOM      2  C   UNL     1      16.589  16.287  12.241  1.00  0.00     0.208 A 
ATOM      3  C   UNL     1      15.974  16.726  11.057  1.00  0.00     0.238 A 
ATOM      4  O   UNL     1      16.702  17.082  10.096  1.00  0.00    -0.285 OA
ATOM      5  C   UNL     1      14.561  16.736  10.958  1.00  0.00     0.111 A 
ATOM      6  C   UNL     1      13.829  17.203   9.824  1.00  0.00     0.134 A 
ATOM      7  C   UNL     1      12.436  17.066   9.797  1.00  0.00     0.093 A 
ATOM      8  C   UNL     1      11.742  16.541  10.886  1.00  0.00     0.123 A 
ATOM      9  C   UNL     1      12.442  16.133  12.022  1.00  0.00     0.094 A 
ATOM     10  C   UNL     1      13.836  16.219  12.064  1.00  0.00     0.146 A 
ATOM     11  O   UNL     1      14.464  15.801  13.156  1.00  0.00    -0.452 OA
ENDROOT
BRANCH   1  12
ATOM     12  C   UNL     1      16.360  15.315  14.562  1.00  0.00     0.021 A 
ATOM     13  C   UNL     1      17.237  14.216  14.592  1.00  0.00     0.016 A 
ATOM     14  C   UNL     1      17.747  13.752  15.809  1.00  0.00     0.047 A 
ATOM     15  C   UNL     1      17.377  14.372  17.010  1.00  0.00     0.115 A 
ATOM     16  C   UNL     1      15.977  15.917  15.773  1.00  0.00     0.016 A 
ATOM     17  C   UNL     1      16.490  15.452  16.987  1.00  0.00     0.047 A 
BRANCH  15  18
ATOM     18  O   UNL     1      17.880  13.919  18.227  1.00  0.00    -0.508 OA
ATOM     19  H   UNL     1      18.800  13.499  18.297  1.00  0.00     0.293 HD
ENDBRANCH  15  18
ENDBRANCH   1  12
BRANCH   2  20
ATOM     20  O   UNL     1      17.978  16.340  12.387  1.00  0.00    -0.502 OA
ATOM     21  H   UNL     1      18.613  16.083  11.641  1.00  0.00     0.293 HD
ENDBRANCH   2  20
BRANCH   6  22
ATOM     22  O   UNL     1      14.414  17.826   8.718  1.00  0.00    -0.507 OA
ATOM     23  H   UNL     1      14.124  18.713   8.333  1.00  0.00     0.293 HD
ENDBRANCH   6  22
BRANCH   8  24
ATOM     24  O   UNL     1      10.354  16.435  10.831  1.00  0.00    -0.508 OA
ATOM     25  H   UNL     1       9.900  15.597  10.485  1.00  0.00     0.293 HD
ENDBRANCH   8  24
TORSDOF 5
ENDMDL
MODEL 5
REMARK VINA RESULT:    -6.183      1.915      6.549
REMARK INTER + INTRA:          -7.392
REMARK INTER:                  -7.136
REMARK INTRA:                  -0.256
REMARK UNBOUND:                -0.124
REMARK SMILES O=c1c(O)c(-c2ccc(O)cc2)oc2cc(O)cc(O)c12
REMARK SMILES IDX 5 1 3 2 2 3 1 4 21 5 19 6 18 7 16 8 15 9 14 10 13 11 6 12
REMARK SMILES IDX 7 13 8 14 9 15 12 16 11 17 10 18 4 20 20 22 17 24
REMARK H PARENT 10 19 4 21 20 23 17 25
REMARK Flexibility Score: inf
ROOT
ATOM      1  C   UNL     1      15.955  15.451  11.782  1.00  0.00     0.180 A 
ATOM      2  C   UNL     1      16.987  14.519  11.582  1.00  0.00     0.208 A 
ATOM      3  C   UNL     1      17.669  14.008  12.699  1.00  0.00     0.238 A 
ATOM      4  O   UNL     1      18.641  13.233  12.509  1.00  0.00    -0.285 OA
ATOM      5  C   UNL     1      17.274  14.392  14.003  1.00  0.00     0.111 A 
ATOM      6  C   UNL     1      17.863  13.903  15.209  1.00  0.00     0.134 A 
ATOM      7  C   UNL     1      17.460  14.434  16.440  1.00  0.00     0.093 A 
ATOM      8  C   UNL     1      16.446  15.388  16.516  1.00  0.00     0.123 A 
ATOM      9  C   UNL     1      15.824  15.832  15.349  1.00  0.00     0.094 A 
ATOM     10  C   UNL     1      16.231  15.351  14.102  1.00  0.00     0.146 A 
ATOM     11  O   UNL     1      15.627  15.816  13.016  1.00  0.00    -0.452 OA
ENDROOT
BRANCH   1  12
ATOM     12  C   UNL     1      15.199  16.044  10.655  1.00  0.00     0.021 A 
ATOM     13  C   UNL     1      15.751  17.065   9.860  1.00  0.00     0.016 A 
ATOM     14  C   UNL     1      15.009  17.628   8.817  1.00  0.00     0.047 A 
ATOM     15  C   UNL     1      13.703  17.188   8.564  1.00  0.00     0.115 A 
ATOM     16  C   UNL     1      13.882  15.624  10.409  1.00  0.00     0.016 A 
ATOM     17  C   UNL     1      13.143  16.187   9.365  1.00  0.00     0.047 A 
BRANCH  15  18
ATOM     18  O   UNL     1      12.955  17.739   7.528  1.00  0.00    -0.508 OA
ATOM     19  H   UNL     1      13.368  18.378   6.858  1.00  0.00     0.293 HD
ENDBRANCH  15  18
ENDBRANCH   1  12
BRANCH   2  20
ATOM     20  O   UNL     1      17.313  14.094  10.291  1.00  0.00    -0.502 OA
ATOM     21  H   UNL     1      17.142  14.665   9.472  1.00  0.00     0.293 HD
ENDBRANCH   2  20
BRANCH   6  22
ATOM     22  O   UNL     1      18.823  12.887  15.254  1.00  0.00    -0.507 OA
ATOM     23  H   UNL     1      19.819  13.029  15.184  1.00  0.00     0.293 HD
ENDBRANCH   6  22
BRANCH   8  24
ATOM     24  O   UNL     1      16.059  15.882  17.760  1.00  0.00    -0.508 OA
ATOM     25  H   UNL     1      15.223  15.549  18.226  1.00  0.00     0.293 HD
ENDBRANCH   8  24
TORSDOF 5
ENDMDL
MODEL 6
REMARK VINA RESULT:    -5.944      2.005      3.972
REMARK INTER + INTRA:          -7.110
REMARK INTER:                  -6.814
REMARK INTRA:                  -0.297
REMARK UNBOUND:                -0.124
REMARK SMILES O=c1c(O)c(-c2ccc(O)cc2)oc2cc(O)cc(O)c12
REMARK SMILES IDX 5 1 3 2 2 3 1 4 21 5 19 6 18 7 16 8 15 9 14 10 13 11 6 12
REMARK SMILES IDX 7 13 8 14 9 15 12 16 11 17 10 18 4 20 20 22 17 24
REMARK H PARENT 10 19 4 21 20 23 17 25
REMARK Flexibility Score: inf
ROOT
ATOM      1  C   UNL     1      14.840  16.020  12.188  1.00  0.00     0.180 A 
ATOM      2  C   UNL     1      13.494  16.034  11.782  1.00  0.00     0.208 A 
ATOM      3  C   UNL     1      13.187  16.391  10.459  1.00  0.00     0.238 A 
ATOM      4  O   UNL     1      11.978  16.475  10.123  1.00  0.00    -0.285 OA
ATOM      5  C   UNL     1      14.230  16.674   9.544  1.00  0.00     0.111 A 
ATOM      6  C   UNL     1      14.037  17.002   8.167  1.00  0.00     0.134 A 
ATOM      7  C   UNL     1      15.138  17.365   7.383  1.00  0.00     0.093 A 
ATOM      8  C   UNL     1      16.430  17.352   7.905  1.00  0.00     0.123 A 
ATOM      9  C   UNL     1      16.637  16.979   9.233  1.00  0.00     0.094 A 
ATOM     10  C   UNL     1      15.555  16.649  10.053  1.00  0.00     0.146 A 
ATOM     11  O   UNL     1      15.794  16.321  11.316  1.00  0.00    -0.452 OA
ENDROOT
BRANCH   1  12
ATOM     12  C   UNL     1      15.242  15.669  13.569  1.00  0.00     0.021 A 
ATOM     13  C   UNL     1      15.314  16.643  14.583  1.00  0.00     0.016 A 
ATOM     14  C   UNL     1      15.722  16.292  15.873  1.00  0.00     0.047 A 
ATOM     15  C   UNL     1      16.075  14.967  16.164  1.00  0.00     0.115 A 
ATOM     16  C   UNL     1      15.619  14.348  13.864  1.00  0.00     0.016 A 
ATOM     17  C   UNL     1      16.025  14.000  15.156  1.00  0.00     0.047 A 
BRANCH  15  18
ATOM     18  O   UNL     1      16.480  14.605  17.446  1.00  0.00    -0.508 OA
ATOM     19  H   UNL     1      15.973  13.914  17.987  1.00  0.00     0.293 HD
ENDBRANCH  15  18
ENDBRANCH   1  12
BRANCH   2  20
ATOM     20  O   UNL     1      12.484  15.678  12.679  1.00  0.00    -0.502 OA
ATOM     21  H   UNL     1      11.757  15.013  12.444  1.00  0.00     0.293 HD
ENDBRANCH   2  20
BRANCH   6  22
ATOM     22  O   UNL     1      12.798  16.962   7.519  1.00  0.00    -0.507 OA
ATOM     23  H   UNL     1      12.588  17.419   6.645  1.00  0.00     0.293 HD
ENDBRANCH   6  22
BRANCH   8  24
ATOM     24  O   UNL     1      17.505  17.704   7.090  1.00  0.00    -0.508 OA
ATOM     25  H   UNL     1      18.435  17.838   7.469  1.00  0.00     0.293 HD
ENDBRANCH   8  24
TORSDOF 5
ENDMDL
MODEL 7
REMARK VINA RESULT:    -5.875      2.773      4.357
REMARK INTER + INTRA:          -7.030
REMARK INTER:                  -6.751
REMARK INTRA:                  -0.279
REMARK UNBOUND:                -0.124
REMARK SMILES O=c1c(O)c(-c2ccc(O)cc2)oc2cc(O)cc(O)c12
REMARK SMILES IDX 5 1 3 2 2 3 1 4 21 5 19 6 18 7 16 8 15 9 14 10 13 11 6 12
REMARK SMILES IDX 7 13 8 14 9 15 12 16 11 17 10 18 4 20 20 22 17 24
REMARK H PARENT 10 19 4 21 20 23 17 25
REMARK Flexibility Score: inf
ROOT
ATOM      1  C   UNL     1      13.874  13.854  11.139  1.00  0.00     0.180 A 
ATOM      2  C   UNL     1      12.643  14.509  10.956  1.00  0.00     0.208 A 
ATOM      3  C   UNL     1      12.580  15.607  10.083  1.00  0.00     0.238 A 
ATOM      4  O   UNL     1      11.495  16.234   9.981  1.00  0.00    -0.285 OA
ATOM      5  C   UNL     1      13.732  16.001   9.361  1.00  0.00     0.111 A 
ATOM      6  C   UNL     1      13.773  17.071   8.415  1.00  0.00     0.134 A 
ATOM      7  C   UNL     1      14.995  17.438   7.839  1.00  0.00     0.093 A 
ATOM      8  C   UNL     1      16.165  16.737   8.124  1.00  0.00     0.123 A 
ATOM      9  C   UNL     1      16.128  15.656   9.005  1.00  0.00     0.094 A 
ATOM     10  C   UNL     1      14.932  15.289   9.625  1.00  0.00     0.146 A 
ATOM     11  O   UNL     1      14.945  14.267  10.472  1.00  0.00    -0.452 OA
ENDROOT
BRANCH   1  12
ATOM     12  C   UNL     1      14.023  12.699  12.053  1.00  0.00     0.021 A 
ATOM     13  C   UNL     1      14.516  12.858  13.361  1.00  0.00     0.016 A 
ATOM     14  C   UNL     1      14.673  11.748  14.198  1.00  0.00     0.047 A 
ATOM     15  C   UNL     1      14.351  10.465  13.733  1.00  0.00     0.115 A 
ATOM     16  C   UNL     1      13.725  11.407  11.588  1.00  0.00     0.016 A 
ATOM     17  C   UNL     1      13.881  10.300  12.427  1.00  0.00     0.047 A 
BRANCH  15  18
ATOM     18  O   UNL     1      14.502   9.353  14.557  1.00  0.00    -0.508 OA
ATOM     19  H   UNL     1      13.703   8.812  14.868  1.00  0.00     0.293 HD
ENDBRANCH  15  18
ENDBRANCH   1  12
BRANCH   2  20
ATOM     20  O   UNL     1      11.500  14.057  11.620  1.00  0.00    -0.502 OA
ATOM     21  H   UNL     1      10.564  14.231  11.272  1.00  0.00     0.293 HD
ENDBRANCH   2  20
BRANCH   6  22
ATOM     22  O   UNL     1      12.647  17.782   7.989  1.00  0.00    -0.507 OA
ATOM     23  H   UNL     1      12.595  18.332   7.145  1.00  0.00     0.293 HD
ENDBRANCH   6  22
BRANCH   8  24
ATOM     24  O   UNL     1      17.361  17.121   7.520  1.00  0.00    -0.508 OA
ATOM     25  H   UNL     1      17.474  17.108   6.513  1.00  0.00     0.293 HD
ENDBRANCH   8  24
TORSDOF 5
ENDMDL
MODEL 8
REMARK VINA RESULT:    -5.863      1.822      7.009
REMARK INTER + INTRA:          -7.016
REMARK INTER:                  -6.728
REMARK INTRA:                  -0.288
REMARK UNBOUND:                -0.124
REMARK SMILES O=c1c(O)c(-c2ccc(O)cc2)oc2cc(O)cc(O)c12
REMARK SMILES IDX 5 1 3 2 2 3 1 4 21 5 19 6 18 7 16 8 15 9 14 10 13 11 6 12
REMARK SMILES IDX 7 13 8 14 9 15 12 16 11 17 10 18 4 20 20 22 17 24
REMARK H PARENT 10 19 4 21 20 23 17 25
REMARK Flexibility Score: inf
ROOT
ATOM      1  C   UNL     1      15.289  15.677  12.235  1.00  0.00     0.180 A 
ATOM      2  C   UNL     1      15.150  16.319  13.478  1.00  0.00     0.208 A 
ATOM      3  C   UNL     1      15.857  15.820  14.584  1.00  0.00     0.238 A 
ATOM      4  O   UNL     1      15.670  16.352  15.708  1.00  0.00    -0.285 OA
ATOM      5  C   UNL     1      16.737  14.722  14.422  1.00  0.00     0.111 A 
ATOM      6  C   UNL     1      17.538  14.162  15.464  1.00  0.00     0.134 A 
ATOM      7  C   UNL     1      18.292  13.010  15.212  1.00  0.00     0.093 A 
ATOM      8  C   UNL     1      18.324  12.434  13.943  1.00  0.00     0.123 A 
ATOM      9  C   UNL     1      17.589  13.004  12.903  1.00  0.00     0.094 A 
ATOM     10  C   UNL     1      16.797  14.131  13.132  1.00  0.00     0.146 A 
ATOM     11  O   UNL     1      16.097  14.630  12.121  1.00  0.00    -0.452 OA
ENDROOT
BRANCH   1  12
ATOM     12  C   UNL     1      14.566  16.135  11.027  1.00  0.00     0.021 A 
ATOM     13  C   UNL     1      13.239  15.740  10.772  1.00  0.00     0.016 A 
ATOM     14  C   UNL     1      12.586  16.165   9.611  1.00  0.00     0.047 A 
ATOM     15  C   UNL     1      13.253  16.978   8.685  1.00  0.00     0.115 A 
ATOM     16  C   UNL     1      15.234  16.932  10.082  1.00  0.00     0.016 A 
ATOM     17  C   UNL     1      14.577  17.356   8.923  1.00  0.00     0.047 A 
BRANCH  15  18
ATOM     18  O   UNL     1      12.612  17.408   7.526  1.00  0.00    -0.508 OA
ATOM     19  H   UNL     1      13.126  17.584   6.670  1.00  0.00     0.293 HD
ENDBRANCH  15  18
ENDBRANCH   1  12
BRANCH   2  20
ATOM     20  O   UNL     1      14.336  17.448  13.601  1.00  0.00    -0.502 OA
ATOM     21  H   UNL     1      13.337  17.420  13.433  1.00  0.00     0.293 HD
ENDBRANCH   2  20
BRANCH   6  22
ATOM     22  O   UNL     1      17.649  14.708  16.746  1.00  0.00    -0.507 OA
ATOM     23  H   UNL     1      17.060  15.439  17.116  1.00  0.00     0.293 HD
ENDBRANCH   6  22
BRANCH   8  24
ATOM     24  O   UNL     1      19.099  11.296  13.724  1.00  0.00    -0.508 OA
ATOM     25  H   UNL     1      19.093  10.814  12.832  1.00  0.00     0.293 HD
ENDBRANCH   8  24
TORSDOF 5
ENDMDL
MODEL 9
REMARK VINA RESULT:    -5.776      5.955      9.072
REMARK INTER + INTRA:          -6.914
REMARK INTER:                  -6.639
REMARK INTRA:                  -0.274
REMARK UNBOUND:                -0.124
REMARK SMILES O=c1c(O)c(-c2ccc(O)cc2)oc2cc(O)cc(O)c12
REMARK SMILES IDX 5 1 3 2 2 3 1 4 21 5 19 6 18 7 16 8 15 9 14 10 13 11 6 12
REMARK SMILES IDX 7 13 8 14 9 15 12 16 11 17 10 18 4 20 20 22 17 24
REMARK H PARENT 10 19 4 21 20 23 17 25
REMARK Flexibility Score: inf
ROOT
ATOM      1  C   UNL     1      15.785  11.699  16.525  1.00  0.00     0.180 A 
ATOM      2  C   UNL     1      16.310  12.993  16.365  1.00  0.00     0.208 A 
ATOM      3  C   UNL     1      17.137  13.521  17.369  1.00  0.00     0.238 A 
ATOM      4  O   UNL     1      17.541  14.706  17.255  1.00  0.00    -0.285 OA
ATOM      5  C   UNL     1      17.476  12.729  18.493  1.00  0.00     0.111 A 
ATOM      6  C   UNL     1      18.342  13.145  19.550  1.00  0.00     0.134 A 
ATOM      7  C   UNL     1      18.521  12.316  20.663  1.00  0.00     0.093 A 
ATOM      8  C   UNL     1      17.918  11.062  20.732  1.00  0.00     0.123 A 
ATOM      9  C   UNL     1      17.113  10.621  19.681  1.00  0.00     0.094 A 
ATOM     10  C   UNL     1      16.884  11.441  18.573  1.00  0.00     0.146 A 
ATOM     11  O   UNL     1      16.095  10.992  17.605  1.00  0.00    -0.452 OA
ENDROOT
BRANCH   1  12
ATOM     12  C   UNL     1      14.895  11.079  15.517  1.00  0.00     0.021 A 
ATOM     13  C   UNL     1      15.412  10.448  14.371  1.00  0.00     0.016 A 
ATOM     14  C   UNL     1      14.550   9.893  13.420  1.00  0.00     0.047 A 
ATOM     15  C   UNL     1      13.162   9.972  13.596  1.00  0.00     0.115 A 
ATOM     16  C   UNL     1      13.502  11.173  15.675  1.00  0.00     0.016 A 
ATOM     17  C   UNL     1      12.643  10.616  14.723  1.00  0.00     0.047 A 
BRANCH  15  18
ATOM     18  O   UNL     1      12.294   9.421  12.656  1.00  0.00    -0.508 OA
ATOM     19  H   UNL     1      12.296   8.429  12.452  1.00  0.00     0.293 HD
ENDBRANCH  15  18
ENDBRANCH   1  12
BRANCH   2  20
ATOM     20  O   UNL     1      16.026  13.730  15.212  1.00  0.00    -0.502 OA
ATOM     21  H   UNL     1      16.634  13.730  14.403  1.00  0.00     0.293 HD
ENDBRANCH   2  20
BRANCH   6  22
ATOM     22  O   UNL     1      19.066  14.342  19.543  1.00  0.00    -0.507 OA
ATOM     23  H   UNL     1      19.384  14.829  20.367  1.00  0.00     0.293 HD
ENDBRANCH   6  22
BRANCH   8  24
ATOM     24  O   UNL     1      18.131  10.256  21.849  1.00  0.00    -0.508 OA
ATOM     25  H   UNL     1      17.573  10.356  22.689  1.00  0.00     0.293 HD
ENDBRANCH   8  24
TORSDOF 5
ENDMDL
