MODEL 1
REMARK VINA RESULT:    -6.694      0.000      0.000
REMARK INTER + INTRA:         -11.772
REMARK INTER:                 -10.020
REMARK INTRA:                  -1.752
REMARK UNBOUND:                -1.752
REMARK SMILES C=C(CC[C@@H](C(=O)[O-])[C@H]1[C@H](O)C[C@@]2(C)C3=C(CC[C@@]12C)[C@]1(C)CC[C@H](OC(C)=O)C(C)(C)[C@@H]1CC3)C(C)C
REMARK SMILES IDX 4 1 5 2 6 3 7 4 8 5 9 6 10 7 19 8 12 9 13 10 18 11 20 12
REMARK SMILES IDX 14 13 15 14 17 15 16 16 35 17 21 18 34 19 33 20 23 21 22 22
REMARK SMILES IDX 30 23 24 24 25 25 31 26 32 27 11 28 26 30 27 31 29 32 28 33
REMARK SMILES IDX 3 34 2 35 1 36 36 37 37 38 38 39
REMARK H PARENT 11 29
REMARK Flexibility Score: inf
ROOT
ATOM      1  C   UNL     1      15.250  29.773  -9.644  1.00  0.00     0.014 C 
ENDROOT
BRANCH   1   2
ATOM      2  C   UNL     1      14.202  29.287  -8.597  1.00  0.00     0.042 C 
BRANCH   2   3
ATOM      3  C   UNL     1      12.813  29.688  -9.038  1.00  0.00     0.045 C 
ATOM      4  O   UNL     1      12.427  29.487 -10.219  1.00  0.00    -0.550 OA
ATOM      5  O   UNL     1      11.964  30.321  -8.141  1.00  0.00    -0.550 OA
ENDBRANCH   2   3
BRANCH   2   6
ATOM      6  C   UNL     1      14.309  27.770  -8.187  1.00  0.00     0.033 C 
ATOM      7  C   UNL     1      14.531  26.852  -9.404  1.00  0.00     0.119 C 
ATOM      8  C   UNL     1      15.432  27.335  -7.132  1.00  0.00    -0.017 C 
ATOM      9  C   UNL     1      15.141  25.594  -8.828  1.00  0.00     0.043 C 
ATOM     10  C   UNL     1      16.161  26.075  -7.787  1.00  0.00    -0.003 C 
ATOM     11  C   UNL     1      16.463  28.466  -6.787  1.00  0.00     0.012 C 
ATOM     12  C   UNL     1      14.716  26.950  -5.805  1.00  0.00     0.013 C 
ATOM     13  C   UNL     1      16.446  24.880  -6.833  1.00  0.00     0.017 C 
ATOM     14  C   UNL     1      17.535  26.470  -8.402  1.00  0.00    -0.064 C 
ATOM     15  C   UNL     1      17.838  27.911  -6.429  1.00  0.00     0.032 C 
ATOM     16  C   UNL     1      18.413  27.197  -7.644  1.00  0.00    -0.064 C 
ATOM     17  C   UNL     1      17.994  25.906  -9.729  1.00  0.00     0.032 C 
ATOM     18  C   UNL     1      19.955  27.131  -7.887  1.00  0.00    -0.008 C 
ATOM     19  C   UNL     1      19.100  26.764 -10.314  1.00  0.00     0.009 C 
ATOM     20  C   UNL     1      20.330  26.742  -9.390  1.00  0.00     0.009 C 
ATOM     21  C   UNL     1      20.624  28.475  -7.473  1.00  0.00     0.015 C 
ATOM     22  C   UNL     1      20.462  26.025  -6.924  1.00  0.00     0.016 C 
ATOM     23  C   UNL     1      21.568  27.495 -10.033  1.00  0.00     0.005 C 
ATOM     24  C   UNL     1      22.127  28.605  -7.781  1.00  0.00     0.047 C 
ATOM     25  C   UNL     1      22.642  27.739  -8.943  1.00  0.00     0.182 C 
ATOM     26  C   UNL     1      22.210  26.592 -11.125  1.00  0.00     0.015 C 
ATOM     27  C   UNL     1      21.178  28.837 -10.720  1.00  0.00     0.015 C 
BRANCH   7  28
ATOM     28  O   UNL     1      13.323  26.533 -10.042  1.00  0.00    -0.393 OA
ATOM     29  H   UNL     1      13.423  26.806 -10.990  1.00  0.00     0.210 HD
ENDBRANCH   7  28
BRANCH  25  30
ATOM     30  O   UNL     1      23.802  28.354  -9.516  1.00  0.00    -0.462 OA
BRANCH  30  31
ATOM     31  C   UNL     1      25.113  28.044  -9.143  1.00  0.00     0.302 C 
ATOM     32  O   UNL     1      25.834  28.891  -8.548  1.00  0.00    -0.253 OA
ATOM     33  C   UNL     1      25.638  26.671  -9.391  1.00  0.00     0.139 C 
ENDBRANCH  30  31
ENDBRANCH  25  30
ENDBRANCH   2   6
ENDBRANCH   1   2
BRANCH   1  34
ATOM     34  C   UNL     1      16.481  30.559  -9.131  1.00  0.00     0.031 C 
BRANCH  34  35
ATOM     35  C   UNL     1      16.557  32.012  -9.561  1.00  0.00    -0.075 C 
ATOM     36  C   UNL     1      17.267  32.336 -10.656  1.00  0.00     0.008 C 
BRANCH  35  37
ATOM     37  C   UNL     1      16.039  33.100  -8.624  1.00  0.00     0.008 C 
ATOM     38  C   UNL     1      14.565  32.901  -8.241  1.00  0.00     0.012 C 
ATOM     39  C   UNL     1      16.254  34.490  -9.236  1.00  0.00     0.012 C 
ENDBRANCH  35  37
ENDBRANCH  34  35
ENDBRANCH   1  34
TORSDOF 9
ENDMDL
MODEL 2
REMARK VINA RESULT:    -6.515      2.878      4.978
REMARK INTER + INTRA:         -11.503
REMARK INTER:                  -9.464
REMARK INTRA:                  -2.039
REMARK UNBOUND:                -1.752
REMARK SMILES C=C(CC[C@@H](C(=O)[O-])[C@H]1[C@H](O)C[C@@]2(C)C3=C(CC[C@@]12C)[C@]1(C)CC[C@H](OC(C)=O)C(C)(C)[C@@H]1CC3)C(C)C
REMARK SMILES IDX 4 1 5 2 6 3 7 4 8 5 9 6 10 7 19 8 12 9 13 10 18 11 20 12
REMARK SMILES IDX 14 13 15 14 17 15 16 16 35 17 21 18 34 19 33 20 23 21 22 22
REMARK SMILES IDX 30 23 24 24 25 25 31 26 32 27 11 28 26 30 27 31 29 32 28 33
REMARK SMILES IDX 3 34 2 35 1 36 36 37 37 38 38 39
REMARK H PARENT 11 29
REMARK Flexibility Score: inf
ROOT
ATOM      1  C   UNL     1      14.293  27.279 -10.400  1.00  0.00     0.014 C 
ENDROOT
BRANCH   1   2
ATOM      2  C   UNL     1      14.286  28.691  -9.739  1.00  0.00     0.042 C 
BRANCH   2   3
ATOM      3  C   UNL     1      12.915  29.313  -9.874  1.00  0.00     0.045 C 
ATOM      4  O   UNL     1      12.166  29.447  -8.873  1.00  0.00    -0.550 OA
ATOM      5  O   UNL     1      12.461  29.708 -11.125  1.00  0.00    -0.550 OA
ENDBRANCH   2   3
BRANCH   2   6
ATOM      6  C   UNL     1      14.854  28.753  -8.271  1.00  0.00     0.033 C 
ATOM      7  C   UNL     1      14.489  27.500  -7.452  1.00  0.00     0.119 C 
ATOM      8  C   UNL     1      16.431  28.936  -8.063  1.00  0.00    -0.017 C 
ATOM      9  C   UNL     1      15.514  27.457  -6.342  1.00  0.00     0.043 C 
ATOM     10  C   UNL     1      16.850  27.816  -7.006  1.00  0.00    -0.003 C 
ATOM     11  C   UNL     1      17.273  28.809  -9.381  1.00  0.00     0.012 C 
ATOM     12  C   UNL     1      16.675  30.367  -7.502  1.00  0.00     0.013 C 
ATOM     13  C   UNL     1      17.820  28.272  -5.877  1.00  0.00     0.017 C 
ATOM     14  C   UNL     1      17.540  26.608  -7.702  1.00  0.00    -0.064 C 
ATOM     15  C   UNL     1      18.674  28.264  -9.127  1.00  0.00     0.032 C 
ATOM     16  C   UNL     1      18.560  26.847  -8.582  1.00  0.00    -0.064 C 
ATOM     17  C   UNL     1      17.245  25.184  -7.281  1.00  0.00     0.032 C 
ATOM     18  C   UNL     1      19.674  25.786  -8.855  1.00  0.00    -0.008 C 
ATOM     19  C   UNL     1      17.661  24.214  -8.371  1.00  0.00     0.009 C 
ATOM     20  C   UNL     1      19.182  24.289  -8.592  1.00  0.00     0.009 C 
ATOM     21  C   UNL     1      20.229  25.946 -10.302  1.00  0.00     0.015 C 
ATOM     22  C   UNL     1      20.812  26.139  -7.862  1.00  0.00     0.016 C 
ATOM     23  C   UNL     1      19.688  23.183  -9.610  1.00  0.00     0.005 C 
ATOM     24  C   UNL     1      21.241  24.881 -10.760  1.00  0.00     0.047 C 
ATOM     25  C   UNL     1      21.135  23.519 -10.053  1.00  0.00     0.182 C 
ATOM     26  C   UNL     1      19.730  21.804  -8.893  1.00  0.00     0.015 C 
ATOM     27  C   UNL     1      18.763  23.026 -10.852  1.00  0.00     0.015 C 
BRANCH   7  28
ATOM     28  O   UNL     1      13.204  27.599  -6.896  1.00  0.00    -0.393 OA
ATOM     29  H   UNL     1      12.806  26.692  -6.940  1.00  0.00     0.210 HD
ENDBRANCH   7  28
BRANCH  25  30
ATOM     30  O   UNL     1      21.641  22.494 -10.916  1.00  0.00    -0.462 OA
BRANCH  30  31
ATOM     31  C   UNL     1      22.810  21.770 -10.665  1.00  0.00     0.302 C 
ATOM     32  O   UNL     1      22.762  20.548 -10.359  1.00  0.00    -0.253 OA
ATOM     33  C   UNL     1      24.132  22.438 -10.831  1.00  0.00     0.139 C 
ENDBRANCH  30  31
ENDBRANCH  25  30
ENDBRANCH   2   6
ENDBRANCH   1   2
BRANCH   1  34
ATOM     34  C   UNL     1      12.970  26.475 -10.419  1.00  0.00     0.031 C 
BRANCH  34  35
ATOM     35  C   UNL     1      12.939  25.243  -9.534  1.00  0.00    -0.075 C 
ATOM     36  C   UNL     1      13.982  24.395  -9.553  1.00  0.00     0.008 C 
BRANCH  35  37
ATOM     37  C   UNL     1      11.640  24.860  -8.829  1.00  0.00     0.008 C 
ATOM     38  C   UNL     1      11.005  23.586  -9.405  1.00  0.00     0.012 C 
ATOM     39  C   UNL     1      10.641  26.024  -8.862  1.00  0.00     0.012 C 
ENDBRANCH  35  37
ENDBRANCH  34  35
ENDBRANCH   1  34
TORSDOF 9
ENDMDL
MODEL 3
REMARK VINA RESULT:    -6.279      3.410      8.975
REMARK INTER + INTRA:         -11.150
REMARK INTER:                 -10.491
REMARK INTRA:                  -0.660
REMARK UNBOUND:                -1.752
REMARK SMILES C=C(CC[C@@H](C(=O)[O-])[C@H]1[C@H](O)C[C@@]2(C)C3=C(CC[C@@]12C)[C@]1(C)CC[C@H](OC(C)=O)C(C)(C)[C@@H]1CC3)C(C)C
REMARK SMILES IDX 4 1 5 2 6 3 7 4 8 5 9 6 10 7 19 8 12 9 13 10 18 11 20 12
REMARK SMILES IDX 14 13 15 14 17 15 16 16 35 17 21 18 34 19 33 20 23 21 22 22
REMARK SMILES IDX 30 23 24 24 25 25 31 26 32 27 11 28 26 30 27 31 29 32 28 33
REMARK SMILES IDX 3 34 2 35 1 36 36 37 37 38 38 39
REMARK H PARENT 11 29
REMARK Flexibility Score: inf
ROOT
ATOM      1  C   UNL     1      18.322  26.819  -5.232  1.00  0.00     0.014 C 
ENDROOT
BRANCH   1   2
ATOM      2  C   UNL     1      18.518  25.878  -6.460  1.00  0.00     0.042 C 
BRANCH   2   3
ATOM      3  C   UNL     1      17.382  24.884  -6.531  1.00  0.00     0.045 C 
ATOM      4  O   UNL     1      17.608  23.652  -6.637  1.00  0.00    -0.550 OA
ATOM      5  O   UNL     1      16.070  25.339  -6.517  1.00  0.00    -0.550 OA
ENDBRANCH   2   3
BRANCH   2   6
ATOM      6  C   UNL     1      18.796  26.603  -7.830  1.00  0.00     0.033 C 
ATOM      7  C   UNL     1      18.632  25.655  -9.033  1.00  0.00     0.119 C 
ATOM      8  C   UNL     1      17.932  27.898  -8.205  1.00  0.00    -0.017 C 
ATOM      9  C   UNL     1      18.387  26.571 -10.211  1.00  0.00     0.043 C 
ATOM     10  C   UNL     1      17.422  27.648  -9.696  1.00  0.00    -0.003 C 
ATOM     11  C   UNL     1      16.729  28.172  -7.236  1.00  0.00     0.012 C 
ATOM     12  C   UNL     1      18.872  29.136  -8.127  1.00  0.00     0.013 C 
ATOM     13  C   UNL     1      17.523  28.861 -10.665  1.00  0.00     0.017 C 
ATOM     14  C   UNL     1      15.931  27.204  -9.719  1.00  0.00    -0.064 C 
ATOM     15  C   UNL     1      15.563  28.861  -7.936  1.00  0.00     0.032 C 
ATOM     16  C   UNL     1      15.014  27.933  -9.011  1.00  0.00    -0.064 C 
ATOM     17  C   UNL     1      15.447  26.118 -10.655  1.00  0.00     0.032 C 
ATOM     18  C   UNL     1      13.506  27.972  -9.417  1.00  0.00    -0.008 C 
ATOM     19  C   UNL     1      14.117  25.563 -10.180  1.00  0.00     0.009 C 
ATOM     20  C   UNL     1      13.044  26.665 -10.212  1.00  0.00     0.009 C 
ATOM     21  C   UNL     1      12.614  28.207  -8.162  1.00  0.00     0.015 C 
ATOM     22  C   UNL     1      13.374  29.212 -10.340  1.00  0.00     0.016 C 
ATOM     23  C   UNL     1      11.603  26.098  -9.874  1.00  0.00     0.005 C 
ATOM     24  C   UNL     1      11.094  28.136  -8.389  1.00  0.00     0.047 C 
ATOM     25  C   UNL     1      10.643  27.280  -9.585  1.00  0.00     0.182 C 
ATOM     26  C   UNL     1      11.045  25.339 -11.112  1.00  0.00     0.015 C 
ATOM     27  C   UNL     1      11.603  25.095  -8.683  1.00  0.00     0.015 C 
BRANCH   7  28
ATOM     28  O   UNL     1      19.794  24.903  -9.263  1.00  0.00    -0.393 OA
ATOM     29  H   UNL     1      19.514  24.097  -9.770  1.00  0.00     0.210 HD
ENDBRANCH   7  28
BRANCH  25  30
ATOM     30  O   UNL     1       9.315  26.796  -9.348  1.00  0.00    -0.462 OA
BRANCH  30  31
ATOM     31  C   UNL     1       8.216  27.110 -10.153  1.00  0.00     0.302 C 
ATOM     32  O   UNL     1       7.134  26.469 -10.051  1.00  0.00    -0.253 OA
ATOM     33  C   UNL     1       8.306  28.262 -11.094  1.00  0.00     0.139 C 
ENDBRANCH  30  31
ENDBRANCH  25  30
ENDBRANCH   2   6
ENDBRANCH   1   2
BRANCH   1  34
ATOM     34  C   UNL     1      18.545  26.228  -3.818  1.00  0.00     0.031 C 
BRANCH  34  35
ATOM     35  C   UNL     1      17.424  26.466  -2.823  1.00  0.00    -0.075 C 
ATOM     36  C   UNL     1      16.268  26.999  -3.254  1.00  0.00     0.008 C 
BRANCH  35  37
ATOM     37  C   UNL     1      17.706  26.327  -1.330  1.00  0.00     0.008 C 
ATOM     38  C   UNL     1      18.821  27.265  -0.845  1.00  0.00     0.012 C 
ATOM     39  C   UNL     1      18.034  24.871  -0.973  1.00  0.00     0.012 C 
ENDBRANCH  35  37
ENDBRANCH  34  35
ENDBRANCH   1  34
TORSDOF 9
ENDMDL
MODEL 4
REMARK VINA RESULT:    -5.915      4.145      7.748
REMARK INTER + INTRA:         -10.606
REMARK INTER:                  -9.084
REMARK INTRA:                  -1.522
REMARK UNBOUND:                -1.752
REMARK SMILES C=C(CC[C@@H](C(=O)[O-])[C@H]1[C@H](O)C[C@@]2(C)C3=C(CC[C@@]12C)[C@]1(C)CC[C@H](OC(C)=O)C(C)(C)[C@@H]1CC3)C(C)C
REMARK SMILES IDX 4 1 5 2 6 3 7 4 8 5 9 6 10 7 19 8 12 9 13 10 18 11 20 12
REMARK SMILES IDX 14 13 15 14 17 15 16 16 35 17 21 18 34 19 33 20 23 21 22 22
REMARK SMILES IDX 30 23 24 24 25 25 31 26 32 27 11 28 26 30 27 31 29 32 28 33
REMARK SMILES IDX 3 34 2 35 1 36 36 37 37 38 38 39
REMARK H PARENT 11 29
REMARK Flexibility Score: inf
ROOT
ATOM      1  C   UNL     1      20.463  28.536  -7.923  1.00  0.00     0.014 C 
ENDROOT
BRANCH   1   2
ATOM      2  C   UNL     1      19.273  28.798  -8.895  1.00  0.00     0.042 C 
BRANCH   2   3
ATOM      3  C   UNL     1      19.788  29.371 -10.195  1.00  0.00     0.045 C 
ATOM      4  O   UNL     1      19.650  30.593 -10.462  1.00  0.00    -0.550 OA
ATOM      5  O   UNL     1      20.389  28.533 -11.124  1.00  0.00    -0.550 OA
ENDBRANCH   2   3
BRANCH   2   6
ATOM      6  C   UNL     1      18.285  27.588  -9.098  1.00  0.00     0.033 C 
ATOM      7  C   UNL     1      18.949  26.236  -8.776  1.00  0.00     0.119 C 
ATOM      8  C   UNL     1      16.906  27.575  -8.285  1.00  0.00    -0.017 C 
ATOM      9  C   UNL     1      17.795  25.303  -8.487  1.00  0.00     0.043 C 
ATOM     10  C   UNL     1      16.813  26.120  -7.635  1.00  0.00    -0.003 C 
ATOM     11  C   UNL     1      16.795  28.690  -7.188  1.00  0.00     0.012 C 
ATOM     12  C   UNL     1      15.752  27.817  -9.301  1.00  0.00     0.013 C 
ATOM     13  C   UNL     1      15.427  25.419  -7.727  1.00  0.00     0.017 C 
ATOM     14  C   UNL     1      17.180  26.149  -6.124  1.00  0.00    -0.064 C 
ATOM     15  C   UNL     1      15.925  28.264  -6.010  1.00  0.00     0.032 C 
ATOM     16  C   UNL     1      16.581  27.078  -5.316  1.00  0.00    -0.064 C 
ATOM     17  C   UNL     1      18.023  25.058  -5.498  1.00  0.00     0.032 C 
ATOM     18  C   UNL     1      16.396  26.835  -3.785  1.00  0.00    -0.008 C 
ATOM     19  C   UNL     1      18.611  25.534  -4.182  1.00  0.00     0.009 C 
ATOM     20  C   UNL     1      17.484  25.835  -3.178  1.00  0.00     0.009 C 
ATOM     21  C   UNL     1      16.395  28.191  -3.019  1.00  0.00     0.015 C 
ATOM     22  C   UNL     1      14.983  26.207  -3.649  1.00  0.00     0.016 C 
ATOM     23  C   UNL     1      18.050  26.184  -1.740  1.00  0.00     0.005 C 
ATOM     24  C   UNL     1      16.354  28.102  -1.483  1.00  0.00     0.047 C 
ATOM     25  C   UNL     1      16.918  26.803  -0.881  1.00  0.00     0.182 C 
ATOM     26  C   UNL     1      18.506  24.875  -1.034  1.00  0.00     0.015 C 
ATOM     27  C   UNL     1      19.282  27.135  -1.781  1.00  0.00     0.015 C 
BRANCH   7  28
ATOM     28  O   UNL     1      19.683  25.744  -9.866  1.00  0.00    -0.393 OA
ATOM     29  H   UNL     1      20.439  25.226  -9.488  1.00  0.00     0.210 HD
ENDBRANCH   7  28
BRANCH  25  30
ATOM     30  O   UNL     1      17.387  27.060   0.448  1.00  0.00    -0.462 OA
BRANCH  30  31
ATOM     31  C   UNL     1      16.564  27.057   1.579  1.00  0.00     0.302 C 
ATOM     32  O   UNL     1      15.504  27.740   1.611  1.00  0.00    -0.253 OA
ATOM     33  C   UNL     1      16.912  26.179   2.732  1.00  0.00     0.139 C 
ENDBRANCH  30  31
ENDBRANCH  25  30
ENDBRANCH   2   6
ENDBRANCH   1   2
BRANCH   1  34
ATOM     34  C   UNL     1      21.850  29.113  -8.297  1.00  0.00     0.031 C 
BRANCH  34  35
ATOM     35  C   UNL     1      22.901  28.093  -8.693  1.00  0.00    -0.075 C 
ATOM     36  C   UNL     1      22.662  26.788  -8.476  1.00  0.00     0.008 C 
BRANCH  35  37
ATOM     37  C   UNL     1      24.292  28.570  -9.102  1.00  0.00     0.008 C 
ATOM     38  C   UNL     1      25.415  27.720  -8.490  1.00  0.00     0.012 C 
ATOM     39  C   UNL     1      24.483  30.051  -8.749  1.00  0.00     0.012 C 
ENDBRANCH  35  37
ENDBRANCH  34  35
ENDBRANCH   1  34
TORSDOF 9
ENDMDL
MODEL 5
REMARK VINA RESULT:    -5.897      2.094      4.791
REMARK INTER + INTRA:         -10.578
REMARK INTER:                  -8.897
REMARK INTRA:                  -1.681
REMARK UNBOUND:                -1.752
REMARK SMILES C=C(CC[C@@H](C(=O)[O-])[C@H]1[C@H](O)C[C@@]2(C)C3=C(CC[C@@]12C)[C@]1(C)CC[C@H](OC(C)=O)C(C)(C)[C@@H]1CC3)C(C)C
REMARK SMILES IDX 4 1 5 2 6 3 7 4 8 5 9 6 10 7 19 8 12 9 13 10 18 11 20 12
REMARK SMILES IDX 14 13 15 14 17 15 16 16 35 17 21 18 34 19 33 20 23 21 22 22
REMARK SMILES IDX 30 23 24 24 25 25 31 26 32 27 11 28 26 30 27 31 29 32 28 33
REMARK SMILES IDX 3 34 2 35 1 36 36 37 37 38 38 39
REMARK H PARENT 11 29
REMARK Flexibility Score: inf
ROOT
ATOM      1  C   UNL     1      15.381  25.986 -10.252  1.00  0.00     0.014 C 
ENDROOT
BRANCH   1   2
ATOM      2  C   UNL     1      14.228  26.760  -9.545  1.00  0.00     0.042 C 
BRANCH   2   3
ATOM      3  C   UNL     1      13.104  25.808  -9.207  1.00  0.00     0.045 C 
ATOM      4  O   UNL     1      12.110  26.193  -8.539  1.00  0.00    -0.550 OA
ATOM      5  O   UNL     1      13.186  24.480  -9.605  1.00  0.00    -0.550 OA
ENDBRANCH   2   3
BRANCH   2   6
ATOM      6  C   UNL     1      14.664  27.662  -8.330  1.00  0.00     0.033 C 
ATOM      7  C   UNL     1      15.114  26.827  -7.116  1.00  0.00     0.119 C 
ATOM      8  C   UNL     1      15.832  28.736  -8.548  1.00  0.00    -0.017 C 
ATOM      9  C   UNL     1      15.978  27.765  -6.305  1.00  0.00     0.043 C 
ATOM     10  C   UNL     1      16.840  28.516  -7.330  1.00  0.00    -0.003 C 
ATOM     11  C   UNL     1      16.574  28.608  -9.924  1.00  0.00     0.012 C 
ATOM     12  C   UNL     1      15.191  30.153  -8.505  1.00  0.00     0.013 C 
ATOM     13  C   UNL     1      17.365  29.806  -6.637  1.00  0.00     0.017 C 
ATOM     14  C   UNL     1      18.103  27.723  -7.775  1.00  0.00    -0.064 C 
ATOM     15  C   UNL     1      18.030  29.055  -9.844  1.00  0.00     0.032 C 
ATOM     16  C   UNL     1      18.778  28.130  -8.893  1.00  0.00    -0.064 C 
ATOM     17  C   UNL     1      18.707  26.649  -6.896  1.00  0.00     0.032 C 
ATOM     18  C   UNL     1      20.300  27.837  -9.085  1.00  0.00    -0.008 C 
ATOM     19  C   UNL     1      19.605  25.740  -7.715  1.00  0.00     0.009 C 
ATOM     20  C   UNL     1      20.788  26.542  -8.287  1.00  0.00     0.009 C 
ATOM     21  C   UNL     1      20.641  27.721 -10.600  1.00  0.00     0.015 C 
ATOM     22  C   UNL     1      21.021  29.091  -8.525  1.00  0.00     0.016 C 
ATOM     23  C   UNL     1      21.838  25.607  -9.018  1.00  0.00     0.005 C 
ATOM     24  C   UNL     1      22.082  27.301 -10.939  1.00  0.00     0.047 C 
ATOM     25  C   UNL     1      22.805  26.482  -9.856  1.00  0.00     0.182 C 
ATOM     26  C   UNL     1      22.691  24.860  -7.954  1.00  0.00     0.015 C 
ATOM     27  C   UNL     1      21.172  24.523  -9.915  1.00  0.00     0.015 C 
BRANCH   7  28
ATOM     28  O   UNL     1      14.023  26.410  -6.339  1.00  0.00    -0.393 OA
ATOM     29  H   UNL     1      13.618  25.637  -6.811  1.00  0.00     0.210 HD
ENDBRANCH   7  28
BRANCH  25  30
ATOM     30  O   UNL     1      23.810  25.665 -10.469  1.00  0.00    -0.462 OA
BRANCH  30  31
ATOM     31  C   UNL     1      25.182  25.820 -10.248  1.00  0.00     0.302 C 
ATOM     32  O   UNL     1      25.999  24.923 -10.593  1.00  0.00    -0.253 OA
ATOM     33  C   UNL     1      25.688  27.093  -9.661  1.00  0.00     0.139 C 
ENDBRANCH  30  31
ENDBRANCH  25  30
ENDBRANCH   2   6
ENDBRANCH   1   2
BRANCH   1  34
ATOM     34  C   UNL     1      15.899  24.685  -9.592  1.00  0.00     0.031 C 
BRANCH  34  35
ATOM     35  C   UNL     1      17.277  24.229 -10.035  1.00  0.00    -0.075 C 
ATOM     36  C   UNL     1      18.025  25.044 -10.798  1.00  0.00     0.008 C 
BRANCH  35  37
ATOM     37  C   UNL     1      17.691  22.776  -9.815  1.00  0.00     0.008 C 
ATOM     38  C   UNL     1      18.524  22.582  -8.540  1.00  0.00     0.012 C 
ATOM     39  C   UNL     1      18.444  22.236 -11.038  1.00  0.00     0.012 C 
ENDBRANCH  35  37
ENDBRANCH  34  35
ENDBRANCH   1  34
TORSDOF 9
ENDMDL
MODEL 6
REMARK VINA RESULT:    -5.867      2.754      4.963
REMARK INTER + INTRA:         -10.534
REMARK INTER:                  -9.774
REMARK INTRA:                  -0.761
REMARK UNBOUND:                -1.752
REMARK SMILES C=C(CC[C@@H](C(=O)[O-])[C@H]1[C@H](O)C[C@@]2(C)C3=C(CC[C@@]12C)[C@]1(C)CC[C@H](OC(C)=O)C(C)(C)[C@@H]1CC3)C(C)C
REMARK SMILES IDX 4 1 5 2 6 3 7 4 8 5 9 6 10 7 19 8 12 9 13 10 18 11 20 12
REMARK SMILES IDX 14 13 15 14 17 15 16 16 35 17 21 18 34 19 33 20 23 21 22 22
REMARK SMILES IDX 30 23 24 24 25 25 31 26 32 27 11 28 26 30 27 31 29 32 28 33
REMARK SMILES IDX 3 34 2 35 1 36 36 37 37 38 38 39
REMARK H PARENT 11 29
REMARK Flexibility Score: inf
ROOT
ATOM      1  C   UNL     1      16.235  26.636  -5.354  1.00  0.00     0.014 C 
ENDROOT
BRANCH   1   2
ATOM      2  C   UNL     1      16.024  27.773  -6.400  1.00  0.00     0.042 C 
BRANCH   2   3
ATOM      3  C   UNL     1      17.189  28.734  -6.355  1.00  0.00     0.045 C 
ATOM      4  O   UNL     1      17.001  29.972  -6.229  1.00  0.00    -0.550 OA
ATOM      5  O   UNL     1      18.483  28.251  -6.493  1.00  0.00    -0.550 OA
ENDBRANCH   2   3
BRANCH   2   6
ATOM      6  C   UNL     1      15.669  27.295  -7.858  1.00  0.00     0.033 C 
ATOM      7  C   UNL     1      15.987  28.368  -8.916  1.00  0.00     0.119 C 
ATOM      8  C   UNL     1      16.345  25.954  -8.414  1.00  0.00    -0.017 C 
ATOM      9  C   UNL     1      16.120  27.601 -10.212  1.00  0.00     0.043 C 
ATOM     10  C   UNL     1      16.912  26.335  -9.857  1.00  0.00    -0.003 C 
ATOM     11  C   UNL     1      17.480  25.377  -7.497  1.00  0.00     0.012 C 
ATOM     12  C   UNL     1      15.237  24.866  -8.509  1.00  0.00     0.013 C 
ATOM     13  C   UNL     1      16.655  25.297 -10.987  1.00  0.00     0.017 C 
ATOM     14  C   UNL     1      18.451  26.558  -9.821  1.00  0.00    -0.064 C 
ATOM     15  C   UNL     1      18.547  24.632  -8.291  1.00  0.00     0.032 C 
ATOM     16  C   UNL     1      19.242  25.613  -9.226  1.00  0.00    -0.064 C 
ATOM     17  C   UNL     1      19.101  27.684 -10.597  1.00  0.00     0.032 C 
ATOM     18  C   UNL     1      20.735  25.414  -9.638  1.00  0.00    -0.008 C 
ATOM     19  C   UNL     1      20.488  27.969 -10.051  1.00  0.00     0.009 C 
ATOM     20  C   UNL     1      21.393  26.739 -10.242  1.00  0.00     0.009 C 
ATOM     21  C   UNL     1      21.562  24.879  -8.431  1.00  0.00     0.015 C 
ATOM     22  C   UNL     1      20.705  24.309 -10.726  1.00  0.00     0.016 C 
ATOM     23  C   UNL     1      22.895  27.039  -9.832  1.00  0.00     0.005 C 
ATOM     24  C   UNL     1      23.081  24.762  -8.650  1.00  0.00     0.047 C 
ATOM     25  C   UNL     1      23.671  25.703  -9.714  1.00  0.00     0.182 C 
ATOM     26  C   UNL     1      23.577  27.876 -10.951  1.00  0.00     0.015 C 
ATOM     27  C   UNL     1      23.017  27.855  -8.511  1.00  0.00     0.015 C 
BRANCH   7  28
ATOM     28  O   UNL     1      14.949  29.305  -9.034  1.00  0.00    -0.393 OA
ATOM     29  H   UNL     1      14.158  28.811  -9.369  1.00  0.00     0.210 HD
ENDBRANCH   7  28
BRANCH  25  30
ATOM     30  O   UNL     1      25.049  25.953  -9.416  1.00  0.00    -0.462 OA
BRANCH  30  31
ATOM     31  C   UNL     1      26.106  25.594 -10.258  1.00  0.00     0.302 C 
ATOM     32  O   UNL     1      26.184  24.431 -10.741  1.00  0.00    -0.253 OA
ATOM     33  C   UNL     1      27.114  26.623 -10.643  1.00  0.00     0.139 C 
ENDBRANCH  30  31
ENDBRANCH  25  30
ENDBRANCH   2   6
ENDBRANCH   1   2
BRANCH   1  34
ATOM     34  C   UNL     1      16.156  27.002  -3.852  1.00  0.00     0.031 C 
BRANCH  34  35
ATOM     35  C   UNL     1      17.367  26.624  -3.020  1.00  0.00    -0.075 C 
ATOM     36  C   UNL     1      18.499  26.249  -3.642  1.00  0.00     0.008 C 
BRANCH  35  37
ATOM     37  C   UNL     1      17.213  26.443  -1.513  1.00  0.00     0.008 C 
ATOM     38  C   UNL     1      18.054  25.280  -0.965  1.00  0.00     0.012 C 
ATOM     39  C   UNL     1      15.736  26.265  -1.136  1.00  0.00     0.012 C 
ENDBRANCH  35  37
ENDBRANCH  34  35
ENDBRANCH   1  34
TORSDOF 9
ENDMDL
MODEL 7
REMARK VINA RESULT:    -5.557      4.374      7.645
REMARK INTER + INTRA:         -10.070
REMARK INTER:                  -9.073
REMARK INTRA:                  -0.996
REMARK UNBOUND:                -1.752
REMARK SMILES C=C(CC[C@@H](C(=O)[O-])[C@H]1[C@H](O)C[C@@]2(C)C3=C(CC[C@@]12C)[C@]1(C)CC[C@H](OC(C)=O)C(C)(C)[C@@H]1CC3)C(C)C
REMARK SMILES IDX 4 1 5 2 6 3 7 4 8 5 9 6 10 7 19 8 12 9 13 10 18 11 20 12
REMARK SMILES IDX 14 13 15 14 17 15 16 16 35 17 21 18 34 19 33 20 23 21 22 22
REMARK SMILES IDX 30 23 24 24 25 25 31 26 32 27 11 28 26 30 27 31 29 32 28 33
REMARK SMILES IDX 3 34 2 35 1 36 36 37 37 38 38 39
REMARK H PARENT 11 29
REMARK Flexibility Score: inf
ROOT
ATOM      1  C   UNL     1      14.464  24.974  -9.399  1.00  0.00     0.014 C 
ENDROOT
BRANCH   1   2
ATOM      2  C   UNL     1      15.974  24.700  -9.125  1.00  0.00     0.042 C 
BRANCH   2   3
ATOM      3  C   UNL     1      16.462  23.582 -10.016  1.00  0.00     0.045 C 
ATOM      4  O   UNL     1      15.876  23.313 -11.096  1.00  0.00    -0.550 OA
ATOM      5  O   UNL     1      17.549  22.813  -9.621  1.00  0.00    -0.550 OA
ENDBRANCH   2   3
BRANCH   2   6
ATOM      6  C   UNL     1      16.908  25.968  -9.153  1.00  0.00     0.033 C 
ATOM      7  C   UNL     1      16.137  27.265  -8.841  1.00  0.00     0.119 C 
ATOM      8  C   UNL     1      18.185  26.006  -8.187  1.00  0.00    -0.017 C 
ATOM      9  C   UNL     1      17.197  28.237  -8.375  1.00  0.00     0.043 C 
ATOM     10  C   UNL     1      18.122  27.425  -7.459  1.00  0.00    -0.003 C 
ATOM     11  C   UNL     1      18.235  24.838  -7.142  1.00  0.00     0.012 C 
ATOM     12  C   UNL     1      19.457  25.879  -9.075  1.00  0.00     0.013 C 
ATOM     13  C   UNL     1      19.467  28.199  -7.356  1.00  0.00     0.017 C 
ATOM     14  C   UNL     1      17.590  27.292  -6.003  1.00  0.00    -0.064 C 
ATOM     15  C   UNL     1      18.942  25.240  -5.852  1.00  0.00     0.032 C 
ATOM     16  C   UNL     1      18.147  26.351  -5.180  1.00  0.00    -0.064 C 
ATOM     17  C   UNL     1      16.623  28.302  -5.424  1.00  0.00     0.032 C 
ATOM     18  C   UNL     1      18.146  26.516  -3.627  1.00  0.00    -0.008 C 
ATOM     19  C   UNL     1      15.919  27.724  -4.210  1.00  0.00     0.009 C 
ATOM     20  C   UNL     1      16.942  27.424  -3.100  1.00  0.00     0.009 C 
ATOM     21  C   UNL     1      18.138  25.121  -2.935  1.00  0.00     0.015 C 
ATOM     22  C   UNL     1      19.496  27.206  -3.299  1.00  0.00     0.016 C 
ATOM     23  C   UNL     1      16.239  26.967  -1.755  1.00  0.00     0.005 C 
ATOM     24  C   UNL     1      18.001  25.126  -1.402  1.00  0.00     0.047 C 
ATOM     25  C   UNL     1      17.301  26.358  -0.804  1.00  0.00     0.182 C 
ATOM     26  C   UNL     1      15.634  28.209  -1.042  1.00  0.00     0.015 C 
ATOM     27  C   UNL     1      15.076  25.958  -1.985  1.00  0.00     0.015 C 
BRANCH   7  28
ATOM     28  O   UNL     1      15.503  27.779  -9.983  1.00  0.00    -0.393 OA
ATOM     29  H   UNL     1      15.261  27.001 -10.547  1.00  0.00     0.210 HD
ENDBRANCH   7  28
BRANCH  25  30
ATOM     30  O   UNL     1      16.702  26.003   0.448  1.00  0.00    -0.462 OA
BRANCH  30  31
ATOM     31  C   UNL     1      17.094  26.539   1.679  1.00  0.00     0.302 C 
ATOM     32  O   UNL     1      16.890  25.909   2.753  1.00  0.00    -0.253 OA
ATOM     33  C   UNL     1      17.823  27.838   1.711  1.00  0.00     0.139 C 
ENDBRANCH  30  31
ENDBRANCH  25  30
ENDBRANCH   2   6
ENDBRANCH   1   2
BRANCH   1  34
ATOM     34  C   UNL     1      13.561  25.345  -8.198  1.00  0.00     0.031 C 
BRANCH  34  35
ATOM     35  C   UNL     1      12.088  25.522  -8.515  1.00  0.00    -0.075 C 
ATOM     36  C   UNL     1      11.358  24.448  -8.865  1.00  0.00     0.008 C 
BRANCH  35  37
ATOM     37  C   UNL     1      11.518  26.930  -8.669  1.00  0.00     0.008 C 
ATOM     38  C   UNL     1      11.051  27.230 -10.100  1.00  0.00     0.012 C 
ATOM     39  C   UNL     1      12.536  27.980  -8.202  1.00  0.00     0.012 C 
ENDBRANCH  35  37
ENDBRANCH  34  35
ENDBRANCH   1  34
TORSDOF 9
ENDMDL
MODEL 8
REMARK VINA RESULT:    -5.522      4.193      7.016
REMARK INTER + INTRA:         -10.017
REMARK INTER:                  -8.984
REMARK INTRA:                  -1.033
REMARK UNBOUND:                -1.752
REMARK SMILES C=C(CC[C@@H](C(=O)[O-])[C@H]1[C@H](O)C[C@@]2(C)C3=C(CC[C@@]12C)[C@]1(C)CC[C@H](OC(C)=O)C(C)(C)[C@@H]1CC3)C(C)C
REMARK SMILES IDX 4 1 5 2 6 3 7 4 8 5 9 6 10 7 19 8 12 9 13 10 18 11 20 12
REMARK SMILES IDX 14 13 15 14 17 15 16 16 35 17 21 18 34 19 33 20 23 21 22 22
REMARK SMILES IDX 30 23 24 24 25 25 31 26 32 27 11 28 26 30 27 31 29 32 28 33
REMARK SMILES IDX 3 34 2 35 1 36 36 37 37 38 38 39
REMARK H PARENT 11 29
REMARK Flexibility Score: inf
ROOT
ATOM      1  C   UNL     1      18.452  30.008  -8.663  1.00  0.00     0.014 C 
ENDROOT
BRANCH   1   2
ATOM      2  C   UNL     1      19.200  28.651  -8.840  1.00  0.00     0.042 C 
BRANCH   2   3
ATOM      3  C   UNL     1      20.257  28.505  -7.771  1.00  0.00     0.045 C 
ATOM      4  O   UNL     1      19.954  28.123  -6.611  1.00  0.00    -0.550 OA
ATOM      5  O   UNL     1      21.575  28.833  -8.059  1.00  0.00    -0.550 OA
ENDBRANCH   2   3
BRANCH   2   6
ATOM      6  C   UNL     1      18.276  27.383  -8.978  1.00  0.00     0.033 C 
ATOM      7  C   UNL     1      19.007  26.085  -8.583  1.00  0.00     0.119 C 
ATOM      8  C   UNL     1      16.897  27.343  -8.165  1.00  0.00    -0.017 C 
ATOM      9  C   UNL     1      17.902  25.112  -8.244  1.00  0.00     0.043 C 
ATOM     10  C   UNL     1      16.877  25.921  -7.438  1.00  0.00    -0.003 C 
ATOM     11  C   UNL     1      16.726  28.508  -7.129  1.00  0.00     0.012 C 
ATOM     12  C   UNL     1      15.735  27.471  -9.192  1.00  0.00     0.013 C 
ATOM     13  C   UNL     1      15.529  25.147  -7.492  1.00  0.00     0.017 C 
ATOM     14  C   UNL     1      17.238  26.050  -5.930  1.00  0.00    -0.064 C 
ATOM     15  C   UNL     1      15.877  28.101  -5.930  1.00  0.00     0.032 C 
ATOM     16  C   UNL     1      16.591  26.989  -5.174  1.00  0.00    -0.064 C 
ATOM     17  C   UNL     1      18.134  25.039  -5.247  1.00  0.00     0.032 C 
ATOM     18  C   UNL     1      16.414  26.819  -3.631  1.00  0.00    -0.008 C 
ATOM     19  C   UNL     1      18.693  25.614  -3.959  1.00  0.00     0.009 C 
ATOM     20  C   UNL     1      17.549  25.910  -2.972  1.00  0.00     0.009 C 
ATOM     21  C   UNL     1      16.342  28.213  -2.939  1.00  0.00     0.015 C 
ATOM     22  C   UNL     1      15.035  26.128  -3.462  1.00  0.00     0.016 C 
ATOM     23  C   UNL     1      18.094  26.365  -1.554  1.00  0.00     0.005 C 
ATOM     24  C   UNL     1      16.301  28.204  -1.401  1.00  0.00     0.047 C 
ATOM     25  C   UNL     1      16.929  26.970  -0.730  1.00  0.00     0.182 C 
ATOM     26  C   UNL     1      18.614  25.121  -0.780  1.00  0.00     0.015 C 
ATOM     27  C   UNL     1      19.275  27.374  -1.647  1.00  0.00     0.015 C 
BRANCH   7  28
ATOM     28  O   UNL     1      19.768  25.574  -9.646  1.00  0.00    -0.393 OA
ATOM     29  H   UNL     1      19.884  26.316 -10.294  1.00  0.00     0.210 HD
ENDBRANCH   7  28
BRANCH  25  30
ATOM     30  O   UNL     1      17.381  27.322   0.583  1.00  0.00    -0.462 OA
BRANCH  30  31
ATOM     31  C   UNL     1      16.574  27.273   1.724  1.00  0.00     0.302 C 
ATOM     32  O   UNL     1      15.606  28.069   1.868  1.00  0.00    -0.253 OA
ATOM     33  C   UNL     1      16.820  26.219   2.749  1.00  0.00     0.139 C 
ENDBRANCH  30  31
ENDBRANCH  25  30
ENDBRANCH   2   6
ENDBRANCH   1   2
BRANCH   1  34
ATOM     34  C   UNL     1      17.923  30.720  -9.932  1.00  0.00     0.031 C 
BRANCH  34  35
ATOM     35  C   UNL     1      16.920  31.832  -9.690  1.00  0.00    -0.075 C 
ATOM     36  C   UNL     1      17.023  32.974 -10.392  1.00  0.00     0.008 C 
BRANCH  35  37
ATOM     37  C   UNL     1      15.969  31.737  -8.499  1.00  0.00     0.008 C 
ATOM     38  C   UNL     1      14.612  31.123  -8.870  1.00  0.00     0.012 C 
ATOM     39  C   UNL     1      15.778  33.113  -7.847  1.00  0.00     0.012 C 
ENDBRANCH  35  37
ENDBRANCH  34  35
ENDBRANCH   1  34
TORSDOF 9
ENDMDL
MODEL 9
REMARK VINA RESULT:    -5.518      2.720      5.089
REMARK INTER + INTRA:         -10.011
REMARK INTER:                  -8.848
REMARK INTRA:                  -1.164
REMARK UNBOUND:                -1.752
REMARK SMILES C=C(CC[C@@H](C(=O)[O-])[C@H]1[C@H](O)C[C@@]2(C)C3=C(CC[C@@]12C)[C@]1(C)CC[C@H](OC(C)=O)C(C)(C)[C@@H]1CC3)C(C)C
REMARK SMILES IDX 4 1 5 2 6 3 7 4 8 5 9 6 10 7 19 8 12 9 13 10 18 11 20 12
REMARK SMILES IDX 14 13 15 14 17 15 16 16 35 17 21 18 34 19 33 20 23 21 22 22
REMARK SMILES IDX 30 23 24 24 25 25 31 26 32 27 11 28 26 30 27 31 29 32 28 33
REMARK SMILES IDX 3 34 2 35 1 36 36 37 37 38 38 39
REMARK H PARENT 11 29
REMARK Flexibility Score: inf
ROOT
ATOM      1  C   UNL     1      18.200  27.201  -5.284  1.00  0.00     0.014 C 
ENDROOT
BRANCH   1   2
ATOM      2  C   UNL     1      16.852  26.447  -5.499  1.00  0.00     0.042 C 
BRANCH   2   3
ATOM      3  C   UNL     1      15.794  27.018  -4.585  1.00  0.00     0.045 C 
ATOM      4  O   UNL     1      15.836  28.221  -4.219  1.00  0.00    -0.550 OA
ATOM      5  O   UNL     1      14.781  26.196  -4.109  1.00  0.00    -0.550 OA
ENDBRANCH   2   3
BRANCH   2   6
ATOM      6  C   UNL     1      16.378  26.324  -6.996  1.00  0.00     0.033 C 
ATOM      7  C   UNL     1      16.193  27.700  -7.664  1.00  0.00     0.119 C 
ATOM      8  C   UNL     1      17.277  25.485  -8.022  1.00  0.00    -0.017 C 
ATOM      9  C   UNL     1      16.288  27.421  -9.147  1.00  0.00     0.043 C 
ATOM     10  C   UNL     1      17.444  26.424  -9.302  1.00  0.00    -0.003 C 
ATOM     11  C   UNL     1      18.674  25.057  -7.452  1.00  0.00     0.012 C 
ATOM     12  C   UNL     1      16.508  24.179  -8.373  1.00  0.00     0.013 C 
ATOM     13  C   UNL     1      17.274  25.730 -10.684  1.00  0.00     0.017 C 
ATOM     14  C   UNL     1      18.845  27.101  -9.331  1.00  0.00    -0.064 C 
ATOM     15  C   UNL     1      19.739  24.948  -8.538  1.00  0.00     0.032 C 
ATOM     16  C   UNL     1      19.958  26.324  -9.153  1.00  0.00    -0.064 C 
ATOM     17  C   UNL     1      19.011  28.547  -9.744  1.00  0.00     0.032 C 
ATOM     18  C   UNL     1      21.346  26.734  -9.738  1.00  0.00    -0.008 C 
ATOM     19  C   UNL     1      20.345  29.085  -9.260  1.00  0.00     0.009 C 
ATOM     20  C   UNL     1      21.499  28.313  -9.926  1.00  0.00     0.009 C 
ATOM     21  C   UNL     1      22.495  26.163  -8.854  1.00  0.00     0.015 C 
ATOM     22  C   UNL     1      21.416  26.040 -11.124  1.00  0.00     0.016 C 
ATOM     23  C   UNL     1      22.911  28.940  -9.574  1.00  0.00     0.005 C 
ATOM     24  C   UNL     1      23.921  26.599  -9.233  1.00  0.00     0.047 C 
ATOM     25  C   UNL     1      24.028  27.943  -9.974  1.00  0.00     0.182 C 
ATOM     26  C   UNL     1      23.123  30.235 -10.409  1.00  0.00     0.015 C 
ATOM     27  C   UNL     1      23.049  29.336  -8.074  1.00  0.00     0.015 C 
BRANCH   7  28
ATOM     28  O   UNL     1      14.937  28.254  -7.373  1.00  0.00    -0.393 OA
ATOM     29  H   UNL     1      14.774  28.959  -8.051  1.00  0.00     0.210 HD
ENDBRANCH   7  28
BRANCH  25  30
ATOM     30  O   UNL     1      25.318  28.518  -9.733  1.00  0.00    -0.462 OA
BRANCH  30  31
ATOM     31  C   UNL     1      26.488  27.769  -9.576  1.00  0.00     0.302 C 
ATOM     32  O   UNL     1      27.125  27.782  -8.487  1.00  0.00    -0.253 OA
ATOM     33  C   UNL     1      26.947  26.889 -10.689  1.00  0.00     0.139 C 
ENDBRANCH  30  31
ENDBRANCH  25  30
ENDBRANCH   2   6
ENDBRANCH   1   2
BRANCH   1  34
ATOM     34  C   UNL     1      19.271  26.536  -4.385  1.00  0.00     0.031 C 
BRANCH  34  35
ATOM     35  C   UNL     1      19.145  26.815  -2.899  1.00  0.00    -0.075 C 
ATOM     36  C   UNL     1      20.140  27.460  -2.266  1.00  0.00     0.008 C 
BRANCH  35  37
ATOM     37  C   UNL     1      18.020  26.156  -2.106  1.00  0.00     0.008 C 
ATOM     38  C   UNL     1      17.313  27.131  -1.155  1.00  0.00     0.012 C 
ATOM     39  C   UNL     1      18.542  24.935  -1.336  1.00  0.00     0.012 C 
ENDBRANCH  35  37
ENDBRANCH  34  35
ENDBRANCH   1  34
TORSDOF 9
ENDMDL
