MODEL 1
REMARK VINA RESULT:    -2.005      0.000      0.000
REMARK INTER + INTRA:          -2.005
REMARK INTER:                  -2.005
REMARK INTRA:                   0.000
REMARK UNBOUND:                 0.000
REMARK SMILES CC(=O)[O-]
REMARK SMILES IDX 1 1 2 2 3 3 4 4
REMARK H PARENT
REMARK Flexibility Score: inf
ROOT
ATOM      1  C   UNL     1     -43.956 -38.145  14.631  1.00  0.00     0.063 C 
ATOM      2  C   UNL     1     -44.601 -37.875  13.314  1.00  0.00     0.038 C 
ATOM      3  O   UNL     1     -45.343 -38.742  12.783  1.00  0.00    -0.550 OA
ATOM      4  O   UNL     1     -44.341 -36.687  12.643  1.00  0.00    -0.550 OA
ENDROOT
TORSDOF 0
ENDMDL
MODEL 2
REMARK VINA RESULT:    -1.929      2.167      2.584
REMARK INTER + INTRA:          -1.929
REMARK INTER:                  -1.929
REMARK INTRA:                   0.000
REMARK UNBOUND:                 0.000
REMARK SMILES CC(=O)[O-]
REMARK SMILES IDX 1 1 2 2 3 3 4 4
REMARK H PARENT
REMARK Flexibility Score: inf
ROOT
ATOM      1  C   UNL     1     -44.476 -37.962  13.224  1.00  0.00     0.063 C 
ATOM      2  C   UNL     1     -44.253 -38.184  14.681  1.00  0.00     0.038 C 
ATOM      3  O   UNL     1     -43.095 -38.416  15.116  1.00  0.00    -0.550 OA
ATOM      4  O   UNL     1     -45.332 -38.193  15.557  1.00  0.00    -0.550 OA
ENDROOT
TORSDOF 0
ENDMDL
MODEL 3
REMARK VINA RESULT:    -1.921      1.362      2.085
REMARK INTER + INTRA:          -1.921
REMARK INTER:                  -1.921
REMARK INTRA:                   0.000
REMARK UNBOUND:                 0.000
REMARK SMILES CC(=O)[O-]
REMARK SMILES IDX 1 1 2 2 3 3 4 4
REMARK H PARENT
REMARK Flexibility Score: inf
ROOT
ATOM      1  C   UNL     1     -45.813 -38.569  12.837  1.00  0.00     0.063 C 
ATOM      2  C   UNL     1     -44.639 -37.760  13.272  1.00  0.00     0.038 C 
ATOM      3  O   UNL     1     -44.320 -36.718  12.642  1.00  0.00    -0.550 OA
ATOM      4  O   UNL     1     -43.859 -38.184  14.341  1.00  0.00    -0.550 OA
ENDROOT
TORSDOF 0
ENDMDL
MODEL 4
REMARK VINA RESULT:    -1.888      1.372      2.099
REMARK INTER + INTRA:          -1.888
REMARK INTER:                  -1.888
REMARK INTRA:                   0.000
REMARK UNBOUND:                 0.000
REMARK SMILES CC(=O)[O-]
REMARK SMILES IDX 1 1 2 2 3 3 4 4
REMARK H PARENT
REMARK Flexibility Score: inf
ROOT
ATOM      1  C   UNL     1     -44.629 -36.588  12.662  1.00  0.00     0.063 C 
ATOM      2  C   UNL     1     -44.641 -37.946  13.276  1.00  0.00     0.038 C 
ATOM      3  O   UNL     1     -43.921 -38.194  14.280  1.00  0.00    -0.550 OA
ATOM      4  O   UNL     1     -45.403 -38.959  12.710  1.00  0.00    -0.550 OA
ENDROOT
TORSDOF 0
ENDMDL
MODEL 5
REMARK VINA RESULT:    -1.880     14.455     14.805
REMARK INTER + INTRA:          -1.880
REMARK INTER:                  -1.880
REMARK INTRA:                   0.000
REMARK UNBOUND:                 0.000
REMARK SMILES CC(=O)[O-]
REMARK SMILES IDX 1 1 2 2 3 3 4 4
REMARK H PARENT
REMARK Flexibility Score: inf
ROOT
ATOM      1  C   UNL     1     -38.920 -52.068   9.604  1.00  0.00     0.063 C 
ATOM      2  C   UNL     1     -40.241 -51.420   9.366  1.00  0.00     0.038 C 
ATOM      3  O   UNL     1     -41.275 -52.124   9.218  1.00  0.00    -0.550 OA
ATOM      4  O   UNL     1     -40.328 -50.039   9.250  1.00  0.00    -0.550 OA
ENDROOT
TORSDOF 0
ENDMDL
MODEL 6
REMARK VINA RESULT:    -1.845     14.616     15.123
REMARK INTER + INTRA:          -1.845
REMARK INTER:                  -1.845
REMARK INTRA:                   0.000
REMARK UNBOUND:                 0.000
REMARK SMILES CC(=O)[O-]
REMARK SMILES IDX 1 1 2 2 3 3 4 4
REMARK H PARENT
REMARK Flexibility Score: inf
ROOT
ATOM      1  C   UNL     1     -37.663 -34.095  27.569  1.00  0.00     0.063 C 
ATOM      2  C   UNL     1     -38.597 -33.686  26.480  1.00  0.00     0.038 C 
ATOM      3  O   UNL     1     -38.215 -33.701  25.280  1.00  0.00    -0.550 OA
ATOM      4  O   UNL     1     -39.873 -33.236  26.792  1.00  0.00    -0.550 OA
ENDROOT
TORSDOF 0
ENDMDL
MODEL 7
REMARK VINA RESULT:    -1.795     13.960     14.133
REMARK INTER + INTRA:          -1.795
REMARK INTER:                  -1.795
REMARK INTRA:                   0.000
REMARK UNBOUND:                 0.000
REMARK SMILES CC(=O)[O-]
REMARK SMILES IDX 1 1 2 2 3 3 4 4
REMARK H PARENT
REMARK Flexibility Score: inf
ROOT
ATOM      1  C   UNL     1     -37.975 -34.171  26.167  1.00  0.00     0.063 C 
ATOM      2  C   UNL     1     -38.280 -33.217  25.062  1.00  0.00     0.038 C 
ATOM      3  O   UNL     1     -39.408 -32.662  24.998  1.00  0.00    -0.550 OA
ATOM      4  O   UNL     1     -37.339 -32.981  24.068  1.00  0.00    -0.550 OA
ENDROOT
TORSDOF 0
ENDMDL
MODEL 8
REMARK VINA RESULT:    -1.781     13.113     13.538
REMARK INTER + INTRA:          -1.781
REMARK INTER:                  -1.781
REMARK INTRA:                   0.000
REMARK UNBOUND:                 0.000
REMARK SMILES CC(=O)[O-]
REMARK SMILES IDX 1 1 2 2 3 3 4 4
REMARK H PARENT
REMARK Flexibility Score: inf
ROOT
ATOM      1  C   UNL     1     -37.439 -32.705  23.083  1.00  0.00     0.063 C 
ATOM      2  C   UNL     1     -38.399 -33.008  24.183  1.00  0.00     0.038 C 
ATOM      3  O   UNL     1     -39.584 -32.587  24.122  1.00  0.00    -0.550 OA
ATOM      4  O   UNL     1     -37.974 -33.708  25.304  1.00  0.00    -0.550 OA
ENDROOT
TORSDOF 0
ENDMDL
MODEL 9
REMARK VINA RESULT:    -0.435     21.307     21.543
REMARK INTER + INTRA:          -0.435
REMARK INTER:                  -0.435
REMARK INTRA:                   0.000
REMARK UNBOUND:                 0.000
REMARK SMILES CC(=O)[O-]
REMARK SMILES IDX 1 1 2 2 3 3 4 4
REMARK H PARENT
REMARK Flexibility Score: inf
ROOT
ATOM      1  C   UNL     1     -29.261 -52.125   8.876  1.00  0.00     0.063 C 
ATOM      2  C   UNL     1     -28.461 -51.583  10.012  1.00  0.00     0.038 C 
ATOM      3  O   UNL     1     -28.910 -50.633  10.705  1.00  0.00    -0.550 OA
ATOM      4  O   UNL     1     -27.195 -52.089  10.275  1.00  0.00    -0.550 OA
ENDROOT
TORSDOF 0
ENDMDL
