MODEL 1
REMARK VINA RESULT:    -4.839      0.000      0.000
REMARK INTER + INTRA:         -11.347
REMARK INTER:                  -9.083
REMARK INTRA:                  -2.264
REMARK UNBOUND:                -2.264
REMARK SMILES O=C([O-])CCCCCCCCCCCCCCC(=O)[O-]
REMARK SMILES IDX 10 1 9 2 8 3 7 4 6 5 5 6 4 7 2 8 1 9 3 10 11 11 12 12 13 13
REMARK SMILES IDX 14 14 15 15 16 16 17 17 18 18 19 19 20 20
REMARK H PARENT
REMARK Flexibility Score: inf
ROOT
ATOM      1  C   UNL     1     -48.471  25.257 -14.725  1.00  0.00     0.000 C 
ENDROOT
BRANCH   1   2
ATOM      2  C   UNL     1     -47.122  25.191 -13.979  1.00  0.00     0.000 C 
BRANCH   2   3
ATOM      3  C   UNL     1     -46.488  26.573 -13.737  1.00  0.00     0.000 C 
BRANCH   3   4
ATOM      4  C   UNL     1     -45.327  26.874 -14.697  1.00  0.00     0.000 C 
BRANCH   4   5
ATOM      5  C   UNL     1     -45.579  28.121 -15.560  1.00  0.00     0.000 C 
BRANCH   5   6
ATOM      6  C   UNL     1     -45.184  27.911 -17.031  1.00  0.00     0.006 C 
BRANCH   6   7
ATOM      7  C   UNL     1     -44.724  26.474 -17.307  1.00  0.00     0.053 C 
BRANCH   7   8
ATOM      8  C   UNL     1     -45.103  26.022 -18.684  1.00  0.00     0.041 C 
ATOM      9  O   UNL     1     -45.769  24.966 -18.842  1.00  0.00    -0.550 OA
ATOM     10  O   UNL     1     -44.696  26.752 -19.793  1.00  0.00    -0.550 OA
ENDBRANCH   7   8
ENDBRANCH   6   7
ENDBRANCH   5   6
ENDBRANCH   4   5
ENDBRANCH   3   4
ENDBRANCH   2   3
ENDBRANCH   1   2
BRANCH   1  11
ATOM     11  C   UNL     1     -48.301  25.109 -16.247  1.00  0.00     0.000 C 
BRANCH  11  12
ATOM     12  C   UNL     1     -48.560  26.425 -16.998  1.00  0.00     0.000 C 
BRANCH  12  13
ATOM     13  C   UNL     1     -49.305  27.454 -16.129  1.00  0.00     0.000 C 
BRANCH  13  14
ATOM     14  C   UNL     1     -50.718  27.769 -16.654  1.00  0.00     0.000 C 
BRANCH  14  15
ATOM     15  C   UNL     1     -51.872  27.215 -15.798  1.00  0.00     0.000 C 
BRANCH  15  16
ATOM     16  C   UNL     1     -51.907  25.680 -15.759  1.00  0.00     0.006 C 
BRANCH  16  17
ATOM     17  C   UNL     1     -52.361  25.175 -14.387  1.00  0.00     0.053 C 
BRANCH  17  18
ATOM     18  C   UNL     1     -51.941  23.754 -14.185  1.00  0.00     0.041 C 
ATOM     19  O   UNL     1     -51.345  23.133 -15.105  1.00  0.00    -0.550 OA
ATOM     20  O   UNL     1     -52.159  23.131 -12.963  1.00  0.00    -0.550 OA
ENDBRANCH  17  18
ENDBRANCH  16  17
ENDBRANCH  15  16
ENDBRANCH  14  15
ENDBRANCH  13  14
ENDBRANCH  12  13
ENDBRANCH  11  12
ENDBRANCH   1  11
TORSDOF 15
ENDMDL
MODEL 2
REMARK VINA RESULT:    -4.800      0.832      6.878
REMARK INTER + INTRA:         -11.273
REMARK INTER:                  -9.087
REMARK INTRA:                  -2.186
REMARK UNBOUND:                -2.264
REMARK SMILES O=C([O-])CCCCCCCCCCCCCCC(=O)[O-]
REMARK SMILES IDX 10 1 9 2 8 3 7 4 6 5 5 6 4 7 2 8 1 9 3 10 11 11 12 12 13 13
REMARK SMILES IDX 14 14 15 15 16 16 17 17 18 18 19 19 20 20
REMARK H PARENT
REMARK Flexibility Score: inf
ROOT
ATOM      1  C   UNL     1     -48.316  25.194 -16.103  1.00  0.00     0.000 C 
ENDROOT
BRANCH   1   2
ATOM      2  C   UNL     1     -48.503  26.162 -17.289  1.00  0.00     0.000 C 
BRANCH   2   3
ATOM      3  C   UNL     1     -49.114  27.515 -16.885  1.00  0.00     0.000 C 
BRANCH   3   4
ATOM      4  C   UNL     1     -50.630  27.582 -17.128  1.00  0.00     0.000 C 
BRANCH   4   5
ATOM      5  C   UNL     1     -51.405  28.094 -15.903  1.00  0.00     0.000 C 
BRANCH   5   6
ATOM      6  C   UNL     1     -51.666  26.989 -14.866  1.00  0.00     0.006 C 
BRANCH   6   7
ATOM      7  C   UNL     1     -52.005  25.645 -15.525  1.00  0.00     0.053 C 
BRANCH   7   8
ATOM      8  C   UNL     1     -52.029  24.526 -14.529  1.00  0.00     0.041 C 
ATOM      9  O   UNL     1     -51.078  23.703 -14.478  1.00  0.00    -0.550 OA
ATOM     10  O   UNL     1     -53.116  24.375 -13.678  1.00  0.00    -0.550 OA
ENDBRANCH   7   8
ENDBRANCH   6   7
ENDBRANCH   5   6
ENDBRANCH   4   5
ENDBRANCH   3   4
ENDBRANCH   2   3
ENDBRANCH   1   2
BRANCH   1  11
ATOM     11  C   UNL     1     -48.173  25.938 -14.763  1.00  0.00     0.000 C 
BRANCH  11  12
ATOM     12  C   UNL     1     -47.140  25.282 -13.833  1.00  0.00     0.000 C 
BRANCH  12  13
ATOM     13  C   UNL     1     -45.812  26.061 -13.798  1.00  0.00     0.000 C 
BRANCH  13  14
ATOM     14  C   UNL     1     -45.963  27.521 -14.261  1.00  0.00     0.000 C 
BRANCH  14  15
ATOM     15  C   UNL     1     -45.058  27.931 -15.436  1.00  0.00     0.000 C 
BRANCH  15  16
ATOM     16  C   UNL     1     -44.938  26.841 -16.510  1.00  0.00     0.006 C 
BRANCH  16  17
ATOM     17  C   UNL     1     -44.715  27.456 -17.895  1.00  0.00     0.053 C 
BRANCH  17  18
ATOM     18  C   UNL     1     -44.581  26.385 -18.929  1.00  0.00     0.041 C 
ATOM     19  O   UNL     1     -45.223  25.307 -18.814  1.00  0.00    -0.550 OA
ATOM     20  O   UNL     1     -43.788  26.595 -20.050  1.00  0.00    -0.550 OA
ENDBRANCH  17  18
ENDBRANCH  16  17
ENDBRANCH  15  16
ENDBRANCH  14  15
ENDBRANCH  13  14
ENDBRANCH  12  13
ENDBRANCH  11  12
ENDBRANCH   1  11
TORSDOF 15
ENDMDL
MODEL 3
REMARK VINA RESULT:    -4.652      2.207      3.366
REMARK INTER + INTRA:         -10.996
REMARK INTER:                  -8.862
REMARK INTRA:                  -2.134
REMARK UNBOUND:                -2.264
REMARK SMILES O=C([O-])CCCCCCCCCCCCCCC(=O)[O-]
REMARK SMILES IDX 10 1 9 2 8 3 7 4 6 5 5 6 4 7 2 8 1 9 3 10 11 11 12 12 13 13
REMARK SMILES IDX 14 14 15 15 16 16 17 17 18 18 19 19 20 20
REMARK H PARENT
REMARK Flexibility Score: inf
ROOT
ATOM      1  C   UNL     1     -46.316  25.463 -18.292  1.00  0.00     0.000 C 
ENDROOT
BRANCH   1   2
ATOM      2  C   UNL     1     -45.580  26.684 -18.881  1.00  0.00     0.000 C 
BRANCH   2   3
ATOM      3  C   UNL     1     -44.374  27.138 -18.039  1.00  0.00     0.000 C 
BRANCH   3   4
ATOM      4  C   UNL     1     -44.672  28.388 -17.195  1.00  0.00     0.000 C 
BRANCH   4   5
ATOM      5  C   UNL     1     -44.125  28.281 -15.763  1.00  0.00     0.000 C 
BRANCH   5   6
ATOM      6  C   UNL     1     -45.226  27.977 -14.732  1.00  0.00     0.006 C 
BRANCH   6   7
ATOM      7  C   UNL     1     -45.451  26.470 -14.553  1.00  0.00     0.053 C 
BRANCH   7   8
ATOM      8  C   UNL     1     -46.650  26.183 -13.702  1.00  0.00     0.041 C 
ATOM      9  O   UNL     1     -47.156  27.092 -12.993  1.00  0.00    -0.550 OA
ATOM     10  O   UNL     1     -47.190  24.904 -13.669  1.00  0.00    -0.550 OA
ENDBRANCH   7   8
ENDBRANCH   6   7
ENDBRANCH   5   6
ENDBRANCH   4   5
ENDBRANCH   3   4
ENDBRANCH   2   3
ENDBRANCH   1   2
BRANCH   1  11
ATOM     11  C   UNL     1     -47.581  25.866 -17.514  1.00  0.00     0.000 C 
BRANCH  11  12
ATOM     12  C   UNL     1     -48.139  27.226 -17.964  1.00  0.00     0.000 C 
BRANCH  12  13
ATOM     13  C   UNL     1     -48.370  28.181 -16.779  1.00  0.00     0.000 C 
BRANCH  13  14
ATOM     14  C   UNL     1     -49.402  27.644 -15.771  1.00  0.00     0.000 C 
BRANCH  14  15
ATOM     15  C   UNL     1     -50.840  27.528 -16.308  1.00  0.00     0.000 C 
BRANCH  15  16
ATOM     16  C   UNL     1     -51.675  26.474 -15.566  1.00  0.00     0.006 C 
BRANCH  16  17
ATOM     17  C   UNL     1     -50.796  25.313 -15.091  1.00  0.00     0.053 C 
BRANCH  17  18
ATOM     18  C   UNL     1     -51.635  24.117 -14.773  1.00  0.00     0.041 C 
ATOM     19  O   UNL     1     -51.226  22.960 -15.061  1.00  0.00    -0.550 OA
ATOM     20  O   UNL     1     -52.846  24.272 -14.111  1.00  0.00    -0.550 OA
ENDBRANCH  17  18
ENDBRANCH  16  17
ENDBRANCH  15  16
ENDBRANCH  14  15
ENDBRANCH  13  14
ENDBRANCH  12  13
ENDBRANCH  11  12
ENDBRANCH   1  11
TORSDOF 15
ENDMDL
MODEL 4
REMARK VINA RESULT:    -4.648      1.262      2.066
REMARK INTER + INTRA:         -10.987
REMARK INTER:                  -9.028
REMARK INTRA:                  -1.960
REMARK UNBOUND:                -2.264
REMARK SMILES O=C([O-])CCCCCCCCCCCCCCC(=O)[O-]
REMARK SMILES IDX 10 1 9 2 8 3 7 4 6 5 5 6 4 7 2 8 1 9 3 10 11 11 12 12 13 13
REMARK SMILES IDX 14 14 15 15 16 16 17 17 18 18 19 19 20 20
REMARK H PARENT
REMARK Flexibility Score: inf
ROOT
ATOM      1  C   UNL     1     -48.199  25.636 -16.814  1.00  0.00     0.000 C 
ENDROOT
BRANCH   1   2
ATOM      2  C   UNL     1     -48.386  24.653 -15.639  1.00  0.00     0.000 C 
BRANCH   2   3
ATOM      3  C   UNL     1     -48.208  25.308 -14.258  1.00  0.00     0.000 C 
BRANCH   3   4
ATOM      4  C   UNL     1     -46.738  25.372 -13.812  1.00  0.00     0.000 C 
BRANCH   4   5
ATOM      5  C   UNL     1     -46.362  26.732 -13.202  1.00  0.00     0.000 C 
BRANCH   5   6
ATOM      6  C   UNL     1     -45.667  27.660 -14.212  1.00  0.00     0.006 C 
BRANCH   6   7
ATOM      7  C   UNL     1     -45.002  26.879 -15.353  1.00  0.00     0.053 C 
BRANCH   7   8
ATOM      8  C   UNL     1     -44.740  27.747 -16.545  1.00  0.00     0.041 C 
ATOM      9  O   UNL     1     -45.229  27.450 -17.665  1.00  0.00    -0.550 OA
ATOM     10  O   UNL     1     -43.931  28.870 -16.423  1.00  0.00    -0.550 OA
ENDBRANCH   7   8
ENDBRANCH   6   7
ENDBRANCH   5   6
ENDBRANCH   4   5
ENDBRANCH   3   4
ENDBRANCH   2   3
ENDBRANCH   1   2
BRANCH   1  11
ATOM     11  C   UNL     1     -48.642  27.065 -16.452  1.00  0.00     0.000 C 
BRANCH  11  12
ATOM     12  C   UNL     1     -49.447  27.734 -17.578  1.00  0.00     0.000 C 
BRANCH  12  13
ATOM     13  C   UNL     1     -50.965  27.573 -17.382  1.00  0.00     0.000 C 
BRANCH  13  14
ATOM     14  C   UNL     1     -51.446  28.061 -16.004  1.00  0.00     0.000 C 
BRANCH  14  15
ATOM     15  C   UNL     1     -52.331  27.067 -15.230  1.00  0.00     0.000 C 
BRANCH  15  16
ATOM     16  C   UNL     1     -51.721  25.661 -15.144  1.00  0.00     0.006 C 
BRANCH  16  17
ATOM     17  C   UNL     1     -52.639  24.710 -14.371  1.00  0.00     0.053 C 
BRANCH  17  18
ATOM     18  C   UNL     1     -51.933  23.425 -14.075  1.00  0.00     0.041 C 
ATOM     19  O   UNL     1     -51.383  22.775 -15.003  1.00  0.00    -0.550 OA
ATOM     20  O   UNL     1     -51.836  22.970 -12.766  1.00  0.00    -0.550 OA
ENDBRANCH  17  18
ENDBRANCH  16  17
ENDBRANCH  15  16
ENDBRANCH  14  15
ENDBRANCH  13  14
ENDBRANCH  12  13
ENDBRANCH  11  12
ENDBRANCH   1  11
TORSDOF 15
ENDMDL
MODEL 5
REMARK VINA RESULT:    -4.604      2.161      6.068
REMARK INTER + INTRA:         -10.906
REMARK INTER:                  -8.808
REMARK INTRA:                  -2.098
REMARK UNBOUND:                -2.264
REMARK SMILES O=C([O-])CCCCCCCCCCCCCCC(=O)[O-]
REMARK SMILES IDX 10 1 9 2 8 3 7 4 6 5 5 6 4 7 2 8 1 9 3 10 11 11 12 12 13 13
REMARK SMILES IDX 14 14 15 15 16 16 17 17 18 18 19 19 20 20
REMARK H PARENT
REMARK Flexibility Score: inf
ROOT
ATOM      1  C   UNL     1     -47.845  25.862 -17.522  1.00  0.00     0.000 C 
ENDROOT
BRANCH   1   2
ATOM      2  C   UNL     1     -48.268  27.267 -17.997  1.00  0.00     0.000 C 
BRANCH   2   3
ATOM      3  C   UNL     1     -48.636  28.219 -16.846  1.00  0.00     0.000 C 
BRANCH   3   4
ATOM      4  C   UNL     1     -49.502  27.547 -15.769  1.00  0.00     0.000 C 
BRANCH   4   5
ATOM      5  C   UNL     1     -51.004  27.617 -16.087  1.00  0.00     0.000 C 
BRANCH   5   6
ATOM      6  C   UNL     1     -51.750  26.328 -15.705  1.00  0.00     0.006 C 
BRANCH   6   7
ATOM      7  C   UNL     1     -50.810  25.269 -15.114  1.00  0.00     0.053 C 
BRANCH   7   8
ATOM      8  C   UNL     1     -51.556  24.055 -14.653  1.00  0.00     0.041 C 
ATOM      9  O   UNL     1     -52.432  24.153 -13.754  1.00  0.00    -0.550 OA
ATOM     10  O   UNL     1     -51.263  22.810 -15.195  1.00  0.00    -0.550 OA
ENDBRANCH   7   8
ENDBRANCH   6   7
ENDBRANCH   5   6
ENDBRANCH   4   5
ENDBRANCH   3   4
ENDBRANCH   2   3
ENDBRANCH   1   2
BRANCH   1  11
ATOM     11  C   UNL     1     -46.521  25.406 -18.160  1.00  0.00     0.000 C 
BRANCH  11  12
ATOM     12  C   UNL     1     -45.761  26.564 -18.828  1.00  0.00     0.000 C 
BRANCH  12  13
ATOM     13  C   UNL     1     -44.528  26.996 -18.014  1.00  0.00     0.000 C 
BRANCH  13  14
ATOM     14  C   UNL     1     -44.749  28.313 -17.247  1.00  0.00     0.000 C 
BRANCH  14  15
ATOM     15  C   UNL     1     -44.225  28.321 -15.799  1.00  0.00     0.000 C 
BRANCH  15  16
ATOM     16  C   UNL     1     -45.310  27.986 -14.766  1.00  0.00     0.006 C 
BRANCH  16  17
ATOM     17  C   UNL     1     -45.518  26.472 -14.660  1.00  0.00     0.053 C 
BRANCH  17  18
ATOM     18  C   UNL     1     -46.670  26.163 -13.757  1.00  0.00     0.041 C 
ATOM     19  O   UNL     1     -47.137  24.995 -13.702  1.00  0.00    -0.550 OA
ATOM     20  O   UNL     1     -47.195  27.153 -12.936  1.00  0.00    -0.550 OA
ENDBRANCH  17  18
ENDBRANCH  16  17
ENDBRANCH  15  16
ENDBRANCH  14  15
ENDBRANCH  13  14
ENDBRANCH  12  13
ENDBRANCH  11  12
ENDBRANCH   1  11
TORSDOF 15
ENDMDL
MODEL 6
REMARK VINA RESULT:    -4.575      1.340      7.200
REMARK INTER + INTRA:         -10.850
REMARK INTER:                  -8.879
REMARK INTRA:                  -1.972
REMARK UNBOUND:                -2.264
REMARK SMILES O=C([O-])CCCCCCCCCCCCCCC(=O)[O-]
REMARK SMILES IDX 10 1 9 2 8 3 7 4 6 5 5 6 4 7 2 8 1 9 3 10 11 11 12 12 13 13
REMARK SMILES IDX 14 14 15 15 16 16 17 17 18 18 19 19 20 20
REMARK H PARENT
REMARK Flexibility Score: inf
ROOT
ATOM      1  C   UNL     1     -48.778  26.975 -16.628  1.00  0.00     0.000 C 
ENDROOT
BRANCH   1   2
ATOM      2  C   UNL     1     -50.027  27.551 -17.326  1.00  0.00     0.000 C 
BRANCH   2   3
ATOM      3  C   UNL     1     -51.164  27.908 -16.352  1.00  0.00     0.000 C 
BRANCH   3   4
ATOM      4  C   UNL     1     -52.132  26.739 -16.108  1.00  0.00     0.000 C 
BRANCH   4   5
ATOM      5  C   UNL     1     -51.937  26.085 -14.731  1.00  0.00     0.000 C 
BRANCH   5   6
ATOM      6  C   UNL     1     -52.065  24.553 -14.782  1.00  0.00     0.006 C 
BRANCH   6   7
ATOM      7  C   UNL     1     -53.288  24.049 -14.004  1.00  0.00     0.053 C 
BRANCH   7   8
ATOM      8  C   UNL     1     -52.913  23.535 -12.648  1.00  0.00     0.041 C 
ATOM      9  O   UNL     1     -51.852  22.877 -12.491  1.00  0.00    -0.550 OA
ATOM     10  O   UNL     1     -53.752  23.758 -11.563  1.00  0.00    -0.550 OA
ENDBRANCH   7   8
ENDBRANCH   6   7
ENDBRANCH   5   6
ENDBRANCH   4   5
ENDBRANCH   3   4
ENDBRANCH   2   3
ENDBRANCH   1   2
BRANCH   1  11
ATOM     11  C   UNL     1     -48.500  25.519 -17.042  1.00  0.00     0.000 C 
BRANCH  11  12
ATOM     12  C   UNL     1     -48.368  24.579 -15.832  1.00  0.00     0.000 C 
BRANCH  12  13
ATOM     13  C   UNL     1     -48.448  25.338 -14.495  1.00  0.00     0.000 C 
BRANCH  13  14
ATOM     14  C   UNL     1     -47.079  25.479 -13.805  1.00  0.00     0.000 C 
BRANCH  14  15
ATOM     15  C   UNL     1     -46.733  26.900 -13.322  1.00  0.00     0.000 C 
BRANCH  15  16
ATOM     16  C   UNL     1     -45.569  27.530 -14.099  1.00  0.00     0.006 C 
BRANCH  16  17
ATOM     17  C   UNL     1     -45.027  26.565 -15.157  1.00  0.00     0.053 C 
BRANCH  17  18
ATOM     18  C   UNL     1     -45.154  27.159 -16.523  1.00  0.00     0.041 C 
ATOM     19  O   UNL     1     -45.127  26.419 -17.542  1.00  0.00    -0.550 OA
ATOM     20  O   UNL     1     -45.356  28.526 -16.671  1.00  0.00    -0.550 OA
ENDBRANCH  17  18
ENDBRANCH  16  17
ENDBRANCH  15  16
ENDBRANCH  14  15
ENDBRANCH  13  14
ENDBRANCH  12  13
ENDBRANCH  11  12
ENDBRANCH   1  11
TORSDOF 15
ENDMDL
MODEL 7
REMARK VINA RESULT:    -4.373      1.694      2.536
REMARK INTER + INTRA:         -10.471
REMARK INTER:                  -9.344
REMARK INTRA:                  -1.128
REMARK UNBOUND:                -2.264
REMARK SMILES O=C([O-])CCCCCCCCCCCCCCC(=O)[O-]
REMARK SMILES IDX 10 1 9 2 8 3 7 4 6 5 5 6 4 7 2 8 1 9 3 10 11 11 12 12 13 13
REMARK SMILES IDX 14 14 15 15 16 16 17 17 18 18 19 19 20 20
REMARK H PARENT
REMARK Flexibility Score: inf
ROOT
ATOM      1  C   UNL     1     -48.572  27.475 -14.625  1.00  0.00     0.000 C 
ENDROOT
BRANCH   1   2
ATOM      2  C   UNL     1     -48.480  25.935 -14.598  1.00  0.00     0.000 C 
BRANCH   2   3
ATOM      3  C   UNL     1     -47.149  25.410 -14.031  1.00  0.00     0.000 C 
BRANCH   3   4
ATOM      4  C   UNL     1     -46.106  26.521 -13.828  1.00  0.00     0.000 C 
BRANCH   4   5
ATOM      5  C   UNL     1     -44.987  26.484 -14.881  1.00  0.00     0.000 C 
BRANCH   5   6
ATOM      6  C   UNL     1     -45.285  27.384 -16.092  1.00  0.00     0.006 C 
BRANCH   6   7
ATOM      7  C   UNL     1     -44.677  26.831 -17.388  1.00  0.00     0.053 C 
BRANCH   7   8
ATOM      8  C   UNL     1     -45.713  26.198 -18.265  1.00  0.00     0.041 C 
ATOM      9  O   UNL     1     -46.846  26.731 -18.391  1.00  0.00    -0.550 OA
ATOM     10  O   UNL     1     -45.436  25.004 -18.919  1.00  0.00    -0.550 OA
ENDBRANCH   7   8
ENDBRANCH   6   7
ENDBRANCH   5   6
ENDBRANCH   4   5
ENDBRANCH   3   4
ENDBRANCH   2   3
ENDBRANCH   1   2
BRANCH   1  11
ATOM     11  C   UNL     1     -49.958  27.966 -15.077  1.00  0.00     0.000 C 
BRANCH  11  12
ATOM     12  C   UNL     1     -50.444  27.260 -16.354  1.00  0.00     0.000 C 
BRANCH  12  13
ATOM     13  C   UNL     1     -51.863  26.684 -16.196  1.00  0.00     0.000 C 
BRANCH  13  14
ATOM     14  C   UNL     1     -52.141  26.161 -14.775  1.00  0.00     0.000 C 
BRANCH  14  15
ATOM     15  C   UNL     1     -52.245  24.630 -14.651  1.00  0.00     0.000 C 
BRANCH  15  16
ATOM     16  C   UNL     1     -53.405  24.178 -13.752  1.00  0.00     0.006 C 
BRANCH  16  17
ATOM     17  C   UNL     1     -52.895  23.346 -12.573  1.00  0.00     0.053 C 
BRANCH  17  18
ATOM     18  C   UNL     1     -53.829  23.454 -11.410  1.00  0.00     0.041 C 
ATOM     19  O   UNL     1     -55.048  23.165 -11.547  1.00  0.00    -0.550 OA
ATOM     20  O   UNL     1     -53.346  23.824 -10.162  1.00  0.00    -0.550 OA
ENDBRANCH  17  18
ENDBRANCH  16  17
ENDBRANCH  15  16
ENDBRANCH  14  15
ENDBRANCH  13  14
ENDBRANCH  12  13
ENDBRANCH  11  12
ENDBRANCH   1  11
TORSDOF 15
ENDMDL
MODEL 8
REMARK VINA RESULT:    -4.369      1.765      3.494
REMARK INTER + INTRA:         -10.464
REMARK INTER:                  -8.630
REMARK INTRA:                  -1.834
REMARK UNBOUND:                -2.264
REMARK SMILES O=C([O-])CCCCCCCCCCCCCCC(=O)[O-]
REMARK SMILES IDX 10 1 9 2 8 3 7 4 6 5 5 6 4 7 2 8 1 9 3 10 11 11 12 12 13 13
REMARK SMILES IDX 14 14 15 15 16 16 17 17 18 18 19 19 20 20
REMARK H PARENT
REMARK Flexibility Score: inf
ROOT
ATOM      1  C   UNL     1     -46.282  28.625 -14.636  1.00  0.00     0.000 C 
ENDROOT
BRANCH   1   2
ATOM      2  C   UNL     1     -46.729  29.036 -16.054  1.00  0.00     0.000 C 
BRANCH   2   3
ATOM      3  C   UNL     1     -47.532  27.944 -16.784  1.00  0.00     0.000 C 
BRANCH   3   4
ATOM      4  C   UNL     1     -46.960  27.608 -18.171  1.00  0.00     0.000 C 
BRANCH   4   5
ATOM      5  C   UNL     1     -46.131  26.314 -18.172  1.00  0.00     0.000 C 
BRANCH   5   6
ATOM      6  C   UNL     1     -44.618  26.583 -18.114  1.00  0.00     0.006 C 
BRANCH   6   7
ATOM      7  C   UNL     1     -44.254  27.967 -18.668  1.00  0.00     0.053 C 
BRANCH   7   8
ATOM      8  C   UNL     1     -43.242  27.878 -19.768  1.00  0.00     0.041 C 
ATOM      9  O   UNL     1     -42.094  28.371 -19.614  1.00  0.00    -0.550 OA
ATOM     10  O   UNL     1     -43.576  27.277 -20.975  1.00  0.00    -0.550 OA
ENDBRANCH   7   8
ENDBRANCH   6   7
ENDBRANCH   5   6
ENDBRANCH   4   5
ENDBRANCH   3   4
ENDBRANCH   2   3
ENDBRANCH   1   2
BRANCH   1  11
ATOM     11  C   UNL     1     -44.973  27.816 -14.651  1.00  0.00     0.000 C 
BRANCH  11  12
ATOM     12  C   UNL     1     -45.217  26.302 -14.546  1.00  0.00     0.000 C 
BRANCH  12  13
ATOM     13  C   UNL     1     -46.103  25.938 -13.342  1.00  0.00     0.000 C 
BRANCH  13  14
ATOM     14  C   UNL     1     -47.277  25.016 -13.720  1.00  0.00     0.000 C 
BRANCH  14  15
ATOM     15  C   UNL     1     -47.792  25.172 -15.162  1.00  0.00     0.000 C 
BRANCH  15  16
ATOM     16  C   UNL     1     -49.003  24.279 -15.467  1.00  0.00     0.006 C 
BRANCH  16  17
ATOM     17  C   UNL     1     -50.309  24.966 -15.058  1.00  0.00     0.053 C 
BRANCH  17  18
ATOM     18  C   UNL     1     -51.377  23.952 -14.801  1.00  0.00     0.041 C 
ATOM     19  O   UNL     1     -51.232  22.764 -15.193  1.00  0.00    -0.550 OA
ATOM     20  O   UNL     1     -52.511  24.304 -14.080  1.00  0.00    -0.550 OA
ENDBRANCH  17  18
ENDBRANCH  16  17
ENDBRANCH  15  16
ENDBRANCH  14  15
ENDBRANCH  13  14
ENDBRANCH  12  13
ENDBRANCH  11  12
ENDBRANCH   1  11
TORSDOF 15
ENDMDL
MODEL 9
REMARK VINA RESULT:    -4.357      2.632      5.278
REMARK INTER + INTRA:         -10.442
REMARK INTER:                  -8.446
REMARK INTRA:                  -1.995
REMARK UNBOUND:                -2.264
REMARK SMILES O=C([O-])CCCCCCCCCCCCCCC(=O)[O-]
REMARK SMILES IDX 10 1 9 2 8 3 7 4 6 5 5 6 4 7 2 8 1 9 3 10 11 11 12 12 13 13
REMARK SMILES IDX 14 14 15 15 16 16 17 17 18 18 19 19 20 20
REMARK H PARENT
REMARK Flexibility Score: inf
ROOT
ATOM      1  C   UNL     1     -44.449  27.924 -15.195  1.00  0.00     0.000 C 
ENDROOT
BRANCH   1   2
ATOM      2  C   UNL     1     -45.787  27.886 -14.429  1.00  0.00     0.000 C 
BRANCH   2   3
ATOM      3  C   UNL     1     -46.244  26.463 -14.063  1.00  0.00     0.000 C 
BRANCH   3   4
ATOM      4  C   UNL     1     -47.719  26.201 -14.407  1.00  0.00     0.000 C 
BRANCH   4   5
ATOM      5  C   UNL     1     -48.039  24.705 -14.546  1.00  0.00     0.000 C 
BRANCH   5   6
ATOM      6  C   UNL     1     -49.187  24.436 -15.534  1.00  0.00     0.006 C 
BRANCH   6   7
ATOM      7  C   UNL     1     -50.523  25.002 -15.036  1.00  0.00     0.053 C 
BRANCH   7   8
ATOM      8  C   UNL     1     -51.527  23.920 -14.781  1.00  0.00     0.041 C 
ATOM      9  O   UNL     1     -51.318  22.751 -15.199  1.00  0.00    -0.550 OA
ATOM     10  O   UNL     1     -52.707  24.210 -14.109  1.00  0.00    -0.550 OA
ENDBRANCH   7   8
ENDBRANCH   6   7
ENDBRANCH   5   6
ENDBRANCH   4   5
ENDBRANCH   3   4
ENDBRANCH   2   3
ENDBRANCH   1   2
BRANCH   1  11
ATOM     11  C   UNL     1     -44.651  28.123 -16.708  1.00  0.00     0.000 C 
BRANCH  11  12
ATOM     12  C   UNL     1     -44.653  26.795 -17.481  1.00  0.00     0.000 C 
BRANCH  12  13
ATOM     13  C   UNL     1     -45.780  26.733 -18.527  1.00  0.00     0.000 C 
BRANCH  13  14
ATOM     14  C   UNL     1     -47.174  26.562 -17.895  1.00  0.00     0.000 C 
BRANCH  14  15
ATOM     15  C   UNL     1     -48.061  27.821 -17.919  1.00  0.00     0.000 C 
BRANCH  15  16
ATOM     16  C   UNL     1     -49.508  27.544 -17.487  1.00  0.00     0.006 C 
BRANCH  16  17
ATOM     17  C   UNL     1     -50.166  28.809 -16.928  1.00  0.00     0.053 C 
BRANCH  17  18
ATOM     18  C   UNL     1     -50.962  28.489 -15.704  1.00  0.00     0.041 C 
ATOM     19  O   UNL     1     -52.139  28.052 -15.809  1.00  0.00    -0.550 OA
ATOM     20  O   UNL     1     -50.388  28.621 -14.446  1.00  0.00    -0.550 OA
ENDBRANCH  17  18
ENDBRANCH  16  17
ENDBRANCH  15  16
ENDBRANCH  14  15
ENDBRANCH  13  14
ENDBRANCH  12  13
ENDBRANCH  11  12
ENDBRANCH   1  11
TORSDOF 15
ENDMDL
