MODEL 1
REMARK VINA RESULT:    -4.547      0.000      0.000
REMARK INTER + INTRA:          -6.962
REMARK INTER:                  -6.673
REMARK INTRA:                  -0.289
REMARK UNBOUND:                -0.289
REMARK SMILES O=C([O-])CCCCCCCC(=O)[O-]
REMARK SMILES IDX 7 1 6 2 5 3 4 4 2 5 1 6 3 7 8 8 9 9 10 10 11 11 12 12 13 13
REMARK H PARENT
REMARK Flexibility Score: inf
ROOT
ATOM      1  C   UNL     1      11.279   8.670  11.693  1.00  0.00     0.000 C 
ENDROOT
BRANCH   1   2
ATOM      2  C   UNL     1      11.362   7.138  11.698  1.00  0.00     0.000 C 
BRANCH   2   3
ATOM      3  C   UNL     1      11.988   6.617  10.399  1.00  0.00     0.006 C 
BRANCH   3   4
ATOM      4  C   UNL     1      12.393   5.146  10.537  1.00  0.00     0.053 C 
BRANCH   4   5
ATOM      5  C   UNL     1      11.518   4.280   9.688  1.00  0.00     0.041 C 
ATOM      6  O   UNL     1      10.402   4.705   9.291  1.00  0.00    -0.550 OA
ATOM      7  O   UNL     1      11.955   3.021   9.296  1.00  0.00    -0.550 OA
ENDBRANCH   4   5
ENDBRANCH   3   4
ENDBRANCH   2   3
ENDBRANCH   1   2
BRANCH   1   8
ATOM      8  C   UNL     1      11.946   9.254  10.443  1.00  0.00     0.000 C 
BRANCH   8   9
ATOM      9  C   UNL     1      12.396  10.703  10.683  1.00  0.00     0.006 C 
BRANCH   9  10
ATOM     10  C   UNL     1      12.668  11.452   9.372  1.00  0.00     0.053 C 
BRANCH  10  11
ATOM     11  C   UNL     1      12.294  12.899   9.472  1.00  0.00     0.041 C 
ATOM     12  O   UNL     1      12.628  13.704   8.564  1.00  0.00    -0.550 OA
ATOM     13  O   UNL     1      11.548  13.351  10.552  1.00  0.00    -0.550 OA
ENDBRANCH  10  11
ENDBRANCH   9  10
ENDBRANCH   8   9
ENDBRANCH   1   8
TORSDOF 8
ENDMDL
MODEL 2
REMARK VINA RESULT:    -4.456      0.797      7.183
REMARK INTER + INTRA:          -6.828
REMARK INTER:                  -6.511
REMARK INTRA:                  -0.317
REMARK UNBOUND:                -0.289
REMARK SMILES O=C([O-])CCCCCCCC(=O)[O-]
REMARK SMILES IDX 7 1 6 2 5 3 4 4 2 5 1 6 3 7 8 8 9 9 10 10 11 11 12 12 13 13
REMARK H PARENT
REMARK Flexibility Score: inf
ROOT
ATOM      1  C   UNL     1      11.316   8.750  11.626  1.00  0.00     0.000 C 
ENDROOT
BRANCH   1   2
ATOM      2  C   UNL     1      11.974   9.364  10.384  1.00  0.00     0.000 C 
BRANCH   2   3
ATOM      3  C   UNL     1      12.420  10.806  10.654  1.00  0.00     0.006 C 
BRANCH   3   4
ATOM      4  C   UNL     1      12.815  11.511   9.352  1.00  0.00     0.053 C 
BRANCH   4   5
ATOM      5  C   UNL     1      12.344  12.930   9.362  1.00  0.00     0.041 C 
ATOM      6  O   UNL     1      12.619  13.695   8.402  1.00  0.00    -0.550 OA
ATOM      7  O   UNL     1      11.560  13.396  10.411  1.00  0.00    -0.550 OA
ENDBRANCH   4   5
ENDBRANCH   3   4
ENDBRANCH   2   3
ENDBRANCH   1   2
BRANCH   1   8
ATOM      8  C   UNL     1      11.389   7.219  11.589  1.00  0.00     0.000 C 
BRANCH   8   9
ATOM      9  C   UNL     1      12.056   6.731  10.295  1.00  0.00     0.006 C 
BRANCH   9  10
ATOM     10  C   UNL     1      12.823   5.416  10.497  1.00  0.00     0.053 C 
BRANCH  10  11
ATOM     11  C   UNL     1      11.906   4.233  10.489  1.00  0.00     0.041 C 
ATOM     12  O   UNL     1      11.444   3.795   9.403  1.00  0.00    -0.550 OA
ATOM     13  O   UNL     1      11.586   3.594  11.680  1.00  0.00    -0.550 OA
ENDBRANCH  10  11
ENDBRANCH   9  10
ENDBRANCH   8   9
ENDBRANCH   1   8
TORSDOF 8
ENDMDL
MODEL 3
REMARK VINA RESULT:    -4.395      0.886      1.289
REMARK INTER + INTRA:          -6.739
REMARK INTER:                  -6.412
REMARK INTRA:                  -0.327
REMARK UNBOUND:                -0.289
REMARK SMILES O=C([O-])CCCCCCCC(=O)[O-]
REMARK SMILES IDX 7 1 6 2 5 3 4 4 2 5 1 6 3 7 8 8 9 9 10 10 11 11 12 12 13 13
REMARK H PARENT
REMARK Flexibility Score: inf
ROOT
ATOM      1  C   UNL     1      11.548   9.244  11.706  1.00  0.00     0.000 C 
ENDROOT
BRANCH   1   2
ATOM      2  C   UNL     1      11.260   7.797  12.125  1.00  0.00     0.000 C 
BRANCH   2   3
ATOM      3  C   UNL     1      11.584   6.820  10.989  1.00  0.00     0.006 C 
BRANCH   3   4
ATOM      4  C   UNL     1      10.662   5.598  11.037  1.00  0.00     0.053 C 
BRANCH   4   5
ATOM      5  C   UNL     1      10.915   4.706   9.864  1.00  0.00     0.041 C 
ATOM      6  O   UNL     1      10.092   4.660   8.913  1.00  0.00    -0.550 OA
ATOM      7  O   UNL     1      12.086   3.959   9.797  1.00  0.00    -0.550 OA
ENDBRANCH   4   5
ENDBRANCH   3   4
ENDBRANCH   2   3
ENDBRANCH   1   2
BRANCH   1   8
ATOM      8  C   UNL     1      11.954   9.320  10.230  1.00  0.00     0.000 C 
BRANCH   8   9
ATOM      9  C   UNL     1      12.696  10.631   9.929  1.00  0.00     0.006 C 
BRANCH   9  10
ATOM     10  C   UNL     1      12.360  11.735  10.941  1.00  0.00     0.053 C 
BRANCH  10  11
ATOM     11  C   UNL     1      11.947  13.003  10.261  1.00  0.00     0.041 C 
ATOM     12  O   UNL     1      10.985  13.680  10.712  1.00  0.00    -0.550 OA
ATOM     13  O   UNL     1      12.645  13.455   9.149  1.00  0.00    -0.550 OA
ENDBRANCH  10  11
ENDBRANCH   9  10
ENDBRANCH   8   9
ENDBRANCH   1   8
TORSDOF 8
ENDMDL
MODEL 4
REMARK VINA RESULT:    -4.377      1.417      2.366
REMARK INTER + INTRA:          -6.713
REMARK INTER:                  -6.325
REMARK INTRA:                  -0.388
REMARK UNBOUND:                -0.289
REMARK SMILES O=C([O-])CCCCCCCC(=O)[O-]
REMARK SMILES IDX 7 1 6 2 5 3 4 4 2 5 1 6 3 7 8 8 9 9 10 10 11 11 12 12 13 13
REMARK H PARENT
REMARK Flexibility Score: inf
ROOT
ATOM      1  C   UNL     1      11.905   6.765  10.365  1.00  0.00     0.000 C 
ENDROOT
BRANCH   1   2
ATOM      2  C   UNL     1      12.561   5.420  10.699  1.00  0.00     0.000 C 
BRANCH   2   3
ATOM      3  C   UNL     1      11.885   4.274   9.938  1.00  0.00     0.006 C 
BRANCH   3   4
ATOM      4  C   UNL     1      10.485   3.996  10.493  1.00  0.00     0.053 C 
BRANCH   4   5
ATOM      5  C   UNL     1       9.454   4.168   9.424  1.00  0.00     0.041 C 
ATOM      6  O   UNL     1       9.800   4.475   8.253  1.00  0.00    -0.550 OA
ATOM      7  O   UNL     1       8.112   3.942   9.708  1.00  0.00    -0.550 OA
ENDBRANCH   4   5
ENDBRANCH   3   4
ENDBRANCH   2   3
ENDBRANCH   1   2
BRANCH   1   8
ATOM      8  C   UNL     1      11.377   7.451  11.630  1.00  0.00     0.000 C 
BRANCH   8   9
ATOM      9  C   UNL     1      11.459   8.979  11.504  1.00  0.00     0.006 C 
BRANCH   9  10
ATOM     10  C   UNL     1      12.132   9.419  10.197  1.00  0.00     0.053 C 
BRANCH  10  11
ATOM     11  C   UNL     1      12.487  10.874  10.218  1.00  0.00     0.041 C 
ATOM     12  O   UNL     1      12.821  11.461   9.155  1.00  0.00    -0.550 OA
ATOM     13  O   UNL     1      12.418  11.589  11.406  1.00  0.00    -0.550 OA
ENDBRANCH  10  11
ENDBRANCH   9  10
ENDBRANCH   8   9
ENDBRANCH   1   8
TORSDOF 8
ENDMDL
MODEL 5
REMARK VINA RESULT:    -4.346      1.679      2.587
REMARK INTER + INTRA:          -6.668
REMARK INTER:                  -6.374
REMARK INTRA:                  -0.293
REMARK UNBOUND:                -0.289
REMARK SMILES O=C([O-])CCCCCCCC(=O)[O-]
REMARK SMILES IDX 7 1 6 2 5 3 4 4 2 5 1 6 3 7 8 8 9 9 10 10 11 11 12 12 13 13
REMARK H PARENT
REMARK Flexibility Score: inf
ROOT
ATOM      1  C   UNL     1      12.069   7.038  10.456  1.00  0.00     0.000 C 
ENDROOT
BRANCH   1   2
ATOM      2  C   UNL     1      11.764   5.535  10.455  1.00  0.00     0.000 C 
BRANCH   2   3
ATOM      3  C   UNL     1      12.931   4.736  11.046  1.00  0.00     0.006 C 
BRANCH   3   4
ATOM      4  C   UNL     1      12.422   3.595  11.932  1.00  0.00     0.053 C 
BRANCH   4   5
ATOM      5  C   UNL     1      12.735   2.271  11.311  1.00  0.00     0.041 C 
ATOM      6  O   UNL     1      13.250   1.353  12.001  1.00  0.00    -0.550 OA
ATOM      7  O   UNL     1      12.412   2.034   9.980  1.00  0.00    -0.550 OA
ENDBRANCH   4   5
ENDBRANCH   3   4
ENDBRANCH   2   3
ENDBRANCH   1   2
BRANCH   1   8
ATOM      8  C   UNL     1      11.345   7.747  11.607  1.00  0.00     0.000 C 
BRANCH   8   9
ATOM      9  C   UNL     1      11.569   9.266  11.546  1.00  0.00     0.006 C 
BRANCH   9  10
ATOM     10  C   UNL     1      12.139   9.716  10.195  1.00  0.00     0.053 C 
BRANCH  10  11
ATOM     11  C   UNL     1      12.484  11.173  10.196  1.00  0.00     0.041 C 
ATOM     12  O   UNL     1      12.535  11.812  11.280  1.00  0.00    -0.550 OA
ATOM     13  O   UNL     1      12.780  11.818   9.002  1.00  0.00    -0.550 OA
ENDBRANCH  10  11
ENDBRANCH   9  10
ENDBRANCH   8   9
ENDBRANCH   1   8
TORSDOF 8
ENDMDL
MODEL 6
REMARK VINA RESULT:    -4.279      1.650      7.257
REMARK INTER + INTRA:          -6.570
REMARK INTER:                  -6.196
REMARK INTRA:                  -0.374
REMARK UNBOUND:                -0.289
REMARK SMILES O=C([O-])CCCCCCCC(=O)[O-]
REMARK SMILES IDX 7 1 6 2 5 3 4 4 2 5 1 6 3 7 8 8 9 9 10 10 11 11 12 12 13 13
REMARK H PARENT
REMARK Flexibility Score: inf
ROOT
ATOM      1  C   UNL     1      10.920   6.313  11.598  1.00  0.00     0.000 C 
ENDROOT
BRANCH   1   2
ATOM      2  C   UNL     1      11.154   7.696  12.220  1.00  0.00     0.000 C 
BRANCH   2   3
ATOM      3  C   UNL     1      11.547   8.721  11.150  1.00  0.00     0.006 C 
BRANCH   3   4
ATOM      4  C   UNL     1      11.397  10.151  11.679  1.00  0.00     0.053 C 
BRANCH   4   5
ATOM      5  C   UNL     1      12.282  11.086  10.918  1.00  0.00     0.041 C 
ATOM      6  O   UNL     1      12.620  12.189  11.421  1.00  0.00    -0.550 OA
ATOM      7  O   UNL     1      12.774  10.718   9.672  1.00  0.00    -0.550 OA
ENDBRANCH   4   5
ENDBRANCH   3   4
ENDBRANCH   2   3
ENDBRANCH   1   2
BRANCH   1   8
ATOM      8  C   UNL     1      11.783   6.120  10.346  1.00  0.00     0.000 C 
BRANCH   8   9
ATOM      9  C   UNL     1      12.991   5.218  10.642  1.00  0.00     0.006 C 
BRANCH   9  10
ATOM     10  C   UNL     1      12.619   4.021  11.527  1.00  0.00     0.053 C 
BRANCH  10  11
ATOM     11  C   UNL     1      12.587   2.743  10.747  1.00  0.00     0.041 C 
ATOM     12  O   UNL     1      12.878   1.652  11.304  1.00  0.00    -0.550 OA
ATOM     13  O   UNL     1      12.206   2.753   9.412  1.00  0.00    -0.550 OA
ENDBRANCH  10  11
ENDBRANCH   9  10
ENDBRANCH   8   9
ENDBRANCH   1   8
TORSDOF 8
ENDMDL
MODEL 7
REMARK VINA RESULT:    -4.250      1.387      7.052
REMARK INTER + INTRA:          -6.526
REMARK INTER:                  -6.174
REMARK INTRA:                  -0.352
REMARK UNBOUND:                -0.289
REMARK SMILES O=C([O-])CCCCCCCC(=O)[O-]
REMARK SMILES IDX 7 1 6 2 5 3 4 4 2 5 1 6 3 7 8 8 9 9 10 10 11 11 12 12 13 13
REMARK H PARENT
REMARK Flexibility Score: inf
ROOT
ATOM      1  C   UNL     1      11.690   6.721  10.597  1.00  0.00     0.000 C 
ENDROOT
BRANCH   1   2
ATOM      2  C   UNL     1      11.533   7.533  11.888  1.00  0.00     0.000 C 
BRANCH   2   3
ATOM      3  C   UNL     1      11.367   9.026  11.583  1.00  0.00     0.006 C 
BRANCH   3   4
ATOM      4  C   UNL     1      12.074   9.401  10.277  1.00  0.00     0.053 C 
BRANCH   4   5
ATOM      5  C   UNL     1      12.477  10.841  10.295  1.00  0.00     0.041 C 
ATOM      6  O   UNL     1      12.497  11.480  11.379  1.00  0.00    -0.550 OA
ATOM      7  O   UNL     1      12.879  11.466   9.121  1.00  0.00    -0.550 OA
ENDBRANCH   4   5
ENDBRANCH   3   4
ENDBRANCH   2   3
ENDBRANCH   1   2
BRANCH   1   8
ATOM      8  C   UNL     1      12.595   5.503  10.818  1.00  0.00     0.000 C 
BRANCH   8   9
ATOM      9  C   UNL     1      11.766   4.215  10.936  1.00  0.00     0.006 C 
BRANCH   9  10
ATOM     10  C   UNL     1      11.772   3.399   9.637  1.00  0.00     0.053 C 
BRANCH  10  11
ATOM     11  C   UNL     1      10.411   3.330   9.018  1.00  0.00     0.041 C 
ATOM     12  O   UNL     1       9.768   2.247   9.016  1.00  0.00    -0.550 OA
ATOM     13  O   UNL     1       9.838   4.471   8.471  1.00  0.00    -0.550 OA
ENDBRANCH  10  11
ENDBRANCH   9  10
ENDBRANCH   8   9
ENDBRANCH   1   8
TORSDOF 8
ENDMDL
MODEL 8
REMARK VINA RESULT:    -4.135      1.395      7.327
REMARK INTER + INTRA:          -6.358
REMARK INTER:                  -6.011
REMARK INTRA:                  -0.347
REMARK UNBOUND:                -0.289
REMARK SMILES O=C([O-])CCCCCCCC(=O)[O-]
REMARK SMILES IDX 7 1 6 2 5 3 4 4 2 5 1 6 3 7 8 8 9 9 10 10 11 11 12 12 13 13
REMARK H PARENT
REMARK Flexibility Score: inf
ROOT
ATOM      1  C   UNL     1      12.074   9.469  10.257  1.00  0.00     0.000 C 
ENDROOT
BRANCH   1   2
ATOM      2  C   UNL     1      12.474  10.948  10.330  1.00  0.00     0.000 C 
BRANCH   2   3
ATOM      3  C   UNL     1      12.097  11.554  11.688  1.00  0.00     0.006 C 
BRANCH   3   4
ATOM      4  C   UNL     1      12.544  13.016  11.780  1.00  0.00     0.053 C 
BRANCH   4   5
ATOM      5  C   UNL     1      11.401  13.933  11.483  1.00  0.00     0.041 C 
ATOM      6  O   UNL     1      10.775  14.490  12.422  1.00  0.00    -0.550 OA
ATOM      7  O   UNL     1      11.056  14.210  10.165  1.00  0.00    -0.550 OA
ENDBRANCH   4   5
ENDBRANCH   3   4
ENDBRANCH   2   3
ENDBRANCH   1   2
BRANCH   1   8
ATOM      8  C   UNL     1      11.395   9.017  11.555  1.00  0.00     0.000 C 
BRANCH   8   9
ATOM      9  C   UNL     1      11.327   7.485  11.636  1.00  0.00     0.006 C 
BRANCH   9  10
ATOM     10  C   UNL     1      11.993   6.809  10.430  1.00  0.00     0.053 C 
BRANCH  10  11
ATOM     11  C   UNL     1      11.606   5.366  10.320  1.00  0.00     0.041 C 
ATOM     12  O   UNL     1      10.426   5.047  10.020  1.00  0.00    -0.550 OA
ATOM     13  O   UNL     1      12.558   4.375  10.517  1.00  0.00    -0.550 OA
ENDBRANCH  10  11
ENDBRANCH   9  10
ENDBRANCH   8   9
ENDBRANCH   1   8
TORSDOF 8
ENDMDL
MODEL 9
REMARK VINA RESULT:    -3.946      3.602      4.207
REMARK INTER + INTRA:          -6.080
REMARK INTER:                  -5.854
REMARK INTRA:                  -0.226
REMARK UNBOUND:                -0.289
REMARK SMILES O=C([O-])CCCCCCCC(=O)[O-]
REMARK SMILES IDX 7 1 6 2 5 3 4 4 2 5 1 6 3 7 8 8 9 9 10 10 11 11 12 12 13 13
REMARK H PARENT
REMARK Flexibility Score: inf
ROOT
ATOM      1  C   UNL     1      10.876   7.515  12.497  1.00  0.00     0.000 C 
ENDROOT
BRANCH   1   2
ATOM      2  C   UNL     1      10.470   6.044  12.341  1.00  0.00     0.000 C 
BRANCH   2   3
ATOM      3  C   UNL     1       9.907   5.487  13.653  1.00  0.00     0.006 C 
BRANCH   3   4
ATOM      4  C   UNL     1      10.179   6.444  14.818  1.00  0.00     0.053 C 
BRANCH   4   5
ATOM      5  C   UNL     1       9.304   6.112  15.984  1.00  0.00     0.041 C 
ATOM      6  O   UNL     1       8.150   6.607  16.071  1.00  0.00    -0.550 OA
ATOM      7  O   UNL     1       9.743   5.216  16.952  1.00  0.00    -0.550 OA
ENDBRANCH   4   5
ENDBRANCH   3   4
ENDBRANCH   2   3
ENDBRANCH   1   2
BRANCH   1   8
ATOM      8  C   UNL     1      11.673   7.999  11.281  1.00  0.00     0.000 C 
BRANCH   8   9
ATOM      9  C   UNL     1      11.534   9.518  11.099  1.00  0.00     0.006 C 
BRANCH   9  10
ATOM     10  C   UNL     1      12.374  10.042   9.926  1.00  0.00     0.053 C 
BRANCH  10  11
ATOM     11  C   UNL     1      12.447  11.538   9.922  1.00  0.00     0.041 C 
ATOM     12  O   UNL     1      12.731  12.155   8.861  1.00  0.00    -0.550 OA
ATOM     13  O   UNL     1      12.172  12.251  11.080  1.00  0.00    -0.550 OA
ENDBRANCH  10  11
ENDBRANCH   9  10
ENDBRANCH   8   9
ENDBRANCH   1   8
TORSDOF 8
ENDMDL
