MODEL 1
REMARK VINA RESULT:    -5.287      0.000      0.000
REMARK INTER + INTRA:          -5.287
REMARK INTER:                  -5.287
REMARK INTRA:                   0.000
REMARK UNBOUND:                 0.000
REMARK SMILES O=c1ccc2ccccc2o1
REMARK SMILES IDX 7 1 8 2 9 3 10 4 5 5 6 6 4 7 3 8 2 9 1 10 11 11
REMARK H PARENT
REMARK Flexibility Score: inf
ROOT
ATOM      1  C   UNL     1     -50.986 -13.210  12.494  1.00  0.00     0.001 A 
ATOM      2  C   UNL     1     -50.415 -13.791  13.632  1.00  0.00     0.004 A 
ATOM      3  C   UNL     1     -49.025 -13.895  13.748  1.00  0.00     0.048 A 
ATOM      4  C   UNL     1     -48.199 -13.416  12.724  1.00  0.00     0.138 A 
ATOM      5  C   UNL     1     -48.774 -12.830  11.575  1.00  0.00     0.018 A 
ATOM      6  C   UNL     1     -50.169 -12.728  11.465  1.00  0.00     0.012 A 
ATOM      7  C   UNL     1     -47.924 -12.360  10.569  1.00  0.00     0.019 A 
ATOM      8  C   UNL     1     -46.544 -12.484  10.727  1.00  0.00     0.094 A 
ATOM      9  C   UNL     1     -46.045 -13.077  11.893  1.00  0.00     0.336 A 
ATOM     10  O   UNL     1     -44.803 -13.198  12.053  1.00  0.00    -0.246 OA
ATOM     11  O   UNL     1     -46.876 -13.515  12.835  1.00  0.00    -0.423 OA
ENDROOT
TORSDOF 0
ENDMDL
MODEL 2
REMARK VINA RESULT:    -5.278     10.196     11.397
REMARK INTER + INTRA:          -5.278
REMARK INTER:                  -5.278
REMARK INTRA:                   0.000
REMARK UNBOUND:                 0.000
REMARK SMILES O=c1ccc2ccccc2o1
REMARK SMILES IDX 7 1 8 2 9 3 10 4 5 5 6 6 4 7 3 8 2 9 1 10 11 11
REMARK H PARENT
REMARK Flexibility Score: inf
ROOT
ATOM      1  C   UNL     1     -43.538 -10.367   2.320  1.00  0.00     0.001 A 
ATOM      2  C   UNL     1     -42.344 -10.344   1.591  1.00  0.00     0.004 A 
ATOM      3  C   UNL     1     -41.152  -9.946   2.204  1.00  0.00     0.048 A 
ATOM      4  C   UNL     1     -41.150  -9.568   3.552  1.00  0.00     0.138 A 
ATOM      5  C   UNL     1     -42.355  -9.590   4.289  1.00  0.00     0.018 A 
ATOM      6  C   UNL     1     -43.547  -9.991   3.668  1.00  0.00     0.012 A 
ATOM      7  C   UNL     1     -42.322  -9.209   5.633  1.00  0.00     0.019 A 
ATOM      8  C   UNL     1     -41.110  -8.818   6.204  1.00  0.00     0.094 A 
ATOM      9  C   UNL     1     -39.955  -8.821   5.412  1.00  0.00     0.336 A 
ATOM     10  O   UNL     1     -38.853  -8.472   5.909  1.00  0.00    -0.246 OA
ATOM     11  O   UNL     1     -40.015  -9.190   4.135  1.00  0.00    -0.423 OA
ENDROOT
TORSDOF 0
ENDMDL
MODEL 3
REMARK VINA RESULT:    -5.183      1.590      3.805
REMARK INTER + INTRA:          -5.183
REMARK INTER:                  -5.183
REMARK INTRA:                   0.000
REMARK UNBOUND:                 0.000
REMARK SMILES O=c1ccc2ccccc2o1
REMARK SMILES IDX 7 1 8 2 9 3 10 4 5 5 6 6 4 7 3 8 2 9 1 10 11 11
REMARK H PARENT
REMARK Flexibility Score: inf
ROOT
ATOM      1  C   UNL     1     -46.434 -13.245  10.471  1.00  0.00     0.001 A 
ATOM      2  C   UNL     1     -45.804 -13.272  11.720  1.00  0.00     0.004 A 
ATOM      3  C   UNL     1     -46.564 -13.252  12.894  1.00  0.00     0.048 A 
ATOM      4  C   UNL     1     -47.962 -13.205  12.822  1.00  0.00     0.138 A 
ATOM      5  C   UNL     1     -48.599 -13.178  11.562  1.00  0.00     0.018 A 
ATOM      6  C   UNL     1     -47.830 -13.198  10.389  1.00  0.00     0.012 A 
ATOM      7  C   UNL     1     -49.995 -13.132  11.521  1.00  0.00     0.019 A 
ATOM      8  C   UNL     1     -50.714 -13.114  12.716  1.00  0.00     0.094 A 
ATOM      9  C   UNL     1     -50.015 -13.143  13.929  1.00  0.00     0.336 A 
ATOM     10  O   UNL     1     -50.646 -13.127  15.017  1.00  0.00    -0.246 OA
ATOM     11  O   UNL     1     -48.685 -13.187  13.939  1.00  0.00    -0.423 OA
ENDROOT
TORSDOF 0
ENDMDL
MODEL 4
REMARK VINA RESULT:    -5.140      1.895      4.354
REMARK INTER + INTRA:          -5.140
REMARK INTER:                  -5.140
REMARK INTRA:                   0.000
REMARK UNBOUND:                 0.000
REMARK SMILES O=c1ccc2ccccc2o1
REMARK SMILES IDX 7 1 8 2 9 3 10 4 5 5 6 6 4 7 3 8 2 9 1 10 11 11
REMARK H PARENT
REMARK Flexibility Score: inf
ROOT
ATOM      1  C   UNL     1     -45.490 -13.191  11.704  1.00  0.00     0.001 A 
ATOM      2  C   UNL     1     -45.950 -12.504  10.575  1.00  0.00     0.004 A 
ATOM      3  C   UNL     1     -47.321 -12.318  10.374  1.00  0.00     0.048 A 
ATOM      4  C   UNL     1     -48.240 -12.819  11.304  1.00  0.00     0.138 A 
ATOM      5  C   UNL     1     -47.777 -13.512  12.444  1.00  0.00     0.018 A 
ATOM      6  C   UNL     1     -46.400 -13.695  12.640  1.00  0.00     0.012 A 
ATOM      7  C   UNL     1     -48.718 -14.000  13.355  1.00  0.00     0.019 A 
ATOM      8  C   UNL     1     -50.076 -13.791  13.115  1.00  0.00     0.094 A 
ATOM      9  C   UNL     1     -50.461 -13.095  11.963  1.00  0.00     0.336 A 
ATOM     10  O   UNL     1     -51.682 -12.896  11.728  1.00  0.00    -0.246 OA
ATOM     11  O   UNL     1     -49.545 -12.640  11.112  1.00  0.00    -0.423 OA
ENDROOT
TORSDOF 0
ENDMDL
MODEL 5
REMARK VINA RESULT:    -5.061     10.288     11.888
REMARK INTER + INTRA:          -5.061
REMARK INTER:                  -5.061
REMARK INTRA:                   0.000
REMARK UNBOUND:                 0.000
REMARK SMILES O=c1ccc2ccccc2o1
REMARK SMILES IDX 7 1 8 2 9 3 10 4 5 5 6 6 4 7 3 8 2 9 1 10 11 11
REMARK H PARENT
REMARK Flexibility Score: inf
ROOT
ATOM      1  C   UNL     1     -40.086  -8.036   5.140  1.00  0.00     0.001 A 
ATOM      2  C   UNL     1     -41.185  -8.454   5.898  1.00  0.00     0.004 A 
ATOM      3  C   UNL     1     -42.209  -9.198   5.303  1.00  0.00     0.048 A 
ATOM      4  C   UNL     1     -42.136  -9.529   3.945  1.00  0.00     0.138 A 
ATOM      5  C   UNL     1     -41.027  -9.108   3.179  1.00  0.00     0.018 A 
ATOM      6  C   UNL     1     -40.003  -8.362   3.782  1.00  0.00     0.012 A 
ATOM      7  C   UNL     1     -40.981  -9.453   1.825  1.00  0.00     0.019 A 
ATOM      8  C   UNL     1     -42.025 -10.197   1.273  1.00  0.00     0.094 A 
ATOM      9  C   UNL     1     -43.093 -10.579   2.094  1.00  0.00     0.336 A 
ATOM     10  O   UNL     1     -44.043 -11.250   1.614  1.00  0.00    -0.246 OA
ATOM     11  O   UNL     1     -43.111 -10.238   3.379  1.00  0.00    -0.423 OA
ENDROOT
TORSDOF 0
ENDMDL
MODEL 6
REMARK VINA RESULT:    -5.003     10.001     11.259
REMARK INTER + INTRA:          -5.003
REMARK INTER:                  -5.003
REMARK INTRA:                   0.000
REMARK UNBOUND:                 0.000
REMARK SMILES O=c1ccc2ccccc2o1
REMARK SMILES IDX 7 1 8 2 9 3 10 4 5 5 6 6 4 7 3 8 2 9 1 10 11 11
REMARK H PARENT
REMARK Flexibility Score: inf
ROOT
ATOM      1  C   UNL     1     -42.568 -10.279   1.174  1.00  0.00     0.001 A 
ATOM      2  C   UNL     1     -43.754 -10.449   1.897  1.00  0.00     0.004 A 
ATOM      3  C   UNL     1     -43.785 -10.197   3.272  1.00  0.00     0.048 A 
ATOM      4  C   UNL     1     -42.625  -9.772   3.931  1.00  0.00     0.138 A 
ATOM      5  C   UNL     1     -41.427  -9.600   3.204  1.00  0.00     0.018 A 
ATOM      6  C   UNL     1     -41.404  -9.854   1.824  1.00  0.00     0.012 A 
ATOM      7  C   UNL     1     -40.285  -9.175   3.889  1.00  0.00     0.019 A 
ATOM      8  C   UNL     1     -40.361  -8.935   5.261  1.00  0.00     0.094 A 
ATOM      9  C   UNL     1     -41.583  -9.127   5.917  1.00  0.00     0.336 A 
ATOM     10  O   UNL     1     -41.670  -8.916   7.154  1.00  0.00    -0.246 OA
ATOM     11  O   UNL     1     -42.654  -9.532   5.240  1.00  0.00    -0.423 OA
ENDROOT
TORSDOF 0
ENDMDL
MODEL 7
REMARK VINA RESULT:    -4.961      1.206      2.121
REMARK INTER + INTRA:          -4.961
REMARK INTER:                  -4.961
REMARK INTRA:                   0.000
REMARK UNBOUND:                 0.000
REMARK SMILES O=c1ccc2ccccc2o1
REMARK SMILES IDX 7 1 8 2 9 3 10 4 5 5 6 6 4 7 3 8 2 9 1 10 11 11
REMARK H PARENT
REMARK Flexibility Score: inf
ROOT
ATOM      1  C   UNL     1     -50.541 -13.402  13.312  1.00  0.00     0.001 A 
ATOM      2  C   UNL     1     -50.903 -12.873  12.068  1.00  0.00     0.004 A 
ATOM      3  C   UNL     1     -49.921 -12.561  11.122  1.00  0.00     0.048 A 
ATOM      4  C   UNL     1     -48.570 -12.779  11.418  1.00  0.00     0.138 A 
ATOM      5  C   UNL     1     -48.204 -13.313  12.673  1.00  0.00     0.018 A 
ATOM      6  C   UNL     1     -49.194 -13.623  13.617  1.00  0.00     0.012 A 
ATOM      7  C   UNL     1     -46.847 -13.519  12.940  1.00  0.00     0.019 A 
ATOM      8  C   UNL     1     -45.901 -13.194  11.967  1.00  0.00     0.094 A 
ATOM      9  C   UNL     1     -46.338 -12.669  10.745  1.00  0.00     0.336 A 
ATOM     10  O   UNL     1     -45.500 -12.369   9.856  1.00  0.00    -0.246 OA
ATOM     11  O   UNL     1     -47.636 -12.483  10.517  1.00  0.00    -0.423 OA
ENDROOT
TORSDOF 0
ENDMDL
MODEL 8
REMARK VINA RESULT:    -4.936      1.642      4.120
REMARK INTER + INTRA:          -4.936
REMARK INTER:                  -4.936
REMARK INTRA:                   0.000
REMARK UNBOUND:                 0.000
REMARK SMILES O=c1ccc2ccccc2o1
REMARK SMILES IDX 7 1 8 2 9 3 10 4 5 5 6 6 4 7 3 8 2 9 1 10 11 11
REMARK H PARENT
REMARK Flexibility Score: inf
ROOT
ATOM      1  C   UNL     1     -43.831 -12.165  11.828  1.00  0.00     0.001 A 
ATOM      2  C   UNL     1     -44.023 -12.559  13.156  1.00  0.00     0.004 A 
ATOM      3  C   UNL     1     -45.293 -12.937  13.603  1.00  0.00     0.048 A 
ATOM      4  C   UNL     1     -46.379 -12.922  12.719  1.00  0.00     0.138 A 
ATOM      5  C   UNL     1     -46.187 -12.524  11.378  1.00  0.00     0.018 A 
ATOM      6  C   UNL     1     -44.910 -12.146  10.937  1.00  0.00     0.012 A 
ATOM      7  C   UNL     1     -47.289 -12.519  10.519  1.00  0.00     0.019 A 
ATOM      8  C   UNL     1     -48.538 -12.904  11.006  1.00  0.00     0.094 A 
ATOM      9  C   UNL     1     -48.654 -13.286  12.348  1.00  0.00     0.336 A 
ATOM     10  O   UNL     1     -49.772 -13.636  12.806  1.00  0.00    -0.246 OA
ATOM     11  O   UNL     1     -47.588 -13.283  13.144  1.00  0.00    -0.423 OA
ENDROOT
TORSDOF 0
ENDMDL
MODEL 9
REMARK VINA RESULT:    -4.918     16.567     18.478
REMARK INTER + INTRA:          -4.918
REMARK INTER:                  -4.918
REMARK INTRA:                   0.000
REMARK UNBOUND:                 0.000
REMARK SMILES O=c1ccc2ccccc2o1
REMARK SMILES IDX 7 1 8 2 9 3 10 4 5 5 6 6 4 7 3 8 2 9 1 10 11 11
REMARK H PARENT
REMARK Flexibility Score: inf
ROOT
ATOM      1  C   UNL     1     -36.606   0.335   2.301  1.00  0.00     0.001 A 
ATOM      2  C   UNL     1     -36.108  -0.655   1.447  1.00  0.00     0.004 A 
ATOM      3  C   UNL     1     -35.907  -1.957   1.918  1.00  0.00     0.048 A 
ATOM      4  C   UNL     1     -36.205  -2.273   3.249  1.00  0.00     0.138 A 
ATOM      5  C   UNL     1     -36.709  -1.275   4.112  1.00  0.00     0.018 A 
ATOM      6  C   UNL     1     -36.908   0.028   3.632  1.00  0.00     0.012 A 
ATOM      7  C   UNL     1     -36.998  -1.620   5.435  1.00  0.00     0.019 A 
ATOM      8  C   UNL     1     -36.783  -2.931   5.862  1.00  0.00     0.094 A 
ATOM      9  C   UNL     1     -36.281  -3.868   4.951  1.00  0.00     0.336 A 
ATOM     10  O   UNL     1     -36.080  -5.054   5.318  1.00  0.00    -0.246 OA
ATOM     11  O   UNL     1     -36.015  -3.512   3.697  1.00  0.00    -0.423 OA
ENDROOT
TORSDOF 0
ENDMDL
