MODEL 1
REMARK VINA RESULT:    -4.471      0.000      0.000
REMARK INTER + INTRA:          -7.305
REMARK INTER:                  -6.562
REMARK INTRA:                  -0.743
REMARK UNBOUND:                -0.743
REMARK SMILES O=C([O-])CCCCCCCC(=O)[O-]
REMARK SMILES IDX 7 1 6 2 5 3 4 4 2 5 1 6 3 7 8 8 9 9 10 10 11 11 12 12 13 13
REMARK H PARENT
REMARK Flexibility Score: inf
ROOT
ATOM      1  C   UNL     1      20.799  69.190  35.335  1.00  0.00     0.000 C 
ENDROOT
BRANCH   1   2
ATOM      2  C   UNL     1      20.151  68.037  36.125  1.00  0.00     0.000 C 
BRANCH   2   3
ATOM      3  C   UNL     1      20.623  66.625  35.723  1.00  0.00     0.006 C 
BRANCH   3   4
ATOM      4  C   UNL     1      19.490  65.601  35.552  1.00  0.00     0.053 C 
BRANCH   4   5
ATOM      5  C   UNL     1      18.430  66.088  34.612  1.00  0.00     0.041 C 
ATOM      6  O   UNL     1      17.260  66.296  35.032  1.00  0.00    -0.550 OA
ATOM      7  O   UNL     1      18.723  66.278  33.269  1.00  0.00    -0.550 OA
ENDBRANCH   4   5
ENDBRANCH   3   4
ENDBRANCH   2   3
ENDBRANCH   1   2
BRANCH   1   8
ATOM      8  C   UNL     1      20.390  69.277  33.850  1.00  0.00     0.000 C 
BRANCH   8   9
ATOM      9  C   UNL     1      19.669  70.579  33.449  1.00  0.00     0.006 C 
BRANCH   9  10
ATOM     10  C   UNL     1      18.321  70.366  32.742  1.00  0.00     0.053 C 
BRANCH  10  11
ATOM     11  C   UNL     1      17.317  69.706  33.636  1.00  0.00     0.041 C 
ATOM     12  O   UNL     1      16.505  68.866  33.165  1.00  0.00    -0.550 OA
ATOM     13  O   UNL     1      17.256  70.041  34.982  1.00  0.00    -0.550 OA
ENDBRANCH  10  11
ENDBRANCH   9  10
ENDBRANCH   8   9
ENDBRANCH   1   8
TORSDOF 8
ENDMDL
MODEL 2
REMARK VINA RESULT:    -4.385      1.334      3.862
REMARK INTER + INTRA:          -7.178
REMARK INTER:                  -6.464
REMARK INTRA:                  -0.714
REMARK UNBOUND:                -0.743
REMARK SMILES O=C([O-])CCCCCCCC(=O)[O-]
REMARK SMILES IDX 7 1 6 2 5 3 4 4 2 5 1 6 3 7 8 8 9 9 10 10 11 11 12 12 13 13
REMARK H PARENT
REMARK Flexibility Score: inf
ROOT
ATOM      1  C   UNL     1      20.481  69.214  35.294  1.00  0.00     0.000 C 
ENDROOT
BRANCH   1   2
ATOM      2  C   UNL     1      19.771  70.309  36.114  1.00  0.00     0.000 C 
BRANCH   2   3
ATOM      3  C   UNL     1      18.495  70.884  35.467  1.00  0.00     0.006 C 
BRANCH   3   4
ATOM      4  C   UNL     1      17.482  69.823  35.011  1.00  0.00     0.053 C 
BRANCH   4   5
ATOM      5  C   UNL     1      17.374  69.754  33.518  1.00  0.00     0.041 C 
ATOM      6  O   UNL     1      16.515  69.006  32.980  1.00  0.00    -0.550 OA
ATOM      7  O   UNL     1      18.244  70.486  32.722  1.00  0.00    -0.550 OA
ENDBRANCH   4   5
ENDBRANCH   3   4
ENDBRANCH   2   3
ENDBRANCH   1   2
BRANCH   1   8
ATOM      8  C   UNL     1      21.036  68.035  36.118  1.00  0.00     0.000 C 
BRANCH   8   9
ATOM      9  C   UNL     1      20.551  66.642  35.669  1.00  0.00     0.006 C 
BRANCH   9  10
ATOM     10  C   UNL     1      19.055  66.570  35.326  1.00  0.00     0.053 C 
BRANCH  10  11
ATOM     11  C   UNL     1      18.826  66.275  33.876  1.00  0.00     0.041 C 
ATOM     12  O   UNL     1      18.074  65.324  33.534  1.00  0.00    -0.550 OA
ATOM     13  O   UNL     1      19.468  67.028  32.901  1.00  0.00    -0.550 OA
ENDBRANCH  10  11
ENDBRANCH   9  10
ENDBRANCH   8   9
ENDBRANCH   1   8
TORSDOF 8
ENDMDL
MODEL 3
REMARK VINA RESULT:    -4.307     12.441     14.437
REMARK INTER + INTRA:          -7.064
REMARK INTER:                  -6.327
REMARK INTRA:                  -0.737
REMARK UNBOUND:                -0.743
REMARK SMILES O=C([O-])CCCCCCCC(=O)[O-]
REMARK SMILES IDX 7 1 6 2 5 3 4 4 2 5 1 6 3 7 8 8 9 9 10 10 11 11 12 12 13 13
REMARK H PARENT
REMARK Flexibility Score: inf
ROOT
ATOM      1  C   UNL     1       9.812  79.788  31.344  1.00  0.00     0.000 C 
ENDROOT
BRANCH   1   2
ATOM      2  C   UNL     1       9.213  80.671  32.457  1.00  0.00     0.000 C 
BRANCH   2   3
ATOM      3  C   UNL     1       8.038  80.038  33.229  1.00  0.00     0.006 C 
BRANCH   3   4
ATOM      4  C   UNL     1       8.179  80.092  34.757  1.00  0.00     0.053 C 
BRANCH   4   5
ATOM      5  C   UNL     1       9.518  79.598  35.215  1.00  0.00     0.041 C 
ATOM      6  O   UNL     1      10.340  80.394  35.742  1.00  0.00    -0.550 OA
ATOM      7  O   UNL     1       9.871  78.268  35.029  1.00  0.00    -0.550 OA
ENDBRANCH   4   5
ENDBRANCH   3   4
ENDBRANCH   2   3
ENDBRANCH   1   2
BRANCH   1   8
ATOM      8  C   UNL     1      11.220  79.233  31.636  1.00  0.00     0.000 C 
BRANCH   8   9
ATOM      9  C   UNL     1      11.282  77.712  31.881  1.00  0.00     0.006 C 
BRANCH   9  10
ATOM     10  C   UNL     1       9.949  76.979  31.664  1.00  0.00     0.053 C 
BRANCH  10  11
ATOM     11  C   UNL     1       9.959  76.157  30.412  1.00  0.00     0.041 C 
ATOM     12  O   UNL     1      10.322  76.670  29.320  1.00  0.00    -0.550 OA
ATOM     13  O   UNL     1       9.534  74.835  30.444  1.00  0.00    -0.550 OA
ENDBRANCH  10  11
ENDBRANCH   9  10
ENDBRANCH   8   9
ENDBRANCH   1   8
TORSDOF 8
ENDMDL
MODEL 4
REMARK VINA RESULT:    -4.277     12.912     14.648
REMARK INTER + INTRA:          -7.021
REMARK INTER:                  -6.458
REMARK INTRA:                  -0.563
REMARK UNBOUND:                -0.743
REMARK SMILES O=C([O-])CCCCCCCC(=O)[O-]
REMARK SMILES IDX 7 1 6 2 5 3 4 4 2 5 1 6 3 7 8 8 9 9 10 10 11 11 12 12 13 13
REMARK H PARENT
REMARK Flexibility Score: inf
ROOT
ATOM      1  C   UNL     1       9.002  76.678  31.876  1.00  0.00     0.000 C 
ENDROOT
BRANCH   1   2
ATOM      2  C   UNL     1      10.156  76.518  30.868  1.00  0.00     0.000 C 
BRANCH   2   3
ATOM      3  C   UNL     1      11.441  77.295  31.218  1.00  0.00     0.006 C 
BRANCH   3   4
ATOM      4  C   UNL     1      11.574  78.653  30.512  1.00  0.00     0.053 C 
BRANCH   4   5
ATOM      5  C   UNL     1      10.782  78.706  29.242  1.00  0.00     0.041 C 
ATOM      6  O   UNL     1      11.096  77.969  28.269  1.00  0.00    -0.550 OA
ATOM      7  O   UNL     1       9.720  79.592  29.119  1.00  0.00    -0.550 OA
ENDBRANCH   4   5
ENDBRANCH   3   4
ENDBRANCH   2   3
ENDBRANCH   1   2
BRANCH   1   8
ATOM      8  C   UNL     1       7.950  77.742  31.504  1.00  0.00     0.000 C 
BRANCH   8   9
ATOM      9  C   UNL     1       8.145  79.115  32.179  1.00  0.00     0.006 C 
BRANCH   9  10
ATOM     10  C   UNL     1       9.136  79.110  33.352  1.00  0.00     0.053 C 
BRANCH  10  11
ATOM     11  C   UNL     1       8.574  79.785  34.565  1.00  0.00     0.041 C 
ATOM     12  O   UNL     1       9.259  79.870  35.618  1.00  0.00    -0.550 OA
ATOM     13  O   UNL     1       7.280  80.290  34.544  1.00  0.00    -0.550 OA
ENDBRANCH  10  11
ENDBRANCH   9  10
ENDBRANCH   8   9
ENDBRANCH   1   8
TORSDOF 8
ENDMDL
MODEL 5
REMARK VINA RESULT:    -4.266     12.947     14.403
REMARK INTER + INTRA:          -7.004
REMARK INTER:                  -6.417
REMARK INTRA:                  -0.587
REMARK UNBOUND:                -0.743
REMARK SMILES O=C([O-])CCCCCCCC(=O)[O-]
REMARK SMILES IDX 7 1 6 2 5 3 4 4 2 5 1 6 3 7 8 8 9 9 10 10 11 11 12 12 13 13
REMARK H PARENT
REMARK Flexibility Score: inf
ROOT
ATOM      1  C   UNL     1       8.592  79.280  31.985  1.00  0.00     0.000 C 
ENDROOT
BRANCH   1   2
ATOM      2  C   UNL     1       8.163  77.891  31.474  1.00  0.00     0.000 C 
BRANCH   2   3
ATOM      3  C   UNL     1       9.305  76.864  31.340  1.00  0.00     0.006 C 
BRANCH   3   4
ATOM      4  C   UNL     1      10.609  77.435  30.764  1.00  0.00     0.053 C 
BRANCH   4   5
ATOM      5  C   UNL     1      10.473  77.797  29.317  1.00  0.00     0.041 C 
ATOM      6  O   UNL     1      10.423  76.893  28.441  1.00  0.00    -0.550 OA
ATOM      7  O   UNL     1      10.437  79.131  28.932  1.00  0.00    -0.550 OA
ENDBRANCH   4   5
ENDBRANCH   3   4
ENDBRANCH   2   3
ENDBRANCH   1   2
BRANCH   1   8
ATOM      8  C   UNL     1       7.759  79.832  33.159  1.00  0.00     0.000 C 
BRANCH   8   9
ATOM      9  C   UNL     1       8.535  80.014  34.479  1.00  0.00     0.006 C 
BRANCH   9  10
ATOM     10  C   UNL     1      10.053  79.814  34.356  1.00  0.00     0.053 C 
BRANCH  10  11
ATOM     11  C   UNL     1      10.482  78.463  34.840  1.00  0.00     0.041 C 
ATOM     12  O   UNL     1      11.286  77.772  34.159  1.00  0.00    -0.550 OA
ATOM     13  O   UNL     1       9.969  77.952  36.026  1.00  0.00    -0.550 OA
ENDBRANCH  10  11
ENDBRANCH   9  10
ENDBRANCH   8   9
ENDBRANCH   1   8
TORSDOF 8
ENDMDL
MODEL 6
REMARK VINA RESULT:    -4.191     12.754     14.529
REMARK INTER + INTRA:          -6.895
REMARK INTER:                  -6.303
REMARK INTRA:                  -0.592
REMARK UNBOUND:                -0.743
REMARK SMILES O=C([O-])CCCCCCCC(=O)[O-]
REMARK SMILES IDX 7 1 6 2 5 3 4 4 2 5 1 6 3 7 8 8 9 9 10 10 11 11 12 12 13 13
REMARK H PARENT
REMARK Flexibility Score: inf
ROOT
ATOM      1  C   UNL     1      11.216  77.846  33.960  1.00  0.00     0.000 C 
ENDROOT
BRANCH   1   2
ATOM      2  C   UNL     1      10.268  78.670  34.853  1.00  0.00     0.000 C 
BRANCH   2   3
ATOM      3  C   UNL     1      10.371  80.198  34.678  1.00  0.00     0.006 C 
BRANCH   3   4
ATOM      4  C   UNL     1       9.520  80.765  33.531  1.00  0.00     0.053 C 
BRANCH   4   5
ATOM      5  C   UNL     1       8.167  80.125  33.466  1.00  0.00     0.041 C 
ATOM      6  O   UNL     1       7.363  80.245  34.430  1.00  0.00    -0.550 OA
ATOM      7  O   UNL     1       7.806  79.368  32.360  1.00  0.00    -0.550 OA
ENDBRANCH   4   5
ENDBRANCH   3   4
ENDBRANCH   2   3
ENDBRANCH   1   2
BRANCH   1   8
ATOM      8  C   UNL     1      10.617  77.392  32.614  1.00  0.00     0.000 C 
BRANCH   8   9
ATOM      9  C   UNL     1      11.554  77.548  31.399  1.00  0.00     0.006 C 
BRANCH   9  10
ATOM     10  C   UNL     1      11.140  78.654  30.417  1.00  0.00     0.053 C 
BRANCH  10  11
ATOM     11  C   UNL     1      10.167  78.159  29.391  1.00  0.00     0.041 C 
ATOM     12  O   UNL     1       9.054  78.730  29.246  1.00  0.00    -0.550 OA
ATOM     13  O   UNL     1      10.475  77.046  28.619  1.00  0.00    -0.550 OA
ENDBRANCH  10  11
ENDBRANCH   9  10
ENDBRANCH   8   9
ENDBRANCH   1   8
TORSDOF 8
ENDMDL
MODEL 7
REMARK VINA RESULT:    -4.167     12.971     14.377
REMARK INTER + INTRA:          -6.858
REMARK INTER:                  -6.250
REMARK INTRA:                  -0.609
REMARK UNBOUND:                -0.743
REMARK SMILES O=C([O-])CCCCCCCC(=O)[O-]
REMARK SMILES IDX 7 1 6 2 5 3 4 4 2 5 1 6 3 7 8 8 9 9 10 10 11 11 12 12 13 13
REMARK H PARENT
REMARK Flexibility Score: inf
ROOT
ATOM      1  C   UNL     1       8.274  79.351  31.757  1.00  0.00     0.000 C 
ENDROOT
BRANCH   1   2
ATOM      2  C   UNL     1       7.944  79.750  33.209  1.00  0.00     0.000 C 
BRANCH   2   3
ATOM      3  C   UNL     1       9.071  80.495  33.952  1.00  0.00     0.006 C 
BRANCH   3   4
ATOM      4  C   UNL     1      10.464  79.868  33.787  1.00  0.00     0.053 C 
BRANCH   4   5
ATOM      5  C   UNL     1      10.824  78.986  34.943  1.00  0.00     0.041 C 
ATOM      6  O   UNL     1      10.193  77.914  35.143  1.00  0.00    -0.550 OA
ATOM      7  O   UNL     1      11.832  79.365  35.820  1.00  0.00    -0.550 OA
ENDBRANCH   4   5
ENDBRANCH   3   4
ENDBRANCH   2   3
ENDBRANCH   1   2
BRANCH   1   8
ATOM      8  C   UNL     1       8.089  77.855  31.431  1.00  0.00     0.000 C 
BRANCH   8   9
ATOM      9  C   UNL     1       9.269  76.949  31.838  1.00  0.00     0.006 C 
BRANCH   9  10
ATOM     10  C   UNL     1      10.062  76.371  30.656  1.00  0.00     0.053 C 
BRANCH  10  11
ATOM     11  C   UNL     1      10.636  77.447  29.786  1.00  0.00     0.041 C 
ATOM     12  O   UNL     1      10.383  77.467  28.552  1.00  0.00    -0.550 OA
ATOM     13  O   UNL     1      11.478  78.409  30.331  1.00  0.00    -0.550 OA
ENDBRANCH  10  11
ENDBRANCH   9  10
ENDBRANCH   8   9
ENDBRANCH   1   8
TORSDOF 8
ENDMDL
MODEL 8
REMARK VINA RESULT:    -4.149     12.831     14.444
REMARK INTER + INTRA:          -6.833
REMARK INTER:                  -6.310
REMARK INTRA:                  -0.523
REMARK UNBOUND:                -0.743
REMARK SMILES O=C([O-])CCCCCCCC(=O)[O-]
REMARK SMILES IDX 7 1 6 2 5 3 4 4 2 5 1 6 3 7 8 8 9 9 10 10 11 11 12 12 13 13
REMARK H PARENT
REMARK Flexibility Score: inf
ROOT
ATOM      1  C   UNL     1      11.153  77.899  33.979  1.00  0.00     0.000 C 
ENDROOT
BRANCH   1   2
ATOM      2  C   UNL     1      10.559  77.484  32.619  1.00  0.00     0.000 C 
BRANCH   2   3
ATOM      3  C   UNL     1      11.531  77.581  31.426  1.00  0.00     0.006 C 
BRANCH   3   4
ATOM      4  C   UNL     1      11.170  78.665  30.399  1.00  0.00     0.053 C 
BRANCH   4   5
ATOM      5  C   UNL     1      10.118  78.200  29.439  1.00  0.00     0.041 C 
ATOM      6  O   UNL     1       8.989  78.759  29.418  1.00  0.00    -0.550 OA
ATOM      7  O   UNL     1      10.372  77.130  28.592  1.00  0.00    -0.550 OA
ENDBRANCH   4   5
ENDBRANCH   3   4
ENDBRANCH   2   3
ENDBRANCH   1   2
BRANCH   1   8
ATOM      8  C   UNL     1      10.120  78.148  35.096  1.00  0.00     0.000 C 
BRANCH   8   9
ATOM      9  C   UNL     1       9.761  79.628  35.334  1.00  0.00     0.006 C 
BRANCH   9  10
ATOM     10  C   UNL     1       8.447  80.077  34.678  1.00  0.00     0.053 C 
BRANCH  10  11
ATOM     11  C   UNL     1       8.637  80.453  33.241  1.00  0.00     0.041 C 
ATOM     12  O   UNL     1       9.555  81.250  32.911  1.00  0.00    -0.550 OA
ATOM     13  O   UNL     1       7.780  79.951  32.270  1.00  0.00    -0.550 OA
ENDBRANCH  10  11
ENDBRANCH   9  10
ENDBRANCH   8   9
ENDBRANCH   1   8
TORSDOF 8
ENDMDL
MODEL 9
REMARK VINA RESULT:    -4.086      2.106      4.419
REMARK INTER + INTRA:          -6.741
REMARK INTER:                  -6.120
REMARK INTRA:                  -0.620
REMARK UNBOUND:                -0.743
REMARK SMILES O=C([O-])CCCCCCCC(=O)[O-]
REMARK SMILES IDX 7 1 6 2 5 3 4 4 2 5 1 6 3 7 8 8 9 9 10 10 11 11 12 12 13 13
REMARK H PARENT
REMARK Flexibility Score: inf
ROOT
ATOM      1  C   UNL     1      17.274  69.816  35.001  1.00  0.00     0.000 C 
ENDROOT
BRANCH   1   2
ATOM      2  C   UNL     1      18.328  69.811  36.125  1.00  0.00     0.000 C 
BRANCH   2   3
ATOM      3  C   UNL     1      19.663  70.496  35.770  1.00  0.00     0.006 C 
BRANCH   3   4
ATOM      4  C   UNL     1      20.626  69.623  34.951  1.00  0.00     0.053 C 
BRANCH   4   5
ATOM      5  C   UNL     1      20.251  69.583  33.501  1.00  0.00     0.041 C 
ATOM      6  O   UNL     1      19.969  68.485  32.950  1.00  0.00    -0.550 OA
ATOM      7  O   UNL     1      20.248  70.750  32.749  1.00  0.00    -0.550 OA
ENDBRANCH   4   5
ENDBRANCH   3   4
ENDBRANCH   2   3
ENDBRANCH   1   2
BRANCH   1   8
ATOM      8  C   UNL     1      16.892  68.426  34.455  1.00  0.00     0.000 C 
BRANCH   8   9
ATOM      9  C   UNL     1      17.257  67.243  35.374  1.00  0.00     0.006 C 
BRANCH   9  10
ATOM     10  C   UNL     1      17.989  66.092  34.666  1.00  0.00     0.053 C 
BRANCH  10  11
ATOM     11  C   UNL     1      19.118  65.555  35.492  1.00  0.00     0.041 C 
ATOM     12  O   UNL     1      20.009  66.331  35.929  1.00  0.00    -0.550 OA
ATOM     13  O   UNL     1      19.205  64.193  35.751  1.00  0.00    -0.550 OA
ENDBRANCH  10  11
ENDBRANCH   9  10
ENDBRANCH   8   9
ENDBRANCH   1   8
TORSDOF 8
ENDMDL
