MODEL 1
REMARK VINA RESULT:    -4.614      0.000      0.000
REMARK INTER + INTRA:          -6.507
REMARK INTER:                  -5.963
REMARK INTRA:                  -0.544
REMARK UNBOUND:                -0.544
REMARK SMILES C=CC(=O)CCCCC
REMARK SMILES IDX 6 1 7 2 8 3 9 4 5 5 3 6 4 7 2 8 1 9
REMARK H PARENT
REMARK Flexibility Score: inf
ROOT
ATOM      1  C   UNL     1      25.269  57.723 138.999  1.00  0.00     0.008 C 
ENDROOT
BRANCH   1   2
ATOM      2  C   UNL     1      26.364  58.754 139.315  1.00  0.00     0.000 C 
BRANCH   2   3
ATOM      3  C   UNL     1      27.327  58.910 138.133  1.00  0.00    -0.003 C 
ATOM      4  C   UNL     1      27.099  57.822 137.087  1.00  0.00     0.004 C 
ENDBRANCH   2   3
ENDBRANCH   1   2
BRANCH   1   5
ATOM      5  C   UNL     1      25.066  56.722 140.149  1.00  0.00     0.080 C 
BRANCH   5   6
ATOM      6  C   UNL     1      25.237  55.277 139.736  1.00  0.00     0.155 C 
ATOM      7  O   UNL     1      24.273  54.473 139.853  1.00  0.00    -0.295 OA
BRANCH   6   8
ATOM      8  C   UNL     1      26.491  54.773 139.138  1.00  0.00     0.039 C 
ATOM      9  C   UNL     1      27.696  54.975 139.669  1.00  0.00     0.012 C 
ENDBRANCH   6   8
ENDBRANCH   5   6
ENDBRANCH   1   5
TORSDOF 5
ENDMDL
MODEL 2
REMARK VINA RESULT:    -4.563      1.913      2.373
REMARK INTER + INTRA:          -6.441
REMARK INTER:                  -6.086
REMARK INTRA:                  -0.355
REMARK UNBOUND:                -0.544
REMARK SMILES C=CC(=O)CCCCC
REMARK SMILES IDX 6 1 7 2 8 3 9 4 5 5 3 6 4 7 2 8 1 9
REMARK H PARENT
REMARK Flexibility Score: inf
ROOT
ATOM      1  C   UNL     1      25.167  57.357 139.003  1.00  0.00     0.008 C 
ENDROOT
BRANCH   1   2
ATOM      2  C   UNL     1      25.983  58.649 139.168  1.00  0.00     0.000 C 
BRANCH   2   3
ATOM      3  C   UNL     1      27.171  58.676 138.200  1.00  0.00    -0.003 C 
ATOM      4  C   UNL     1      27.008  57.632 137.098  1.00  0.00     0.004 C 
ENDBRANCH   2   3
ENDBRANCH   1   2
BRANCH   1   5
ATOM      5  C   UNL     1      25.028  56.586 140.325  1.00  0.00     0.080 C 
BRANCH   5   6
ATOM      6  C   UNL     1      26.342  56.357 141.038  1.00  0.00     0.155 C 
ATOM      7  O   UNL     1      27.243  55.668 140.486  1.00  0.00    -0.295 OA
BRANCH   6   8
ATOM      8  C   UNL     1      26.640  56.964 142.352  1.00  0.00     0.039 C 
ATOM      9  C   UNL     1      25.977  56.671 143.469  1.00  0.00     0.012 C 
ENDBRANCH   6   8
ENDBRANCH   5   6
ENDBRANCH   1   5
TORSDOF 5
ENDMDL
MODEL 3
REMARK VINA RESULT:    -4.539      1.651      1.780
REMARK INTER + INTRA:          -6.410
REMARK INTER:                  -5.862
REMARK INTRA:                  -0.548
REMARK UNBOUND:                -0.544
REMARK SMILES C=CC(=O)CCCCC
REMARK SMILES IDX 6 1 7 2 8 3 9 4 5 5 3 6 4 7 2 8 1 9
REMARK H PARENT
REMARK Flexibility Score: inf
ROOT
ATOM      1  C   UNL     1      25.363  57.646 139.259  1.00  0.00     0.008 C 
ENDROOT
BRANCH   1   2
ATOM      2  C   UNL     1      26.346  58.827 139.265  1.00  0.00     0.000 C 
BRANCH   2   3
ATOM      3  C   UNL     1      27.230  58.813 138.013  1.00  0.00    -0.003 C 
ATOM      4  C   UNL     1      26.879  57.638 137.104  1.00  0.00     0.004 C 
ENDBRANCH   2   3
ENDBRANCH   1   2
BRANCH   1   5
ATOM      5  C   UNL     1      25.508  56.765 140.510  1.00  0.00     0.080 C 
BRANCH   5   6
ATOM      6  C   UNL     1      26.931  56.336 140.792  1.00  0.00     0.155 C 
ATOM      7  O   UNL     1      27.517  56.750 141.828  1.00  0.00    -0.295 OA
BRANCH   6   8
ATOM      8  C   UNL     1      27.655  55.391 139.916  1.00  0.00     0.039 C 
ATOM      9  C   UNL     1      27.057  54.436 139.205  1.00  0.00     0.012 C 
ENDBRANCH   6   8
ENDBRANCH   5   6
ENDBRANCH   1   5
TORSDOF 5
ENDMDL
MODEL 4
REMARK VINA RESULT:    -4.455      2.209      3.543
REMARK INTER + INTRA:          -6.302
REMARK INTER:                  -5.721
REMARK INTRA:                  -0.581
REMARK UNBOUND:                -0.544
REMARK SMILES C=CC(=O)CCCCC
REMARK SMILES IDX 6 1 7 2 8 3 9 4 5 5 3 6 4 7 2 8 1 9
REMARK H PARENT
REMARK Flexibility Score: inf
ROOT
ATOM      1  C   UNL     1      25.662  58.324 139.371  1.00  0.00     0.008 C 
ENDROOT
BRANCH   1   2
ATOM      2  C   UNL     1      25.180  57.044 138.671  1.00  0.00     0.000 C 
BRANCH   2   3
ATOM      3  C   UNL     1      24.004  56.415 139.426  1.00  0.00    -0.003 C 
ATOM      4  C   UNL     1      24.314  54.976 139.829  1.00  0.00     0.004 C 
ENDBRANCH   2   3
ENDBRANCH   1   2
BRANCH   1   5
ATOM      5  C   UNL     1      27.108  58.199 139.877  1.00  0.00     0.080 C 
BRANCH   5   6
ATOM      6  C   UNL     1      27.293  57.135 140.937  1.00  0.00     0.155 C 
ATOM      7  O   UNL     1      27.831  56.036 140.634  1.00  0.00    -0.295 OA
BRANCH   6   8
ATOM      8  C   UNL     1      26.914  57.357 142.347  1.00  0.00     0.039 C 
ATOM      9  C   UNL     1      25.943  56.687 142.966  1.00  0.00     0.012 C 
ENDBRANCH   6   8
ENDBRANCH   5   6
ENDBRANCH   1   5
TORSDOF 5
ENDMDL
MODEL 5
REMARK VINA RESULT:    -4.353      2.736      4.189
REMARK INTER + INTRA:          -6.169
REMARK INTER:                  -5.759
REMARK INTRA:                  -0.411
REMARK UNBOUND:                -0.544
REMARK SMILES C=CC(=O)CCCCC
REMARK SMILES IDX 6 1 7 2 8 3 9 4 5 5 3 6 4 7 2 8 1 9
REMARK H PARENT
REMARK Flexibility Score: inf
ROOT
ATOM      1  C   UNL     1      26.573  57.924 140.615  1.00  0.00     0.008 C 
ENDROOT
BRANCH   1   2
ATOM      2  C   UNL     1      25.561  56.776 140.479  1.00  0.00     0.000 C 
BRANCH   2   3
ATOM      3  C   UNL     1      24.638  56.998 139.276  1.00  0.00    -0.003 C 
ATOM      4  C   UNL     1      23.405  56.103 139.355  1.00  0.00     0.004 C 
ENDBRANCH   2   3
ENDBRANCH   1   2
BRANCH   1   5
ATOM      5  C   UNL     1      26.360  59.014 139.552  1.00  0.00     0.080 C 
BRANCH   5   6
ATOM      6  C   UNL     1      27.567  59.251 138.671  1.00  0.00     0.155 C 
ATOM      7  O   UNL     1      28.609  59.765 139.161  1.00  0.00    -0.295 OA
BRANCH   6   8
ATOM      8  C   UNL     1      27.595  58.847 137.250  1.00  0.00     0.039 C 
ATOM      9  C   UNL     1      27.240  57.637 136.819  1.00  0.00     0.012 C 
ENDBRANCH   6   8
ENDBRANCH   5   6
ENDBRANCH   1   5
TORSDOF 5
ENDMDL
MODEL 6
REMARK VINA RESULT:    -4.302      3.259      4.035
REMARK INTER + INTRA:          -6.104
REMARK INTER:                  -5.846
REMARK INTRA:                  -0.258
REMARK UNBOUND:                -0.544
REMARK SMILES C=CC(=O)CCCCC
REMARK SMILES IDX 6 1 7 2 8 3 9 4 5 5 3 6 4 7 2 8 1 9
REMARK H PARENT
REMARK Flexibility Score: inf
ROOT
ATOM      1  C   UNL     1      26.358  57.399 140.992  1.00  0.00     0.008 C 
ENDROOT
BRANCH   1   2
ATOM      2  C   UNL     1      26.103  58.154 139.679  1.00  0.00     0.000 C 
BRANCH   2   3
ATOM      3  C   UNL     1      25.339  57.278 138.681  1.00  0.00    -0.003 C 
ATOM      4  C   UNL     1      24.155  56.585 139.350  1.00  0.00     0.004 C 
ENDBRANCH   2   3
ENDBRANCH   1   2
BRANCH   1   5
ATOM      5  C   UNL     1      27.559  56.444 140.888  1.00  0.00     0.080 C 
BRANCH   5   6
ATOM      6  C   UNL     1      28.893  57.114 141.133  1.00  0.00     0.155 C 
ATOM      7  O   UNL     1      29.831  56.966 140.303  1.00  0.00    -0.295 OA
BRANCH   6   8
ATOM      8  C   UNL     1      29.129  57.994 142.296  1.00  0.00     0.039 C 
ATOM      9  C   UNL     1      30.182  58.802 142.411  1.00  0.00     0.012 C 
ENDBRANCH   6   8
ENDBRANCH   5   6
ENDBRANCH   1   5
TORSDOF 5
ENDMDL
MODEL 7
REMARK VINA RESULT:    -4.301      2.471      3.598
REMARK INTER + INTRA:          -6.103
REMARK INTER:                  -5.655
REMARK INTRA:                  -0.448
REMARK UNBOUND:                -0.544
REMARK SMILES C=CC(=O)CCCCC
REMARK SMILES IDX 6 1 7 2 8 3 9 4 5 5 3 6 4 7 2 8 1 9
REMARK H PARENT
REMARK Flexibility Score: inf
ROOT
ATOM      1  C   UNL     1      25.965  56.636 142.316  1.00  0.00     0.008 C 
ENDROOT
BRANCH   1   2
ATOM      2  C   UNL     1      27.058  57.605 142.794  1.00  0.00     0.000 C 
BRANCH   2   3
ATOM      3  C   UNL     1      28.372  57.363 142.043  1.00  0.00    -0.003 C 
ATOM      4  C   UNL     1      29.488  58.254 142.584  1.00  0.00     0.004 C 
ENDBRANCH   2   3
ENDBRANCH   1   2
BRANCH   1   5
ATOM      5  C   UNL     1      26.202  56.162 140.872  1.00  0.00     0.080 C 
BRANCH   5   6
ATOM      6  C   UNL     1      25.180  56.681 139.885  1.00  0.00     0.155 C 
ATOM      7  O   UNL     1      24.031  56.163 139.843  1.00  0.00    -0.295 OA
BRANCH   6   8
ATOM      8  C   UNL     1      25.458  57.825 138.993  1.00  0.00     0.039 C 
ATOM      9  C   UNL     1      26.193  58.877 139.348  1.00  0.00     0.012 C 
ENDBRANCH   6   8
ENDBRANCH   5   6
ENDBRANCH   1   5
TORSDOF 5
ENDMDL
MODEL 8
REMARK VINA RESULT:    -4.203      2.593      3.896
REMARK INTER + INTRA:          -5.976
REMARK INTER:                  -5.560
REMARK INTRA:                  -0.416
REMARK UNBOUND:                -0.544
REMARK SMILES C=CC(=O)CCCCC
REMARK SMILES IDX 6 1 7 2 8 3 9 4 5 5 3 6 4 7 2 8 1 9
REMARK H PARENT
REMARK Flexibility Score: inf
ROOT
ATOM      1  C   UNL     1      27.833  57.702 141.102  1.00  0.00     0.008 C 
ENDROOT
BRANCH   1   2
ATOM      2  C   UNL     1      28.209  57.406 142.562  1.00  0.00     0.000 C 
BRANCH   2   3
ATOM      3  C   UNL     1      27.042  57.724 143.504  1.00  0.00    -0.003 C 
ATOM      4  C   UNL     1      25.941  56.673 143.391  1.00  0.00     0.004 C 
ENDBRANCH   2   3
ENDBRANCH   1   2
BRANCH   1   5
ATOM      5  C   UNL     1      27.959  56.457 140.208  1.00  0.00     0.080 C 
BRANCH   5   6
ATOM      6  C   UNL     1      26.657  56.037 139.562  1.00  0.00     0.155 C 
ATOM      7  O   UNL     1      26.523  54.861 139.129  1.00  0.00    -0.295 OA
BRANCH   6   8
ATOM      8  C   UNL     1      25.497  56.948 139.467  1.00  0.00     0.039 C 
ATOM      9  C   UNL     1      24.233  56.531 139.409  1.00  0.00     0.012 C 
ENDBRANCH   6   8
ENDBRANCH   5   6
ENDBRANCH   1   5
TORSDOF 5
ENDMDL
MODEL 9
REMARK VINA RESULT:    -4.180      2.397      4.229
REMARK INTER + INTRA:          -5.946
REMARK INTER:                  -5.446
REMARK INTRA:                  -0.499
REMARK UNBOUND:                -0.544
REMARK SMILES C=CC(=O)CCCCC
REMARK SMILES IDX 6 1 7 2 8 3 9 4 5 5 3 6 4 7 2 8 1 9
REMARK H PARENT
REMARK Flexibility Score: inf
ROOT
ATOM      1  C   UNL     1      25.245  56.707 140.425  1.00  0.00     0.008 C 
ENDROOT
BRANCH   1   2
ATOM      2  C   UNL     1      26.631  56.168 140.812  1.00  0.00     0.000 C 
BRANCH   2   3
ATOM      3  C   UNL     1      27.071  56.715 142.175  1.00  0.00    -0.003 C 
ATOM      4  C   UNL     1      25.935  56.641 143.191  1.00  0.00     0.004 C 
ENDBRANCH   2   3
ENDBRANCH   1   2
BRANCH   1   5
ATOM      5  C   UNL     1      25.237  57.328 139.018  1.00  0.00     0.080 C 
BRANCH   5   6
ATOM      6  C   UNL     1      26.353  58.322 138.785  1.00  0.00     0.155 C 
ATOM      7  O   UNL     1      27.263  58.060 137.952  1.00  0.00    -0.295 OA
BRANCH   6   8
ATOM      8  C   UNL     1      26.392  59.635 139.463  1.00  0.00     0.039 C 
ATOM      9  C   UNL     1      27.240  59.934 140.445  1.00  0.00     0.012 C 
ENDBRANCH   6   8
ENDBRANCH   5   6
ENDBRANCH   1   5
TORSDOF 5
ENDMDL
