MODEL 1
REMARK VINA RESULT:    -3.784      0.000      0.000
REMARK INTER + INTRA:          -9.665
REMARK INTER:                  -6.882
REMARK INTRA:                  -2.783
REMARK UNBOUND:                -2.783
REMARK SMILES CCCCCCCCCCCCCC[C@@H](C)C(=O)[O-]
REMARK SMILES IDX 9 1 10 2 11 3 12 4 13 5 14 6 15 7 16 8 17 9 18 10 19 11 8 12
REMARK SMILES IDX 7 13 6 14 5 15 4 16 3 17 2 18 1 19
REMARK H PARENT
REMARK Flexibility Score: inf
ROOT
ATOM      1  C   UNL     1     185.476 186.786 168.079  1.00  0.00     0.000 C 
ENDROOT
BRANCH   1   2
ATOM      2  C   UNL     1     184.895 187.536 169.292  1.00  0.00     0.000 C 
BRANCH   2   3
ATOM      3  C   UNL     1     185.862 187.591 170.483  1.00  0.00     0.000 C 
BRANCH   3   4
ATOM      4  C   UNL     1     187.087 188.454 170.158  1.00  0.00     0.000 C 
BRANCH   4   5
ATOM      5  C   UNL     1     188.344 187.909 170.847  1.00  0.00     0.001 C 
BRANCH   5   6
ATOM      6  C   UNL     1     188.074 186.533 171.477  1.00  0.00     0.009 C 
BRANCH   6   7
ATOM      7  C   UNL     1     189.366 185.828 171.945  1.00  0.00     0.032 C 
ATOM      8  C   UNL     1     190.600 186.731 171.817  1.00  0.00     0.014 C 
BRANCH   7   9
ATOM      9  C   UNL     1     189.213 185.385 173.374  1.00  0.00     0.044 C 
ATOM     10  O   UNL     1     188.067 185.166 173.850  1.00  0.00    -0.550 OA
ATOM     11  O   UNL     1     190.333 185.216 174.180  1.00  0.00    -0.550 OA
ENDBRANCH   7   9
ENDBRANCH   6   7
ENDBRANCH   5   6
ENDBRANCH   4   5
ENDBRANCH   3   4
ENDBRANCH   2   3
ENDBRANCH   1   2
BRANCH   1  12
ATOM     12  C   UNL     1     186.140 185.435 168.404  1.00  0.00     0.000 C 
BRANCH  12  13
ATOM     13  C   UNL     1     187.345 185.128 167.500  1.00  0.00    -0.000 C 
BRANCH  13  14
ATOM     14  C   UNL     1     188.643 184.926 168.300  1.00  0.00    -0.000 C 
BRANCH  14  15
ATOM     15  C   UNL     1     189.667 186.048 168.050  1.00  0.00    -0.000 C 
BRANCH  15  16
ATOM     16  C   UNL     1     189.086 187.214 167.230  1.00  0.00    -0.000 C 
BRANCH  16  17
ATOM     17  C   UNL     1     189.772 188.577 167.450  1.00  0.00    -0.000 C 
BRANCH  17  18
ATOM     18  C   UNL     1     191.229 188.501 167.940  1.00  0.00    -0.003 C 
ATOM     19  C   UNL     1     191.450 189.231 169.264  1.00  0.00     0.004 C 
ENDBRANCH  17  18
ENDBRANCH  16  17
ENDBRANCH  15  16
ENDBRANCH  14  15
ENDBRANCH  13  14
ENDBRANCH  12  13
ENDBRANCH   1  12
TORSDOF 14
ENDMDL
MODEL 2
REMARK VINA RESULT:    -3.677      1.290      2.257
REMARK INTER + INTRA:          -9.470
REMARK INTER:                  -6.896
REMARK INTRA:                  -2.574
REMARK UNBOUND:                -2.783
REMARK SMILES CCCCCCCCCCCCCC[C@@H](C)C(=O)[O-]
REMARK SMILES IDX 9 1 10 2 11 3 12 4 13 5 14 6 15 7 16 8 17 9 18 10 19 11 8 12
REMARK SMILES IDX 7 13 6 14 5 15 4 16 3 17 2 18 1 19
REMARK H PARENT
REMARK Flexibility Score: inf
ROOT
ATOM      1  C   UNL     1     185.564 186.642 168.167  1.00  0.00     0.000 C 
ENDROOT
BRANCH   1   2
ATOM      2  C   UNL     1     184.945 187.422 169.342  1.00  0.00     0.000 C 
BRANCH   2   3
ATOM      3  C   UNL     1     185.890 187.541 170.547  1.00  0.00     0.000 C 
BRANCH   3   4
ATOM      4  C   UNL     1     187.093 188.432 170.216  1.00  0.00     0.000 C 
BRANCH   4   5
ATOM      5  C   UNL     1     188.388 187.845 170.791  1.00  0.00     0.001 C 
BRANCH   5   6
ATOM      6  C   UNL     1     188.116 186.519 171.520  1.00  0.00     0.009 C 
BRANCH   6   7
ATOM      7  C   UNL     1     189.411 185.807 171.966  1.00  0.00     0.032 C 
ATOM      8  C   UNL     1     190.594 186.777 172.093  1.00  0.00     0.014 C 
BRANCH   7   9
ATOM      9  C   UNL     1     189.183 185.118 173.283  1.00  0.00     0.044 C 
ATOM     10  O   UNL     1     190.140 184.551 173.875  1.00  0.00    -0.550 OA
ATOM     11  O   UNL     1     187.917 185.099 173.855  1.00  0.00    -0.550 OA
ENDBRANCH   7   9
ENDBRANCH   6   7
ENDBRANCH   5   6
ENDBRANCH   4   5
ENDBRANCH   3   4
ENDBRANCH   2   3
ENDBRANCH   1   2
BRANCH   1  12
ATOM     12  C   UNL     1     186.098 185.242 168.522  1.00  0.00     0.000 C 
BRANCH  12  13
ATOM     13  C   UNL     1     187.562 185.034 168.098  1.00  0.00    -0.000 C 
BRANCH  13  14
ATOM     14  C   UNL     1     188.078 186.166 167.194  1.00  0.00    -0.000 C 
BRANCH  14  15
ATOM     15  C   UNL     1     189.495 186.627 167.581  1.00  0.00    -0.000 C 
BRANCH  15  16
ATOM     16  C   UNL     1     190.244 185.594 168.442  1.00  0.00    -0.000 C 
BRANCH  16  17
ATOM     17  C   UNL     1     191.303 184.760 167.693  1.00  0.00    -0.000 C 
BRANCH  17  18
ATOM     18  C   UNL     1     191.797 183.511 168.444  1.00  0.00    -0.003 C 
ATOM     19  C   UNL     1     191.289 183.442 169.883  1.00  0.00     0.004 C 
ENDBRANCH  17  18
ENDBRANCH  16  17
ENDBRANCH  15  16
ENDBRANCH  14  15
ENDBRANCH  13  14
ENDBRANCH  12  13
ENDBRANCH   1  12
TORSDOF 14
ENDMDL
MODEL 3
REMARK VINA RESULT:    -3.562      1.403      4.245
REMARK INTER + INTRA:          -9.260
REMARK INTER:                  -6.426
REMARK INTRA:                  -2.835
REMARK UNBOUND:                -2.783
REMARK SMILES CCCCCCCCCCCCCC[C@@H](C)C(=O)[O-]
REMARK SMILES IDX 9 1 10 2 11 3 12 4 13 5 14 6 15 7 16 8 17 9 18 10 19 11 8 12
REMARK SMILES IDX 7 13 6 14 5 15 4 16 3 17 2 18 1 19
REMARK H PARENT
REMARK Flexibility Score: inf
ROOT
ATOM      1  C   UNL     1     190.072 187.675 168.836  1.00  0.00     0.000 C 
ENDROOT
BRANCH   1   2
ATOM      2  C   UNL     1     190.076 186.517 167.820  1.00  0.00     0.000 C 
BRANCH   2   3
ATOM      3  C   UNL     1     189.774 185.155 168.461  1.00  0.00     0.000 C 
BRANCH   3   4
ATOM      4  C   UNL     1     191.069 184.403 168.792  1.00  0.00     0.000 C 
BRANCH   4   5
ATOM      5  C   UNL     1     190.955 183.675 170.137  1.00  0.00     0.001 C 
BRANCH   5   6
ATOM      6  C   UNL     1     190.079 184.468 171.120  1.00  0.00     0.009 C 
BRANCH   6   7
ATOM      7  C   UNL     1     190.884 185.040 172.307  1.00  0.00     0.032 C 
ATOM      8  C   UNL     1     191.582 186.361 171.954  1.00  0.00     0.014 C 
BRANCH   7   9
ATOM      9  C   UNL     1     189.970 185.253 173.483  1.00  0.00     0.044 C 
ATOM     10  O   UNL     1     188.851 184.677 173.528  1.00  0.00    -0.550 OA
ATOM     11  O   UNL     1     190.353 186.088 174.527  1.00  0.00    -0.550 OA
ENDBRANCH   7   9
ENDBRANCH   6   7
ENDBRANCH   5   6
ENDBRANCH   4   5
ENDBRANCH   3   4
ENDBRANCH   2   3
ENDBRANCH   1   2
BRANCH   1  12
ATOM     12  C   UNL     1     188.907 188.670 168.687  1.00  0.00     0.000 C 
BRANCH  12  13
ATOM     13  C   UNL     1     188.077 188.818 169.974  1.00  0.00    -0.000 C 
BRANCH  13  14
ATOM     14  C   UNL     1     188.293 187.649 170.950  1.00  0.00    -0.000 C 
BRANCH  14  15
ATOM     15  C   UNL     1     187.090 186.690 170.994  1.00  0.00    -0.000 C 
BRANCH  15  16
ATOM     16  C   UNL     1     185.797 187.332 170.460  1.00  0.00    -0.000 C 
BRANCH  16  17
ATOM     17  C   UNL     1     185.163 186.621 169.248  1.00  0.00    -0.000 C 
BRANCH  17  18
ATOM     18  C   UNL     1     186.136 185.773 168.409  1.00  0.00    -0.003 C 
ATOM     19  C   UNL     1     186.436 186.388 167.043  1.00  0.00     0.004 C 
ENDBRANCH  17  18
ENDBRANCH  16  17
ENDBRANCH  15  16
ENDBRANCH  14  15
ENDBRANCH  13  14
ENDBRANCH  12  13
ENDBRANCH   1  12
TORSDOF 14
ENDMDL
MODEL 4
REMARK VINA RESULT:    -3.534      4.424      6.523
REMARK INTER + INTRA:          -9.209
REMARK INTER:                  -7.494
REMARK INTRA:                  -1.715
REMARK UNBOUND:                -2.783
REMARK SMILES CCCCCCCCCCCCCC[C@@H](C)C(=O)[O-]
REMARK SMILES IDX 9 1 10 2 11 3 12 4 13 5 14 6 15 7 16 8 17 9 18 10 19 11 8 12
REMARK SMILES IDX 7 13 6 14 5 15 4 16 3 17 2 18 1 19
REMARK H PARENT
REMARK Flexibility Score: inf
ROOT
ATOM      1  C   UNL     1     184.760 187.538 168.782  1.00  0.00     0.000 C 
ENDROOT
BRANCH   1   2
ATOM      2  C   UNL     1     184.594 187.035 170.228  1.00  0.00     0.000 C 
BRANCH   2   3
ATOM      3  C   UNL     1     183.218 187.366 170.824  1.00  0.00     0.000 C 
BRANCH   3   4
ATOM      4  C   UNL     1     182.342 188.108 169.808  1.00  0.00     0.000 C 
BRANCH   4   5
ATOM      5  C   UNL     1     180.940 188.367 170.374  1.00  0.00     0.001 C 
BRANCH   5   6
ATOM      6  C   UNL     1     180.300 189.600 169.715  1.00  0.00     0.009 C 
BRANCH   6   7
ATOM      7  C   UNL     1     181.327 190.475 168.964  1.00  0.00     0.032 C 
ATOM      8  C   UNL     1     180.989 190.617 167.473  1.00  0.00     0.014 C 
BRANCH   7   9
ATOM      9  C   UNL     1     181.392 191.837 169.596  1.00  0.00     0.044 C 
ATOM     10  O   UNL     1     180.804 192.813 169.060  1.00  0.00    -0.550 OA
ATOM     11  O   UNL     1     182.102 192.030 170.776  1.00  0.00    -0.550 OA
ENDBRANCH   7   9
ENDBRANCH   6   7
ENDBRANCH   5   6
ENDBRANCH   4   5
ENDBRANCH   3   4
ENDBRANCH   2   3
ENDBRANCH   1   2
BRANCH   1  12
ATOM     12  C   UNL     1     185.786 186.765 167.935  1.00  0.00     0.000 C 
BRANCH  12  13
ATOM     13  C   UNL     1     186.137 185.390 168.528  1.00  0.00    -0.000 C 
BRANCH  13  14
ATOM     14  C   UNL     1     187.581 184.965 168.212  1.00  0.00    -0.000 C 
BRANCH  14  15
ATOM     15  C   UNL     1     188.526 185.154 169.413  1.00  0.00    -0.000 C 
BRANCH  15  16
ATOM     16  C   UNL     1     189.609 186.217 169.158  1.00  0.00    -0.000 C 
BRANCH  16  17
ATOM     17  C   UNL     1     189.104 187.673 169.117  1.00  0.00    -0.000 C 
BRANCH  17  18
ATOM     18  C   UNL     1     188.341 188.132 170.372  1.00  0.00    -0.003 C 
ATOM     19  C   UNL     1     187.564 189.430 170.155  1.00  0.00     0.004 C 
ENDBRANCH  17  18
ENDBRANCH  16  17
ENDBRANCH  15  16
ENDBRANCH  14  15
ENDBRANCH  13  14
ENDBRANCH  12  13
ENDBRANCH   1  12
TORSDOF 14
ENDMDL
MODEL 5
REMARK VINA RESULT:    -3.524      1.215      3.078
REMARK INTER + INTRA:          -9.191
REMARK INTER:                  -6.619
REMARK INTRA:                  -2.572
REMARK UNBOUND:                -2.783
REMARK SMILES CCCCCCCCCCCCCC[C@@H](C)C(=O)[O-]
REMARK SMILES IDX 9 1 10 2 11 3 12 4 13 5 14 6 15 7 16 8 17 9 18 10 19 11 8 12
REMARK SMILES IDX 7 13 6 14 5 15 4 16 3 17 2 18 1 19
REMARK H PARENT
REMARK Flexibility Score: inf
ROOT
ATOM      1  C   UNL     1     187.182 185.612 167.489  1.00  0.00     0.000 C 
ENDROOT
BRANCH   1   2
ATOM      2  C   UNL     1     188.630 185.106 167.629  1.00  0.00     0.000 C 
BRANCH   2   3
ATOM      3  C   UNL     1     189.101 185.029 169.088  1.00  0.00     0.000 C 
BRANCH   3   4
ATOM      4  C   UNL     1     190.597 184.698 169.166  1.00  0.00     0.000 C 
BRANCH   4   5
ATOM      5  C   UNL     1     191.193 185.153 170.504  1.00  0.00     0.001 C 
BRANCH   5   6
ATOM      6  C   UNL     1     190.092 185.638 171.461  1.00  0.00     0.009 C 
BRANCH   6   7
ATOM      7  C   UNL     1     190.306 185.153 172.911  1.00  0.00     0.032 C 
ATOM      8  C   UNL     1     190.827 186.269 173.826  1.00  0.00     0.014 C 
BRANCH   7   9
ATOM      9  C   UNL     1     189.015 184.613 173.462  1.00  0.00     0.044 C 
ATOM     10  O   UNL     1     188.954 183.429 173.885  1.00  0.00    -0.550 OA
ATOM     11  O   UNL     1     187.881 185.415 173.505  1.00  0.00    -0.550 OA
ENDBRANCH   7   9
ENDBRANCH   6   7
ENDBRANCH   5   6
ENDBRANCH   4   5
ENDBRANCH   3   4
ENDBRANCH   2   3
ENDBRANCH   1   2
BRANCH   1  12
ATOM     12  C   UNL     1     186.333 185.522 168.770  1.00  0.00     0.000 C 
BRANCH  12  13
ATOM     13  C   UNL     1     185.236 186.597 168.838  1.00  0.00    -0.000 C 
BRANCH  13  14
ATOM     14  C   UNL     1     185.627 187.780 169.740  1.00  0.00    -0.000 C 
BRANCH  14  15
ATOM     15  C   UNL     1     186.801 187.442 170.676  1.00  0.00    -0.000 C 
BRANCH  15  16
ATOM     16  C   UNL     1     188.001 188.388 170.493  1.00  0.00    -0.000 C 
BRANCH  16  17
ATOM     17  C   UNL     1     188.136 189.013 169.089  1.00  0.00    -0.000 C 
BRANCH  17  18
ATOM     18  C   UNL     1     189.451 188.692 168.357  1.00  0.00    -0.003 C 
ATOM     19  C   UNL     1     190.648 188.592 169.301  1.00  0.00     0.004 C 
ENDBRANCH  17  18
ENDBRANCH  16  17
ENDBRANCH  15  16
ENDBRANCH  14  15
ENDBRANCH  13  14
ENDBRANCH  12  13
ENDBRANCH   1  12
TORSDOF 14
ENDMDL
MODEL 6
REMARK VINA RESULT:    -3.477      1.090      3.319
REMARK INTER + INTRA:          -9.106
REMARK INTER:                  -6.344
REMARK INTRA:                  -2.762
REMARK UNBOUND:                -2.783
REMARK SMILES CCCCCCCCCCCCCC[C@@H](C)C(=O)[O-]
REMARK SMILES IDX 9 1 10 2 11 3 12 4 13 5 14 6 15 7 16 8 17 9 18 10 19 11 8 12
REMARK SMILES IDX 7 13 6 14 5 15 4 16 3 17 2 18 1 19
REMARK H PARENT
REMARK Flexibility Score: inf
ROOT
ATOM      1  C   UNL     1     188.247 189.016 169.794  1.00  0.00     0.000 C 
ENDROOT
BRANCH   1   2
ATOM      2  C   UNL     1     188.998 188.742 168.478  1.00  0.00     0.000 C 
BRANCH   2   3
ATOM      3  C   UNL     1     190.514 188.596 168.671  1.00  0.00     0.000 C 
BRANCH   3   4
ATOM      4  C   UNL     1     190.896 188.736 170.150  1.00  0.00     0.000 C 
BRANCH   4   5
ATOM      5  C   UNL     1     191.581 187.465 170.665  1.00  0.00     0.001 C 
BRANCH   5   6
ATOM      6  C   UNL     1     190.997 187.036 172.021  1.00  0.00     0.009 C 
BRANCH   6   7
ATOM      7  C   UNL     1     189.691 186.224 171.877  1.00  0.00     0.032 C 
ATOM      8  C   UNL     1     189.853 185.028 170.929  1.00  0.00     0.014 C 
BRANCH   7   9
ATOM      9  C   UNL     1     189.245 185.738 173.228  1.00  0.00     0.044 C 
ATOM     10  O   UNL     1     188.067 185.324 173.395  1.00  0.00    -0.550 OA
ATOM     11  O   UNL     1     190.127 185.743 174.303  1.00  0.00    -0.550 OA
ENDBRANCH   7   9
ENDBRANCH   6   7
ENDBRANCH   5   6
ENDBRANCH   4   5
ENDBRANCH   3   4
ENDBRANCH   2   3
ENDBRANCH   1   2
BRANCH   1  12
ATOM     12  C   UNL     1     186.762 188.609 169.796  1.00  0.00     0.000 C 
BRANCH  12  13
ATOM     13  C   UNL     1     186.494 187.323 170.595  1.00  0.00    -0.000 C 
BRANCH  13  14
ATOM     14  C   UNL     1     186.500 186.067 169.707  1.00  0.00    -0.000 C 
BRANCH  14  15
ATOM     15  C   UNL     1     185.902 186.331 168.313  1.00  0.00    -0.000 C 
BRANCH  15  16
ATOM     16  C   UNL     1     186.845 185.912 167.171  1.00  0.00    -0.000 C 
BRANCH  16  17
ATOM     17  C   UNL     1     188.120 185.165 167.613  1.00  0.00    -0.000 C 
BRANCH  17  18
ATOM     18  C   UNL     1     189.387 185.507 166.808  1.00  0.00    -0.003 C 
ATOM     19  C   UNL     1     190.620 184.743 167.287  1.00  0.00     0.004 C 
ENDBRANCH  17  18
ENDBRANCH  16  17
ENDBRANCH  15  16
ENDBRANCH  14  15
ENDBRANCH  13  14
ENDBRANCH  12  13
ENDBRANCH   1  12
TORSDOF 14
ENDMDL
MODEL 7
REMARK VINA RESULT:    -3.465      1.753      4.317
REMARK INTER + INTRA:          -9.084
REMARK INTER:                  -6.559
REMARK INTRA:                  -2.525
REMARK UNBOUND:                -2.783
REMARK SMILES CCCCCCCCCCCCCC[C@@H](C)C(=O)[O-]
REMARK SMILES IDX 9 1 10 2 11 3 12 4 13 5 14 6 15 7 16 8 17 9 18 10 19 11 8 12
REMARK SMILES IDX 7 13 6 14 5 15 4 16 3 17 2 18 1 19
REMARK H PARENT
REMARK Flexibility Score: inf
ROOT
ATOM      1  C   UNL     1     190.152 186.643 168.310  1.00  0.00     0.000 C 
ENDROOT
BRANCH   1   2
ATOM      2  C   UNL     1     190.237 186.321 169.814  1.00  0.00     0.000 C 
BRANCH   2   3
ATOM      3  C   UNL     1     190.198 184.814 170.107  1.00  0.00     0.000 C 
BRANCH   3   4
ATOM      4  C   UNL     1     189.700 184.544 171.532  1.00  0.00     0.000 C 
BRANCH   4   5
ATOM      5  C   UNL     1     189.515 185.854 172.309  1.00  0.00     0.001 C 
BRANCH   5   6
ATOM      6  C   UNL     1     189.711 185.631 173.817  1.00  0.00     0.009 C 
BRANCH   6   7
ATOM      7  C   UNL     1     191.185 185.778 174.255  1.00  0.00     0.032 C 
ATOM      8  C   UNL     1     191.390 186.951 175.223  1.00  0.00     0.014 C 
BRANCH   7   9
ATOM      9  C   UNL     1     191.651 184.504 174.903  1.00  0.00     0.044 C 
ATOM     10  O   UNL     1     191.140 183.402 174.572  1.00  0.00    -0.550 OA
ATOM     11  O   UNL     1     192.647 184.534 175.872  1.00  0.00    -0.550 OA
ENDBRANCH   7   9
ENDBRANCH   6   7
ENDBRANCH   5   6
ENDBRANCH   4   5
ENDBRANCH   3   4
ENDBRANCH   2   3
ENDBRANCH   1   2
BRANCH   1  12
ATOM     12  C   UNL     1     189.412 187.947 167.963  1.00  0.00     0.000 C 
BRANCH  12  13
ATOM     13  C   UNL     1     188.886 188.687 169.205  1.00  0.00    -0.000 C 
BRANCH  13  14
ATOM     14  C   UNL     1     187.352 188.652 169.304  1.00  0.00    -0.000 C 
BRANCH  14  15
ATOM     15  C   UNL     1     186.863 187.988 170.604  1.00  0.00    -0.000 C 
BRANCH  15  16
ATOM     16  C   UNL     1     186.491 186.506 170.414  1.00  0.00    -0.000 C 
BRANCH  16  17
ATOM     17  C   UNL     1     186.090 186.110 168.978  1.00  0.00    -0.000 C 
BRANCH  17  18
ATOM     18  C   UNL     1     186.862 184.913 168.394  1.00  0.00    -0.003 C 
ATOM     19  C   UNL     1     187.153 185.064 166.902  1.00  0.00     0.004 C 
ENDBRANCH  17  18
ENDBRANCH  16  17
ENDBRANCH  15  16
ENDBRANCH  14  15
ENDBRANCH  13  14
ENDBRANCH  12  13
ENDBRANCH   1  12
TORSDOF 14
ENDMDL
MODEL 8
REMARK VINA RESULT:    -3.435      1.444      2.056
REMARK INTER + INTRA:          -9.029
REMARK INTER:                  -6.351
REMARK INTRA:                  -2.678
REMARK UNBOUND:                -2.783
REMARK SMILES CCCCCCCCCCCCCC[C@@H](C)C(=O)[O-]
REMARK SMILES IDX 9 1 10 2 11 3 12 4 13 5 14 6 15 7 16 8 17 9 18 10 19 11 8 12
REMARK SMILES IDX 7 13 6 14 5 15 4 16 3 17 2 18 1 19
REMARK H PARENT
REMARK Flexibility Score: inf
ROOT
ATOM      1  C   UNL     1     185.085 187.360 169.395  1.00  0.00     0.000 C 
ENDROOT
BRANCH   1   2
ATOM      2  C   UNL     1     186.105 187.681 170.504  1.00  0.00     0.000 C 
BRANCH   2   3
ATOM      3  C   UNL     1     187.096 188.784 170.107  1.00  0.00     0.000 C 
BRANCH   3   4
ATOM      4  C   UNL     1     188.542 188.284 170.202  1.00  0.00     0.000 C 
BRANCH   4   5
ATOM      5  C   UNL     1     188.646 187.067 171.129  1.00  0.00     0.001 C 
BRANCH   5   6
ATOM      6  C   UNL     1     190.052 186.957 171.739  1.00  0.00     0.009 C 
BRANCH   6   7
ATOM      7  C   UNL     1     190.264 185.640 172.516  1.00  0.00     0.032 C 
ATOM      8  C   UNL     1     188.971 185.139 173.173  1.00  0.00     0.014 C 
BRANCH   7   9
ATOM      9  C   UNL     1     190.799 184.584 171.589  1.00  0.00     0.044 C 
ATOM     10  O   UNL     1     190.013 183.923 170.861  1.00  0.00    -0.550 OA
ATOM     11  O   UNL     1     192.165 184.328 171.531  1.00  0.00    -0.550 OA
ENDBRANCH   7   9
ENDBRANCH   6   7
ENDBRANCH   5   6
ENDBRANCH   4   5
ENDBRANCH   3   4
ENDBRANCH   2   3
ENDBRANCH   1   2
BRANCH   1  12
ATOM     12  C   UNL     1     185.648 186.571 168.200  1.00  0.00     0.000 C 
BRANCH  12  13
ATOM     13  C   UNL     1     186.407 185.303 168.623  1.00  0.00    -0.000 C 
BRANCH  13  14
ATOM     14  C   UNL     1     187.694 185.089 167.808  1.00  0.00    -0.000 C 
BRANCH  14  15
ATOM     15  C   UNL     1     188.049 186.310 166.940  1.00  0.00    -0.000 C 
BRANCH  15  16
ATOM     16  C   UNL     1     189.517 186.747 167.098  1.00  0.00    -0.000 C 
BRANCH  16  17
ATOM     17  C   UNL     1     190.391 185.811 167.958  1.00  0.00    -0.000 C 
BRANCH  17  18
ATOM     18  C   UNL     1     191.720 186.421 168.437  1.00  0.00    -0.003 C 
ATOM     19  C   UNL     1     191.730 187.948 168.377  1.00  0.00     0.004 C 
ENDBRANCH  17  18
ENDBRANCH  16  17
ENDBRANCH  15  16
ENDBRANCH  14  15
ENDBRANCH  13  14
ENDBRANCH  12  13
ENDBRANCH   1  12
TORSDOF 14
ENDMDL
MODEL 9
REMARK VINA RESULT:    -3.376     12.394     14.837
REMARK INTER + INTRA:          -8.921
REMARK INTER:                  -6.243
REMARK INTRA:                  -2.679
REMARK UNBOUND:                -2.783
REMARK SMILES CCCCCCCCCCCCCC[C@@H](C)C(=O)[O-]
REMARK SMILES IDX 9 1 10 2 11 3 12 4 13 5 14 6 15 7 16 8 17 9 18 10 19 11 8 12
REMARK SMILES IDX 7 13 6 14 5 15 4 16 3 17 2 18 1 19
REMARK H PARENT
REMARK Flexibility Score: inf
ROOT
ATOM      1  C   UNL     1     181.053 193.987 177.582  1.00  0.00     0.000 C 
ENDROOT
BRANCH   1   2
ATOM      2  C   UNL     1     179.838 194.692 178.214  1.00  0.00     0.000 C 
BRANCH   2   3
ATOM      3  C   UNL     1     178.961 195.417 177.183  1.00  0.00     0.000 C 
BRANCH   3   4
ATOM      4  C   UNL     1     179.327 196.904 177.098  1.00  0.00     0.000 C 
BRANCH   4   5
ATOM      5  C   UNL     1     180.013 197.227 175.765  1.00  0.00     0.001 C 
BRANCH   5   6
ATOM      6  C   UNL     1     179.907 196.044 174.790  1.00  0.00     0.009 C 
BRANCH   6   7
ATOM      7  C   UNL     1     181.126 195.937 173.847  1.00  0.00     0.032 C 
ATOM      8  C   UNL     1     181.802 194.561 173.925  1.00  0.00     0.014 C 
BRANCH   7   9
ATOM      9  C   UNL     1     180.697 196.207 172.431  1.00  0.00     0.044 C 
ATOM     10  O   UNL     1     180.393 195.253 171.669  1.00  0.00    -0.550 OA
ATOM     11  O   UNL     1     180.636 197.512 171.954  1.00  0.00    -0.550 OA
ENDBRANCH   7   9
ENDBRANCH   6   7
ENDBRANCH   5   6
ENDBRANCH   4   5
ENDBRANCH   3   4
ENDBRANCH   2   3
ENDBRANCH   1   2
BRANCH   1  12
ATOM     12  C   UNL     1     182.419 194.390 178.168  1.00  0.00     0.000 C 
BRANCH  12  13
ATOM     13  C   UNL     1     182.877 195.786 177.713  1.00  0.00    -0.000 C 
BRANCH  13  14
ATOM     14  C   UNL     1     183.243 196.699 178.895  1.00  0.00    -0.000 C 
BRANCH  14  15
ATOM     15  C   UNL     1     182.001 197.307 179.573  1.00  0.00    -0.000 C 
BRANCH  15  16
ATOM     16  C   UNL     1     181.761 196.748 180.987  1.00  0.00    -0.000 C 
BRANCH  16  17
ATOM     17  C   UNL     1     182.853 195.793 181.510  1.00  0.00    -0.000 C 
BRANCH  17  18
ATOM     18  C   UNL     1     182.344 194.416 181.974  1.00  0.00    -0.003 C 
ATOM     19  C   UNL     1     180.857 194.206 181.695  1.00  0.00     0.004 C 
ENDBRANCH  17  18
ENDBRANCH  16  17
ENDBRANCH  15  16
ENDBRANCH  14  15
ENDBRANCH  13  14
ENDBRANCH  12  13
ENDBRANCH   1  12
TORSDOF 14
ENDMDL
