MODEL 1
REMARK VINA RESULT:    -4.748      0.000      0.000
REMARK INTER + INTRA:          -5.215
REMARK INTER:                  -5.165
REMARK INTRA:                  -0.050
REMARK UNBOUND:                -0.050
REMARK SMILES CCc1cccc(O)c1
REMARK SMILES IDX 3 1 9 2 7 3 6 4 5 5 4 6 2 7 1 8 8 9
REMARK H PARENT 8 10
REMARK Flexibility Score: inf
ROOT
ATOM      1  C   UNL     1      46.731  -2.356  15.667  1.00  0.00    -0.045 A 
ATOM      2  C   UNL     1      45.824  -3.331  15.218  1.00  0.00     0.049 A 
ATOM      3  C   UNL     1      44.561  -2.953  14.736  1.00  0.00     0.115 A 
ATOM      4  C   UNL     1      44.201  -1.602  14.710  1.00  0.00     0.046 A 
ATOM      5  C   UNL     1      45.094  -0.630  15.167  1.00  0.00     0.004 A 
ATOM      6  C   UNL     1      46.353  -1.003  15.649  1.00  0.00     0.004 A 
ENDROOT
BRANCH   1   7
ATOM      7  C   UNL     1      48.072  -2.762  16.216  1.00  0.00     0.032 C 
ATOM      8  C   UNL     1      47.926  -3.927  17.189  1.00  0.00     0.009 C 
ENDBRANCH   1   7
BRANCH   3   9
ATOM      9  O   UNL     1      43.659  -3.914  14.283  1.00  0.00    -0.508 OA
ATOM     10  H   UNL     1      42.659  -3.751  14.301  1.00  0.00     0.293 HD
ENDBRANCH   3   9
TORSDOF 2
ENDMDL
MODEL 2
REMARK VINA RESULT:    -4.672      1.517      2.202
REMARK INTER + INTRA:          -5.132
REMARK INTER:                  -5.062
REMARK INTRA:                  -0.070
REMARK UNBOUND:                -0.050
REMARK SMILES CCc1cccc(O)c1
REMARK SMILES IDX 3 1 9 2 7 3 6 4 5 5 4 6 2 7 1 8 8 9
REMARK H PARENT 8 10
REMARK Flexibility Score: inf
ROOT
ATOM      1  C   UNL     1      46.524  -2.297  15.782  1.00  0.00    -0.045 A 
ATOM      2  C   UNL     1      45.938  -1.021  15.724  1.00  0.00     0.049 A 
ATOM      3  C   UNL     1      44.744  -0.823  15.015  1.00  0.00     0.115 A 
ATOM      4  C   UNL     1      44.139  -1.898  14.355  1.00  0.00     0.046 A 
ATOM      5  C   UNL     1      44.725  -3.166  14.398  1.00  0.00     0.004 A 
ATOM      6  C   UNL     1      45.916  -3.366  15.103  1.00  0.00     0.004 A 
ENDROOT
BRANCH   1   7
ATOM      7  C   UNL     1      47.823  -2.504  16.514  1.00  0.00     0.032 C 
ATOM      8  C   UNL     1      47.866  -3.885  17.157  1.00  0.00     0.009 C 
ENDBRANCH   1   7
BRANCH   3   9
ATOM      9  O   UNL     1      44.153   0.438  14.959  1.00  0.00    -0.508 OA
ATOM     10  H   UNL     1      44.691   1.282  15.113  1.00  0.00     0.293 HD
ENDBRANCH   3   9
TORSDOF 2
ENDMDL
MODEL 3
REMARK VINA RESULT:    -4.575      8.816      9.887
REMARK INTER + INTRA:          -5.027
REMARK INTER:                  -4.972
REMARK INTRA:                  -0.055
REMARK UNBOUND:                -0.050
REMARK SMILES CCc1cccc(O)c1
REMARK SMILES IDX 3 1 9 2 7 3 6 4 5 5 4 6 2 7 1 8 8 9
REMARK H PARENT 8 10
REMARK Flexibility Score: inf
ROOT
ATOM      1  C   UNL     1      45.345   7.091  15.289  1.00  0.00    -0.045 A 
ATOM      2  C   UNL     1      46.452   6.225  15.318  1.00  0.00     0.049 A 
ATOM      3  C   UNL     1      47.133   5.989  16.522  1.00  0.00     0.115 A 
ATOM      4  C   UNL     1      46.714   6.625  17.695  1.00  0.00     0.046 A 
ATOM      5  C   UNL     1      45.623   7.498  17.669  1.00  0.00     0.004 A 
ATOM      6  C   UNL     1      44.943   7.735  16.470  1.00  0.00     0.004 A 
ENDROOT
BRANCH   1   7
ATOM      7  C   UNL     1      44.635   7.371  13.991  1.00  0.00     0.032 C 
ATOM      8  C   UNL     1      43.262   6.709  13.974  1.00  0.00     0.009 C 
ENDBRANCH   1   7
BRANCH   3   9
ATOM      9  O   UNL     1      48.226   5.126  16.561  1.00  0.00    -0.508 OA
ATOM     10  H   UNL     1      49.083   5.379  17.040  1.00  0.00     0.293 HD
ENDBRANCH   3   9
TORSDOF 2
ENDMDL
MODEL 4
REMARK VINA RESULT:    -4.450      8.683      9.937
REMARK INTER + INTRA:          -4.891
REMARK INTER:                  -4.839
REMARK INTRA:                  -0.051
REMARK UNBOUND:                -0.050
REMARK SMILES CCc1cccc(O)c1
REMARK SMILES IDX 3 1 9 2 7 3 6 4 5 5 4 6 2 7 1 8 8 9
REMARK H PARENT 8 10
REMARK Flexibility Score: inf
ROOT
ATOM      1  C   UNL     1      45.644   7.482  17.641  1.00  0.00    -0.045 A 
ATOM      2  C   UNL     1      46.808   6.695  17.652  1.00  0.00     0.049 A 
ATOM      3  C   UNL     1      47.159   5.936  16.525  1.00  0.00     0.115 A 
ATOM      4  C   UNL     1      46.344   5.958  15.389  1.00  0.00     0.046 A 
ATOM      5  C   UNL     1      45.179   6.729  15.377  1.00  0.00     0.004 A 
ATOM      6  C   UNL     1      44.825   7.485  16.499  1.00  0.00     0.004 A 
ENDROOT
BRANCH   1   7
ATOM      7  C   UNL     1      45.248   8.269  18.861  1.00  0.00     0.032 C 
ATOM      8  C   UNL     1      46.214   8.005  20.011  1.00  0.00     0.009 C 
ENDBRANCH   1   7
BRANCH   3   9
ATOM      9  O   UNL     1      48.316   5.158  16.526  1.00  0.00    -0.508 OA
ATOM     10  H   UNL     1      48.404   4.343  17.121  1.00  0.00     0.293 HD
ENDBRANCH   3   9
TORSDOF 2
ENDMDL
MODEL 5
REMARK VINA RESULT:    -4.295      9.863     11.022
REMARK INTER + INTRA:          -4.721
REMARK INTER:                  -4.670
REMARK INTRA:                  -0.051
REMARK UNBOUND:                -0.050
REMARK SMILES CCc1cccc(O)c1
REMARK SMILES IDX 3 1 9 2 7 3 6 4 5 5 4 6 2 7 1 8 8 9
REMARK H PARENT 8 10
REMARK Flexibility Score: inf
ROOT
ATOM      1  C   UNL     1      46.004   8.066  20.179  1.00  0.00    -0.045 A 
ATOM      2  C   UNL     1      46.771   7.127  19.469  1.00  0.00     0.049 A 
ATOM      3  C   UNL     1      46.470   6.836  18.130  1.00  0.00     0.115 A 
ATOM      4  C   UNL     1      45.398   7.478  17.502  1.00  0.00     0.046 A 
ATOM      5  C   UNL     1      44.623   8.402  18.207  1.00  0.00     0.004 A 
ATOM      6  C   UNL     1      44.920   8.694  19.543  1.00  0.00     0.004 A 
ENDROOT
BRANCH   1   7
ATOM      7  C   UNL     1      46.304   8.353  21.626  1.00  0.00     0.032 C 
ATOM      8  C   UNL     1      47.495   7.530  22.104  1.00  0.00     0.009 C 
ENDBRANCH   1   7
BRANCH   3   9
ATOM      9  O   UNL     1      47.231   5.912  17.417  1.00  0.00    -0.508 OA
ATOM     10  H   UNL     1      48.159   6.137  17.080  1.00  0.00     0.293 HD
ENDBRANCH   3   9
TORSDOF 2
ENDMDL
MODEL 6
REMARK VINA RESULT:    -4.284      9.944     11.247
REMARK INTER + INTRA:          -4.710
REMARK INTER:                  -4.659
REMARK INTRA:                  -0.051
REMARK UNBOUND:                -0.050
REMARK SMILES CCc1cccc(O)c1
REMARK SMILES IDX 3 1 9 2 7 3 6 4 5 5 4 6 2 7 1 8 8 9
REMARK H PARENT 8 10
REMARK Flexibility Score: inf
ROOT
ATOM      1  C   UNL     1      46.192   7.838  18.470  1.00  0.00    -0.045 A 
ATOM      2  C   UNL     1      46.804   6.869  19.283  1.00  0.00     0.049 A 
ATOM      3  C   UNL     1      46.831   7.031  20.677  1.00  0.00     0.115 A 
ATOM      4  C   UNL     1      46.254   8.165  21.258  1.00  0.00     0.046 A 
ATOM      5  C   UNL     1      45.656   9.138  20.452  1.00  0.00     0.004 A 
ATOM      6  C   UNL     1      45.629   8.980  19.063  1.00  0.00     0.004 A 
ENDROOT
BRANCH   1   7
ATOM      7  C   UNL     1      46.193   7.682  16.973  1.00  0.00     0.032 C 
ATOM      8  C   UNL     1      46.875   6.382  16.565  1.00  0.00     0.009 C 
ENDBRANCH   1   7
BRANCH   3   9
ATOM      9  O   UNL     1      47.429   6.071  21.491  1.00  0.00    -0.508 OA
ATOM     10  H   UNL     1      48.049   6.332  22.248  1.00  0.00     0.293 HD
ENDBRANCH   3   9
TORSDOF 2
ENDMDL
MODEL 7
REMARK VINA RESULT:    -4.272      8.289      9.252
REMARK INTER + INTRA:          -4.697
REMARK INTER:                  -4.643
REMARK INTRA:                  -0.054
REMARK UNBOUND:                -0.050
REMARK SMILES CCc1cccc(O)c1
REMARK SMILES IDX 3 1 9 2 7 3 6 4 5 5 4 6 2 7 1 8 8 9
REMARK H PARENT 8 10
REMARK Flexibility Score: inf
ROOT
ATOM      1  C   UNL     1      45.801   6.988  16.474  1.00  0.00    -0.045 A 
ATOM      2  C   UNL     1      44.441   7.016  16.124  1.00  0.00     0.049 A 
ATOM      3  C   UNL     1      43.974   6.256  15.041  1.00  0.00     0.115 A 
ATOM      4  C   UNL     1      44.868   5.474  14.302  1.00  0.00     0.046 A 
ATOM      5  C   UNL     1      46.224   5.453  14.638  1.00  0.00     0.004 A 
ATOM      6  C   UNL     1      46.693   6.210  15.716  1.00  0.00     0.004 A 
ENDROOT
BRANCH   1   7
ATOM      7  C   UNL     1      46.309   7.830  17.614  1.00  0.00     0.032 C 
ATOM      8  C   UNL     1      46.629   6.962  18.826  1.00  0.00     0.009 C 
ENDBRANCH   1   7
BRANCH   3   9
ATOM      9  O   UNL     1      42.625   6.273  14.692  1.00  0.00    -0.508 OA
ATOM     10  H   UNL     1      42.221   7.048  14.179  1.00  0.00     0.293 HD
ENDBRANCH   3   9
TORSDOF 2
ENDMDL
MODEL 8
REMARK VINA RESULT:    -4.265      9.917     10.963
REMARK INTER + INTRA:          -4.690
REMARK INTER:                  -4.616
REMARK INTRA:                  -0.074
REMARK UNBOUND:                -0.050
REMARK SMILES CCc1cccc(O)c1
REMARK SMILES IDX 3 1 9 2 7 3 6 4 5 5 4 6 2 7 1 8 8 9
REMARK H PARENT 8 10
REMARK Flexibility Score: inf
ROOT
ATOM      1  C   UNL     1      45.908   7.859  19.414  1.00  0.00    -0.045 A 
ATOM      2  C   UNL     1      44.804   8.526  18.858  1.00  0.00     0.049 A 
ATOM      3  C   UNL     1      44.442   8.301  17.521  1.00  0.00     0.115 A 
ATOM      4  C   UNL     1      45.189   7.416  16.737  1.00  0.00     0.046 A 
ATOM      5  C   UNL     1      46.296   6.760  17.281  1.00  0.00     0.004 A 
ATOM      6  C   UNL     1      46.660   6.983  18.613  1.00  0.00     0.004 A 
ENDROOT
BRANCH   1   7
ATOM      7  C   UNL     1      46.317   8.125  20.838  1.00  0.00     0.032 C 
ATOM      8  C   UNL     1      47.274   7.046  21.335  1.00  0.00     0.009 C 
ENDBRANCH   1   7
BRANCH   3   9
ATOM      9  O   UNL     1      43.344   8.953  16.964  1.00  0.00    -0.508 OA
ATOM     10  H   UNL     1      42.455   8.482  16.840  1.00  0.00     0.293 HD
ENDBRANCH   3   9
TORSDOF 2
ENDMDL
