MODEL 1
REMARK VINA RESULT:     2.332      0.000      0.000
REMARK INTER + INTRA:           4.736
REMARK INTER:                   3.422
REMARK INTRA:                   1.313
REMARK UNBOUND:                 1.313
REMARK SMILES O=C([O-])CCCCCCCC(=O)[O-]
REMARK SMILES IDX 7 1 6 2 5 3 4 4 2 5 1 6 3 7 8 8 9 9 10 10 11 11 12 12 13 13
REMARK H PARENT
REMARK Flexibility Score: inf
ROOT
ATOM      1  C   UNL     1       7.269  49.762   9.750  1.00  0.00     0.000 C 
ENDROOT
BRANCH   1   2
ATOM      2  C   UNL     1       8.332  49.022   8.925  1.00  0.00     0.000 C 
BRANCH   2   3
ATOM      3  C   UNL     1       8.248  47.494   9.085  1.00  0.00     0.006 C 
BRANCH   3   4
ATOM      4  C   UNL     1       7.292  47.082  10.213  1.00  0.00     0.053 C 
BRANCH   4   5
ATOM      5  C   UNL     1       7.773  47.552  11.552  1.00  0.00     0.041 C 
ATOM      6  O   UNL     1       8.998  47.765  11.745  1.00  0.00    -0.550 OA
ATOM      7  O   UNL     1       6.863  47.782  12.576  1.00  0.00    -0.550 OA
ENDBRANCH   4   5
ENDBRANCH   3   4
ENDBRANCH   2   3
ENDBRANCH   1   2
BRANCH   1   8
ATOM      8  C   UNL     1       6.267  50.531   8.875  1.00  0.00     0.000 C 
BRANCH   8   9
ATOM      9  C   UNL     1       4.852  49.964   9.034  1.00  0.00     0.006 C 
BRANCH   9  10
ATOM     10  C   UNL     1       4.884  48.575   9.678  1.00  0.00     0.053 C 
BRANCH  10  11
ATOM     11  C   UNL     1       3.848  48.470  10.752  1.00  0.00     0.041 C 
ATOM     12  O   UNL     1       2.651  48.780  10.511  1.00  0.00    -0.550 OA
ATOM     13  O   UNL     1       4.194  47.984  12.006  1.00  0.00    -0.550 OA
ENDBRANCH  10  11
ENDBRANCH   9  10
ENDBRANCH   8   9
ENDBRANCH   1   8
TORSDOF 8
ENDMDL
MODEL 2
REMARK VINA RESULT:     2.392      0.288      3.929
REMARK INTER + INTRA:           4.824
REMARK INTER:                   4.278
REMARK INTRA:                   0.546
REMARK UNBOUND:                 1.313
REMARK SMILES O=C([O-])CCCCCCCC(=O)[O-]
REMARK SMILES IDX 7 1 6 2 5 3 4 4 2 5 1 6 3 7 8 8 9 9 10 10 11 11 12 12 13 13
REMARK H PARENT
REMARK Flexibility Score: inf
ROOT
ATOM      1  C   UNL     1       7.031  49.726   9.754  1.00  0.00     0.000 C 
ENDROOT
BRANCH   1   2
ATOM      2  C   UNL     1       5.959  50.458   8.933  1.00  0.00     0.000 C 
BRANCH   2   3
ATOM      3  C   UNL     1       4.627  49.690   8.879  1.00  0.00     0.006 C 
BRANCH   3   4
ATOM      4  C   UNL     1       4.688  48.368   9.658  1.00  0.00     0.053 C 
BRANCH   4   5
ATOM      5  C   UNL     1       3.666  48.317  10.751  1.00  0.00     0.041 C 
ATOM      6  O   UNL     1       3.944  47.772  11.852  1.00  0.00    -0.550 OA
ATOM      7  O   UNL     1       2.418  48.898  10.566  1.00  0.00    -0.550 OA
ENDBRANCH   4   5
ENDBRANCH   3   4
ENDBRANCH   2   3
ENDBRANCH   1   2
BRANCH   1   8
ATOM      8  C   UNL     1       8.109  49.075   8.875  1.00  0.00     0.000 C 
BRANCH   8   9
ATOM      9  C   UNL     1       8.430  47.656   9.360  1.00  0.00     0.006 C 
BRANCH   9  10
ATOM     10  C   UNL     1       7.365  47.155  10.340  1.00  0.00     0.053 C 
BRANCH  10  11
ATOM     11  C   UNL     1       7.692  47.587  11.735  1.00  0.00     0.041 C 
ATOM     12  O   UNL     1       8.874  47.891  12.044  1.00  0.00    -0.550 OA
ATOM     13  O   UNL     1       6.682  47.700  12.681  1.00  0.00    -0.550 OA
ENDBRANCH  10  11
ENDBRANCH   9  10
ENDBRANCH   8   9
ENDBRANCH   1   8
TORSDOF 8
ENDMDL
MODEL 3
REMARK VINA RESULT:     2.407      3.672      6.872
REMARK INTER + INTRA:           4.846
REMARK INTER:                   5.005
REMARK INTRA:                  -0.159
REMARK UNBOUND:                 1.313
REMARK SMILES O=C([O-])CCCCCCCC(=O)[O-]
REMARK SMILES IDX 7 1 6 2 5 3 4 4 2 5 1 6 3 7 8 8 9 9 10 10 11 11 12 12 13 13
REMARK H PARENT
REMARK Flexibility Score: inf
ROOT
ATOM      1  C   UNL     1       9.551  47.769   8.875  1.00  0.00     0.000 C 
ENDROOT
BRANCH   1   2
ATOM      2  C   UNL     1       8.721  48.186  10.099  1.00  0.00     0.000 C 
BRANCH   2   3
ATOM      3  C   UNL     1       7.503  49.047   9.724  1.00  0.00     0.006 C 
BRANCH   3   4
ATOM      4  C   UNL     1       6.208  48.224   9.668  1.00  0.00     0.053 C 
BRANCH   4   5
ATOM      5  C   UNL     1       4.999  49.068   9.935  1.00  0.00     0.041 C 
ATOM      6  O   UNL     1       3.954  48.545  10.404  1.00  0.00    -0.550 OA
ATOM      7  O   UNL     1       5.037  50.435   9.694  1.00  0.00    -0.550 OA
ENDBRANCH   4   5
ENDBRANCH   3   4
ENDBRANCH   2   3
ENDBRANCH   1   2
BRANCH   1   8
ATOM      8  C   UNL     1      11.024  48.190   8.985  1.00  0.00     0.000 C 
BRANCH   8   9
ATOM      9  C   UNL     1      11.951  46.973   8.890  1.00  0.00     0.006 C 
BRANCH   9  10
ATOM     10  C   UNL     1      13.422  47.399   8.903  1.00  0.00     0.053 C 
BRANCH  10  11
ATOM     11  C   UNL     1      14.187  46.612   9.920  1.00  0.00     0.041 C 
ATOM     12  O   UNL     1      14.101  46.902  11.142  1.00  0.00    -0.550 OA
ATOM     13  O   UNL     1      14.957  45.527   9.522  1.00  0.00    -0.550 OA
ENDBRANCH  10  11
ENDBRANCH   9  10
ENDBRANCH   8   9
ENDBRANCH   1   8
TORSDOF 8
ENDMDL
MODEL 4
REMARK VINA RESULT:     2.590      7.717      9.089
REMARK INTER + INTRA:           5.115
REMARK INTER:                   4.665
REMARK INTRA:                   0.450
REMARK UNBOUND:                 1.313
REMARK SMILES O=C([O-])CCCCCCCC(=O)[O-]
REMARK SMILES IDX 7 1 6 2 5 3 4 4 2 5 1 6 3 7 8 8 9 9 10 10 11 11 12 12 13 13
REMARK H PARENT
REMARK Flexibility Score: inf
ROOT
ATOM      1  C   UNL     1      15.600  43.312   9.328  1.00  0.00     0.000 C 
ENDROOT
BRANCH   1   2
ATOM      2  C   UNL     1      15.059  44.742   9.182  1.00  0.00     0.000 C 
BRANCH   2   3
ATOM      3  C   UNL     1      16.178  45.785   9.023  1.00  0.00     0.006 C 
BRANCH   3   4
ATOM      4  C   UNL     1      15.625  47.210   8.877  1.00  0.00     0.053 C 
BRANCH   4   5
ATOM      5  C   UNL     1      14.296  47.365   9.548  1.00  0.00     0.041 C 
ATOM      6  O   UNL     1      14.077  46.807  10.655  1.00  0.00    -0.550 OA
ATOM      7  O   UNL     1      13.309  48.150   8.965  1.00  0.00    -0.550 OA
ENDBRANCH   4   5
ENDBRANCH   3   4
ENDBRANCH   2   3
ENDBRANCH   1   2
BRANCH   1   8
ATOM      8  C   UNL     1      14.491  42.250   9.279  1.00  0.00     0.000 C 
BRANCH   8   9
ATOM      9  C   UNL     1      13.204  42.770   9.932  1.00  0.00     0.006 C 
BRANCH   9  10
ATOM     10  C   UNL     1      12.147  43.102   8.875  1.00  0.00     0.053 C 
BRANCH  10  11
ATOM     11  C   UNL     1      10.947  42.223   9.040  1.00  0.00     0.041 C 
ATOM     12  O   UNL     1      11.045  40.979   8.876  1.00  0.00    -0.550 OA
ATOM     13  O   UNL     1       9.730  42.773   9.422  1.00  0.00    -0.550 OA
ENDBRANCH  10  11
ENDBRANCH   9  10
ENDBRANCH   8   9
ENDBRANCH   1   8
TORSDOF 8
ENDMDL
MODEL 5
REMARK VINA RESULT:     2.875      3.788      4.655
REMARK INTER + INTRA:           5.534
REMARK INTER:                   5.708
REMARK INTRA:                  -0.175
REMARK UNBOUND:                 1.313
REMARK SMILES O=C([O-])CCCCCCCC(=O)[O-]
REMARK SMILES IDX 7 1 6 2 5 3 4 4 2 5 1 6 3 7 8 8 9 9 10 10 11 11 12 12 13 13
REMARK H PARENT
REMARK Flexibility Score: inf
ROOT
ATOM      1  C   UNL     1       9.692  48.268   9.187  1.00  0.00     0.000 C 
ENDROOT
BRANCH   1   2
ATOM      2  C   UNL     1      10.635  47.096   8.878  1.00  0.00     0.000 C 
BRANCH   2   3
ATOM      3  C   UNL     1      12.116  47.511   8.877  1.00  0.00     0.006 C 
BRANCH   3   4
ATOM      4  C   UNL     1      13.054  46.315   9.093  1.00  0.00     0.053 C 
BRANCH   4   5
ATOM      5  C   UNL     1      14.352  46.728   9.714  1.00  0.00     0.041 C 
ATOM      6  O   UNL     1      14.369  47.244  10.863  1.00  0.00    -0.550 OA
ATOM      7  O   UNL     1      15.547  46.516   9.037  1.00  0.00    -0.550 OA
ENDBRANCH   4   5
ENDBRANCH   3   4
ENDBRANCH   2   3
ENDBRANCH   1   2
BRANCH   1   8
ATOM      8  C   UNL     1       8.445  47.836   9.974  1.00  0.00     0.000 C 
BRANCH   8   9
ATOM      9  C   UNL     1       7.192  47.898   9.093  1.00  0.00     0.006 C 
BRANCH   9  10
ATOM     10  C   UNL     1       5.921  47.944   9.947  1.00  0.00     0.053 C 
BRANCH  10  11
ATOM     11  C   UNL     1       5.092  49.136   9.589  1.00  0.00     0.041 C 
ATOM     12  O   UNL     1       5.641  50.188   9.170  1.00  0.00    -0.550 OA
ATOM     13  O   UNL     1       3.707  49.069   9.672  1.00  0.00    -0.550 OA
ENDBRANCH  10  11
ENDBRANCH   9  10
ENDBRANCH   8   9
ENDBRANCH   1   8
TORSDOF 8
ENDMDL
MODEL 6
REMARK VINA RESULT:     5.060      2.425      4.648
REMARK INTER + INTRA:           8.740
REMARK INTER:                   9.069
REMARK INTRA:                  -0.329
REMARK UNBOUND:                 1.313
REMARK SMILES O=C([O-])CCCCCCCC(=O)[O-]
REMARK SMILES IDX 7 1 6 2 5 3 4 4 2 5 1 6 3 7 8 8 9 9 10 10 11 11 12 12 13 13
REMARK H PARENT
REMARK Flexibility Score: inf
ROOT
ATOM      1  C   UNL     1       4.154  48.987  10.232  1.00  0.00     0.000 C 
ENDROOT
BRANCH   1   2
ATOM      2  C   UNL     1       4.822  48.308  11.436  1.00  0.00     0.000 C 
BRANCH   2   3
ATOM      3  C   UNL     1       3.805  47.654  12.387  1.00  0.00     0.006 C 
BRANCH   3   4
ATOM      4  C   UNL     1       4.144  47.907  13.862  1.00  0.00     0.053 C 
BRANCH   4   5
ATOM      5  C   UNL     1       3.093  47.362  14.779  1.00  0.00     0.041 C 
ATOM      6  O   UNL     1       3.052  47.726  15.983  1.00  0.00    -0.550 OA
ATOM      7  O   UNL     1       2.139  46.475  14.295  1.00  0.00    -0.550 OA
ENDBRANCH   4   5
ENDBRANCH   3   4
ENDBRANCH   2   3
ENDBRANCH   1   2
BRANCH   1   8
ATOM      8  C   UNL     1       5.074  49.058   9.004  1.00  0.00     0.000 C 
BRANCH   8   9
ATOM      9  C   UNL     1       6.416  49.708   9.362  1.00  0.00     0.006 C 
BRANCH   9  10
ATOM     10  C   UNL     1       7.589  48.853   8.876  1.00  0.00     0.053 C 
BRANCH  10  11
ATOM     11  C   UNL     1       7.800  47.686   9.788  1.00  0.00     0.041 C 
ATOM     12  O   UNL     1       8.348  47.848  10.909  1.00  0.00    -0.550 OA
ATOM     13  O   UNL     1       7.347  46.425   9.419  1.00  0.00    -0.550 OA
ENDBRANCH  10  11
ENDBRANCH   9  10
ENDBRANCH   8   9
ENDBRANCH   1   8
TORSDOF 8
ENDMDL
MODEL 7
REMARK VINA RESULT:     5.096      2.377      3.526
REMARK INTER + INTRA:           8.793
REMARK INTER:                   8.962
REMARK INTRA:                  -0.169
REMARK UNBOUND:                 1.313
REMARK SMILES O=C([O-])CCCCCCCC(=O)[O-]
REMARK SMILES IDX 7 1 6 2 5 3 4 4 2 5 1 6 3 7 8 8 9 9 10 10 11 11 12 12 13 13
REMARK H PARENT
REMARK Flexibility Score: inf
ROOT
ATOM      1  C   UNL     1       4.169  48.960  10.130  1.00  0.00     0.000 C 
ENDROOT
BRANCH   1   2
ATOM      2  C   UNL     1       5.102  48.989   8.910  1.00  0.00     0.000 C 
BRANCH   2   3
ATOM      3  C   UNL     1       6.373  49.820   9.155  1.00  0.00     0.006 C 
BRANCH   3   4
ATOM      4  C   UNL     1       7.652  49.017   8.875  1.00  0.00     0.053 C 
BRANCH   4   5
ATOM      5  C   UNL     1       7.713  47.762   9.689  1.00  0.00     0.041 C 
ATOM      6  O   UNL     1       7.320  46.670   9.201  1.00  0.00    -0.550 OA
ATOM      7  O   UNL     1       8.232  47.792  10.978  1.00  0.00    -0.550 OA
ENDBRANCH   4   5
ENDBRANCH   3   4
ENDBRANCH   2   3
ENDBRANCH   1   2
BRANCH   1   8
ATOM      8  C   UNL     1       4.728  48.113  11.283  1.00  0.00     0.000 C 
BRANCH   8   9
ATOM      9  C   UNL     1       3.623  47.745  12.280  1.00  0.00     0.006 C 
BRANCH   9  10
ATOM     10  C   UNL     1       4.109  47.901  13.724  1.00  0.00     0.053 C 
BRANCH  10  11
ATOM     11  C   UNL     1       3.133  47.285  14.675  1.00  0.00     0.041 C 
ATOM     12  O   UNL     1       3.138  47.613  15.891  1.00  0.00    -0.550 OA
ATOM     13  O   UNL     1       2.184  46.383  14.210  1.00  0.00    -0.550 OA
ENDBRANCH  10  11
ENDBRANCH   9  10
ENDBRANCH   8   9
ENDBRANCH   1   8
TORSDOF 8
ENDMDL
