MODEL 1
REMARK VINA RESULT:    -0.380      0.000      0.000
REMARK INTER + INTRA:          -0.749
REMARK INTER:                  -0.458
REMARK INTRA:                  -0.291
REMARK UNBOUND:                -0.291
REMARK SMILES O=c1c(O)c(-c2ccc(O)c(O)c2)oc2cc(O)cc(O)c12
REMARK SMILES IDX 5 1 3 2 2 3 1 4 22 5 20 6 19 7 17 8 16 9 15 10 14 11 6 12
REMARK SMILES IDX 7 13 8 14 9 15 13 16 11 17 10 18 12 20 4 22 21 24 18 26
REMARK H PARENT 10 19 12 21 4 23 21 25 18 27
REMARK Flexibility Score: inf
ROOT
ATOM      1  C   UNL     1      13.096 -12.816  29.014  1.00  0.00     0.180 A 
ATOM      2  C   UNL     1      13.406 -13.234  27.708  1.00  0.00     0.208 A 
ATOM      3  C   UNL     1      14.128 -14.425  27.528  1.00  0.00     0.238 A 
ATOM      4  O   UNL     1      14.449 -14.765  26.359  1.00  0.00    -0.285 OA
ATOM      5  C   UNL     1      14.514 -15.193  28.653  1.00  0.00     0.111 A 
ATOM      6  C   UNL     1      15.212 -16.435  28.585  1.00  0.00     0.134 A 
ATOM      7  C   UNL     1      15.658 -17.042  29.766  1.00  0.00     0.093 A 
ATOM      8  C   UNL     1      15.375 -16.486  31.012  1.00  0.00     0.123 A 
ATOM      9  C   UNL     1      14.642 -15.302  31.093  1.00  0.00     0.094 A 
ATOM     10  C   UNL     1      14.214 -14.653  29.932  1.00  0.00     0.146 A 
ATOM     11  O   UNL     1      13.529 -13.523  30.051  1.00  0.00    -0.452 OA
ENDROOT
BRANCH   1  12
ATOM     12  C   UNL     1      12.318 -11.585  29.283  1.00  0.00     0.025 A 
ATOM     13  C   UNL     1      12.974 -10.447  29.779  1.00  0.00     0.016 A 
ATOM     14  C   UNL     1      12.256  -9.282  30.060  1.00  0.00     0.051 A 
ATOM     15  C   UNL     1      10.869  -9.243  29.865  1.00  0.00     0.157 A 
ATOM     16  C   UNL     1      10.922 -11.548  29.109  1.00  0.00     0.062 A 
ATOM     17  C   UNL     1      10.201 -10.379  29.393  1.00  0.00     0.158 A 
BRANCH  15  18
ATOM     18  O   UNL     1      10.150  -8.082  30.142  1.00  0.00    -0.504 OA
ATOM     19  H   UNL     1       9.209  -7.945  29.790  1.00  0.00     0.293 HD
ENDBRANCH  15  18
BRANCH  17  20
ATOM     20  O   UNL     1       8.819 -10.342  29.213  1.00  0.00    -0.504 OA
ATOM     21  H   UNL     1       8.376 -10.781  28.414  1.00  0.00     0.293 HD
ENDBRANCH  17  20
ENDBRANCH   1  12
BRANCH   2  22
ATOM     22  O   UNL     1      13.034 -12.450  26.612  1.00  0.00    -0.502 OA
ATOM     23  H   UNL     1      13.151 -12.762  25.656  1.00  0.00     0.293 HD
ENDBRANCH   2  22
BRANCH   6  24
ATOM     24  O   UNL     1      15.465 -17.124  27.395  1.00  0.00    -0.507 OA
ATOM     25  H   UNL     1      14.762 -17.583  26.836  1.00  0.00     0.293 HD
ENDBRANCH   6  24
BRANCH   8  26
ATOM     26  O   UNL     1      15.822 -17.125  32.167  1.00  0.00    -0.508 OA
ATOM     27  H   UNL     1      16.619 -16.779  32.690  1.00  0.00     0.293 HD
ENDBRANCH   8  26
TORSDOF 6
ENDMDL
