MODEL 1
REMARK VINA RESULT:    -4.574      0.000      0.000
REMARK INTER + INTRA:          -5.959
REMARK INTER:                  -5.510
REMARK INTRA:                  -0.449
REMARK UNBOUND:                -0.449
REMARK SMILES O=c1ccn([C@@H]2O[C@@H](CO)[C@H](O)[C@H]2O)c(=O)[nH]1
REMARK SMILES IDX 6 1 13 2 11 3 8 4 7 5 5 6 3 7 4 8 2 9 17 10 1 11 15 12 16 14
REMARK SMILES IDX 14 15 12 17 9 19 10 20
REMARK H PARENT 17 13 14 16 12 18 10 21
REMARK Flexibility Score: inf
ROOT
ATOM      1  C   UNL     1       9.063  11.576  10.683  1.00  0.00     0.255 C 
ATOM      2  C   UNL     1       7.708  12.214  10.382  1.00  0.00     0.196 C 
ATOM      3  C   UNL     1       6.820  11.589  11.426  1.00  0.00     0.179 C 
ATOM      4  C   UNL     1       7.490  10.230  11.650  1.00  0.00     0.178 C 
ATOM      5  O   UNL     1       8.849  10.308  11.267  1.00  0.00    -0.347 OA
ENDROOT
BRANCH   1   6
ATOM      6  N   UNL     1       9.885  11.462   9.460  1.00  0.00    -0.271 N 
ATOM      7  C   UNL     1      10.733  10.088   7.686  1.00  0.00     0.090 A 
ATOM      8  C   UNL     1       9.957  10.249   8.831  1.00  0.00     0.099 A 
ATOM      9  C   UNL     1      11.444  11.181   7.203  1.00  0.00     0.253 A 
ATOM     10  N   UNL     1      11.374  12.372   7.851  1.00  0.00    -0.274 N 
ATOM     11  O   UNL     1      12.154  11.064   6.168  1.00  0.00    -0.269 OA
ATOM     12  C   UNL     1      10.613  12.520   8.972  1.00  0.00     0.330 A 
ATOM     13  H   UNL     1      11.919  13.188   7.487  1.00  0.00     0.175 HD
ATOM     14  O   UNL     1      10.593  13.639   9.554  1.00  0.00    -0.248 OA
ENDBRANCH   1   6
BRANCH   2  15
ATOM     15  O   UNL     1       7.738  13.618  10.458  1.00  0.00    -0.386 OA
ATOM     16  H   UNL     1       7.033  13.914  11.093  1.00  0.00     0.211 HD
ENDBRANCH   2  15
BRANCH   3  17
ATOM     17  O   UNL     1       5.511  11.448  10.940  1.00  0.00    -0.387 OA
ATOM     18  H   UNL     1       5.274  12.314  10.516  1.00  0.00     0.211 HD
ENDBRANCH   3  17
BRANCH   4  19
ATOM     19  C   UNL     1       7.385   9.776  13.108  1.00  0.00     0.191 C 
BRANCH  19  20
ATOM     20  O   UNL     1       7.106   8.404  13.155  1.00  0.00    -0.394 OA
ATOM     21  H   UNL     1       6.430   8.237  12.447  1.00  0.00     0.210 HD
ENDBRANCH  19  20
ENDBRANCH   4  19
TORSDOF 5
ENDMDL
MODEL 2
REMARK VINA RESULT:    -4.310      9.365     12.241
REMARK INTER + INTRA:          -5.640
REMARK INTER:                  -5.046
REMARK INTRA:                  -0.594
REMARK UNBOUND:                -0.449
REMARK SMILES O=c1ccn([C@@H]2O[C@@H](CO)[C@H](O)[C@H]2O)c(=O)[nH]1
REMARK SMILES IDX 6 1 13 2 11 3 8 4 7 5 5 6 3 7 4 8 2 9 17 10 1 11 15 12 16 14
REMARK SMILES IDX 14 15 12 17 9 19 10 20
REMARK H PARENT 17 13 14 16 12 18 10 21
REMARK Flexibility Score: inf
ROOT
ATOM      1  C   UNL     1      13.455  20.797   5.278  1.00  0.00     0.255 C 
ATOM      2  C   UNL     1      14.380  19.582   5.255  1.00  0.00     0.196 C 
ATOM      3  C   UNL     1      15.162  19.798   3.985  1.00  0.00     0.179 C 
ATOM      4  C   UNL     1      14.163  20.570   3.117  1.00  0.00     0.178 C 
ATOM      5  O   UNL     1      13.218  21.214   3.950  1.00  0.00    -0.347 OA
ENDROOT
BRANCH   1   6
ATOM      6  N   UNL     1      12.185  20.488   5.968  1.00  0.00    -0.271 N 
ATOM      7  C   UNL     1      10.069  19.357   5.952  1.00  0.00     0.090 A 
ATOM      8  C   UNL     1      11.287  19.662   5.350  1.00  0.00     0.099 A 
ATOM      9  C   UNL     1       9.779  19.920   7.190  1.00  0.00     0.253 A 
ATOM     10  N   UNL     1      10.674  20.752   7.781  1.00  0.00    -0.274 N 
ATOM     11  O   UNL     1       8.684  19.662   7.759  1.00  0.00    -0.269 OA
ATOM     12  C   UNL     1      11.863  21.046   7.183  1.00  0.00     0.330 A 
ATOM     13  H   UNL     1      10.445  21.180   8.708  1.00  0.00     0.175 HD
ATOM     14  O   UNL     1      12.657  21.840   7.758  1.00  0.00    -0.248 OA
ENDBRANCH   1   6
BRANCH   2  15
ATOM     15  O   UNL     1      15.201  19.499   6.394  1.00  0.00    -0.386 OA
ATOM     16  H   UNL     1      14.810  20.071   7.106  1.00  0.00     0.211 HD
ENDBRANCH   2  15
BRANCH   3  17
ATOM     17  O   UNL     1      15.511  18.568   3.404  1.00  0.00    -0.387 OA
ATOM     18  H   UNL     1      15.147  17.864   4.002  1.00  0.00     0.211 HD
ENDBRANCH   3  17
BRANCH   4  19
ATOM     19  C   UNL     1      14.860  21.601   2.226  1.00  0.00     0.191 C 
BRANCH  19  20
ATOM     20  O   UNL     1      16.189  21.216   2.010  1.00  0.00    -0.394 OA
ATOM     21  H   UNL     1      16.154  20.444   1.387  1.00  0.00     0.210 HD
ENDBRANCH  19  20
ENDBRANCH   4  19
TORSDOF 5
ENDMDL
MODEL 3
REMARK VINA RESULT:    -4.298      1.902      5.499
REMARK INTER + INTRA:          -5.625
REMARK INTER:                  -5.275
REMARK INTRA:                  -0.350
REMARK UNBOUND:                -0.449
REMARK SMILES O=c1ccn([C@@H]2O[C@@H](CO)[C@H](O)[C@H]2O)c(=O)[nH]1
REMARK SMILES IDX 6 1 13 2 11 3 8 4 7 5 5 6 3 7 4 8 2 9 17 10 1 11 15 12 16 14
REMARK SMILES IDX 14 15 12 17 9 19 10 20
REMARK H PARENT 17 13 14 16 12 18 10 21
REMARK Flexibility Score: inf
ROOT
ATOM      1  C   UNL     1       8.708  11.754   9.177  1.00  0.00     0.255 C 
ATOM      2  C   UNL     1       9.232  13.083   9.718  1.00  0.00     0.196 C 
ATOM      3  C   UNL     1      10.353  13.400   8.763  1.00  0.00     0.179 C 
ATOM      4  C   UNL     1      10.818  12.005   8.335  1.00  0.00     0.178 C 
ATOM      5  O   UNL     1       9.765  11.080   8.527  1.00  0.00    -0.347 OA
ENDROOT
BRANCH   1   6
ATOM      6  N   UNL     1       8.137  10.923  10.257  1.00  0.00    -0.271 N 
ATOM      7  C   UNL     1       8.132  10.302  12.574  1.00  0.00     0.090 A 
ATOM      8  C   UNL     1       8.625  11.075  11.527  1.00  0.00     0.099 A 
ATOM      9  C   UNL     1       7.143   9.363  12.302  1.00  0.00     0.253 A 
ATOM     10  N   UNL     1       6.684   9.214  11.033  1.00  0.00    -0.274 N 
ATOM     11  O   UNL     1       6.678   8.649  13.231  1.00  0.00    -0.269 OA
ATOM     12  C   UNL     1       7.173   9.974  10.014  1.00  0.00     0.330 A 
ATOM     13  H   UNL     1       5.946   8.499  10.833  1.00  0.00     0.175 HD
ATOM     14  O   UNL     1       6.732   9.789   8.846  1.00  0.00    -0.248 OA
ENDBRANCH   1   6
BRANCH   2  15
ATOM     15  O   UNL     1       8.245  14.085   9.754  1.00  0.00    -0.386 OA
ATOM     16  H   UNL     1       7.389  13.673  10.047  1.00  0.00     0.211 HD
ENDBRANCH   2  15
BRANCH   3  17
ATOM     17  O   UNL     1      11.373  14.109   9.416  1.00  0.00    -0.387 OA
ATOM     18  H   UNL     1      12.142  13.484   9.494  1.00  0.00     0.211 HD
ENDBRANCH   3  17
BRANCH   4  19
ATOM     19  C   UNL     1      11.274  11.978   6.874  1.00  0.00     0.191 C 
BRANCH  19  20
ATOM     20  O   UNL     1      12.477  11.268   6.769  1.00  0.00    -0.394 OA
ATOM     21  H   UNL     1      13.126  11.888   6.343  1.00  0.00     0.210 HD
ENDBRANCH  19  20
ENDBRANCH   4  19
TORSDOF 5
ENDMDL
MODEL 4
REMARK VINA RESULT:    -4.284      1.750      5.591
REMARK INTER + INTRA:          -5.609
REMARK INTER:                  -4.953
REMARK INTRA:                  -0.656
REMARK UNBOUND:                -0.449
REMARK SMILES O=c1ccn([C@@H]2O[C@@H](CO)[C@H](O)[C@H]2O)c(=O)[nH]1
REMARK SMILES IDX 6 1 13 2 11 3 8 4 7 5 5 6 3 7 4 8 2 9 17 10 1 11 15 12 16 14
REMARK SMILES IDX 14 15 12 17 9 19 10 20
REMARK H PARENT 17 13 14 16 12 18 10 21
REMARK Flexibility Score: inf
ROOT
ATOM      1  C   UNL     1       9.337  11.826   8.288  1.00  0.00     0.255 C 
ATOM      2  C   UNL     1      10.842  12.083   8.262  1.00  0.00     0.196 C 
ATOM      3  C   UNL     1      11.197  11.767   6.832  1.00  0.00     0.179 C 
ATOM      4  C   UNL     1      10.147  10.714   6.463  1.00  0.00     0.178 C 
ATOM      5  O   UNL     1       9.024  10.854   7.312  1.00  0.00    -0.347 OA
ENDROOT
BRANCH   1   6
ATOM      6  N   UNL     1       8.892  11.390   9.628  1.00  0.00    -0.271 N 
ATOM      7  C   UNL     1       8.375   9.590  11.127  1.00  0.00     0.090 A 
ATOM      8  C   UNL     1       8.807  10.049   9.886  1.00  0.00     0.099 A 
ATOM      9  C   UNL     1       8.019  10.522  12.096  1.00  0.00     0.253 A 
ATOM     10  N   UNL     1       8.093  11.849  11.816  1.00  0.00    -0.274 N 
ATOM     11  O   UNL     1       7.625  10.135  13.229  1.00  0.00    -0.269 OA
ATOM     12  C   UNL     1       8.515  12.289  10.598  1.00  0.00     0.330 A 
ATOM     13  H   UNL     1       7.815  12.545  12.547  1.00  0.00     0.175 HD
ATOM     14  O   UNL     1       8.550  13.530  10.374  1.00  0.00    -0.248 OA
ENDBRANCH   1   6
BRANCH   2  15
ATOM     15  O   UNL     1      11.177  13.399   8.629  1.00  0.00    -0.386 OA
ATOM     16  H   UNL     1      10.677  14.027   8.044  1.00  0.00     0.211 HD
ENDBRANCH   2  15
BRANCH   3  17
ATOM     17  O   UNL     1      12.500  11.250   6.750  1.00  0.00    -0.387 OA
ATOM     18  H   UNL     1      12.605  10.901   5.826  1.00  0.00     0.211 HD
ENDBRANCH   3  17
BRANCH   4  19
ATOM     19  C   UNL     1       9.712  10.831   5.000  1.00  0.00     0.191 C 
BRANCH  19  20
ATOM     20  O   UNL     1      10.815  10.626   4.163  1.00  0.00    -0.394 OA
ATOM     21  H   UNL     1      11.580  10.418   4.761  1.00  0.00     0.210 HD
ENDBRANCH  19  20
ENDBRANCH   4  19
TORSDOF 5
ENDMDL
MODEL 5
REMARK VINA RESULT:    -4.270      2.551      5.382
REMARK INTER + INTRA:          -5.592
REMARK INTER:                  -5.014
REMARK INTRA:                  -0.578
REMARK UNBOUND:                -0.449
REMARK SMILES O=c1ccn([C@@H]2O[C@@H](CO)[C@H](O)[C@H]2O)c(=O)[nH]1
REMARK SMILES IDX 6 1 13 2 11 3 8 4 7 5 5 6 3 7 4 8 2 9 17 10 1 11 15 12 16 14
REMARK SMILES IDX 14 15 12 17 9 19 10 20
REMARK H PARENT 17 13 14 16 12 18 10 21
REMARK Flexibility Score: inf
ROOT
ATOM      1  C   UNL     1       9.245  11.090  10.473  1.00  0.00     0.255 C 
ATOM      2  C   UNL     1       8.521  11.669   9.258  1.00  0.00     0.196 C 
ATOM      3  C   UNL     1       9.117  13.049   9.158  1.00  0.00     0.179 C 
ATOM      4  C   UNL     1       9.462  13.360  10.617  1.00  0.00     0.178 C 
ATOM      5  O   UNL     1       9.609  12.149  11.333  1.00  0.00    -0.347 OA
ENDROOT
BRANCH   1   6
ATOM      6  N   UNL     1       8.401  10.103  11.178  1.00  0.00    -0.271 N 
ATOM      7  C   UNL     1       6.931   9.604  13.007  1.00  0.00     0.090 A 
ATOM      8  C   UNL     1       7.724  10.502  12.298  1.00  0.00     0.099 A 
ATOM      9  C   UNL     1       6.852   8.289  12.561  1.00  0.00     0.253 A 
ATOM     10  N   UNL     1       7.545   7.907  11.458  1.00  0.00    -0.274 N 
ATOM     11  O   UNL     1       6.141   7.454  13.184  1.00  0.00    -0.269 OA
ATOM     12  C   UNL     1       8.320   8.792  10.771  1.00  0.00     0.330 A 
ATOM     13  H   UNL     1       7.488   6.913  11.134  1.00  0.00     0.175 HD
ATOM     14  O   UNL     1       8.963   8.389   9.763  1.00  0.00    -0.248 OA
ENDBRANCH   1   6
BRANCH   2  15
ATOM     15  O   UNL     1       8.713  10.905   8.093  1.00  0.00    -0.386 OA
ATOM     16  H   UNL     1       9.215  10.082   8.335  1.00  0.00     0.211 HD
ENDBRANCH   2  15
BRANCH   3  17
ATOM     17  O   UNL     1       8.177  13.956   8.643  1.00  0.00    -0.387 OA
ATOM     18  H   UNL     1       7.399  13.932   9.259  1.00  0.00     0.211 HD
ENDBRANCH   3  17
BRANCH   4  19
ATOM     19  C   UNL     1      10.741  14.193  10.736  1.00  0.00     0.191 C 
BRANCH  19  20
ATOM     20  O   UNL     1      11.395  14.231   9.498  1.00  0.00    -0.394 OA
ATOM     21  H   UNL     1      12.208  13.671   9.599  1.00  0.00     0.210 HD
ENDBRANCH  19  20
ENDBRANCH   4  19
TORSDOF 5
ENDMDL
MODEL 6
REMARK VINA RESULT:    -4.233      2.345      4.837
REMARK INTER + INTRA:          -5.548
REMARK INTER:                  -4.852
REMARK INTRA:                  -0.696
REMARK UNBOUND:                -0.449
REMARK SMILES O=c1ccn([C@@H]2O[C@@H](CO)[C@H](O)[C@H]2O)c(=O)[nH]1
REMARK SMILES IDX 6 1 13 2 11 3 8 4 7 5 5 6 3 7 4 8 2 9 17 10 1 11 15 12 16 14
REMARK SMILES IDX 14 15 12 17 9 19 10 20
REMARK H PARENT 17 13 14 16 12 18 10 21
REMARK Flexibility Score: inf
ROOT
ATOM      1  C   UNL     1       8.910  11.662   9.488  1.00  0.00     0.255 C 
ATOM      2  C   UNL     1      10.047  12.368  10.224  1.00  0.00     0.196 C 
ATOM      3  C   UNL     1      10.113  13.696   9.517  1.00  0.00     0.179 C 
ATOM      4  C   UNL     1       9.628  13.337   8.109  1.00  0.00     0.178 C 
ATOM      5  O   UNL     1       8.845  12.160   8.168  1.00  0.00    -0.347 OA
ENDROOT
BRANCH   1   6
ATOM      6  N   UNL     1       9.100  10.196   9.489  1.00  0.00    -0.271 N 
ATOM      7  C   UNL     1       9.874   8.232   8.351  1.00  0.00     0.090 A 
ATOM      8  C   UNL     1       9.691   9.611   8.403  1.00  0.00     0.099 A 
ATOM      9  C   UNL     1       9.433   7.460   9.419  1.00  0.00     0.253 A 
ATOM     10  N   UNL     1       8.833   8.056  10.481  1.00  0.00    -0.274 N 
ATOM     11  O   UNL     1       9.586   6.209   9.399  1.00  0.00    -0.269 OA
ATOM     12  C   UNL     1       8.656   9.406  10.523  1.00  0.00     0.330 A 
ATOM     13  H   UNL     1       8.494   7.468  11.278  1.00  0.00     0.175 HD
ATOM     14  O   UNL     1       8.075   9.917  11.520  1.00  0.00    -0.248 OA
ENDBRANCH   1   6
BRANCH   2  15
ATOM     15  O   UNL     1       9.807  12.495  11.605  1.00  0.00    -0.386 OA
ATOM     16  H   UNL     1       9.991  13.435  11.871  1.00  0.00     0.211 HD
ENDBRANCH   2  15
BRANCH   3  17
ATOM     17  O   UNL     1      11.429  14.184   9.502  1.00  0.00    -0.387 OA
ATOM     18  H   UNL     1      11.755  14.137  10.439  1.00  0.00     0.211 HD
ENDBRANCH   3  17
BRANCH   4  19
ATOM     19  C   UNL     1       8.815  14.472   7.479  1.00  0.00     0.191 C 
BRANCH  19  20
ATOM     20  O   UNL     1       9.092  15.674   8.142  1.00  0.00    -0.394 OA
ATOM     21  H   UNL     1       9.088  16.380   7.444  1.00  0.00     0.210 HD
ENDBRANCH  19  20
ENDBRANCH   4  19
TORSDOF 5
ENDMDL
MODEL 7
REMARK VINA RESULT:    -4.191      2.353      5.734
REMARK INTER + INTRA:          -5.497
REMARK INTER:                  -4.812
REMARK INTRA:                  -0.685
REMARK UNBOUND:                -0.449
REMARK SMILES O=c1ccn([C@@H]2O[C@@H](CO)[C@H](O)[C@H]2O)c(=O)[nH]1
REMARK SMILES IDX 6 1 13 2 11 3 8 4 7 5 5 6 3 7 4 8 2 9 17 10 1 11 15 12 16 14
REMARK SMILES IDX 14 15 12 17 9 19 10 20
REMARK H PARENT 17 13 14 16 12 18 10 21
REMARK Flexibility Score: inf
ROOT
ATOM      1  C   UNL     1       8.077  12.546   9.117  1.00  0.00     0.255 C 
ATOM      2  C   UNL     1       8.965  13.773   9.317  1.00  0.00     0.196 C 
ATOM      3  C   UNL     1      10.280  13.314   8.744  1.00  0.00     0.179 C 
ATOM      4  C   UNL     1      10.235  11.804   8.998  1.00  0.00     0.178 C 
ATOM      5  O   UNL     1       8.888  11.391   9.128  1.00  0.00    -0.347 OA
ENDROOT
BRANCH   1   6
ATOM      6  N   UNL     1       7.031  12.467  10.159  1.00  0.00    -0.271 N 
ATOM      7  C   UNL     1       6.326  11.621  12.290  1.00  0.00     0.090 A 
ATOM      8  C   UNL     1       7.287  11.741  11.289  1.00  0.00     0.099 A 
ATOM      9  C   UNL     1       5.097  12.245  12.111  1.00  0.00     0.253 A 
ATOM     10  N   UNL     1       4.854  12.947  10.975  1.00  0.00    -0.274 N 
ATOM     11  O   UNL     1       4.208  12.154  13.001  1.00  0.00    -0.269 OA
ATOM     12  C   UNL     1       5.800  13.057  10.000  1.00  0.00     0.330 A 
ATOM     13  H   UNL     1       3.923  13.406  10.842  1.00  0.00     0.175 HD
ATOM     14  O   UNL     1       5.525  13.702   8.951  1.00  0.00    -0.248 OA
ENDBRANCH   1   6
BRANCH   2  15
ATOM     15  O   UNL     1       8.461  14.921   8.678  1.00  0.00    -0.386 OA
ATOM     16  H   UNL     1       8.721  14.887   7.720  1.00  0.00     0.211 HD
ENDBRANCH   2  15
BRANCH   3  17
ATOM     17  O   UNL     1      11.351  13.920   9.419  1.00  0.00    -0.387 OA
ATOM     18  H   UNL     1      12.179  13.601   8.974  1.00  0.00     0.211 HD
ENDBRANCH   3  17
BRANCH   4  19
ATOM     19  C   UNL     1      10.915  11.016   7.875  1.00  0.00     0.191 C 
BRANCH  19  20
ATOM     20  O   UNL     1      12.104  11.656   7.504  1.00  0.00    -0.394 OA
ATOM     21  H   UNL     1      12.284  11.379   6.568  1.00  0.00     0.210 HD
ENDBRANCH  19  20
ENDBRANCH   4  19
TORSDOF 5
ENDMDL
MODEL 8
REMARK VINA RESULT:    -4.148      2.394      5.481
REMARK INTER + INTRA:          -5.445
REMARK INTER:                  -4.905
REMARK INTRA:                  -0.540
REMARK UNBOUND:                -0.449
REMARK SMILES O=c1ccn([C@@H]2O[C@@H](CO)[C@H](O)[C@H]2O)c(=O)[nH]1
REMARK SMILES IDX 6 1 13 2 11 3 8 4 7 5 5 6 3 7 4 8 2 9 17 10 1 11 15 12 16 14
REMARK SMILES IDX 14 15 12 17 9 19 10 20
REMARK H PARENT 17 13 14 16 12 18 10 21
REMARK Flexibility Score: inf
ROOT
ATOM      1  C   UNL     1       8.368  12.482  10.236  1.00  0.00     0.255 C 
ATOM      2  C   UNL     1       9.893  12.573  10.193  1.00  0.00     0.196 C 
ATOM      3  C   UNL     1      10.138  13.235   8.862  1.00  0.00     0.179 C 
ATOM      4  C   UNL     1       8.934  12.764   8.040  1.00  0.00     0.178 C 
ATOM      5  O   UNL     1       7.880  12.407   8.913  1.00  0.00    -0.347 OA
ENDROOT
BRANCH   1   6
ATOM      6  N   UNL     1       7.924  11.316  11.029  1.00  0.00    -0.271 N 
ATOM      7  C   UNL     1       7.316   8.996  11.092  1.00  0.00     0.090 A 
ATOM      8  C   UNL     1       7.751  10.118  10.391  1.00  0.00     0.099 A 
ATOM      9  C   UNL     1       7.049   9.122  12.450  1.00  0.00     0.253 A 
ATOM     10  N   UNL     1       7.210  10.322  13.063  1.00  0.00    -0.274 N 
ATOM     11  O   UNL     1       6.654   8.122  13.110  1.00  0.00    -0.269 OA
ATOM     12  C   UNL     1       7.634  11.415  12.369  1.00  0.00     0.330 A 
ATOM     13  H   UNL     1       6.998  10.412  14.084  1.00  0.00     0.175 HD
ATOM     14  O   UNL     1       7.751  12.517  12.973  1.00  0.00    -0.248 OA
ENDBRANCH   1   6
BRANCH   2  15
ATOM     15  O   UNL     1      10.427  13.300  11.272  1.00  0.00    -0.386 OA
ATOM     16  H   UNL     1       9.731  13.373  11.978  1.00  0.00     0.211 HD
ENDBRANCH   2  15
BRANCH   3  17
ATOM     17  O   UNL     1      11.349  12.794   8.307  1.00  0.00    -0.387 OA
ATOM     18  H   UNL     1      11.730  13.568   7.815  1.00  0.00     0.211 HD
ENDBRANCH   3  17
BRANCH   4  19
ATOM     19  C   UNL     1       8.457  13.839   7.060  1.00  0.00     0.191 C 
BRANCH  19  20
ATOM     20  O   UNL     1       8.743  15.109   7.578  1.00  0.00    -0.394 OA
ATOM     21  H   UNL     1       7.939  15.664   7.405  1.00  0.00     0.210 HD
ENDBRANCH  19  20
ENDBRANCH   4  19
TORSDOF 5
ENDMDL
MODEL 9
REMARK VINA RESULT:    -4.142     11.455     13.241
REMARK INTER + INTRA:          -5.438
REMARK INTER:                  -4.784
REMARK INTRA:                  -0.654
REMARK UNBOUND:                -0.449
REMARK SMILES O=c1ccn([C@@H]2O[C@@H](CO)[C@H](O)[C@H]2O)c(=O)[nH]1
REMARK SMILES IDX 6 1 13 2 11 3 8 4 7 5 5 6 3 7 4 8 2 9 17 10 1 11 15 12 16 14
REMARK SMILES IDX 14 15 12 17 9 19 10 20
REMARK H PARENT 17 13 14 16 12 18 10 21
REMARK Flexibility Score: inf
ROOT
ATOM      1  C   UNL     1      13.874  20.960   4.849  1.00  0.00     0.255 C 
ATOM      2  C   UNL     1      14.613  21.588   3.669  1.00  0.00     0.196 C 
ATOM      3  C   UNL     1      14.989  20.382   2.847  1.00  0.00     0.179 C 
ATOM      4  C   UNL     1      15.129  19.293   3.916  1.00  0.00     0.178 C 
ATOM      5  O   UNL     1      14.372  19.655   5.055  1.00  0.00    -0.347 OA
ENDROOT
BRANCH   1   6
ATOM      6  N   UNL     1      14.021  21.780   6.070  1.00  0.00    -0.271 N 
ATOM      7  C   UNL     1      15.186  22.201   8.123  1.00  0.00     0.090 A 
ATOM      8  C   UNL     1      15.020  21.469   6.951  1.00  0.00     0.099 A 
ATOM      9  C   UNL     1      14.308  23.246   8.387  1.00  0.00     0.253 A 
ATOM     10  N   UNL     1      13.311  23.528   7.510  1.00  0.00    -0.274 N 
ATOM     11  O   UNL     1      14.435  23.926   9.442  1.00  0.00    -0.269 OA
ATOM     12  C   UNL     1      13.155  22.806   6.366  1.00  0.00     0.330 A 
ATOM     13  H   UNL     1      12.647  24.310   7.720  1.00  0.00     0.175 HD
ATOM     14  O   UNL     1      12.202  23.089   5.588  1.00  0.00    -0.248 OA
ENDBRANCH   1   6
BRANCH   2  15
ATOM     15  O   UNL     1      13.822  22.508   2.957  1.00  0.00    -0.386 OA
ATOM     16  H   UNL     1      14.424  23.127   2.466  1.00  0.00     0.211 HD
ENDBRANCH   2  15
BRANCH   3  17
ATOM     17  O   UNL     1      16.200  20.603   2.173  1.00  0.00    -0.387 OA
ATOM     18  H   UNL     1      15.960  20.932   1.267  1.00  0.00     0.211 HD
ENDBRANCH   3  17
BRANCH   4  19
ATOM     19  C   UNL     1      14.672  17.926   3.400  1.00  0.00     0.191 C 
BRANCH  19  20
ATOM     20  O   UNL     1      15.465  17.545   2.311  1.00  0.00    -0.394 OA
ATOM     21  H   UNL     1      15.595  16.564   2.396  1.00  0.00     0.210 HD
ENDBRANCH  19  20
ENDBRANCH   4  19
TORSDOF 5
ENDMDL
