MODEL 1
REMARK VINA RESULT:    -6.186      0.000      0.000
REMARK INTER + INTRA:         -10.862
REMARK INTER:                  -9.079
REMARK INTRA:                  -1.783
REMARK UNBOUND:                -1.783
REMARK SMILES O=c1c(O[C@H]2O[C@H](CO)[C@H](O)[C@@H](O)[C@@H]2O)c(-c2ccc(O)c(O)c2)oc2cc(O)cc(O)c12
REMARK SMILES IDX 4 1 3 2 16 3 25 4 2 5 26 6 1 7 33 8 27 9 31 10 28 11 30 12
REMARK SMILES IDX 17 13 18 14 19 15 20 16 24 17 22 18 21 19 23 21 32 23 29 25
REMARK SMILES IDX 5 27 14 28 6 29 12 30 7 31 10 32 15 33 13 35 8 37 9 38 11 40
REMARK H PARENT 21 20 23 22 32 24 29 26 15 34 13 36 9 39 11 41
REMARK Flexibility Score: inf
ROOT
ATOM      1  O   UNL     1     -10.109  33.045   6.964  1.00  0.00    -0.454 OA
ENDROOT
BRANCH   1   2
ATOM      2  C   UNL     1     -10.578  34.261   7.492  1.00  0.00     0.214 A 
ATOM      3  C   UNL     1     -11.106  34.380   8.814  1.00  0.00     0.180 A 
ATOM      4  O   UNL     1     -11.388  35.596   9.275  1.00  0.00    -0.452 OA
ATOM      5  C   UNL     1     -10.575  35.406   6.674  1.00  0.00     0.239 A 
ATOM      6  C   UNL     1     -11.293  36.709   8.565  1.00  0.00     0.146 A 
ATOM      7  O   UNL     1     -10.318  35.291   5.446  1.00  0.00    -0.285 OA
ATOM      8  C   UNL     1     -10.906  36.663   7.212  1.00  0.00     0.111 A 
ATOM      9  C   UNL     1     -11.618  37.927   9.167  1.00  0.00     0.094 A 
ATOM     10  C   UNL     1     -10.879  37.867   6.460  1.00  0.00     0.134 A 
ATOM     11  C   UNL     1     -11.605  39.108   8.423  1.00  0.00     0.123 A 
ATOM     12  C   UNL     1     -11.238  39.075   7.073  1.00  0.00     0.093 A 
BRANCH   3  13
ATOM     13  C   UNL     1     -11.448  33.242   9.738  1.00  0.00     0.025 A 
ATOM     14  C   UNL     1     -12.652  32.515   9.692  1.00  0.00     0.016 A 
ATOM     15  C   UNL     1     -12.917  31.495  10.612  1.00  0.00     0.051 A 
ATOM     16  C   UNL     1     -11.985  31.176  11.600  1.00  0.00     0.157 A 
ATOM     17  C   UNL     1     -10.507  32.884  10.732  1.00  0.00     0.062 A 
ATOM     18  C   UNL     1     -10.775  31.868  11.655  1.00  0.00     0.158 A 
BRANCH  16  19
ATOM     19  O   UNL     1     -12.247  30.159  12.518  1.00  0.00    -0.504 OA
ATOM     20  H   UNL     1     -12.971  29.470  12.350  1.00  0.00     0.293 HD
ENDBRANCH  16  19
BRANCH  18  21
ATOM     21  O   UNL     1      -9.828  31.523  12.620  1.00  0.00    -0.504 OA
ATOM     22  H   UNL     1      -9.417  32.218  13.234  1.00  0.00     0.293 HD
ENDBRANCH  18  21
ENDBRANCH   3  13
BRANCH  10  23
ATOM     23  O   UNL     1     -10.499  37.867   5.118  1.00  0.00    -0.507 OA
ATOM     24  H   UNL     1     -10.747  37.110   4.496  1.00  0.00     0.293 HD
ENDBRANCH  10  23
BRANCH  11  25
ATOM     25  O   UNL     1     -11.983  40.300   9.032  1.00  0.00    -0.508 OA
ATOM     26  H   UNL     1     -12.289  41.099   8.496  1.00  0.00     0.293 HD
ENDBRANCH  11  25
ENDBRANCH   1   2
BRANCH   1  27
ATOM     27  C   UNL     1      -8.822  32.486   7.295  1.00  0.00     0.339 C 
ATOM     28  C   UNL     1      -7.715  32.901   6.289  1.00  0.00     0.214 C 
ATOM     29  O   UNL     1      -8.898  31.073   7.397  1.00  0.00    -0.332 OA
ATOM     30  C   UNL     1      -7.905  32.210   4.919  1.00  0.00     0.180 C 
ATOM     31  C   UNL     1      -9.272  30.482   6.159  1.00  0.00     0.179 C 
ATOM     32  C   UNL     1      -8.171  30.692   5.097  1.00  0.00     0.177 C 
BRANCH  28  33
ATOM     33  O   UNL     1      -6.429  32.669   6.816  1.00  0.00    -0.384 OA
ATOM     34  H   UNL     1      -6.008  33.539   7.044  1.00  0.00     0.211 HD
ENDBRANCH  28  33
BRANCH  30  35
ATOM     35  O   UNL     1      -8.951  32.869   4.235  1.00  0.00    -0.387 OA
ATOM     36  H   UNL     1      -8.596  33.249   3.390  1.00  0.00     0.211 HD
ENDBRANCH  30  35
BRANCH  31  37
ATOM     37  C   UNL     1      -9.558  28.991   6.378  1.00  0.00     0.191 C 
BRANCH  37  38
ATOM     38  O   UNL     1      -8.600  28.454   7.242  1.00  0.00    -0.394 OA
ATOM     39  H   UNL     1      -8.055  27.830   6.697  1.00  0.00     0.210 HD
ENDBRANCH  37  38
ENDBRANCH  31  37
BRANCH  32  40
ATOM     40  O   UNL     1      -6.979  30.045   5.473  1.00  0.00    -0.387 OA
ATOM     41  H   UNL     1      -6.878  30.161   6.454  1.00  0.00     0.211 HD
ENDBRANCH  32  40
ENDBRANCH   1  27
TORSDOF 12
ENDMDL
MODEL 2
REMARK VINA RESULT:    -6.036      2.460      5.442
REMARK INTER + INTRA:         -10.642
REMARK INTER:                  -9.314
REMARK INTRA:                  -1.328
REMARK UNBOUND:                -1.783
REMARK SMILES O=c1c(O[C@H]2O[C@H](CO)[C@H](O)[C@@H](O)[C@@H]2O)c(-c2ccc(O)c(O)c2)oc2cc(O)cc(O)c12
REMARK SMILES IDX 4 1 3 2 16 3 25 4 2 5 26 6 1 7 33 8 27 9 31 10 28 11 30 12
REMARK SMILES IDX 17 13 18 14 19 15 20 16 24 17 22 18 21 19 23 21 32 23 29 25
REMARK SMILES IDX 5 27 14 28 6 29 12 30 7 31 10 32 15 33 13 35 8 37 9 38 11 40
REMARK H PARENT 21 20 23 22 32 24 29 26 15 34 13 36 9 39 11 41
REMARK Flexibility Score: inf
ROOT
ATOM      1  O   UNL     1      -9.759  31.064   7.556  1.00  0.00    -0.454 OA
ENDROOT
BRANCH   1   2
ATOM      2  C   UNL     1      -9.331  32.343   7.158  1.00  0.00     0.214 A 
ATOM      3  C   UNL     1      -8.103  32.568   6.464  1.00  0.00     0.180 A 
ATOM      4  O   UNL     1      -7.853  33.790   6.000  1.00  0.00    -0.452 OA
ATOM      5  C   UNL     1     -10.116  33.461   7.494  1.00  0.00     0.239 A 
ATOM      6  C   UNL     1      -8.627  34.844   6.207  1.00  0.00     0.146 A 
ATOM      7  O   UNL     1     -11.088  33.322   8.284  1.00  0.00    -0.285 OA
ATOM      8  C   UNL     1      -9.788  34.734   6.994  1.00  0.00     0.111 A 
ATOM      9  C   UNL     1      -8.253  36.076   5.664  1.00  0.00     0.094 A 
ATOM     10  C   UNL     1     -10.560  35.898   7.252  1.00  0.00     0.134 A 
ATOM     11  C   UNL     1      -9.003  37.221   5.931  1.00  0.00     0.123 A 
ATOM     12  C   UNL     1     -10.152  37.131   6.724  1.00  0.00     0.093 A 
BRANCH   3  13
ATOM     13  C   UNL     1      -7.006  31.559   6.255  1.00  0.00     0.025 A 
ATOM     14  C   UNL     1      -7.127  30.405   5.459  1.00  0.00     0.016 A 
ATOM     15  C   UNL     1      -6.075  29.490   5.345  1.00  0.00     0.051 A 
ATOM     16  C   UNL     1      -4.875  29.707   6.025  1.00  0.00     0.157 A 
ATOM     17  C   UNL     1      -5.771  31.770   6.915  1.00  0.00     0.062 A 
ATOM     18  C   UNL     1      -4.722  30.852   6.806  1.00  0.00     0.158 A 
BRANCH  16  19
ATOM     19  O   UNL     1      -3.824  28.796   5.912  1.00  0.00    -0.504 OA
ATOM     20  H   UNL     1      -2.963  28.916   6.432  1.00  0.00     0.293 HD
ENDBRANCH  16  19
BRANCH  18  21
ATOM     21  O   UNL     1      -3.510  31.085   7.454  1.00  0.00    -0.504 OA
ATOM     22  H   UNL     1      -3.414  30.973   8.459  1.00  0.00     0.293 HD
ENDBRANCH  18  21
ENDBRANCH   3  13
BRANCH  10  23
ATOM     23  O   UNL     1     -11.720  35.834   8.025  1.00  0.00    -0.507 OA
ATOM     24  H   UNL     1     -11.730  35.390   8.932  1.00  0.00     0.293 HD
ENDBRANCH  10  23
BRANCH  11  25
ATOM     25  O   UNL     1      -8.581  38.445   5.422  1.00  0.00    -0.508 OA
ATOM     26  H   UNL     1      -9.042  38.884   4.639  1.00  0.00     0.293 HD
ENDBRANCH  11  25
ENDBRANCH   1   2
BRANCH   1  27
ATOM     27  C   UNL     1     -10.615  30.232   6.747  1.00  0.00     0.339 C 
ATOM     28  C   UNL     1     -11.973  29.927   7.432  1.00  0.00     0.214 C 
ATOM     29  O   UNL     1      -9.954  29.027   6.392  1.00  0.00    -0.332 OA
ATOM     30  C   UNL     1     -11.802  28.962   8.628  1.00  0.00     0.180 C 
ATOM     31  C   UNL     1      -9.631  28.253   7.541  1.00  0.00     0.179 C 
ATOM     32  C   UNL     1     -10.914  27.751   8.239  1.00  0.00     0.177 C 
BRANCH  28  33
ATOM     33  O   UNL     1     -12.919  29.445   6.505  1.00  0.00    -0.384 OA
ATOM     34  H   UNL     1     -13.331  30.213   6.030  1.00  0.00     0.211 HD
ENDBRANCH  28  33
BRANCH  30  35
ATOM     35  O   UNL     1     -11.274  29.696   9.714  1.00  0.00    -0.387 OA
ATOM     36  H   UNL     1     -11.452  30.661   9.569  1.00  0.00     0.211 HD
ENDBRANCH  30  35
BRANCH  31  37
ATOM     37  C   UNL     1      -8.729  27.085   7.125  1.00  0.00     0.191 C 
BRANCH  37  38
ATOM     38  O   UNL     1      -7.460  27.251   7.689  1.00  0.00    -0.394 OA
ATOM     39  H   UNL     1      -7.024  27.979   7.176  1.00  0.00     0.210 HD
ENDBRANCH  37  38
ENDBRANCH  31  37
BRANCH  32  40
ATOM     40  O   UNL     1     -11.638  26.885   7.398  1.00  0.00    -0.387 OA
ATOM     41  H   UNL     1     -11.067  26.091   7.230  1.00  0.00     0.211 HD
ENDBRANCH  32  40
ENDBRANCH   1  27
TORSDOF 12
ENDMDL
MODEL 3
REMARK VINA RESULT:    -5.918      1.971      5.277
REMARK INTER + INTRA:         -10.469
REMARK INTER:                  -9.146
REMARK INTRA:                  -1.323
REMARK UNBOUND:                -1.783
REMARK SMILES O=c1c(O[C@H]2O[C@H](CO)[C@H](O)[C@@H](O)[C@@H]2O)c(-c2ccc(O)c(O)c2)oc2cc(O)cc(O)c12
REMARK SMILES IDX 4 1 3 2 16 3 25 4 2 5 26 6 1 7 33 8 27 9 31 10 28 11 30 12
REMARK SMILES IDX 17 13 18 14 19 15 20 16 24 17 22 18 21 19 23 21 32 23 29 25
REMARK SMILES IDX 5 27 14 28 6 29 12 30 7 31 10 32 15 33 13 35 8 37 9 38 11 40
REMARK H PARENT 21 20 23 22 32 24 29 26 15 34 13 36 9 39 11 41
REMARK Flexibility Score: inf
ROOT
ATOM      1  O   UNL     1     -10.888  32.497   7.358  1.00  0.00    -0.454 OA
ENDROOT
BRANCH   1   2
ATOM      2  C   UNL     1     -10.178  33.687   7.113  1.00  0.00     0.214 A 
ATOM      3  C   UNL     1      -8.905  33.710   6.466  1.00  0.00     0.180 A 
ATOM      4  O   UNL     1      -8.379  34.890   6.147  1.00  0.00    -0.452 OA
ATOM      5  C   UNL     1     -10.714  34.907   7.564  1.00  0.00     0.239 A 
ATOM      6  C   UNL     1      -8.913  36.059   6.462  1.00  0.00     0.146 A 
ATOM      7  O   UNL     1     -11.723  34.900   8.320  1.00  0.00    -0.285 OA
ATOM      8  C   UNL     1     -10.100  36.123   7.216  1.00  0.00     0.111 A 
ATOM      9  C   UNL     1      -8.261  37.230   6.068  1.00  0.00     0.094 A 
ATOM     10  C   UNL     1     -10.611  37.393   7.594  1.00  0.00     0.134 A 
ATOM     11  C   UNL     1      -8.755  38.477   6.452  1.00  0.00     0.123 A 
ATOM     12  C   UNL     1      -9.926  38.556   7.215  1.00  0.00     0.093 A 
BRANCH   3  13
ATOM     13  C   UNL     1      -8.045  32.513   6.159  1.00  0.00     0.025 A 
ATOM     14  C   UNL     1      -8.452  31.422   5.369  1.00  0.00     0.016 A 
ATOM     15  C   UNL     1      -7.610  30.325   5.161  1.00  0.00     0.051 A 
ATOM     16  C   UNL     1      -6.340  30.290   5.738  1.00  0.00     0.157 A 
ATOM     17  C   UNL     1      -6.743  32.467   6.714  1.00  0.00     0.062 A 
ATOM     18  C   UNL     1      -5.904  31.367   6.511  1.00  0.00     0.158 A 
BRANCH  16  19
ATOM     19  O   UNL     1      -5.499  29.197   5.531  1.00  0.00    -0.504 OA
ATOM     20  H   UNL     1      -5.518  28.671   4.665  1.00  0.00     0.293 HD
ENDBRANCH  16  19
BRANCH  18  21
ATOM     21  O   UNL     1      -4.621  31.347   7.056  1.00  0.00    -0.504 OA
ATOM     22  H   UNL     1      -4.434  31.701   7.989  1.00  0.00     0.293 HD
ENDBRANCH  18  21
ENDBRANCH   3  13
BRANCH  10  23
ATOM     23  O   UNL     1     -11.785  37.502   8.338  1.00  0.00    -0.507 OA
ATOM     24  H   UNL     1     -12.685  37.628   7.895  1.00  0.00     0.293 HD
ENDBRANCH  10  23
BRANCH  11  25
ATOM     25  O   UNL     1      -8.059  39.626   6.092  1.00  0.00    -0.508 OA
ATOM     26  H   UNL     1      -8.032  39.955   5.138  1.00  0.00     0.293 HD
ENDBRANCH  11  25
ENDBRANCH   1   2
BRANCH   1  27
ATOM     27  C   UNL     1     -10.498  31.540   8.363  1.00  0.00     0.339 C 
ATOM     28  C   UNL     1     -10.980  30.101   8.037  1.00  0.00     0.214 C 
ATOM     29  O   UNL     1     -10.958  31.941   9.645  1.00  0.00    -0.332 OA
ATOM     30  C   UNL     1     -12.513  29.967   8.193  1.00  0.00     0.180 C 
ATOM     31  C   UNL     1     -12.378  31.999   9.692  1.00  0.00     0.179 C 
ATOM     32  C   UNL     1     -12.989  30.590   9.532  1.00  0.00     0.177 C 
BRANCH  28  33
ATOM     33  O   UNL     1     -10.292  29.142   8.806  1.00  0.00    -0.384 OA
ATOM     34  H   UNL     1     -10.189  28.310   8.273  1.00  0.00     0.211 HD
ENDBRANCH  28  33
BRANCH  30  35
ATOM     35  O   UNL     1     -13.125  30.565   7.068  1.00  0.00    -0.387 OA
ATOM     36  H   UNL     1     -12.466  31.152   6.614  1.00  0.00     0.211 HD
ENDBRANCH  30  35
BRANCH  31  37
ATOM     37  C   UNL     1     -12.812  32.648  11.013  1.00  0.00     0.191 C 
BRANCH  37  38
ATOM     38  O   UNL     1     -12.608  34.029  10.944  1.00  0.00    -0.394 OA
ATOM     39  H   UNL     1     -13.148  34.349  10.176  1.00  0.00     0.210 HD
ENDBRANCH  37  38
ENDBRANCH  31  37
BRANCH  32  40
ATOM     40  O   UNL     1     -12.615  29.755  10.600  1.00  0.00    -0.387 OA
ATOM     41  H   UNL     1     -11.817  29.242  10.309  1.00  0.00     0.211 HD
ENDBRANCH  32  40
ENDBRANCH   1  27
TORSDOF 12
ENDMDL
MODEL 4
REMARK VINA RESULT:    -5.756     15.586     18.005
REMARK INTER + INTRA:         -10.231
REMARK INTER:                  -8.469
REMARK INTRA:                  -1.762
REMARK UNBOUND:                -1.783
REMARK SMILES O=c1c(O[C@H]2O[C@H](CO)[C@H](O)[C@@H](O)[C@@H]2O)c(-c2ccc(O)c(O)c2)oc2cc(O)cc(O)c12
REMARK SMILES IDX 4 1 3 2 16 3 25 4 2 5 26 6 1 7 33 8 27 9 31 10 28 11 30 12
REMARK SMILES IDX 17 13 18 14 19 15 20 16 24 17 22 18 21 19 23 21 32 23 29 25
REMARK SMILES IDX 5 27 14 28 6 29 12 30 7 31 10 32 15 33 13 35 8 37 9 38 11 40
REMARK H PARENT 21 20 23 22 32 24 29 26 15 34 13 36 9 39 11 41
REMARK Flexibility Score: inf
ROOT
ATOM      1  O   UNL     1       3.561  44.509   1.713  1.00  0.00    -0.454 OA
ENDROOT
BRANCH   1   2
ATOM      2  C   UNL     1       2.692  45.017   2.695  1.00  0.00     0.214 A 
ATOM      3  C   UNL     1       1.272  45.019   2.548  1.00  0.00     0.180 A 
ATOM      4  O   UNL     1       0.528  45.385   3.590  1.00  0.00    -0.452 OA
ATOM      5  C   UNL     1       3.239  45.595   3.856  1.00  0.00     0.239 A 
ATOM      6  C   UNL     1       1.013  45.832   4.737  1.00  0.00     0.146 A 
ATOM      7  O   UNL     1       4.480  45.802   3.922  1.00  0.00    -0.285 OA
ATOM      8  C   UNL     1       2.401  45.986   4.915  1.00  0.00     0.111 A 
ATOM      9  C   UNL     1       0.125  46.184   5.757  1.00  0.00     0.094 A 
ATOM     10  C   UNL     1       2.884  46.531   6.134  1.00  0.00     0.134 A 
ATOM     11  C   UNL     1       0.599  46.733   6.948  1.00  0.00     0.123 A 
ATOM     12  C   UNL     1       1.975  46.908   7.134  1.00  0.00     0.093 A 
BRANCH   3  13
ATOM     13  C   UNL     1       0.511  44.706   1.288  1.00  0.00     0.025 A 
ATOM     14  C   UNL     1       0.373  45.590   0.202  1.00  0.00     0.016 A 
ATOM     15  C   UNL     1      -0.385  45.245  -0.922  1.00  0.00     0.051 A 
ATOM     16  C   UNL     1      -1.025  44.005  -0.988  1.00  0.00     0.157 A 
ATOM     17  C   UNL     1      -0.126  43.446   1.187  1.00  0.00     0.062 A 
ATOM     18  C   UNL     1      -0.889  43.103   0.067  1.00  0.00     0.158 A 
BRANCH  16  19
ATOM     19  O   UNL     1      -1.781  43.659  -2.107  1.00  0.00    -0.504 OA
ATOM     20  H   UNL     1      -2.779  43.497  -2.041  1.00  0.00     0.293 HD
ENDBRANCH  16  19
BRANCH  18  21
ATOM     21  O   UNL     1      -1.497  41.851  -0.017  1.00  0.00    -0.504 OA
ATOM     22  H   UNL     1      -2.488  41.753  -0.214  1.00  0.00     0.293 HD
ENDBRANCH  18  21
ENDBRANCH   3  13
BRANCH  10  23
ATOM     23  O   UNL     1       4.251  46.699   6.354  1.00  0.00    -0.507 OA
ATOM     24  H   UNL     1       4.737  47.537   6.066  1.00  0.00     0.293 HD
ENDBRANCH  10  23
BRANCH  11  25
ATOM     25  O   UNL     1      -0.308  47.125   7.927  1.00  0.00    -0.508 OA
ATOM     26  H   UNL     1      -0.975  46.480   8.324  1.00  0.00     0.293 HD
ENDBRANCH  11  25
ENDBRANCH   1   2
BRANCH   1  27
ATOM     27  C   UNL     1       3.758  43.098   1.489  1.00  0.00     0.339 C 
ATOM     28  C   UNL     1       5.251  42.731   1.273  1.00  0.00     0.214 C 
ATOM     29  O   UNL     1       2.971  42.647   0.399  1.00  0.00    -0.332 OA
ATOM     30  C   UNL     1       5.768  43.241  -0.092  1.00  0.00     0.180 C 
ATOM     31  C   UNL     1       3.345  43.289  -0.814  1.00  0.00     0.179 C 
ATOM     32  C   UNL     1       4.775  42.882  -1.229  1.00  0.00     0.177 C 
BRANCH  28  33
ATOM     33  O   UNL     1       5.467  41.348   1.428  1.00  0.00    -0.384 OA
ATOM     34  H   UNL     1       5.204  41.078   2.347  1.00  0.00     0.211 HD
ENDBRANCH  28  33
BRANCH  30  35
ATOM     35  O   UNL     1       5.994  44.632   0.013  1.00  0.00    -0.387 OA
ATOM     36  H   UNL     1       5.769  45.063  -0.852  1.00  0.00     0.211 HD
ENDBRANCH  30  35
BRANCH  31  37
ATOM     37  C   UNL     1       2.326  42.939  -1.905  1.00  0.00     0.191 C 
BRANCH  37  38
ATOM     38  O   UNL     1       1.763  41.688  -1.634  1.00  0.00    -0.394 OA
ATOM     39  H   UNL     1       2.523  41.062  -1.523  1.00  0.00     0.210 HD
ENDBRANCH  37  38
ENDBRANCH  31  37
BRANCH  32  40
ATOM     40  O   UNL     1       4.847  41.503  -1.501  1.00  0.00    -0.387 OA
ATOM     41  H   UNL     1       5.521  41.116  -0.884  1.00  0.00     0.211 HD
ENDBRANCH  32  40
ENDBRANCH   1  27
TORSDOF 12
ENDMDL
MODEL 5
REMARK VINA RESULT:    -5.708      2.028      3.045
REMARK INTER + INTRA:         -10.160
REMARK INTER:                  -9.816
REMARK INTRA:                  -0.344
REMARK UNBOUND:                -1.783
REMARK SMILES O=c1c(O[C@H]2O[C@H](CO)[C@H](O)[C@@H](O)[C@@H]2O)c(-c2ccc(O)c(O)c2)oc2cc(O)cc(O)c12
REMARK SMILES IDX 4 1 3 2 16 3 25 4 2 5 26 6 1 7 33 8 27 9 31 10 28 11 30 12
REMARK SMILES IDX 17 13 18 14 19 15 20 16 24 17 22 18 21 19 23 21 32 23 29 25
REMARK SMILES IDX 5 27 14 28 6 29 12 30 7 31 10 32 15 33 13 35 8 37 9 38 11 40
REMARK H PARENT 21 20 23 22 32 24 29 26 15 34 13 36 9 39 11 41
REMARK Flexibility Score: inf
ROOT
ATOM      1  O   UNL     1      -8.147  31.791   6.708  1.00  0.00    -0.454 OA
ENDROOT
BRANCH   1   2
ATOM      2  C   UNL     1      -8.925  32.949   6.887  1.00  0.00     0.214 A 
ATOM      3  C   UNL     1     -10.104  32.973   7.693  1.00  0.00     0.180 A 
ATOM      4  O   UNL     1     -10.691  34.145   7.921  1.00  0.00    -0.452 OA
ATOM      5  C   UNL     1      -8.561  34.127   6.210  1.00  0.00     0.239 A 
ATOM      6  C   UNL     1     -10.308  35.293   7.384  1.00  0.00     0.146 A 
ATOM      7  O   UNL     1      -7.659  34.085   5.331  1.00  0.00    -0.285 OA
ATOM      8  C   UNL     1      -9.235  35.333   6.473  1.00  0.00     0.111 A 
ATOM      9  C   UNL     1     -11.009  36.458   7.704  1.00  0.00     0.094 A 
ATOM     10  C   UNL     1      -8.892  36.569   5.864  1.00  0.00     0.134 A 
ATOM     11  C   UNL     1     -10.681  37.669   7.094  1.00  0.00     0.123 A 
ATOM     12  C   UNL     1      -9.627  37.722   6.175  1.00  0.00     0.093 A 
BRANCH   3  13
ATOM     13  C   UNL     1     -10.808  31.774   8.270  1.00  0.00     0.025 A 
ATOM     14  C   UNL     1     -11.082  30.592   7.557  1.00  0.00     0.016 A 
ATOM     15  C   UNL     1     -11.778  29.533   8.149  1.00  0.00     0.051 A 
ATOM     16  C   UNL     1     -12.217  29.629   9.471  1.00  0.00     0.157 A 
ATOM     17  C   UNL     1     -11.241  31.838   9.616  1.00  0.00     0.062 A 
ATOM     18  C   UNL     1     -11.942  30.782  10.206  1.00  0.00     0.158 A 
BRANCH  16  19
ATOM     19  O   UNL     1     -12.911  28.574  10.064  1.00  0.00    -0.504 OA
ATOM     20  H   UNL     1     -13.652  28.740  10.735  1.00  0.00     0.293 HD
ENDBRANCH  16  19
BRANCH  18  21
ATOM     21  O   UNL     1     -12.349  30.861  11.538  1.00  0.00    -0.504 OA
ATOM     22  H   UNL     1     -11.682  31.004  12.290  1.00  0.00     0.293 HD
ENDBRANCH  18  21
ENDBRANCH   3  13
BRANCH  10  23
ATOM     23  O   UNL     1      -7.834  36.655   4.959  1.00  0.00    -0.507 OA
ATOM     24  H   UNL     1      -6.878  36.762   5.268  1.00  0.00     0.293 HD
ENDBRANCH  10  23
BRANCH  11  25
ATOM     25  O   UNL     1     -11.427  38.805   7.390  1.00  0.00    -0.508 OA
ATOM     26  H   UNL     1     -11.283  39.331   8.239  1.00  0.00     0.293 HD
ENDBRANCH  11  25
ENDBRANCH   1   2
BRANCH   1  27
ATOM     27  C   UNL     1      -7.598  31.400   5.434  1.00  0.00     0.339 C 
ATOM     28  C   UNL     1      -8.146  30.035   4.940  1.00  0.00     0.214 C 
ATOM     29  O   UNL     1      -6.179  31.379   5.483  1.00  0.00    -0.332 OA
ATOM     30  C   UNL     1      -7.592  28.863   5.782  1.00  0.00     0.180 C 
ATOM     31  C   UNL     1      -5.706  30.421   6.421  1.00  0.00     0.179 C 
ATOM     32  C   UNL     1      -6.057  28.988   5.964  1.00  0.00     0.177 C 
BRANCH  28  33
ATOM     33  O   UNL     1      -7.901  29.850   3.565  1.00  0.00    -0.384 OA
ATOM     34  H   UNL     1      -7.779  30.735   3.133  1.00  0.00     0.211 HD
ENDBRANCH  28  33
BRANCH  30  35
ATOM     35  O   UNL     1      -8.285  28.839   7.014  1.00  0.00    -0.387 OA
ATOM     36  H   UNL     1      -7.707  28.419   7.702  1.00  0.00     0.211 HD
ENDBRANCH  30  35
BRANCH  31  37
ATOM     37  C   UNL     1      -4.192  30.594   6.599  1.00  0.00     0.191 C 
BRANCH  37  38
ATOM     38  O   UNL     1      -3.918  30.971   7.917  1.00  0.00    -0.394 OA
ATOM     39  H   UNL     1      -3.144  31.588   7.872  1.00  0.00     0.210 HD
ENDBRANCH  37  38
ENDBRANCH  31  37
BRANCH  32  40
ATOM     40  O   UNL     1      -5.411  28.675   4.753  1.00  0.00    -0.387 OA
ATOM     41  H   UNL     1      -5.999  28.985   4.017  1.00  0.00     0.211 HD
ENDBRANCH  32  40
ENDBRANCH   1  27
TORSDOF 12
ENDMDL
MODEL 6
REMARK VINA RESULT:    -5.678     15.236     18.305
REMARK INTER + INTRA:         -10.116
REMARK INTER:                  -8.794
REMARK INTRA:                  -1.322
REMARK UNBOUND:                -1.783
REMARK SMILES O=c1c(O[C@H]2O[C@H](CO)[C@H](O)[C@@H](O)[C@@H]2O)c(-c2ccc(O)c(O)c2)oc2cc(O)cc(O)c12
REMARK SMILES IDX 4 1 3 2 16 3 25 4 2 5 26 6 1 7 33 8 27 9 31 10 28 11 30 12
REMARK SMILES IDX 17 13 18 14 19 15 20 16 24 17 22 18 21 19 23 21 32 23 29 25
REMARK SMILES IDX 5 27 14 28 6 29 12 30 7 31 10 32 15 33 13 35 8 37 9 38 11 40
REMARK H PARENT 21 20 23 22 32 24 29 26 15 34 13 36 9 39 11 41
REMARK Flexibility Score: inf
ROOT
ATOM      1  O   UNL     1       1.997  44.630   0.335  1.00  0.00    -0.454 OA
ENDROOT
BRANCH   1   2
ATOM      2  C   UNL     1       2.791  43.620   0.908  1.00  0.00     0.214 A 
ATOM      3  C   UNL     1       2.599  43.145   2.241  1.00  0.00     0.180 A 
ATOM      4  O   UNL     1       3.302  42.089   2.644  1.00  0.00    -0.452 OA
ATOM      5  C   UNL     1       3.854  43.081   0.160  1.00  0.00     0.239 A 
ATOM      6  C   UNL     1       4.236  41.490   1.923  1.00  0.00     0.146 A 
ATOM      7  O   UNL     1       4.183  43.621  -0.930  1.00  0.00    -0.285 OA
ATOM      8  C   UNL     1       4.579  41.979   0.649  1.00  0.00     0.111 A 
ATOM      9  C   UNL     1       4.903  40.386   2.461  1.00  0.00     0.094 A 
ATOM     10  C   UNL     1       5.630  41.354  -0.071  1.00  0.00     0.134 A 
ATOM     11  C   UNL     1       5.947  39.782   1.760  1.00  0.00     0.123 A 
ATOM     12  C   UNL     1       6.309  40.267   0.498  1.00  0.00     0.093 A 
BRANCH   3  13
ATOM     13  C   UNL     1       1.713  43.770   3.285  1.00  0.00     0.025 A 
ATOM     14  C   UNL     1       0.522  43.194   3.767  1.00  0.00     0.016 A 
ATOM     15  C   UNL     1      -0.272  43.854   4.710  1.00  0.00     0.051 A 
ATOM     16  C   UNL     1       0.104  45.107   5.196  1.00  0.00     0.157 A 
ATOM     17  C   UNL     1       2.086  45.030   3.811  1.00  0.00     0.062 A 
ATOM     18  C   UNL     1       1.289  45.693   4.749  1.00  0.00     0.158 A 
BRANCH  16  19
ATOM     19  O   UNL     1      -0.686  45.767   6.137  1.00  0.00    -0.504 OA
ATOM     20  H   UNL     1      -0.434  45.787   7.118  1.00  0.00     0.293 HD
ENDBRANCH  16  19
BRANCH  18  21
ATOM     21  O   UNL     1       1.683  46.928   5.264  1.00  0.00    -0.504 OA
ATOM     22  H   UNL     1       1.316  47.279   6.143  1.00  0.00     0.293 HD
ENDBRANCH  18  21
ENDBRANCH   3  13
BRANCH  10  23
ATOM     23  O   UNL     1       6.001  41.804  -1.338  1.00  0.00    -0.507 OA
ATOM     24  H   UNL     1       5.325  41.916  -2.081  1.00  0.00     0.293 HD
ENDBRANCH  10  23
BRANCH  11  25
ATOM     25  O   UNL     1       6.630  38.718   2.339  1.00  0.00    -0.508 OA
ATOM     26  H   UNL     1       7.180  38.831   3.178  1.00  0.00     0.293 HD
ENDBRANCH  11  25
ENDBRANCH   1   2
BRANCH   1  27
ATOM     27  C   UNL     1       0.556  44.624   0.389  1.00  0.00     0.339 C 
ATOM     28  C   UNL     1      -0.058  43.324  -0.194  1.00  0.00     0.214 C 
ATOM     29  O   UNL     1       0.024  45.764  -0.267  1.00  0.00    -0.332 OA
ATOM     30  C   UNL     1       0.101  43.260  -1.730  1.00  0.00     0.180 C 
ATOM     31  C   UNL     1       0.363  45.774  -1.648  1.00  0.00     0.179 C 
ATOM     32  C   UNL     1      -0.320  44.601  -2.387  1.00  0.00     0.177 C 
BRANCH  28  33
ATOM     33  O   UNL     1      -1.403  43.170   0.197  1.00  0.00    -0.384 OA
ATOM     34  H   UNL     1      -1.987  43.642  -0.452  1.00  0.00     0.211 HD
ENDBRANCH  28  33
BRANCH  30  35
ATOM     35  O   UNL     1       1.439  42.909  -2.021  1.00  0.00    -0.387 OA
ATOM     36  H   UNL     1       1.535  42.781  -3.001  1.00  0.00     0.211 HD
ENDBRANCH  30  35
BRANCH  31  37
ATOM     37  C   UNL     1      -0.038  47.124  -2.256  1.00  0.00     0.191 C 
BRANCH  37  38
ATOM     38  O   UNL     1      -0.419  46.941  -3.589  1.00  0.00    -0.394 OA
ATOM     39  H   UNL     1      -1.242  46.389  -3.567  1.00  0.00     0.210 HD
ENDBRANCH  37  38
ENDBRANCH  31  37
BRANCH  32  40
ATOM     40  O   UNL     1      -1.720  44.728  -2.345  1.00  0.00    -0.387 OA
ATOM     41  H   UNL     1      -1.956  45.107  -1.459  1.00  0.00     0.211 HD
ENDBRANCH  32  40
ENDBRANCH   1  27
TORSDOF 12
ENDMDL
MODEL 7
REMARK VINA RESULT:    -5.473      1.899      7.856
REMARK INTER + INTRA:          -9.815
REMARK INTER:                  -8.645
REMARK INTRA:                  -1.170
REMARK UNBOUND:                -1.783
REMARK SMILES O=c1c(O[C@H]2O[C@H](CO)[C@H](O)[C@@H](O)[C@@H]2O)c(-c2ccc(O)c(O)c2)oc2cc(O)cc(O)c12
REMARK SMILES IDX 4 1 3 2 16 3 25 4 2 5 26 6 1 7 33 8 27 9 31 10 28 11 30 12
REMARK SMILES IDX 17 13 18 14 19 15 20 16 24 17 22 18 21 19 23 21 32 23 29 25
REMARK SMILES IDX 5 27 14 28 6 29 12 30 7 31 10 32 15 33 13 35 8 37 9 38 11 40
REMARK H PARENT 21 20 23 22 32 24 29 26 15 34 13 36 9 39 11 41
REMARK Flexibility Score: inf
ROOT
ATOM      1  O   UNL     1     -10.660  32.574   7.972  1.00  0.00    -0.454 OA
ENDROOT
BRANCH   1   2
ATOM      2  C   UNL     1      -9.642  31.984   7.201  1.00  0.00     0.214 A 
ATOM      3  C   UNL     1      -8.721  32.747   6.419  1.00  0.00     0.180 A 
ATOM      4  O   UNL     1      -7.705  32.111   5.841  1.00  0.00    -0.452 OA
ATOM      5  C   UNL     1      -9.549  30.581   7.153  1.00  0.00     0.239 A 
ATOM      6  C   UNL     1      -7.527  30.800   5.868  1.00  0.00     0.146 A 
ATOM      7  O   UNL     1     -10.468  29.880   7.655  1.00  0.00    -0.285 OA
ATOM      8  C   UNL     1      -8.463  29.964   6.505  1.00  0.00     0.111 A 
ATOM      9  C   UNL     1      -6.415  30.254   5.221  1.00  0.00     0.094 A 
ATOM     10  C   UNL     1      -8.278  28.558   6.458  1.00  0.00     0.134 A 
ATOM     11  C   UNL     1      -6.242  28.871   5.162  1.00  0.00     0.123 A 
ATOM     12  C   UNL     1      -7.173  28.026   5.778  1.00  0.00     0.093 A 
BRANCH   3  13
ATOM     13  C   UNL     1      -8.820  34.218   6.119  1.00  0.00     0.025 A 
ATOM     14  C   UNL     1      -7.792  34.981   5.534  1.00  0.00     0.016 A 
ATOM     15  C   UNL     1      -7.942  36.356   5.321  1.00  0.00     0.051 A 
ATOM     16  C   UNL     1      -9.124  37.002   5.689  1.00  0.00     0.157 A 
ATOM     17  C   UNL     1     -10.018  34.890   6.459  1.00  0.00     0.062 A 
ATOM     18  C   UNL     1     -10.165  36.265   6.253  1.00  0.00     0.158 A 
BRANCH  16  19
ATOM     19  O   UNL     1      -9.276  38.372   5.477  1.00  0.00    -0.504 OA
ATOM     20  H   UNL     1      -8.631  38.891   4.892  1.00  0.00     0.293 HD
ENDBRANCH  16  19
BRANCH  18  21
ATOM     21  O   UNL     1     -11.359  36.905   6.585  1.00  0.00    -0.504 OA
ATOM     22  H   UNL     1     -12.185  36.827   6.000  1.00  0.00     0.293 HD
ENDBRANCH  18  21
ENDBRANCH   3  13
BRANCH  10  23
ATOM     23  O   UNL     1      -9.179  27.693   7.079  1.00  0.00    -0.507 OA
ATOM     24  H   UNL     1     -10.013  27.369   6.609  1.00  0.00     0.293 HD
ENDBRANCH  10  23
BRANCH  11  25
ATOM     25  O   UNL     1      -5.156  28.350   4.467  1.00  0.00    -0.508 OA
ATOM     26  H   UNL     1      -5.046  28.481   3.473  1.00  0.00     0.293 HD
ENDBRANCH  11  25
ENDBRANCH   1   2
BRANCH   1  27
ATOM     27  C   UNL     1     -10.457  33.038   9.322  1.00  0.00     0.339 C 
ATOM     28  C   UNL     1     -10.923  32.006  10.384  1.00  0.00     0.214 C 
ATOM     29  O   UNL     1     -11.098  34.287   9.526  1.00  0.00    -0.332 OA
ATOM     30  C   UNL     1     -12.464  31.891  10.424  1.00  0.00     0.180 C 
ATOM     31  C   UNL     1     -12.506  34.183   9.357  1.00  0.00     0.179 C 
ATOM     32  C   UNL     1     -13.124  33.295  10.459  1.00  0.00     0.177 C 
BRANCH  28  33
ATOM     33  O   UNL     1     -10.389  32.300  11.654  1.00  0.00    -0.384 OA
ATOM     34  H   UNL     1     -10.772  31.673  12.322  1.00  0.00     0.211 HD
ENDBRANCH  28  33
BRANCH  30  35
ATOM     35  O   UNL     1     -12.878  31.123   9.312  1.00  0.00    -0.387 OA
ATOM     36  H   UNL     1     -12.661  31.617   8.479  1.00  0.00     0.211 HD
ENDBRANCH  30  35
BRANCH  31  37
ATOM     37  C   UNL     1     -13.120  35.589   9.365  1.00  0.00     0.191 C 
BRANCH  37  38
ATOM     38  O   UNL     1     -12.499  36.364  10.348  1.00  0.00    -0.394 OA
ATOM     39  H   UNL     1     -12.024  37.089   9.868  1.00  0.00     0.210 HD
ENDBRANCH  37  38
ENDBRANCH  31  37
BRANCH  32  40
ATOM     40  O   UNL     1     -12.943  33.870  11.730  1.00  0.00    -0.387 OA
ATOM     41  H   UNL     1     -12.984  33.134  12.395  1.00  0.00     0.211 HD
ENDBRANCH  32  40
ENDBRANCH   1  27
TORSDOF 12
ENDMDL
MODEL 8
REMARK VINA RESULT:    -5.379     15.413     18.007
REMARK INTER + INTRA:          -9.678
REMARK INTER:                  -7.926
REMARK INTRA:                  -1.752
REMARK UNBOUND:                -1.783
REMARK SMILES O=c1c(O[C@H]2O[C@H](CO)[C@H](O)[C@@H](O)[C@@H]2O)c(-c2ccc(O)c(O)c2)oc2cc(O)cc(O)c12
REMARK SMILES IDX 4 1 3 2 16 3 25 4 2 5 26 6 1 7 33 8 27 9 31 10 28 11 30 12
REMARK SMILES IDX 17 13 18 14 19 15 20 16 24 17 22 18 21 19 23 21 32 23 29 25
REMARK SMILES IDX 5 27 14 28 6 29 12 30 7 31 10 32 15 33 13 35 8 37 9 38 11 40
REMARK H PARENT 21 20 23 22 32 24 29 26 15 34 13 36 9 39 11 41
REMARK Flexibility Score: inf
ROOT
ATOM      1  O   UNL     1       1.907  45.042   1.972  1.00  0.00    -0.454 OA
ENDROOT
BRANCH   1   2
ATOM      2  C   UNL     1       2.678  45.500   3.056  1.00  0.00     0.214 A 
ATOM      3  C   UNL     1       2.114  45.814   4.330  1.00  0.00     0.180 A 
ATOM      4  O   UNL     1       2.940  46.099   5.334  1.00  0.00    -0.452 OA
ATOM      5  C   UNL     1       4.058  45.706   2.872  1.00  0.00     0.239 A 
ATOM      6  C   UNL     1       4.255  46.196   5.220  1.00  0.00     0.146 A 
ATOM      7  O   UNL     1       4.546  45.644   1.713  1.00  0.00    -0.285 OA
ATOM      8  C   UNL     1       4.878  46.031   3.968  1.00  0.00     0.111 A 
ATOM      9  C   UNL     1       5.013  46.500   6.353  1.00  0.00     0.094 A 
ATOM     10  C   UNL     1       6.283  46.206   3.867  1.00  0.00     0.134 A 
ATOM     11  C   UNL     1       6.392  46.688   6.251  1.00  0.00     0.123 A 
ATOM     12  C   UNL     1       7.023  46.543   5.010  1.00  0.00     0.093 A 
BRANCH   3  13
ATOM     13  C   UNL     1       0.647  45.924   4.647  1.00  0.00     0.025 A 
ATOM     14  C   UNL     1      -0.125  47.084   4.447  1.00  0.00     0.016 A 
ATOM     15  C   UNL     1      -1.477  47.125   4.804  1.00  0.00     0.051 A 
ATOM     16  C   UNL     1      -2.091  46.006   5.370  1.00  0.00     0.157 A 
ATOM     17  C   UNL     1      -0.004  44.795   5.199  1.00  0.00     0.062 A 
ATOM     18  C   UNL     1      -1.353  44.838   5.562  1.00  0.00     0.158 A 
BRANCH  16  19
ATOM     19  O   UNL     1      -3.439  46.044   5.727  1.00  0.00    -0.504 OA
ATOM     20  H   UNL     1      -4.170  46.080   5.026  1.00  0.00     0.293 HD
ENDBRANCH  16  19
BRANCH  18  21
ATOM     21  O   UNL     1      -1.978  43.710   6.093  1.00  0.00    -0.504 OA
ATOM     22  H   UNL     1      -2.983  43.672   6.226  1.00  0.00     0.293 HD
ENDBRANCH  18  21
ENDBRANCH   3  13
BRANCH  10  23
ATOM     23  O   UNL     1       6.941  46.050   2.648  1.00  0.00    -0.507 OA
ATOM     24  H   UNL     1       7.760  45.465   2.558  1.00  0.00     0.293 HD
ENDBRANCH  10  23
BRANCH  11  25
ATOM     25  O   UNL     1       7.116  47.043   7.384  1.00  0.00    -0.508 OA
ATOM     26  H   UNL     1       6.682  47.126   8.290  1.00  0.00     0.293 HD
ENDBRANCH  11  25
ENDBRANCH   1   2
BRANCH   1  27
ATOM     27  C   UNL     1       1.444  43.681   1.854  1.00  0.00     0.339 C 
ATOM     28  C   UNL     1       2.518  42.734   1.256  1.00  0.00     0.214 C 
ATOM     29  O   UNL     1       0.248  43.622   1.093  1.00  0.00    -0.332 OA
ATOM     30  C   UNL     1       2.749  43.015  -0.247  1.00  0.00     0.180 C 
ATOM     31  C   UNL     1       0.455  44.080  -0.238  1.00  0.00     0.179 C 
ATOM     32  C   UNL     1       1.398  43.126  -1.003  1.00  0.00     0.177 C 
BRANCH  28  33
ATOM     33  O   UNL     1       2.199  41.382   1.490  1.00  0.00    -0.384 OA
ATOM     34  H   UNL     1       2.838  40.806   0.996  1.00  0.00     0.211 HD
ENDBRANCH  28  33
BRANCH  30  35
ATOM     35  O   UNL     1       3.533  44.185  -0.362  1.00  0.00    -0.387 OA
ATOM     36  H   UNL     1       3.103  44.801  -1.010  1.00  0.00     0.211 HD
ENDBRANCH  30  35
BRANCH  31  37
ATOM     37  C   UNL     1      -0.901  44.208  -0.944  1.00  0.00     0.191 C 
BRANCH  37  38
ATOM     38  O   UNL     1      -1.631  43.029  -0.769  1.00  0.00    -0.394 OA
ATOM     39  H   UNL     1      -1.198  42.348  -1.345  1.00  0.00     0.210 HD
ENDBRANCH  37  38
ENDBRANCH  31  37
BRANCH  32  40
ATOM     40  O   UNL     1       0.825  41.848  -1.134  1.00  0.00    -0.387 OA
ATOM     41  H   UNL     1       1.462  41.290  -1.650  1.00  0.00     0.211 HD
ENDBRANCH  32  40
ENDBRANCH   1  27
TORSDOF 12
ENDMDL
MODEL 9
REMARK VINA RESULT:    -5.373      2.728      6.140
REMARK INTER + INTRA:          -9.669
REMARK INTER:                  -8.608
REMARK INTRA:                  -1.061
REMARK UNBOUND:                -1.783
REMARK SMILES O=c1c(O[C@H]2O[C@H](CO)[C@H](O)[C@@H](O)[C@@H]2O)c(-c2ccc(O)c(O)c2)oc2cc(O)cc(O)c12
REMARK SMILES IDX 4 1 3 2 16 3 25 4 2 5 26 6 1 7 33 8 27 9 31 10 28 11 30 12
REMARK SMILES IDX 17 13 18 14 19 15 20 16 24 17 22 18 21 19 23 21 32 23 29 25
REMARK SMILES IDX 5 27 14 28 6 29 12 30 7 31 10 32 15 33 13 35 8 37 9 38 11 40
REMARK H PARENT 21 20 23 22 32 24 29 26 15 34 13 36 9 39 11 41
REMARK Flexibility Score: inf
ROOT
ATOM      1  O   UNL     1      -9.796  30.379   7.289  1.00  0.00    -0.454 OA
ENDROOT
BRANCH   1   2
ATOM      2  C   UNL     1      -9.261  31.617   6.891  1.00  0.00     0.214 A 
ATOM      3  C   UNL     1      -8.168  31.732   5.979  1.00  0.00     0.180 A 
ATOM      4  O   UNL     1      -7.827  32.945   5.549  1.00  0.00    -0.452 OA
ATOM      5  C   UNL     1      -9.787  32.798   7.446  1.00  0.00     0.239 A 
ATOM      6  C   UNL     1      -8.377  34.072   5.971  1.00  0.00     0.146 A 
ATOM      7  O   UNL     1     -10.601  32.724   8.406  1.00  0.00    -0.285 OA
ATOM      8  C   UNL     1      -9.370  34.054   6.968  1.00  0.00     0.111 A 
ATOM      9  C   UNL     1      -7.930  35.285   5.440  1.00  0.00     0.094 A 
ATOM     10  C   UNL     1      -9.892  35.284   7.447  1.00  0.00     0.134 A 
ATOM     11  C   UNL     1      -8.432  36.494   5.921  1.00  0.00     0.123 A 
ATOM     12  C   UNL     1      -9.409  36.492   6.923  1.00  0.00     0.093 A 
BRANCH   3  13
ATOM     13  C   UNL     1      -7.297  30.605   5.492  1.00  0.00     0.025 A 
ATOM     14  C   UNL     1      -5.976  30.377   5.922  1.00  0.00     0.016 A 
ATOM     15  C   UNL     1      -5.213  29.331   5.394  1.00  0.00     0.051 A 
ATOM     16  C   UNL     1      -5.751  28.486   4.422  1.00  0.00     0.157 A 
ATOM     17  C   UNL     1      -7.829  29.720   4.525  1.00  0.00     0.062 A 
ATOM     18  C   UNL     1      -7.064  28.678   3.992  1.00  0.00     0.158 A 
BRANCH  16  19
ATOM     19  O   UNL     1      -4.992  27.441   3.894  1.00  0.00    -0.504 OA
ATOM     20  H   UNL     1      -4.041  27.588   3.577  1.00  0.00     0.293 HD
ENDBRANCH  16  19
BRANCH  18  21
ATOM     21  O   UNL     1      -7.613  27.809   3.049  1.00  0.00    -0.504 OA
ATOM     22  H   UNL     1      -7.070  27.055   2.642  1.00  0.00     0.293 HD
ENDBRANCH  18  21
ENDBRANCH   3  13
BRANCH  10  23
ATOM     23  O   UNL     1     -10.880  35.312   8.431  1.00  0.00    -0.507 OA
ATOM     24  H   UNL     1     -11.020  34.537   9.064  1.00  0.00     0.293 HD
ENDBRANCH  10  23
BRANCH  11  25
ATOM     25  O   UNL     1      -7.933  37.689   5.413  1.00  0.00    -0.508 OA
ATOM     26  H   UNL     1      -7.121  38.139   5.809  1.00  0.00     0.293 HD
ENDBRANCH  11  25
ENDBRANCH   1   2
BRANCH   1  27
ATOM     27  C   UNL     1     -11.201  30.067   7.214  1.00  0.00     0.339 C 
ATOM     28  C   UNL     1     -11.684  29.197   8.405  1.00  0.00     0.214 C 
ATOM     29  O   UNL     1     -11.512  29.440   5.980  1.00  0.00    -0.332 OA
ATOM     30  C   UNL     1     -11.137  27.754   8.311  1.00  0.00     0.180 C 
ATOM     31  C   UNL     1     -10.830  28.199   5.841  1.00  0.00     0.179 C 
ATOM     32  C   UNL     1     -11.335  27.178   6.884  1.00  0.00     0.177 C 
BRANCH  28  33
ATOM     33  O   UNL     1     -13.088  29.216   8.519  1.00  0.00    -0.384 OA
ATOM     34  H   UNL     1     -13.350  28.834   9.397  1.00  0.00     0.211 HD
ENDBRANCH  28  33
BRANCH  30  35
ATOM     35  O   UNL     1      -9.781  27.769   8.708  1.00  0.00    -0.387 OA
ATOM     36  H   UNL     1      -9.219  28.023   7.930  1.00  0.00     0.211 HD
ENDBRANCH  30  35
BRANCH  31  37
ATOM     37  C   UNL     1     -11.020  27.676   4.412  1.00  0.00     0.191 C 
BRANCH  37  38
ATOM     38  O   UNL     1     -10.608  28.651   3.499  1.00  0.00    -0.394 OA
ATOM     39  H   UNL     1     -10.785  28.278   2.598  1.00  0.00     0.210 HD
ENDBRANCH  37  38
ENDBRANCH  31  37
BRANCH  32  40
ATOM     40  O   UNL     1     -12.695  26.880   6.680  1.00  0.00    -0.387 OA
ATOM     41  H   UNL     1     -12.795  26.593   5.735  1.00  0.00     0.211 HD
ENDBRANCH  32  40
ENDBRANCH   1  27
TORSDOF 12
ENDMDL
