MODEL 1
REMARK VINA RESULT:    -3.729      0.000      0.000
REMARK INTER + INTRA:          -7.011
REMARK INTER:                  -6.345
REMARK INTRA:                  -0.665
REMARK UNBOUND:                -0.665
REMARK SMILES CCCCCCCCCCCCCC(=O)[O-]
REMARK SMILES IDX 8 1 9 2 10 3 11 4 12 5 13 6 14 7 15 8 16 9 7 10 6 11 5 12
REMARK SMILES IDX 4 13 3 14 2 15 1 16
REMARK H PARENT
REMARK Flexibility Score: inf
ROOT
ATOM      1  C   UNL     1       2.955 -37.293  19.920  1.00  0.00     0.000 C 
ENDROOT
BRANCH   1   2
ATOM      2  C   UNL     1       4.468 -37.049  19.789  1.00  0.00     0.000 C 
BRANCH   2   3
ATOM      3  C   UNL     1       4.887 -35.658  20.299  1.00  0.00     0.000 C 
BRANCH   3   4
ATOM      4  C   UNL     1       4.605 -35.470  21.798  1.00  0.00     0.000 C 
BRANCH   4   5
ATOM      5  C   UNL     1       5.125 -36.637  22.652  1.00  0.00     0.006 C 
BRANCH   5   6
ATOM      6  C   UNL     1       4.861 -36.387  24.139  1.00  0.00     0.053 C 
BRANCH   6   7
ATOM      7  C   UNL     1       4.986 -37.661  24.915  1.00  0.00     0.041 C 
ATOM      8  O   UNL     1       5.101 -37.631  26.169  1.00  0.00    -0.550 OA
ATOM      9  O   UNL     1       5.024 -38.880  24.249  1.00  0.00    -0.550 OA
ENDBRANCH   6   7
ENDBRANCH   5   6
ENDBRANCH   4   5
ENDBRANCH   3   4
ENDBRANCH   2   3
ENDBRANCH   1   2
BRANCH   1  10
ATOM     10  C   UNL     1       2.279 -37.549  18.561  1.00  0.00     0.000 C 
BRANCH  10  11
ATOM     11  C   UNL     1       2.611 -36.470  17.516  1.00  0.00    -0.000 C 
BRANCH  11  12
ATOM     12  C   UNL     1       1.577 -36.311  16.383  1.00  0.00    -0.000 C 
BRANCH  12  13
ATOM     13  C   UNL     1       2.129 -36.518  14.961  1.00  0.00    -0.000 C 
BRANCH  13  14
ATOM     14  C   UNL     1       3.664 -36.487  14.907  1.00  0.00    -0.000 C 
BRANCH  14  15
ATOM     15  C   UNL     1       4.197 -37.489  13.877  1.00  0.00    -0.003 C 
ATOM     16  C   UNL     1       4.452 -38.851  14.513  1.00  0.00     0.004 C 
ENDBRANCH  14  15
ENDBRANCH  13  14
ENDBRANCH  12  13
ENDBRANCH  11  12
ENDBRANCH  10  11
ENDBRANCH   1  10
TORSDOF 12
ENDMDL
MODEL 2
REMARK VINA RESULT:    -2.966      3.815      7.670
REMARK INTER + INTRA:          -5.712
REMARK INTER:                  -5.504
REMARK INTRA:                  -0.208
REMARK UNBOUND:                -0.665
REMARK SMILES CCCCCCCCCCCCCC(=O)[O-]
REMARK SMILES IDX 8 1 9 2 10 3 11 4 12 5 13 6 14 7 15 8 16 9 7 10 6 11 5 12
REMARK SMILES IDX 4 13 3 14 2 15 1 16
REMARK H PARENT
REMARK Flexibility Score: inf
ROOT
ATOM      1  C   UNL     1       3.047 -37.743  19.908  1.00  0.00     0.000 C 
ENDROOT
BRANCH   1   2
ATOM      2  C   UNL     1       1.745 -37.558  19.112  1.00  0.00     0.000 C 
BRANCH   2   3
ATOM      3  C   UNL     1       1.962 -37.668  17.592  1.00  0.00     0.000 C 
BRANCH   3   4
ATOM      4  C   UNL     1       1.060 -36.712  16.797  1.00  0.00     0.000 C 
BRANCH   4   5
ATOM      5  C   UNL     1       1.844 -35.576  16.123  1.00  0.00     0.006 C 
BRANCH   5   6
ATOM      6  C   UNL     1       3.346 -35.876  16.118  1.00  0.00     0.053 C 
BRANCH   6   7
ATOM      7  C   UNL     1       3.704 -36.741  14.951  1.00  0.00     0.041 C 
ATOM      8  O   UNL     1       4.206 -36.232  13.914  1.00  0.00    -0.550 OA
ATOM      9  O   UNL     1       3.439 -38.105  14.989  1.00  0.00    -0.550 OA
ENDBRANCH   6   7
ENDBRANCH   5   6
ENDBRANCH   4   5
ENDBRANCH   3   4
ENDBRANCH   2   3
ENDBRANCH   1   2
BRANCH   1  10
ATOM     10  C   UNL     1       4.261 -37.103  19.212  1.00  0.00     0.000 C 
BRANCH  10  11
ATOM     11  C   UNL     1       5.113 -36.247  20.164  1.00  0.00    -0.000 C 
BRANCH  11  12
ATOM     12  C   UNL     1       4.450 -35.905  21.514  1.00  0.00    -0.000 C 
BRANCH  12  13
ATOM     13  C   UNL     1       5.064 -36.606  22.739  1.00  0.00    -0.000 C 
BRANCH  13  14
ATOM     14  C   UNL     1       4.894 -38.132  22.701  1.00  0.00    -0.000 C 
BRANCH  14  15
ATOM     15  C   UNL     1       5.024 -38.734  24.105  1.00  0.00    -0.003 C 
ATOM     16  C   UNL     1       5.124 -37.642  25.166  1.00  0.00     0.004 C 
ENDBRANCH  14  15
ENDBRANCH  13  14
ENDBRANCH  12  13
ENDBRANCH  11  12
ENDBRANCH  10  11
ENDBRANCH   1  10
TORSDOF 12
ENDMDL
MODEL 3
REMARK VINA RESULT:    -2.725      1.193      2.024
REMARK INTER + INTRA:          -5.303
REMARK INTER:                  -4.680
REMARK INTRA:                  -0.622
REMARK UNBOUND:                -0.665
REMARK SMILES CCCCCCCCCCCCCC(=O)[O-]
REMARK SMILES IDX 8 1 9 2 10 3 11 4 12 5 13 6 14 7 15 8 16 9 7 10 6 11 5 12
REMARK SMILES IDX 4 13 3 14 2 15 1 16
REMARK H PARENT
REMARK Flexibility Score: inf
ROOT
ATOM      1  C   UNL     1       4.211 -35.944  19.584  1.00  0.00     0.000 C 
ENDROOT
BRANCH   1   2
ATOM      2  C   UNL     1       5.083 -35.645  20.815  1.00  0.00     0.000 C 
BRANCH   2   3
ATOM      3  C   UNL     1       4.269 -35.073  21.989  1.00  0.00     0.000 C 
BRANCH   3   4
ATOM      4  C   UNL     1       5.100 -34.945  23.275  1.00  0.00     0.000 C 
BRANCH   4   5
ATOM      5  C   UNL     1       5.125 -36.242  24.099  1.00  0.00     0.006 C 
BRANCH   5   6
ATOM      6  C   UNL     1       4.129 -37.263  23.542  1.00  0.00     0.053 C 
BRANCH   6   7
ATOM      7  C   UNL     1       4.824 -38.546  23.211  1.00  0.00     0.041 C 
ATOM      8  O   UNL     1       5.119 -38.818  22.017  1.00  0.00    -0.550 OA
ATOM      9  O   UNL     1       5.104 -39.465  24.215  1.00  0.00    -0.550 OA
ENDBRANCH   6   7
ENDBRANCH   5   6
ENDBRANCH   4   5
ENDBRANCH   3   4
ENDBRANCH   2   3
ENDBRANCH   1   2
BRANCH   1  10
ATOM     10  C   UNL     1       3.969 -37.450  19.383  1.00  0.00     0.000 C 
BRANCH  10  11
ATOM     11  C   UNL     1       2.475 -37.810  19.304  1.00  0.00    -0.000 C 
BRANCH  11  12
ATOM     12  C   UNL     1       1.723 -37.232  18.087  1.00  0.00    -0.000 C 
BRANCH  12  13
ATOM     13  C   UNL     1       2.473 -37.337  16.747  1.00  0.00    -0.000 C 
BRANCH  13  14
ATOM     14  C   UNL     1       2.471 -36.019  15.959  1.00  0.00    -0.000 C 
BRANCH  14  15
ATOM     15  C   UNL     1       3.573 -36.016  14.894  1.00  0.00    -0.003 C 
ATOM     16  C   UNL     1       3.616 -37.342  14.140  1.00  0.00     0.004 C 
ENDBRANCH  14  15
ENDBRANCH  13  14
ENDBRANCH  12  13
ENDBRANCH  11  12
ENDBRANCH  10  11
ENDBRANCH   1  10
TORSDOF 12
ENDMDL
MODEL 4
REMARK VINA RESULT:    -1.707      3.884      7.699
REMARK INTER + INTRA:          -3.570
REMARK INTER:                  -3.027
REMARK INTRA:                  -0.543
REMARK UNBOUND:                -0.665
REMARK SMILES CCCCCCCCCCCCCC(=O)[O-]
REMARK SMILES IDX 8 1 9 2 10 3 11 4 12 5 13 6 14 7 15 8 16 9 7 10 6 11 5 12
REMARK SMILES IDX 4 13 3 14 2 15 1 16
REMARK H PARENT
REMARK Flexibility Score: inf
ROOT
ATOM      1  C   UNL     1       3.958 -34.754  21.874  1.00  0.00     0.000 C 
ENDROOT
BRANCH   1   2
ATOM      2  C   UNL     1       4.218 -35.424  20.514  1.00  0.00     0.000 C 
BRANCH   2   3
ATOM      3  C   UNL     1       3.945 -36.938  20.541  1.00  0.00     0.000 C 
BRANCH   3   4
ATOM      4  C   UNL     1       3.146 -37.414  19.317  1.00  0.00     0.000 C 
BRANCH   4   5
ATOM      5  C   UNL     1       3.895 -37.191  17.994  1.00  0.00     0.006 C 
BRANCH   5   6
ATOM      6  C   UNL     1       3.414 -35.913  17.301  1.00  0.00     0.053 C 
BRANCH   6   7
ATOM      7  C   UNL     1       2.668 -36.246  16.048  1.00  0.00     0.041 C 
ATOM      8  O   UNL     1       1.799 -35.453  15.596  1.00  0.00    -0.550 OA
ATOM      9  O   UNL     1       2.896 -37.456  15.403  1.00  0.00    -0.550 OA
ENDBRANCH   6   7
ENDBRANCH   5   6
ENDBRANCH   4   5
ENDBRANCH   3   4
ENDBRANCH   2   3
ENDBRANCH   1   2
BRANCH   1  10
ATOM     10  C   UNL     1       5.040 -35.091  22.915  1.00  0.00     0.000 C 
BRANCH  10  11
ATOM     11  C   UNL     1       4.490 -35.150  24.350  1.00  0.00    -0.000 C 
BRANCH  11  12
ATOM     12  C   UNL     1       5.122 -36.229  25.253  1.00  0.00    -0.000 C 
BRANCH  12  13
ATOM     13  C   UNL     1       4.305 -37.526  25.391  1.00  0.00    -0.000 C 
BRANCH  13  14
ATOM     14  C   UNL     1       4.988 -38.734  24.734  1.00  0.00    -0.000 C 
BRANCH  14  15
ATOM     15  C   UNL     1       5.056 -38.565  23.212  1.00  0.00    -0.003 C 
ATOM     16  C   UNL     1       5.125 -39.917  22.509  1.00  0.00     0.004 C 
ENDBRANCH  14  15
ENDBRANCH  13  14
ENDBRANCH  12  13
ENDBRANCH  11  12
ENDBRANCH  10  11
ENDBRANCH   1  10
TORSDOF 12
ENDMDL
MODEL 5
REMARK VINA RESULT:    -1.476      2.810      7.204
REMARK INTER + INTRA:          -3.176
REMARK INTER:                  -3.055
REMARK INTRA:                  -0.121
REMARK UNBOUND:                -0.665
REMARK SMILES CCCCCCCCCCCCCC(=O)[O-]
REMARK SMILES IDX 8 1 9 2 10 3 11 4 12 5 13 6 14 7 15 8 16 9 7 10 6 11 5 12
REMARK SMILES IDX 4 13 3 14 2 15 1 16
REMARK H PARENT
REMARK Flexibility Score: inf
ROOT
ATOM      1  C   UNL     1       4.071 -35.651  19.236  1.00  0.00     0.000 C 
ENDROOT
BRANCH   1   2
ATOM      2  C   UNL     1       4.529 -34.906  17.970  1.00  0.00     0.000 C 
BRANCH   2   3
ATOM      3  C   UNL     1       3.572 -35.117  16.784  1.00  0.00     0.000 C 
BRANCH   3   4
ATOM      4  C   UNL     1       3.796 -36.463  16.078  1.00  0.00     0.000 C 
BRANCH   4   5
ATOM      5  C   UNL     1       2.639 -37.451  16.298  1.00  0.00     0.006 C 
BRANCH   5   6
ATOM      6  C   UNL     1       1.467 -36.770  17.011  1.00  0.00     0.053 C 
BRANCH   6   7
ATOM      7  C   UNL     1       1.114 -37.509  18.263  1.00  0.00     0.041 C 
ATOM      8  O   UNL     1      -0.074 -37.874  18.471  1.00  0.00    -0.550 OA
ATOM      9  O   UNL     1       2.087 -37.754  19.224  1.00  0.00    -0.550 OA
ENDBRANCH   6   7
ENDBRANCH   5   6
ENDBRANCH   4   5
ENDBRANCH   3   4
ENDBRANCH   2   3
ENDBRANCH   1   2
BRANCH   1  10
ATOM     10  C   UNL     1       5.125 -35.612  20.356  1.00  0.00     0.000 C 
BRANCH  10  11
ATOM     11  C   UNL     1       4.757 -36.507  21.553  1.00  0.00    -0.000 C 
BRANCH  11  12
ATOM     12  C   UNL     1       4.789 -38.024  21.274  1.00  0.00    -0.000 C 
BRANCH  12  13
ATOM     13  C   UNL     1       5.125 -38.904  22.491  1.00  0.00    -0.000 C 
BRANCH  13  14
ATOM     14  C   UNL     1       4.328 -38.518  23.745  1.00  0.00    -0.000 C 
BRANCH  14  15
ATOM     15  C   UNL     1       5.125 -37.549  24.625  1.00  0.00    -0.003 C 
ATOM     16  C   UNL     1       4.752 -37.705  26.096  1.00  0.00     0.004 C 
ENDBRANCH  14  15
ENDBRANCH  13  14
ENDBRANCH  12  13
ENDBRANCH  11  12
ENDBRANCH  10  11
ENDBRANCH   1  10
TORSDOF 12
ENDMDL
MODEL 6
REMARK VINA RESULT:    -1.413      3.891      8.543
REMARK INTER + INTRA:          -3.070
REMARK INTER:                  -3.286
REMARK INTRA:                   0.216
REMARK UNBOUND:                -0.665
REMARK SMILES CCCCCCCCCCCCCC(=O)[O-]
REMARK SMILES IDX 8 1 9 2 10 3 11 4 12 5 13 6 14 7 15 8 16 9 7 10 6 11 5 12
REMARK SMILES IDX 4 13 3 14 2 15 1 16
REMARK H PARENT
REMARK Flexibility Score: inf
ROOT
ATOM      1  C   UNL     1       4.157 -35.104  21.658  1.00  0.00     0.000 C 
ENDROOT
BRANCH   1   2
ATOM      2  C   UNL     1       4.955 -36.195  20.924  1.00  0.00     0.000 C 
BRANCH   2   3
ATOM      3  C   UNL     1       4.055 -37.113  20.077  1.00  0.00     0.000 C 
BRANCH   3   4
ATOM      4  C   UNL     1       4.129 -36.790  18.576  1.00  0.00     0.000 C 
BRANCH   4   5
ATOM      5  C   UNL     1       2.801 -37.046  17.847  1.00  0.00     0.006 C 
BRANCH   5   6
ATOM      6  C   UNL     1       3.048 -37.511  16.409  1.00  0.00     0.053 C 
BRANCH   6   7
ATOM      7  C   UNL     1       2.529 -36.500  15.435  1.00  0.00     0.041 C 
ATOM      8  O   UNL     1       1.555 -35.763  15.744  1.00  0.00    -0.550 OA
ATOM      9  O   UNL     1       3.089 -36.403  14.167  1.00  0.00    -0.550 OA
ENDBRANCH   6   7
ENDBRANCH   5   6
ENDBRANCH   4   5
ENDBRANCH   3   4
ENDBRANCH   2   3
ENDBRANCH   1   2
BRANCH   1  10
ATOM     10  C   UNL     1       4.918 -34.527  22.864  1.00  0.00     0.000 C 
BRANCH  10  11
ATOM     11  C   UNL     1       5.125 -35.557  23.988  1.00  0.00    -0.000 C 
BRANCH  11  12
ATOM     12  C   UNL     1       5.016 -37.034  23.555  1.00  0.00    -0.000 C 
BRANCH  12  13
ATOM     13  C   UNL     1       5.125 -38.059  24.697  1.00  0.00    -0.000 C 
BRANCH  13  14
ATOM     14  C   UNL     1       5.030 -37.415  26.088  1.00  0.00    -0.000 C 
BRANCH  14  15
ATOM     15  C   UNL     1       4.011 -38.151  26.965  1.00  0.00    -0.003 C 
ATOM     16  C   UNL     1       2.683 -37.403  27.016  1.00  0.00     0.004 C 
ENDBRANCH  14  15
ENDBRANCH  13  14
ENDBRANCH  12  13
ENDBRANCH  11  12
ENDBRANCH  10  11
ENDBRANCH   1  10
TORSDOF 12
ENDMDL
