MODEL 1
REMARK VINA RESULT:    -5.366      0.000      0.000
REMARK INTER + INTRA:          -5.967
REMARK INTER:                  -5.680
REMARK INTRA:                  -0.287
REMARK UNBOUND:                -0.287
REMARK SMILES CC1=C[C@@H]2C(=C(C)CC[C@H]2C(C)C)CC1
REMARK SMILES IDX 1 1 2 2 3 3 4 4 10 5 9 6 8 7 6 8 5 9 14 10 15 11 7 12 11 13
REMARK SMILES IDX 12 14 13 15
REMARK H PARENT
REMARK Flexibility Score: inf
ROOT
ATOM      1  C   UNL     1      10.134  14.323  39.851  1.00  0.00     0.039 C 
ATOM      2  C   UNL     1      11.008  14.554  38.651  1.00  0.00    -0.076 C 
ATOM      3  C   UNL     1      11.840  15.610  38.613  1.00  0.00    -0.020 C 
ATOM      4  C   UNL     1      12.752  15.812  37.417  1.00  0.00     0.041 C 
ATOM      5  C   UNL     1      13.796  16.935  37.672  1.00  0.00     0.003 C 
ATOM      6  C   UNL     1      14.894  16.861  36.595  1.00  0.00     0.009 C 
ATOM      7  C   UNL     1      15.620  15.522  36.681  1.00  0.00     0.031 C 
ATOM      8  C   UNL     1      14.673  14.341  36.656  1.00  0.00    -0.073 C 
ATOM      9  C   UNL     1      13.372  14.459  37.050  1.00  0.00    -0.064 C 
ATOM     10  C   UNL     1      12.459  13.233  37.092  1.00  0.00     0.036 C 
ATOM     11  C   UNL     1      11.016  13.585  37.491  1.00  0.00     0.035 C 
ATOM     12  C   UNL     1      15.262  12.997  36.293  1.00  0.00     0.039 C 
ENDROOT
BRANCH   5  13
ATOM     13  C   UNL     1      13.144  18.357  37.769  1.00  0.00    -0.013 C 
ATOM     14  C   UNL     1      12.194  18.695  36.606  1.00  0.00     0.007 C 
ATOM     15  C   UNL     1      14.212  19.455  37.906  1.00  0.00     0.007 C 
ENDBRANCH   5  13
TORSDOF 1
ENDMDL
MODEL 2
REMARK VINA RESULT:    -5.263     11.020     12.589
REMARK INTER + INTRA:          -5.858
REMARK INTER:                  -5.668
REMARK INTRA:                  -0.190
REMARK UNBOUND:                -0.287
REMARK SMILES CC1=C[C@@H]2C(=C(C)CC[C@H]2C(C)C)CC1
REMARK SMILES IDX 1 1 2 2 3 3 4 4 10 5 9 6 8 7 6 8 5 9 14 10 15 11 7 12 11 13
REMARK SMILES IDX 12 14 13 15
REMARK H PARENT
REMARK Flexibility Score: inf
ROOT
ATOM      1  C   UNL     1       7.023  17.661  28.065  1.00  0.00     0.039 C 
ATOM      2  C   UNL     1       7.834  18.622  27.240  1.00  0.00    -0.076 C 
ATOM      3  C   UNL     1       9.174  18.634  27.340  1.00  0.00    -0.020 C 
ATOM      4  C   UNL     1       9.988  19.575  26.471  1.00  0.00     0.041 C 
ATOM      5  C   UNL     1      11.509  19.267  26.556  1.00  0.00     0.003 C 
ATOM      6  C   UNL     1      12.240  19.999  25.415  1.00  0.00     0.009 C 
ATOM      7  C   UNL     1      11.738  19.496  24.065  1.00  0.00     0.031 C 
ATOM      8  C   UNL     1      10.229  19.551  23.946  1.00  0.00    -0.073 C 
ATOM      9  C   UNL     1       9.424  19.527  25.046  1.00  0.00    -0.064 C 
ATOM     10  C   UNL     1       7.902  19.501  24.895  1.00  0.00     0.036 C 
ATOM     11  C   UNL     1       7.172  19.551  26.248  1.00  0.00     0.035 C 
ATOM     12  C   UNL     1       9.650  19.507  22.551  1.00  0.00     0.039 C 
ENDROOT
BRANCH   5  13
ATOM     13  C   UNL     1      12.115  19.593  27.964  1.00  0.00    -0.013 C 
ATOM     14  C   UNL     1      11.473  20.806  28.660  1.00  0.00     0.007 C 
ATOM     15  C   UNL     1      13.639  19.780  27.889  1.00  0.00     0.007 C 
ENDBRANCH   5  13
TORSDOF 1
ENDMDL
MODEL 3
REMARK VINA RESULT:    -5.092      1.202      4.941
REMARK INTER + INTRA:          -5.677
REMARK INTER:                  -5.429
REMARK INTRA:                  -0.247
REMARK UNBOUND:                -0.287
REMARK SMILES CC1=C[C@@H]2C(=C(C)CC[C@H]2C(C)C)CC1
REMARK SMILES IDX 1 1 2 2 3 3 4 4 10 5 9 6 8 7 6 8 5 9 14 10 15 11 7 12 11 13
REMARK SMILES IDX 12 14 13 15
REMARK H PARENT
REMARK Flexibility Score: inf
ROOT
ATOM      1  C   UNL     1      16.534  14.719  36.389  1.00  0.00     0.039 C 
ATOM      2  C   UNL     1      15.176  15.329  36.181  1.00  0.00    -0.076 C 
ATOM      3  C   UNL     1      14.206  15.147  37.093  1.00  0.00    -0.020 C 
ATOM      4  C   UNL     1      12.852  15.803  36.898  1.00  0.00     0.041 C 
ATOM      5  C   UNL     1      11.961  15.674  38.165  1.00  0.00     0.003 C 
ATOM      6  C   UNL     1      10.766  16.637  38.045  1.00  0.00     0.009 C 
ATOM      7  C   UNL     1      11.261  18.078  37.969  1.00  0.00     0.031 C 
ATOM      8  C   UNL     1      12.306  18.280  36.892  1.00  0.00    -0.073 C 
ATOM      9  C   UNL     1      13.077  17.249  36.442  1.00  0.00    -0.064 C 
ATOM     10  C   UNL     1      14.181  17.497  35.412  1.00  0.00     0.036 C 
ATOM     11  C   UNL     1      14.887  16.201  34.980  1.00  0.00     0.035 C 
ATOM     12  C   UNL     1      12.544  19.698  36.425  1.00  0.00     0.039 C 
ENDROOT
BRANCH   5  13
ATOM     13  C   UNL     1      11.518  14.197  38.446  1.00  0.00    -0.013 C 
ATOM     14  C   UNL     1      11.119  13.409  37.185  1.00  0.00     0.007 C 
ATOM     15  C   UNL     1      10.380  14.141  39.479  1.00  0.00     0.007 C 
ENDBRANCH   5  13
TORSDOF 1
ENDMDL
MODEL 4
REMARK VINA RESULT:    -5.078      1.262      4.432
REMARK INTER + INTRA:          -5.661
REMARK INTER:                  -5.395
REMARK INTRA:                  -0.267
REMARK UNBOUND:                -0.287
REMARK SMILES CC1=C[C@@H]2C(=C(C)CC[C@H]2C(C)C)CC1
REMARK SMILES IDX 1 1 2 2 3 3 4 4 10 5 9 6 8 7 6 8 5 9 14 10 15 11 7 12 11 13
REMARK SMILES IDX 12 14 13 15
REMARK H PARENT
REMARK Flexibility Score: inf
ROOT
ATOM      1  C   UNL     1      14.935  12.876  36.420  1.00  0.00     0.039 C 
ATOM      2  C   UNL     1      14.393  14.258  36.651  1.00  0.00    -0.076 C 
ATOM      3  C   UNL     1      13.384  14.453  37.518  1.00  0.00    -0.020 C 
ATOM      4  C   UNL     1      12.872  15.857  37.780  1.00  0.00     0.041 C 
ATOM      5  C   UNL     1      11.885  15.896  38.980  1.00  0.00     0.003 C 
ATOM      6  C   UNL     1      11.674  17.358  39.415  1.00  0.00     0.009 C 
ATOM      7  C   UNL     1      12.996  17.961  39.880  1.00  0.00     0.031 C 
ATOM      8  C   UNL     1      14.105  17.791  38.863  1.00  0.00    -0.073 C 
ATOM      9  C   UNL     1      14.078  16.790  37.937  1.00  0.00    -0.064 C 
ATOM     10  C   UNL     1      15.250  16.591  36.974  1.00  0.00     0.036 C 
ATOM     11  C   UNL     1      14.998  15.461  35.962  1.00  0.00     0.035 C 
ATOM     12  C   UNL     1      15.303  18.701  38.998  1.00  0.00     0.039 C 
ENDROOT
BRANCH   5  13
ATOM     13  C   UNL     1      10.535  15.158  38.678  1.00  0.00    -0.013 C 
ATOM     14  C   UNL     1       9.323  16.096  38.533  1.00  0.00     0.007 C 
ATOM     15  C   UNL     1      10.238  14.081  39.734  1.00  0.00     0.007 C 
ENDBRANCH   5  13
TORSDOF 1
ENDMDL
MODEL 5
REMARK VINA RESULT:    -5.043     13.533     15.299
REMARK INTER + INTRA:          -5.625
REMARK INTER:                  -5.357
REMARK INTRA:                  -0.268
REMARK UNBOUND:                -0.287
REMARK SMILES CC1=C[C@@H]2C(=C(C)CC[C@H]2C(C)C)CC1
REMARK SMILES IDX 1 1 2 2 3 3 4 4 10 5 9 6 8 7 6 8 5 9 14 10 15 11 7 12 11 13
REMARK SMILES IDX 12 14 13 15
REMARK H PARENT
REMARK Flexibility Score: inf
ROOT
ATOM      1  C   UNL     1       6.419  21.789  27.512  1.00  0.00     0.039 C 
ATOM      2  C   UNL     1       6.985  20.711  26.630  1.00  0.00    -0.076 C 
ATOM      3  C   UNL     1       6.644  20.653  25.330  1.00  0.00    -0.020 C 
ATOM      4  C   UNL     1       7.254  19.589  24.436  1.00  0.00     0.041 C 
ATOM      5  C   UNL     1       6.927  19.840  22.937  1.00  0.00     0.003 C 
ATOM      6  C   UNL     1       7.838  18.958  22.065  1.00  0.00     0.009 C 
ATOM      7  C   UNL     1       9.300  19.333  22.290  1.00  0.00     0.031 C 
ATOM      8  C   UNL     1       9.683  19.329  23.755  1.00  0.00    -0.073 C 
ATOM      9  C   UNL     1       8.755  19.506  24.738  1.00  0.00    -0.064 C 
ATOM     10  C   UNL     1       9.180  19.580  26.205  1.00  0.00     0.036 C 
ATOM     11  C   UNL     1       7.983  19.708  27.163  1.00  0.00     0.035 C 
ATOM     12  C   UNL     1      11.158  19.245  24.077  1.00  0.00     0.039 C 
ENDROOT
BRANCH   5  13
ATOM     13  C   UNL     1       5.406  19.644  22.609  1.00  0.00    -0.013 C 
ATOM     14  C   UNL     1       5.039  18.220  22.154  1.00  0.00     0.007 C 
ATOM     15  C   UNL     1       4.923  20.665  21.566  1.00  0.00     0.007 C 
ENDBRANCH   5  13
TORSDOF 1
ENDMDL
MODEL 6
REMARK VINA RESULT:    -5.006      1.377      3.919
REMARK INTER + INTRA:          -5.585
REMARK INTER:                  -5.348
REMARK INTRA:                  -0.237
REMARK UNBOUND:                -0.287
REMARK SMILES CC1=C[C@@H]2C(=C(C)CC[C@H]2C(C)C)CC1
REMARK SMILES IDX 1 1 2 2 3 3 4 4 10 5 9 6 8 7 6 8 5 9 14 10 15 11 7 12 11 13
REMARK SMILES IDX 12 14 13 15
REMARK H PARENT
REMARK Flexibility Score: inf
ROOT
ATOM      1  C   UNL     1      10.536  14.110  39.782  1.00  0.00     0.039 C 
ATOM      2  C   UNL     1      11.435  15.156  39.184  1.00  0.00    -0.076 C 
ATOM      3  C   UNL     1      12.342  14.816  38.252  1.00  0.00    -0.020 C 
ATOM      4  C   UNL     1      13.215  15.885  37.620  1.00  0.00     0.041 C 
ATOM      5  C   UNL     1      14.014  15.333  36.407  1.00  0.00     0.003 C 
ATOM      6  C   UNL     1      14.597  16.512  35.606  1.00  0.00     0.009 C 
ATOM      7  C   UNL     1      13.470  17.384  35.063  1.00  0.00     0.031 C 
ATOM      8  C   UNL     1      12.494  17.812  36.138  1.00  0.00    -0.073 C 
ATOM      9  C   UNL     1      12.333  17.093  37.286  1.00  0.00    -0.064 C 
ATOM     10  C   UNL     1      11.282  17.503  38.319  1.00  0.00     0.036 C 
ATOM     11  C   UNL     1      11.306  16.612  39.573  1.00  0.00     0.035 C 
ATOM     12  C   UNL     1      11.615  19.003  35.831  1.00  0.00     0.039 C 
ENDROOT
BRANCH   5  13
ATOM     13  C   UNL     1      15.107  14.290  36.825  1.00  0.00    -0.013 C 
ATOM     14  C   UNL     1      16.530  14.650  36.362  1.00  0.00     0.007 C 
ATOM     15  C   UNL     1      14.745  12.875  36.345  1.00  0.00     0.007 C 
ENDBRANCH   5  13
TORSDOF 1
ENDMDL
MODEL 7
REMARK VINA RESULT:    -4.982     13.301     15.163
REMARK INTER + INTRA:          -5.560
REMARK INTER:                  -5.332
REMARK INTRA:                  -0.228
REMARK UNBOUND:                -0.287
REMARK SMILES CC1=C[C@@H]2C(=C(C)CC[C@H]2C(C)C)CC1
REMARK SMILES IDX 1 1 2 2 3 3 4 4 10 5 9 6 8 7 6 8 5 9 14 10 15 11 7 12 11 13
REMARK SMILES IDX 12 14 13 15
REMARK H PARENT
REMARK Flexibility Score: inf
ROOT
ATOM      1  C   UNL     1       6.273  21.479  27.725  1.00  0.00     0.039 C 
ATOM      2  C   UNL     1       6.625  21.309  26.274  1.00  0.00    -0.076 C 
ATOM      3  C   UNL     1       7.689  20.567  25.919  1.00  0.00    -0.020 C 
ATOM      4  C   UNL     1       8.013  20.363  24.450  1.00  0.00     0.041 C 
ATOM      5  C   UNL     1       9.118  19.289  24.248  1.00  0.00     0.003 C 
ATOM      6  C   UNL     1       9.157  18.876  22.765  1.00  0.00     0.009 C 
ATOM      7  C   UNL     1       7.825  18.254  22.360  1.00  0.00     0.031 C 
ATOM      8  C   UNL     1       6.641  19.132  22.708  1.00  0.00    -0.073 C 
ATOM      9  C   UNL     1       6.707  20.059  23.706  1.00  0.00    -0.064 C 
ATOM     10  C   UNL     1       5.473  20.876  24.091  1.00  0.00     0.036 C 
ATOM     11  C   UNL     1       5.770  21.916  25.185  1.00  0.00     0.035 C 
ATOM     12  C   UNL     1       5.344  18.852  21.984  1.00  0.00     0.039 C 
ENDROOT
BRANCH   5  13
ATOM     13  C   UNL     1      10.517  19.752  24.781  1.00  0.00    -0.013 C 
ATOM     14  C   UNL     1      11.645  19.675  23.736  1.00  0.00     0.007 C 
ATOM     15  C   UNL     1      10.921  18.974  26.044  1.00  0.00     0.007 C 
ENDBRANCH   5  13
TORSDOF 1
ENDMDL
MODEL 8
REMARK VINA RESULT:    -4.892      1.360      4.165
REMARK INTER + INTRA:          -5.465
REMARK INTER:                  -5.173
REMARK INTRA:                  -0.292
REMARK UNBOUND:                -0.287
REMARK SMILES CC1=C[C@@H]2C(=C(C)CC[C@H]2C(C)C)CC1
REMARK SMILES IDX 1 1 2 2 3 3 4 4 10 5 9 6 8 7 6 8 5 9 14 10 15 11 7 12 11 13
REMARK SMILES IDX 12 14 13 15
REMARK H PARENT
REMARK Flexibility Score: inf
ROOT
ATOM      1  C   UNL     1      14.193  19.574  36.144  1.00  0.00     0.039 C 
ATOM      2  C   UNL     1      14.056  18.291  36.915  1.00  0.00    -0.076 C 
ATOM      3  C   UNL     1      12.838  17.770  37.150  1.00  0.00    -0.020 C 
ATOM      4  C   UNL     1      12.710  16.452  37.890  1.00  0.00     0.041 C 
ATOM      5  C   UNL     1      11.255  15.905  37.843  1.00  0.00     0.003 C 
ATOM      6  C   UNL     1      11.253  14.432  38.292  1.00  0.00     0.009 C 
ATOM      7  C   UNL     1      12.095  13.593  37.337  1.00  0.00     0.031 C 
ATOM      8  C   UNL     1      13.486  14.158  37.135  1.00  0.00    -0.073 C 
ATOM      9  C   UNL     1      13.756  15.481  37.331  1.00  0.00    -0.064 C 
ATOM     10  C   UNL     1      15.150  16.040  37.042  1.00  0.00     0.036 C 
ATOM     11  C   UNL     1      15.273  17.532  37.394  1.00  0.00     0.035 C 
ATOM     12  C   UNL     1      14.535  13.218  36.588  1.00  0.00     0.039 C 
ENDROOT
BRANCH   5  13
ATOM     13  C   UNL     1      10.251  16.786  38.665  1.00  0.00    -0.013 C 
ATOM     14  C   UNL     1      10.675  17.027  40.125  1.00  0.00     0.007 C 
ATOM     15  C   UNL     1       8.830  16.201  38.623  1.00  0.00     0.007 C 
ENDBRANCH   5  13
TORSDOF 1
ENDMDL
MODEL 9
REMARK VINA RESULT:    -4.833     14.191     16.177
REMARK INTER + INTRA:          -5.403
REMARK INTER:                  -5.138
REMARK INTRA:                  -0.265
REMARK UNBOUND:                -0.287
REMARK SMILES CC1=C[C@@H]2C(=C(C)CC[C@H]2C(C)C)CC1
REMARK SMILES IDX 1 1 2 2 3 3 4 4 10 5 9 6 8 7 6 8 5 9 14 10 15 11 7 12 11 13
REMARK SMILES IDX 12 14 13 15
REMARK H PARENT
REMARK Flexibility Score: inf
ROOT
ATOM      1  C   UNL     1       4.247  22.955  26.418  1.00  0.00     0.039 C 
ATOM      2  C   UNL     1       4.942  22.377  25.217  1.00  0.00    -0.076 C 
ATOM      3  C   UNL     1       5.858  21.405  25.369  1.00  0.00    -0.020 C 
ATOM      4  C   UNL     1       6.522  20.794  24.148  1.00  0.00     0.041 C 
ATOM      5  C   UNL     1       7.357  19.535  24.516  1.00  0.00     0.003 C 
ATOM      6  C   UNL     1       7.711  18.769  23.229  1.00  0.00     0.009 C 
ATOM      7  C   UNL     1       6.438  18.296  22.535  1.00  0.00     0.031 C 
ATOM      8  C   UNL     1       5.444  19.416  22.312  1.00  0.00    -0.073 C 
ATOM      9  C   UNL     1       5.443  20.536  23.090  1.00  0.00    -0.064 C 
ATOM     10  C   UNL     1       4.377  21.616  22.897  1.00  0.00     0.036 C 
ATOM     11  C   UNL     1       4.590  22.829  23.818  1.00  0.00     0.035 C 
ATOM     12  C   UNL     1       4.372  19.185  21.272  1.00  0.00     0.039 C 
ENDROOT
BRANCH   5  13
ATOM     13  C   UNL     1       8.620  19.878  25.379  1.00  0.00    -0.013 C 
ATOM     14  C   UNL     1       9.959  19.572  24.684  1.00  0.00     0.007 C 
ATOM     15  C   UNL     1       8.570  19.178  26.747  1.00  0.00     0.007 C 
ENDBRANCH   5  13
TORSDOF 1
ENDMDL
