MODEL 1
REMARK VINA RESULT:    -5.430      0.000      0.000
REMARK INTER + INTRA:          -9.198
REMARK INTER:                  -7.969
REMARK INTRA:                  -1.229
REMARK UNBOUND:                -1.229
REMARK SMILES Cc1cc2c(C(C)C)c(O)c(O)c(C=O)c2c(O)c1-c1c(C)cc2c(C(C)C)c(O)c(O)c(C=O)c2c1O
REMARK SMILES IDX 1 1 2 2 3 3 4 4 16 5 13 6 11 7 9 8 5 9 17 10 19 11 20 12
REMARK SMILES IDX 37 13 21 14 36 15 23 16 22 17 24 18 33 19 25 20 31 21 29 22
REMARK SMILES IDX 38 23 34 25 35 26 26 27 27 28 28 29 32 30 30 32 18 34 6 36
REMARK SMILES IDX 7 37 8 38 14 39 15 40 10 41 12 43
REMARK H PARENT 38 24 32 31 30 33 18 35 10 42 12 44
REMARK Flexibility Score: inf
ROOT
ATOM      1  C   UNL     1     140.207 141.417 133.064  1.00  0.00     0.045 C 
ATOM      2  C   UNL     1     141.160 142.290 132.283  1.00  0.00    -0.039 A 
ATOM      3  C   UNL     1     141.326 142.067 130.915  1.00  0.00     0.013 A 
ATOM      4  C   UNL     1     142.222 142.832 130.137  1.00  0.00    -0.006 A 
ATOM      5  C   UNL     1     142.903 143.928 130.751  1.00  0.00     0.039 A 
ATOM      6  C   UNL     1     143.760 144.741 129.953  1.00  0.00     0.072 A 
ATOM      7  C   UNL     1     143.785 144.568 128.555  1.00  0.00     0.169 A 
ATOM      8  C   UNL     1     143.094 143.508 127.960  1.00  0.00     0.162 A 
ATOM      9  C   UNL     1     142.419 142.552 128.749  1.00  0.00     0.008 A 
ATOM     10  C   UNL     1     142.662 144.205 132.131  1.00  0.00     0.132 A 
ATOM     11  C   UNL     1     141.829 143.361 132.896  1.00  0.00     0.031 A 
ENDROOT
BRANCH  11  12
ATOM     12  C   UNL     1     141.624 143.630 134.345  1.00  0.00     0.031 A 
ATOM     13  C   UNL     1     140.555 144.445 134.774  1.00  0.00     0.132 A 
ATOM     14  C   UNL     1     142.496 143.058 135.286  1.00  0.00    -0.039 A 
ATOM     15  C   UNL     1     140.336 144.673 136.166  1.00  0.00     0.039 A 
ATOM     16  C   UNL     1     142.345 143.367 136.638  1.00  0.00     0.013 A 
ATOM     17  C   UNL     1     143.620 142.149 134.853  1.00  0.00     0.045 C 
ATOM     18  C   UNL     1     141.317 144.222 137.098  1.00  0.00    -0.006 A 
ATOM     19  C   UNL     1     139.179 145.349 136.657  1.00  0.00     0.072 A 
ATOM     20  C   UNL     1     141.238 144.611 138.468  1.00  0.00     0.008 A 
ATOM     21  C   UNL     1     139.024 145.556 138.044  1.00  0.00     0.169 A 
ATOM     22  C   UNL     1     140.043 145.199 138.934  1.00  0.00     0.162 A 
BRANCH  13  23
ATOM     23  O   UNL     1     139.732 145.052 133.818  1.00  0.00    -0.507 OA
ATOM     24  H   UNL     1     140.023 145.259 132.871  1.00  0.00     0.293 HD
ENDBRANCH  13  23
BRANCH  19  25
ATOM     25  C   UNL     1     138.075 145.755 135.763  1.00  0.00     0.264 C 
ATOM     26  O   UNL     1     137.072 145.011 135.603  1.00  0.00    -0.298 OA
ENDBRANCH  19  25
BRANCH  20  27
ATOM     27  C   UNL     1     142.410 144.386 139.440  1.00  0.00     0.017 C 
ATOM     28  C   UNL     1     142.139 143.189 140.356  1.00  0.00     0.012 C 
ATOM     29  C   UNL     1     142.791 145.639 140.253  1.00  0.00     0.012 C 
ENDBRANCH  20  27
BRANCH  21  30
ATOM     30  O   UNL     1     137.850 146.100 138.578  1.00  0.00    -0.504 OA
ATOM     31  H   UNL     1     137.757 147.059 138.888  1.00  0.00     0.293 HD
ENDBRANCH  21  30
BRANCH  22  32
ATOM     32  O   UNL     1     139.857 145.407 140.302  1.00  0.00    -0.504 OA
ATOM     33  H   UNL     1     140.240 144.794 141.012  1.00  0.00     0.293 HD
ENDBRANCH  22  32
ENDBRANCH  11  12
BRANCH  10  34
ATOM     34  O   UNL     1     143.212 145.345 132.729  1.00  0.00    -0.507 OA
ATOM     35  H   UNL     1     142.829 145.793 133.552  1.00  0.00     0.293 HD
ENDBRANCH  10  34
BRANCH   9  36
ATOM     36  C   UNL     1     141.894 141.261 128.097  1.00  0.00     0.017 C 
ATOM     37  C   UNL     1     140.707 141.559 127.174  1.00  0.00     0.012 C 
ATOM     38  C   UNL     1     142.980 140.448 127.368  1.00  0.00     0.012 C 
ENDBRANCH   9  36
BRANCH   6  39
ATOM     39  C   UNL     1     144.670 145.747 130.539  1.00  0.00     0.264 C 
ATOM     40  O   UNL     1     145.741 145.388 131.095  1.00  0.00    -0.298 OA
ENDBRANCH   6  39
BRANCH   8  41
ATOM     41  O   UNL     1     143.084 143.397 126.568  1.00  0.00    -0.504 OA
ATOM     42  H   UNL     1     143.484 144.095 125.954  1.00  0.00     0.293 HD
ENDBRANCH   8  41
BRANCH   7  43
ATOM     43  O   UNL     1     144.521 145.423 127.724  1.00  0.00    -0.504 OA
ATOM     44  H   UNL     1     145.461 145.738 127.925  1.00  0.00     0.293 HD
ENDBRANCH   7  43
TORSDOF 11
ENDMDL
MODEL 2
REMARK VINA RESULT:    -5.191      9.758     15.668
REMARK INTER + INTRA:          -8.847
REMARK INTER:                  -7.721
REMARK INTRA:                  -1.126
REMARK UNBOUND:                -1.229
REMARK SMILES Cc1cc2c(C(C)C)c(O)c(O)c(C=O)c2c(O)c1-c1c(C)cc2c(C(C)C)c(O)c(O)c(C=O)c2c1O
REMARK SMILES IDX 1 1 2 2 3 3 4 4 16 5 13 6 11 7 9 8 5 9 17 10 19 11 20 12
REMARK SMILES IDX 37 13 21 14 36 15 23 16 22 17 24 18 33 19 25 20 31 21 29 22
REMARK SMILES IDX 38 23 34 25 35 26 26 27 27 28 28 29 32 30 30 32 18 34 6 36
REMARK SMILES IDX 7 37 8 38 14 39 15 40 10 41 12 43
REMARK H PARENT 38 24 32 31 30 33 18 35 10 42 12 44
REMARK Flexibility Score: inf
ROOT
ATOM      1  C   UNL     1     130.805 141.011 138.166  1.00  0.00     0.045 C 
ATOM      2  C   UNL     1     129.967 141.966 138.982  1.00  0.00    -0.039 A 
ATOM      3  C   UNL     1     129.759 141.705 140.337  1.00  0.00     0.013 A 
ATOM      4  C   UNL     1     128.963 142.546 141.145  1.00  0.00    -0.006 A 
ATOM      5  C   UNL     1     128.439 143.749 140.579  1.00  0.00     0.039 A 
ATOM      6  C   UNL     1     127.688 144.631 141.410  1.00  0.00     0.072 A 
ATOM      7  C   UNL     1     127.626 144.401 142.798  1.00  0.00     0.169 A 
ATOM      8  C   UNL     1     128.164 143.233 143.347  1.00  0.00     0.162 A 
ATOM      9  C   UNL     1     128.715 142.233 142.518  1.00  0.00     0.008 A 
ATOM     10  C   UNL     1     128.730 144.054 139.215  1.00  0.00     0.132 A 
ATOM     11  C   UNL     1     129.452 143.143 138.416  1.00  0.00     0.031 A 
ENDROOT
BRANCH  11  12
ATOM     12  C   UNL     1     129.706 143.447 136.982  1.00  0.00     0.031 A 
ATOM     13  C   UNL     1     130.838 144.200 136.604  1.00  0.00     0.132 A 
ATOM     14  C   UNL     1     128.818 142.972 136.004  1.00  0.00    -0.039 A 
ATOM     15  C   UNL     1     131.103 144.461 135.225  1.00  0.00     0.039 A 
ATOM     16  C   UNL     1     129.019 143.317 134.667  1.00  0.00     0.013 A 
ATOM     17  C   UNL     1     127.624 142.129 136.382  1.00  0.00     0.045 C 
ATOM     18  C   UNL     1     130.113 144.113 134.259  1.00  0.00    -0.006 A 
ATOM     19  C   UNL     1     132.315 145.071 134.782  1.00  0.00     0.072 A 
ATOM     20  C   UNL     1     130.249 144.544 132.905  1.00  0.00     0.008 A 
ATOM     21  C   UNL     1     132.513 145.316 133.406  1.00  0.00     0.169 A 
ATOM     22  C   UNL     1     131.492 145.063 132.485  1.00  0.00     0.162 A 
BRANCH  13  23
ATOM     23  O   UNL     1     131.681 144.715 137.597  1.00  0.00    -0.507 OA
ATOM     24  H   UNL     1     132.463 144.208 137.992  1.00  0.00     0.293 HD
ENDBRANCH  13  23
BRANCH  19  25
ATOM     25  C   UNL     1     133.424 145.368 135.711  1.00  0.00     0.264 C 
ATOM     26  O   UNL     1     134.558 144.845 135.543  1.00  0.00    -0.298 OA
ENDBRANCH  19  25
BRANCH  20  27
ATOM     27  C   UNL     1     129.085 144.436 131.904  1.00  0.00     0.017 C 
ATOM     28  C   UNL     1     129.302 143.268 130.936  1.00  0.00     0.012 C 
ATOM     29  C   UNL     1     128.797 145.746 131.145  1.00  0.00     0.012 C 
ENDBRANCH  20  27
BRANCH  21  30
ATOM     30  O   UNL     1     133.733 145.794 132.915  1.00  0.00    -0.504 OA
ATOM     31  H   UNL     1     133.846 146.248 132.017  1.00  0.00     0.293 HD
ENDBRANCH  21  30
BRANCH  22  32
ATOM     32  O   UNL     1     131.721 145.305 131.128  1.00  0.00    -0.504 OA
ATOM     33  H   UNL     1     132.594 145.677 130.772  1.00  0.00     0.293 HD
ENDBRANCH  22  32
ENDBRANCH  11  12
BRANCH  10  34
ATOM     34  O   UNL     1     128.341 145.282 138.667  1.00  0.00    -0.507 OA
ATOM     35  H   UNL     1     127.860 146.006 139.186  1.00  0.00     0.293 HD
ENDBRANCH  10  34
BRANCH   9  36
ATOM     36  C   UNL     1     129.059 140.855 143.113  1.00  0.00     0.017 C 
ATOM     37  C   UNL     1     130.329 140.930 143.967  1.00  0.00     0.012 C 
ATOM     38  C   UNL     1     127.898 140.208 143.890  1.00  0.00     0.012 C 
ENDBRANCH   9  36
BRANCH   6  39
ATOM     39  C   UNL     1     126.925 145.774 140.867  1.00  0.00     0.264 C 
ATOM     40  O   UNL     1     125.875 145.578 140.200  1.00  0.00    -0.298 OA
ENDBRANCH   6  39
BRANCH   8  41
ATOM     41  O   UNL     1     128.144 143.058 144.733  1.00  0.00    -0.504 OA
ATOM     42  H   UNL     1     127.884 143.792 145.379  1.00  0.00     0.293 HD
ENDBRANCH   8  41
BRANCH   7  43
ATOM     43  O   UNL     1     126.999 145.306 143.664  1.00  0.00    -0.504 OA
ATOM     44  H   UNL     1     126.298 145.047 144.346  1.00  0.00     0.293 HD
ENDBRANCH   7  43
TORSDOF 11
ENDMDL
MODEL 3
REMARK VINA RESULT:    -5.188      2.253      9.084
REMARK INTER + INTRA:          -8.843
REMARK INTER:                  -7.721
REMARK INTRA:                  -1.123
REMARK UNBOUND:                -1.229
REMARK SMILES Cc1cc2c(C(C)C)c(O)c(O)c(C=O)c2c(O)c1-c1c(C)cc2c(C(C)C)c(O)c(O)c(C=O)c2c1O
REMARK SMILES IDX 1 1 2 2 3 3 4 4 16 5 13 6 11 7 9 8 5 9 17 10 19 11 20 12
REMARK SMILES IDX 37 13 21 14 36 15 23 16 22 17 24 18 33 19 25 20 31 21 29 22
REMARK SMILES IDX 38 23 34 25 35 26 26 27 27 28 28 29 32 30 30 32 18 34 6 36
REMARK SMILES IDX 7 37 8 38 14 39 15 40 10 41 12 43
REMARK H PARENT 38 24 32 31 30 33 18 35 10 42 12 44
REMARK Flexibility Score: inf
ROOT
ATOM      1  C   UNL     1     140.100 146.125 134.144  1.00  0.00     0.045 C 
ATOM      2  C   UNL     1     140.764 144.929 134.783  1.00  0.00    -0.039 A 
ATOM      3  C   UNL     1     140.716 144.780 136.169  1.00  0.00     0.013 A 
ATOM      4  C   UNL     1     141.342 143.697 136.826  1.00  0.00    -0.006 A 
ATOM      5  C   UNL     1     141.956 142.677 136.037  1.00  0.00     0.039 A 
ATOM      6  C   UNL     1     142.533 141.552 136.695  1.00  0.00     0.072 A 
ATOM      7  C   UNL     1     142.335 141.373 138.078  1.00  0.00     0.169 A 
ATOM      8  C   UNL     1     141.709 142.366 138.838  1.00  0.00     0.162 A 
ATOM      9  C   UNL     1     141.328 143.592 138.251  1.00  0.00     0.008 A 
ATOM     10  C   UNL     1     141.925 142.791 134.614  1.00  0.00     0.132 A 
ATOM     11  C   UNL     1     141.371 143.934 134.000  1.00  0.00     0.031 A 
ENDROOT
BRANCH  11  12
ATOM     12  C   UNL     1     141.389 144.067 132.518  1.00  0.00     0.031 A 
ATOM     13  C   UNL     1     142.473 144.698 131.873  1.00  0.00     0.132 A 
ATOM     14  C   UNL     1     140.324 143.550 131.763  1.00  0.00    -0.039 A 
ATOM     15  C   UNL     1     142.509 144.793 130.449  1.00  0.00     0.039 A 
ATOM     16  C   UNL     1     140.308 143.737 130.380  1.00  0.00     0.013 A 
ATOM     17  C   UNL     1     139.174 142.834 132.428  1.00  0.00     0.045 C 
ATOM     18  C   UNL     1     141.352 144.410 129.707  1.00  0.00    -0.006 A 
ATOM     19  C   UNL     1     143.654 145.270 129.743  1.00  0.00     0.072 A 
ATOM     20  C   UNL     1     141.273 144.685 128.308  1.00  0.00     0.008 A 
ATOM     21  C   UNL     1     143.624 145.353 128.334  1.00  0.00     0.169 A 
ATOM     22  C   UNL     1     142.448 145.072 127.630  1.00  0.00     0.162 A 
BRANCH  13  23
ATOM     23  O   UNL     1     143.498 145.258 132.646  1.00  0.00    -0.507 OA
ATOM     24  H   UNL     1     144.281 144.732 133.013  1.00  0.00     0.293 HD
ENDBRANCH  13  23
BRANCH  19  25
ATOM     25  C   UNL     1     144.920 145.589 130.434  1.00  0.00     0.264 C 
ATOM     26  O   UNL     1     145.902 144.804 130.368  1.00  0.00    -0.298 OA
ENDBRANCH  19  25
BRANCH  20  27
ATOM     27  C   UNL     1     139.951 144.549 127.533  1.00  0.00     0.017 C 
ATOM     28  C   UNL     1     138.879 145.477 128.112  1.00  0.00     0.012 C 
ATOM     29  C   UNL     1     139.439 143.099 127.429  1.00  0.00     0.012 C 
ENDBRANCH  20  27
BRANCH  21  30
ATOM     30  O   UNL     1     144.763 145.694 127.596  1.00  0.00    -0.504 OA
ATOM     31  H   UNL     1     144.806 146.466 126.941  1.00  0.00     0.293 HD
ENDBRANCH  21  30
BRANCH  22  32
ATOM     32  O   UNL     1     142.452 145.153 126.236  1.00  0.00    -0.504 OA
ATOM     33  H   UNL     1     142.389 146.030 125.732  1.00  0.00     0.293 HD
ENDBRANCH  22  32
ENDBRANCH  11  12
BRANCH  10  34
ATOM     34  O   UNL     1     142.404 141.750 133.812  1.00  0.00    -0.507 OA
ATOM     35  H   UNL     1     143.349 141.389 133.857  1.00  0.00     0.293 HD
ENDBRANCH  10  34
BRANCH   9  36
ATOM     36  C   UNL     1     140.886 144.761 139.150  1.00  0.00     0.017 C 
ATOM     37  C   UNL     1     141.784 145.984 138.939  1.00  0.00     0.012 C 
ATOM     38  C   UNL     1     139.397 145.126 139.003  1.00  0.00     0.012 C 
ENDBRANCH   9  36
BRANCH   6  39
ATOM     39  C   UNL     1     143.379 140.568 135.988  1.00  0.00     0.264 C 
ATOM     40  O   UNL     1     144.574 140.845 135.702  1.00  0.00    -0.298 OA
ENDBRANCH   6  39
BRANCH   8  41
ATOM     41  O   UNL     1     141.469 142.137 140.195  1.00  0.00    -0.504 OA
ATOM     42  H   UNL     1     140.900 141.372 140.534  1.00  0.00     0.293 HD
ENDBRANCH   8  41
BRANCH   7  43
ATOM     43  O   UNL     1     142.783 140.223 138.741  1.00  0.00    -0.504 OA
ATOM     44  H   UNL     1     142.223 139.689 139.393  1.00  0.00     0.293 HD
ENDBRANCH   7  43
TORSDOF 11
ENDMDL
MODEL 4
REMARK VINA RESULT:    -5.082      2.286      8.893
REMARK INTER + INTRA:          -8.688
REMARK INTER:                  -7.382
REMARK INTRA:                  -1.306
REMARK UNBOUND:                -1.229
REMARK SMILES Cc1cc2c(C(C)C)c(O)c(O)c(C=O)c2c(O)c1-c1c(C)cc2c(C(C)C)c(O)c(O)c(C=O)c2c1O
REMARK SMILES IDX 1 1 2 2 3 3 4 4 16 5 13 6 11 7 9 8 5 9 17 10 19 11 20 12
REMARK SMILES IDX 37 13 21 14 36 15 23 16 22 17 24 18 33 19 25 20 31 21 29 22
REMARK SMILES IDX 38 23 34 25 35 26 26 27 27 28 28 29 32 30 30 32 18 34 6 36
REMARK SMILES IDX 7 37 8 38 14 39 15 40 10 41 12 43
REMARK H PARENT 38 24 32 31 30 33 18 35 10 42 12 44
REMARK Flexibility Score: inf
ROOT
ATOM      1  C   UNL     1     138.278 143.003 132.426  1.00  0.00     0.045 C 
ATOM      2  C   UNL     1     138.961 143.678 133.591  1.00  0.00    -0.039 A 
ATOM      3  C   UNL     1     138.255 143.868 134.780  1.00  0.00     0.013 A 
ATOM      4  C   UNL     1     138.831 144.517 135.895  1.00  0.00    -0.006 A 
ATOM      5  C   UNL     1     140.205 144.900 135.833  1.00  0.00     0.039 A 
ATOM      6  C   UNL     1     140.806 145.498 136.979  1.00  0.00     0.072 A 
ATOM      7  C   UNL     1     140.100 145.538 138.197  1.00  0.00     0.169 A 
ATOM      8  C   UNL     1     138.762 145.136 138.255  1.00  0.00     0.162 A 
ATOM      9  C   UNL     1     138.074 144.751 137.084  1.00  0.00     0.008 A 
ATOM     10  C   UNL     1     140.947 144.624 134.644  1.00  0.00     0.132 A 
ATOM     11  C   UNL     1     140.311 144.057 133.519  1.00  0.00     0.031 A 
ENDROOT
BRANCH  11  12
ATOM     12  C   UNL     1     141.080 143.819 132.269  1.00  0.00     0.031 A 
ATOM     13  C   UNL     1     141.750 142.593 132.066  1.00  0.00     0.132 A 
ATOM     14  C   UNL     1     141.130 144.819 131.284  1.00  0.00    -0.039 A 
ATOM     15  C   UNL     1     142.458 142.350 130.851  1.00  0.00     0.039 A 
ATOM     16  C   UNL     1     141.909 144.622 130.143  1.00  0.00     0.013 A 
ATOM     17  C   UNL     1     140.387 146.121 131.460  1.00  0.00     0.045 C 
ATOM     18  C   UNL     1     142.634 143.428 129.932  1.00  0.00    -0.006 A 
ATOM     19  C   UNL     1     143.008 141.073 130.529  1.00  0.00     0.072 A 
ATOM     20  C   UNL     1     143.507 143.281 128.813  1.00  0.00     0.008 A 
ATOM     21  C   UNL     1     143.709 140.898 129.317  1.00  0.00     0.169 A 
ATOM     22  C   UNL     1     143.961 141.988 128.477  1.00  0.00     0.162 A 
BRANCH  13  23
ATOM     23  O   UNL     1     141.737 141.631 133.084  1.00  0.00    -0.507 OA
ATOM     24  H   UNL     1     142.402 141.607 133.846  1.00  0.00     0.293 HD
ENDBRANCH  13  23
BRANCH  19  25
ATOM     25  C   UNL     1     142.780 139.888 131.382  1.00  0.00     0.264 C 
ATOM     26  O   UNL     1     143.728 139.381 132.038  1.00  0.00    -0.298 OA
ENDBRANCH  19  25
BRANCH  20  27
ATOM     27  C   UNL     1     143.942 144.490 127.966  1.00  0.00     0.017 C 
ATOM     28  C   UNL     1     144.692 145.517 128.821  1.00  0.00     0.012 C 
ATOM     29  C   UNL     1     142.788 145.148 127.185  1.00  0.00     0.012 C 
ENDBRANCH  20  27
BRANCH  21  30
ATOM     30  O   UNL     1     144.155 139.637 128.903  1.00  0.00    -0.504 OA
ATOM     31  H   UNL     1     143.584 138.801 128.916  1.00  0.00     0.293 HD
ENDBRANCH  21  30
BRANCH  22  32
ATOM     32  O   UNL     1     144.649 141.782 127.279  1.00  0.00    -0.504 OA
ATOM     33  H   UNL     1     144.843 142.525 126.618  1.00  0.00     0.293 HD
ENDBRANCH  22  32
ENDBRANCH  11  12
BRANCH  10  34
ATOM     34  O   UNL     1     142.324 144.870 134.597  1.00  0.00    -0.507 OA
ATOM     35  H   UNL     1     142.964 144.387 133.980  1.00  0.00     0.293 HD
ENDBRANCH  10  34
BRANCH   9  36
ATOM     36  C   UNL     1     136.546 144.568 137.126  1.00  0.00     0.017 C 
ATOM     37  C   UNL     1     135.874 145.305 135.963  1.00  0.00     0.012 C 
ATOM     38  C   UNL     1     136.100 143.095 137.189  1.00  0.00     0.012 C 
ENDBRANCH   9  36
BRANCH   6  39
ATOM     39  C   UNL     1     142.143 146.125 136.937  1.00  0.00     0.264 C 
ATOM     40  O   UNL     1     143.098 145.630 137.593  1.00  0.00    -0.298 OA
ENDBRANCH   6  39
BRANCH   8  41
ATOM     41  O   UNL     1     138.105 145.126 139.487  1.00  0.00    -0.504 OA
ATOM     42  H   UNL     1     137.224 144.651 139.639  1.00  0.00     0.293 HD
ENDBRANCH   8  41
BRANCH   7  43
ATOM     43  O   UNL     1     140.696 146.008 139.375  1.00  0.00    -0.504 OA
ATOM     44  H   UNL     1     141.665 146.291 139.447  1.00  0.00     0.293 HD
ENDBRANCH   7  43
TORSDOF 11
ENDMDL
MODEL 5
REMARK VINA RESULT:    -5.041      2.796      8.685
REMARK INTER + INTRA:          -8.627
REMARK INTER:                  -7.286
REMARK INTRA:                  -1.342
REMARK UNBOUND:                -1.229
REMARK SMILES Cc1cc2c(C(C)C)c(O)c(O)c(C=O)c2c(O)c1-c1c(C)cc2c(C(C)C)c(O)c(O)c(C=O)c2c1O
REMARK SMILES IDX 1 1 2 2 3 3 4 4 16 5 13 6 11 7 9 8 5 9 17 10 19 11 20 12
REMARK SMILES IDX 37 13 21 14 36 15 23 16 22 17 24 18 33 19 25 20 31 21 29 22
REMARK SMILES IDX 38 23 34 25 35 26 26 27 27 28 28 29 32 30 30 32 18 34 6 36
REMARK SMILES IDX 7 37 8 38 14 39 15 40 10 41 12 43
REMARK H PARENT 38 24 32 31 30 33 18 35 10 42 12 44
REMARK Flexibility Score: inf
ROOT
ATOM      1  C   UNL     1     138.125 142.965 130.812  1.00  0.00     0.045 C 
ATOM      2  C   UNL     1     138.230 143.618 132.169  1.00  0.00    -0.039 A 
ATOM      3  C   UNL     1     137.076 143.795 132.934  1.00  0.00     0.013 A 
ATOM      4  C   UNL     1     137.107 144.424 134.199  1.00  0.00    -0.006 A 
ATOM      5  C   UNL     1     138.371 144.799 134.749  1.00  0.00     0.039 A 
ATOM      6  C   UNL     1     138.411 145.375 136.052  1.00  0.00     0.072 A 
ATOM      7  C   UNL     1     137.244 145.402 136.841  1.00  0.00     0.169 A 
ATOM      8  C   UNL     1     136.016 145.009 136.302  1.00  0.00     0.162 A 
ATOM      9  C   UNL     1     135.907 144.646 134.942  1.00  0.00     0.008 A 
ATOM     10  C   UNL     1     139.557 144.534 133.999  1.00  0.00     0.132 A 
ATOM     11  C   UNL     1     139.476 143.988 132.700  1.00  0.00     0.031 A 
ENDROOT
BRANCH  11  12
ATOM     12  C   UNL     1     140.714 143.764 131.907  1.00  0.00     0.031 A 
ATOM     13  C   UNL     1     141.416 142.544 132.012  1.00  0.00     0.132 A 
ATOM     14  C   UNL     1     141.177 144.770 131.045  1.00  0.00    -0.039 A 
ATOM     15  C   UNL     1     142.584 142.313 131.224  1.00  0.00     0.039 A 
ATOM     16  C   UNL     1     142.376 144.586 130.354  1.00  0.00     0.013 A 
ATOM     17  C   UNL     1     140.420 146.066 130.884  1.00  0.00     0.045 C 
ATOM     18  C   UNL     1     143.131 143.398 130.476  1.00  0.00    -0.006 A 
ATOM     19  C   UNL     1     143.230 141.042 131.169  1.00  0.00     0.072 A 
ATOM     20  C   UNL     1     144.406 143.265 129.847  1.00  0.00     0.008 A 
ATOM     21  C   UNL     1     144.390 140.880 130.382  1.00  0.00     0.169 A 
ATOM     22  C   UNL     1     144.971 141.977 129.738  1.00  0.00     0.162 A 
BRANCH  13  23
ATOM     23  O   UNL     1     140.972 141.575 132.921  1.00  0.00    -0.507 OA
ATOM     24  H   UNL     1     140.841 141.746 133.910  1.00  0.00     0.293 HD
ENDBRANCH  13  23
BRANCH  19  25
ATOM     25  C   UNL     1     142.666 139.851 131.836  1.00  0.00     0.264 C 
ATOM     26  O   UNL     1     143.255 139.327 132.818  1.00  0.00    -0.298 OA
ENDBRANCH  19  25
BRANCH  20  27
ATOM     27  C   UNL     1     145.155 144.482 129.276  1.00  0.00     0.017 C 
ATOM     28  C   UNL     1     145.701 145.365 130.401  1.00  0.00     0.012 C 
ATOM     29  C   UNL     1     144.325 145.304 128.271  1.00  0.00     0.012 C 
ENDBRANCH  20  27
BRANCH  21  30
ATOM     30  O   UNL     1     144.982 139.624 130.199  1.00  0.00    -0.504 OA
ATOM     31  H   UNL     1     144.609 138.761 130.572  1.00  0.00     0.293 HD
ENDBRANCH  21  30
BRANCH  22  32
ATOM     32  O   UNL     1     146.113 141.783 128.957  1.00  0.00    -0.504 OA
ATOM     33  H   UNL     1     146.445 142.463 128.283  1.00  0.00     0.293 HD
ENDBRANCH  22  32
ENDBRANCH  11  12
BRANCH  10  34
ATOM     34  O   UNL     1     140.816 144.772 134.562  1.00  0.00    -0.507 OA
ATOM     35  H   UNL     1     141.080 144.490 135.498  1.00  0.00     0.293 HD
ENDBRANCH  10  34
BRANCH   9  36
ATOM     36  C   UNL     1     134.514 144.472 134.310  1.00  0.00     0.017 C 
ATOM     37  C   UNL     1     133.832 143.202 134.830  1.00  0.00     0.012 C 
ATOM     38  C   UNL     1     133.602 145.703 134.471  1.00  0.00     0.012 C 
ENDBRANCH   9  36
BRANCH   6  39
ATOM     39  C   UNL     1     139.632 145.994 136.608  1.00  0.00     0.264 C 
ATOM     40  O   UNL     1     140.275 145.418 137.526  1.00  0.00    -0.298 OA
ENDBRANCH   6  39
BRANCH   8  41
ATOM     41  O   UNL     1     134.886 144.985 137.123  1.00  0.00    -0.504 OA
ATOM     42  H   UNL     1     134.933 145.069 138.130  1.00  0.00     0.293 HD
ENDBRANCH   8  41
BRANCH   7  43
ATOM     43  O   UNL     1     137.266 145.851 138.168  1.00  0.00    -0.504 OA
ATOM     44  H   UNL     1     137.550 146.781 138.448  1.00  0.00     0.293 HD
ENDBRANCH   7  43
TORSDOF 11
ENDMDL
MODEL 6
REMARK VINA RESULT:    -5.031      2.471      4.371
REMARK INTER + INTRA:          -8.613
REMARK INTER:                  -7.321
REMARK INTRA:                  -1.292
REMARK UNBOUND:                -1.229
REMARK SMILES Cc1cc2c(C(C)C)c(O)c(O)c(C=O)c2c(O)c1-c1c(C)cc2c(C(C)C)c(O)c(O)c(C=O)c2c1O
REMARK SMILES IDX 1 1 2 2 3 3 4 4 16 5 13 6 11 7 9 8 5 9 17 10 19 11 20 12
REMARK SMILES IDX 37 13 21 14 36 15 23 16 22 17 24 18 33 19 25 20 31 21 29 22
REMARK SMILES IDX 38 23 34 25 35 26 26 27 27 28 28 29 32 30 30 32 18 34 6 36
REMARK SMILES IDX 7 37 8 38 14 39 15 40 10 41 12 43
REMARK H PARENT 38 24 32 31 30 33 18 35 10 42 12 44
REMARK Flexibility Score: inf
ROOT
ATOM      1  C   UNL     1     142.111 146.125 132.623  1.00  0.00     0.045 C 
ATOM      2  C   UNL     1     142.274 144.674 132.239  1.00  0.00    -0.039 A 
ATOM      3  C   UNL     1     143.212 144.325 131.266  1.00  0.00     0.013 A 
ATOM      4  C   UNL     1     143.391 142.989 130.847  1.00  0.00    -0.006 A 
ATOM      5  C   UNL     1     142.659 141.956 131.509  1.00  0.00     0.039 A 
ATOM      6  C   UNL     1     142.885 140.600 131.131  1.00  0.00     0.072 A 
ATOM      7  C   UNL     1     143.939 140.286 130.251  1.00  0.00     0.169 A 
ATOM      8  C   UNL     1     144.668 141.304 129.626  1.00  0.00     0.162 A 
ATOM      9  C   UNL     1     144.317 142.659 129.809  1.00  0.00     0.008 A 
ATOM     10  C   UNL     1     141.766 142.311 132.565  1.00  0.00     0.132 A 
ATOM     11  C   UNL     1     141.547 143.666 132.892  1.00  0.00     0.031 A 
ENDROOT
BRANCH  11  12
ATOM     12  C   UNL     1     140.576 144.028 133.960  1.00  0.00     0.031 A 
ATOM     13  C   UNL     1     141.010 144.187 135.293  1.00  0.00     0.132 A 
ATOM     14  C   UNL     1     139.224 144.219 133.632  1.00  0.00    -0.039 A 
ATOM     15  C   UNL     1     140.086 144.571 136.312  1.00  0.00     0.039 A 
ATOM     16  C   UNL     1     138.303 144.490 134.645  1.00  0.00     0.013 A 
ATOM     17  C   UNL     1     138.745 144.096 132.206  1.00  0.00     0.045 C 
ATOM     18  C   UNL     1     138.695 144.605 135.997  1.00  0.00    -0.006 A 
ATOM     19  C   UNL     1     140.502 144.905 137.635  1.00  0.00     0.072 A 
ATOM     20  C   UNL     1     137.729 144.778 137.034  1.00  0.00     0.008 A 
ATOM     21  C   UNL     1     139.540 145.264 138.603  1.00  0.00     0.169 A 
ATOM     22  C   UNL     1     138.175 145.193 138.307  1.00  0.00     0.162 A 
BRANCH  13  23
ATOM     23  O   UNL     1     142.350 143.935 135.611  1.00  0.00    -0.507 OA
ATOM     24  H   UNL     1     142.731 143.010 135.763  1.00  0.00     0.293 HD
ENDBRANCH  13  23
BRANCH  19  25
ATOM     25  C   UNL     1     141.930 144.988 138.006  1.00  0.00     0.264 C 
ATOM     26  O   UNL     1     142.449 144.119 138.755  1.00  0.00    -0.298 OA
ENDBRANCH  19  25
BRANCH  20  27
ATOM     27  C   UNL     1     136.229 144.543 136.786  1.00  0.00     0.017 C 
ATOM     28  C   UNL     1     135.930 143.051 136.612  1.00  0.00     0.012 C 
ATOM     29  C   UNL     1     135.656 145.368 135.618  1.00  0.00     0.012 C 
ENDBRANCH  20  27
BRANCH  21  30
ATOM     30  O   UNL     1     139.911 145.720 139.873  1.00  0.00    -0.504 OA
ATOM     31  H   UNL     1     139.606 146.599 140.272  1.00  0.00     0.293 HD
ENDBRANCH  21  30
BRANCH  22  32
ATOM     32  O   UNL     1     137.245 145.564 139.282  1.00  0.00    -0.504 OA
ATOM     33  H   UNL     1     137.505 145.800 140.233  1.00  0.00     0.293 HD
ENDBRANCH  22  32
ENDBRANCH  11  12
BRANCH  10  34
ATOM     34  O   UNL     1     141.132 141.316 133.318  1.00  0.00    -0.507 OA
ATOM     35  H   UNL     1     141.001 141.363 134.321  1.00  0.00     0.293 HD
ENDBRANCH  10  34
BRANCH   9  36
ATOM     36  C   UNL     1     144.957 143.737 128.916  1.00  0.00     0.017 C 
ATOM     37  C   UNL     1     143.883 144.607 128.254  1.00  0.00     0.012 C 
ATOM     38  C   UNL     1     146.008 144.599 129.640  1.00  0.00     0.012 C 
ENDBRANCH   9  36
BRANCH   6  39
ATOM     39  C   UNL     1     142.024 139.493 131.596  1.00  0.00     0.264 C 
ATOM     40  O   UNL     1     142.448 138.678 132.458  1.00  0.00    -0.298 OA
ENDBRANCH   6  39
BRANCH   8  41
ATOM     41  O   UNL     1     145.747 140.966 128.807  1.00  0.00    -0.504 OA
ATOM     42  H   UNL     1     145.763 140.137 128.228  1.00  0.00     0.293 HD
ENDBRANCH   8  41
BRANCH   7  43
ATOM     43  O   UNL     1     144.270 138.959 129.947  1.00  0.00    -0.504 OA
ATOM     44  H   UNL     1     144.822 138.360 130.547  1.00  0.00     0.293 HD
ENDBRANCH   7  43
TORSDOF 11
ENDMDL
MODEL 7
REMARK VINA RESULT:    -4.998      2.214      3.358
REMARK INTER + INTRA:          -8.565
REMARK INTER:                  -7.366
REMARK INTRA:                  -1.199
REMARK UNBOUND:                -1.229
REMARK SMILES Cc1cc2c(C(C)C)c(O)c(O)c(C=O)c2c(O)c1-c1c(C)cc2c(C(C)C)c(O)c(O)c(C=O)c2c1O
REMARK SMILES IDX 1 1 2 2 3 3 4 4 16 5 13 6 11 7 9 8 5 9 17 10 19 11 20 12
REMARK SMILES IDX 37 13 21 14 36 15 23 16 22 17 24 18 33 19 25 20 31 21 29 22
REMARK SMILES IDX 38 23 34 25 35 26 26 27 27 28 28 29 32 30 30 32 18 34 6 36
REMARK SMILES IDX 7 37 8 38 14 39 15 40 10 41 12 43
REMARK H PARENT 38 24 32 31 30 33 18 35 10 42 12 44
REMARK Flexibility Score: inf
ROOT
ATOM      1  C   UNL     1     138.979 143.018 132.617  1.00  0.00     0.045 C 
ATOM      2  C   UNL     1     140.245 143.550 131.991  1.00  0.00    -0.039 A 
ATOM      3  C   UNL     1     140.304 143.720 130.607  1.00  0.00     0.013 A 
ATOM      4  C   UNL     1     141.469 144.189 129.961  1.00  0.00    -0.006 A 
ATOM      5  C   UNL     1     142.583 144.591 130.760  1.00  0.00     0.039 A 
ATOM      6  C   UNL     1     143.737 145.124 130.114  1.00  0.00     0.072 A 
ATOM      7  C   UNL     1     143.697 145.410 128.735  1.00  0.00     0.169 A 
ATOM      8  C   UNL     1     142.591 145.036 127.966  1.00  0.00     0.162 A 
ATOM      9  C   UNL     1     141.529 144.304 128.538  1.00  0.00     0.008 A 
ATOM     10  C   UNL     1     142.484 144.497 132.181  1.00  0.00     0.132 A 
ATOM     11  C   UNL     1     141.337 143.938 132.783  1.00  0.00     0.031 A 
ENDROOT
BRANCH  11  12
ATOM     12  C   UNL     1     141.265 143.798 134.262  1.00  0.00     0.031 A 
ATOM     13  C   UNL     1     141.736 142.626 134.891  1.00  0.00     0.132 A 
ATOM     14  C   UNL     1     140.732 144.845 135.032  1.00  0.00    -0.039 A 
ATOM     15  C   UNL     1     141.701 142.506 136.313  1.00  0.00     0.039 A 
ATOM     16  C   UNL     1     140.601 144.684 136.413  1.00  0.00     0.013 A 
ATOM     17  C   UNL     1     140.262 146.125 134.386  1.00  0.00     0.045 C 
ATOM     18  C   UNL     1     141.015 143.503 137.068  1.00  0.00    -0.006 A 
ATOM     19  C   UNL     1     142.314 141.419 137.004  1.00  0.00     0.072 A 
ATOM     20  C   UNL     1     140.779 143.311 138.463  1.00  0.00     0.008 A 
ATOM     21  C   UNL     1     142.234 141.348 138.411  1.00  0.00     0.169 A 
ATOM     22  C   UNL     1     141.471 142.276 139.127  1.00  0.00     0.162 A 
BRANCH  13  23
ATOM     23  O   UNL     1     142.209 141.570 134.103  1.00  0.00    -0.507 OA
ATOM     24  H   UNL     1     142.957 140.947 134.382  1.00  0.00     0.293 HD
ENDBRANCH  13  23
BRANCH  19  25
ATOM     25  C   UNL     1     143.125 140.405 136.299  1.00  0.00     0.264 C 
ATOM     26  O   UNL     1     144.382 140.480 136.294  1.00  0.00    -0.298 OA
ENDBRANCH  19  25
BRANCH  20  27
ATOM     27  C   UNL     1     139.811 144.213 139.249  1.00  0.00     0.017 C 
ATOM     28  C   UNL     1     140.578 145.158 140.180  1.00  0.00     0.012 C 
ATOM     29  C   UNL     1     138.722 143.436 140.013  1.00  0.00     0.012 C 
ENDBRANCH  20  27
BRANCH  21  30
ATOM     30  O   UNL     1     142.926 140.371 139.137  1.00  0.00    -0.504 OA
ATOM     31  H   UNL     1     143.781 139.930 138.824  1.00  0.00     0.293 HD
ENDBRANCH  21  30
BRANCH  22  32
ATOM     32  O   UNL     1     141.419 142.188 140.520  1.00  0.00    -0.504 OA
ATOM     33  H   UNL     1     140.552 142.097 141.037  1.00  0.00     0.293 HD
ENDBRANCH  22  32
ENDBRANCH  11  12
BRANCH  10  34
ATOM     34  O   UNL     1     143.505 145.001 132.995  1.00  0.00    -0.507 OA
ATOM     35  H   UNL     1     143.445 145.066 134.003  1.00  0.00     0.293 HD
ENDBRANCH  10  34
BRANCH   9  36
ATOM     36  C   UNL     1     140.457 143.680 127.625  1.00  0.00     0.017 C 
ATOM     37  C   UNL     1     139.477 144.746 127.124  1.00  0.00     0.012 C 
ATOM     38  C   UNL     1     141.038 142.860 126.457  1.00  0.00     0.012 C 
ENDBRANCH   9  36
BRANCH   6  39
ATOM     39  C   UNL     1     145.010 145.356 130.828  1.00  0.00     0.264 C 
ATOM     40  O   UNL     1     146.106 145.043 130.292  1.00  0.00    -0.298 OA
ENDBRANCH   6  39
BRANCH   8  41
ATOM     41  O   UNL     1     142.549 145.388 126.614  1.00  0.00    -0.504 OA
ATOM     42  H   UNL     1     143.293 145.170 125.964  1.00  0.00     0.293 HD
ENDBRANCH   8  41
BRANCH   7  43
ATOM     43  O   UNL     1     144.766 146.043 128.086  1.00  0.00    -0.504 OA
ATOM     44  H   UNL     1     145.350 146.750 128.513  1.00  0.00     0.293 HD
ENDBRANCH   7  43
TORSDOF 11
ENDMDL
MODEL 8
REMARK VINA RESULT:    -4.961     11.239     15.964
REMARK INTER + INTRA:          -8.510
REMARK INTER:                  -7.253
REMARK INTRA:                  -1.257
REMARK UNBOUND:                -1.229
REMARK SMILES Cc1cc2c(C(C)C)c(O)c(O)c(C=O)c2c(O)c1-c1c(C)cc2c(C(C)C)c(O)c(O)c(C=O)c2c1O
REMARK SMILES IDX 1 1 2 2 3 3 4 4 16 5 13 6 11 7 9 8 5 9 17 10 19 11 20 12
REMARK SMILES IDX 37 13 21 14 36 15 23 16 22 17 24 18 33 19 25 20 31 21 29 22
REMARK SMILES IDX 38 23 34 25 35 26 26 27 27 28 28 29 32 30 30 32 18 34 6 36
REMARK SMILES IDX 7 37 8 38 14 39 15 40 10 41 12 43
REMARK H PARENT 38 24 32 31 30 33 18 35 10 42 12 44
REMARK Flexibility Score: inf
ROOT
ATOM      1  C   UNL     1     132.249 144.009 137.695  1.00  0.00     0.045 C 
ATOM      2  C   UNL     1     131.018 144.087 138.566  1.00  0.00    -0.039 A 
ATOM      3  C   UNL     1     131.155 144.404 139.918  1.00  0.00     0.013 A 
ATOM      4  C   UNL     1     130.044 144.466 140.788  1.00  0.00    -0.006 A 
ATOM      5  C   UNL     1     128.735 144.295 140.243  1.00  0.00     0.039 A 
ATOM      6  C   UNL     1     127.608 144.419 141.107  1.00  0.00     0.072 A 
ATOM      7  C   UNL     1     127.786 144.880 142.426  1.00  0.00     0.169 A 
ATOM      8  C   UNL     1     129.071 145.070 142.943  1.00  0.00     0.162 A 
ATOM      9  C   UNL     1     130.212 144.737 142.181  1.00  0.00     0.008 A 
ATOM     10  C   UNL     1     128.595 144.058 138.842  1.00  0.00     0.132 A 
ATOM     11  C   UNL     1     129.735 143.912 138.023  1.00  0.00     0.031 A 
ENDROOT
BRANCH  11  12
ATOM     12  C   UNL     1     129.579 143.616 136.574  1.00  0.00     0.031 A 
ATOM     13  C   UNL     1     129.503 142.280 136.124  1.00  0.00     0.132 A 
ATOM     14  C   UNL     1     129.497 144.674 135.654  1.00  0.00    -0.039 A 
ATOM     15  C   UNL     1     129.316 141.995 134.738  1.00  0.00     0.039 A 
ATOM     16  C   UNL     1     129.421 144.394 134.289  1.00  0.00     0.013 A 
ATOM     17  C   UNL     1     129.533 146.110 136.116  1.00  0.00     0.045 C 
ATOM     18  C   UNL     1     129.396 143.068 133.801  1.00  0.00    -0.006 A 
ATOM     19  C   UNL     1     129.068 140.676 134.255  1.00  0.00     0.072 A 
ATOM     20  C   UNL     1     129.423 142.797 132.400  1.00  0.00     0.008 A 
ATOM     21  C   UNL     1     128.905 140.455 132.870  1.00  0.00     0.169 A 
ATOM     22  C   UNL     1     129.088 141.499 131.958  1.00  0.00     0.162 A 
BRANCH  13  23
ATOM     23  O   UNL     1     129.645 141.238 137.048  1.00  0.00    -0.507 OA
ATOM     24  H   UNL     1     130.523 140.982 137.481  1.00  0.00     0.293 HD
ENDBRANCH  13  23
BRANCH  19  25
ATOM     25  C   UNL     1     128.874 139.534 135.172  1.00  0.00     0.264 C 
ATOM     26  O   UNL     1     127.715 139.132 135.458  1.00  0.00    -0.298 OA
ENDBRANCH  19  25
BRANCH  20  27
ATOM     27  C   UNL     1     129.788 143.885 131.374  1.00  0.00     0.017 C 
ATOM     28  C   UNL     1     128.544 144.361 130.617  1.00  0.00     0.012 C 
ATOM     29  C   UNL     1     130.910 143.471 130.403  1.00  0.00     0.012 C 
ENDBRANCH  20  27
BRANCH  21  30
ATOM     30  O   UNL     1     128.536 139.203 132.366  1.00  0.00    -0.504 OA
ATOM     31  H   UNL     1     127.798 138.629 132.755  1.00  0.00     0.293 HD
ENDBRANCH  21  30
BRANCH  22  32
ATOM     32  O   UNL     1     128.909 141.253 130.595  1.00  0.00    -0.504 OA
ATOM     33  H   UNL     1     128.136 140.713 130.227  1.00  0.00     0.293 HD
ENDBRANCH  22  32
ENDBRANCH  11  12
BRANCH  10  34
ATOM     34  O   UNL     1     127.324 144.013 138.256  1.00  0.00    -0.507 OA
ATOM     35  H   UNL     1     126.654 143.271 138.414  1.00  0.00     0.293 HD
ENDBRANCH  10  34
BRANCH   9  36
ATOM     36  C   UNL     1     131.595 144.705 142.856  1.00  0.00     0.017 C 
ATOM     37  C   UNL     1     132.107 146.125 143.122  1.00  0.00     0.012 C 
ATOM     38  C   UNL     1     131.642 143.844 144.132  1.00  0.00     0.012 C 
ENDBRANCH   9  36
BRANCH   6  39
ATOM     39  C   UNL     1     126.242 144.043 140.688  1.00  0.00     0.264 C 
ATOM     40  O   UNL     1     125.887 142.834 140.690  1.00  0.00    -0.298 OA
ENDBRANCH   6  39
BRANCH   8  41
ATOM     41  O   UNL     1     129.219 145.586 144.232  1.00  0.00    -0.504 OA
ATOM     42  H   UNL     1     129.899 146.297 144.468  1.00  0.00     0.293 HD
ENDBRANCH   8  41
BRANCH   7  43
ATOM     43  O   UNL     1     126.695 145.129 143.269  1.00  0.00    -0.504 OA
ATOM     44  H   UNL     1     126.061 144.415 143.603  1.00  0.00     0.293 HD
ENDBRANCH   7  43
TORSDOF 11
ENDMDL
MODEL 9
REMARK VINA RESULT:    -4.922     15.379     18.802
REMARK INTER + INTRA:          -8.454
REMARK INTER:                  -7.421
REMARK INTRA:                  -1.033
REMARK UNBOUND:                -1.229
REMARK SMILES Cc1cc2c(C(C)C)c(O)c(O)c(C=O)c2c(O)c1-c1c(C)cc2c(C(C)C)c(O)c(O)c(C=O)c2c1O
REMARK SMILES IDX 1 1 2 2 3 3 4 4 16 5 13 6 11 7 9 8 5 9 17 10 19 11 20 12
REMARK SMILES IDX 37 13 21 14 36 15 23 16 22 17 24 18 33 19 25 20 31 21 29 22
REMARK SMILES IDX 38 23 34 25 35 26 26 27 27 28 28 29 32 30 30 32 18 34 6 36
REMARK SMILES IDX 7 37 8 38 14 39 15 40 10 41 12 43
REMARK H PARENT 38 24 32 31 30 33 18 35 10 42 12 44
REMARK Flexibility Score: inf
ROOT
ATOM      1  C   UNL     1     140.476 130.545 138.201  1.00  0.00     0.045 C 
ATOM      2  C   UNL     1     141.369 129.606 138.976  1.00  0.00    -0.039 A 
ATOM      3  C   UNL     1     141.607 129.851 140.329  1.00  0.00     0.013 A 
ATOM      4  C   UNL     1     142.454 129.024 141.100  1.00  0.00    -0.006 A 
ATOM      5  C   UNL     1     143.003 127.851 140.498  1.00  0.00     0.039 A 
ATOM      6  C   UNL     1     143.807 126.981 141.291  1.00  0.00     0.072 A 
ATOM      7  C   UNL     1     143.901 127.190 142.681  1.00  0.00     0.169 A 
ATOM      8  C   UNL     1     143.339 128.329 143.266  1.00  0.00     0.162 A 
ATOM      9  C   UNL     1     142.730 129.323 142.470  1.00  0.00     0.008 A 
ATOM     10  C   UNL     1     142.684 127.559 139.137  1.00  0.00     0.132 A 
ATOM     11  C   UNL     1     141.909 128.458 138.375  1.00  0.00     0.031 A 
ENDROOT
BRANCH  11  12
ATOM     12  C   UNL     1     141.624 128.169 136.943  1.00  0.00     0.031 A 
ATOM     13  C   UNL     1     140.483 127.423 136.580  1.00  0.00     0.132 A 
ATOM     14  C   UNL     1     142.494 128.653 135.953  1.00  0.00    -0.039 A 
ATOM     15  C   UNL     1     140.189 127.177 135.205  1.00  0.00     0.039 A 
ATOM     16  C   UNL     1     142.265 128.323 134.616  1.00  0.00     0.013 A 
ATOM     17  C   UNL     1     143.697 129.489 136.314  1.00  0.00     0.045 C 
ATOM     18  C   UNL     1     141.161 127.534 134.222  1.00  0.00    -0.006 A 
ATOM     19  C   UNL     1     138.968 126.575 134.780  1.00  0.00     0.072 A 
ATOM     20  C   UNL     1     140.997 127.117 132.867  1.00  0.00     0.008 A 
ATOM     21  C   UNL     1     138.741 126.345 133.406  1.00  0.00     0.169 A 
ATOM     22  C   UNL     1     139.744 126.606 132.466  1.00  0.00     0.162 A 
BRANCH  13  23
ATOM     23  O   UNL     1     139.660 126.900 137.585  1.00  0.00    -0.507 OA
ATOM     24  H   UNL     1     138.663 126.756 137.480  1.00  0.00     0.293 HD
ENDBRANCH  13  23
BRANCH  19  25
ATOM     25  C   UNL     1     137.876 126.271 135.728  1.00  0.00     0.264 C 
ATOM     26  O   UNL     1     136.699 126.653 135.494  1.00  0.00    -0.298 OA
ENDBRANCH  19  25
BRANCH  20  27
ATOM     27  C   UNL     1     142.140 127.233 131.843  1.00  0.00     0.017 C 
ATOM     28  C   UNL     1     141.756 128.177 130.699  1.00  0.00     0.012 C 
ATOM     29  C   UNL     1     142.632 125.875 131.307  1.00  0.00     0.012 C 
ENDBRANCH  20  27
BRANCH  21  30
ATOM     30  O   UNL     1     137.509 125.875 132.935  1.00  0.00    -0.504 OA
ATOM     31  H   UNL     1     137.151 126.055 132.005  1.00  0.00     0.293 HD
ENDBRANCH  21  30
BRANCH  22  32
ATOM     32  O   UNL     1     139.486 126.378 131.112  1.00  0.00    -0.504 OA
ATOM     33  H   UNL     1     138.669 126.741 130.636  1.00  0.00     0.293 HD
ENDBRANCH  22  32
ENDBRANCH  11  12
BRANCH  10  34
ATOM     34  O   UNL     1     143.100 126.355 138.557  1.00  0.00    -0.507 OA
ATOM     35  H   UNL     1     143.441 125.561 139.084  1.00  0.00     0.293 HD
ENDBRANCH  10  34
BRANCH   9  36
ATOM     36  C   UNL     1     142.355 130.677 143.099  1.00  0.00     0.017 C 
ATOM     37  C   UNL     1     143.014 131.834 142.340  1.00  0.00     0.012 C 
ATOM     38  C   UNL     1     140.837 130.895 143.245  1.00  0.00     0.012 C 
ENDBRANCH   9  36
BRANCH   6  39
ATOM     39  C   UNL     1     144.593 125.875 140.707  1.00  0.00     0.264 C 
ATOM     40  O   UNL     1     145.803 126.047 140.401  1.00  0.00    -0.298 OA
ENDBRANCH   6  39
BRANCH   8  41
ATOM     41  O   UNL     1     143.391 128.480 144.654  1.00  0.00    -0.504 OA
ATOM     42  H   UNL     1     142.742 128.028 145.284  1.00  0.00     0.293 HD
ENDBRANCH   8  41
BRANCH   7  43
ATOM     43  O   UNL     1     144.583 126.292 143.513  1.00  0.00    -0.504 OA
ATOM     44  H   UNL     1     144.374 126.158 144.494  1.00  0.00     0.293 HD
ENDBRANCH   7  43
TORSDOF 11
ENDMDL
