MODEL 1
REMARK VINA RESULT:    -3.063      0.000      0.000
REMARK INTER + INTRA:          -3.455
REMARK INTER:                  -3.422
REMARK INTRA:                  -0.033
REMARK UNBOUND:                -0.033
REMARK SMILES CCCC(=O)[O-]
REMARK SMILES IDX 3 1 4 2 5 3 6 4 2 5 1 6
REMARK H PARENT
REMARK Flexibility Score: inf
ROOT
ATOM      1  C   UNL     1      -5.045 -73.026 -12.236  1.00  0.00     0.052 C 
ENDROOT
BRANCH   1   2
ATOM      2  C   UNL     1      -4.657 -74.322 -11.594  1.00  0.00     0.041 C 
ATOM      3  O   UNL     1      -3.500 -74.472 -11.119  1.00  0.00    -0.550 OA
ATOM      4  O   UNL     1      -5.561 -75.377 -11.550  1.00  0.00    -0.550 OA
ENDBRANCH   1   2
BRANCH   1   5
ATOM      5  C   UNL     1      -3.855 -72.064 -12.340  1.00  0.00     0.003 C 
ATOM      6  C   UNL     1      -4.108 -70.747 -11.607  1.00  0.00     0.004 C 
ENDBRANCH   1   5
TORSDOF 2
ENDMDL
MODEL 2
REMARK VINA RESULT:    -2.964      1.501      1.843
REMARK INTER + INTRA:          -3.344
REMARK INTER:                  -3.335
REMARK INTRA:                  -0.009
REMARK UNBOUND:                -0.033
REMARK SMILES CCCC(=O)[O-]
REMARK SMILES IDX 3 1 4 2 5 3 6 4 2 5 1 6
REMARK H PARENT
REMARK Flexibility Score: inf
ROOT
ATOM      1  C   UNL     1      -5.543 -73.838 -11.915  1.00  0.00     0.052 C 
ENDROOT
BRANCH   1   2
ATOM      2  C   UNL     1      -6.004 -75.205 -11.514  1.00  0.00     0.041 C 
ATOM      3  O   UNL     1      -5.360 -76.223 -11.880  1.00  0.00    -0.550 OA
ATOM      4  O   UNL     1      -7.165 -75.358 -10.766  1.00  0.00    -0.550 OA
ENDBRANCH   1   2
BRANCH   1   5
ATOM      5  C   UNL     1      -4.034 -73.661 -11.704  1.00  0.00     0.003 C 
ATOM      6  C   UNL     1      -3.509 -72.365 -12.322  1.00  0.00     0.004 C 
ENDBRANCH   1   5
TORSDOF 2
ENDMDL
MODEL 3
REMARK VINA RESULT:    -2.644      7.496      8.611
REMARK INTER + INTRA:          -2.986
REMARK INTER:                  -2.978
REMARK INTRA:                  -0.008
REMARK UNBOUND:                -0.033
REMARK SMILES CCCC(=O)[O-]
REMARK SMILES IDX 3 1 4 2 5 3 6 4 2 5 1 6
REMARK H PARENT
REMARK Flexibility Score: inf
ROOT
ATOM      1  C   UNL     1      -4.616 -67.118  -6.414  1.00  0.00     0.052 C 
ENDROOT
BRANCH   1   2
ATOM      2  C   UNL     1      -3.392 -66.783  -5.620  1.00  0.00     0.041 C 
ATOM      3  O   UNL     1      -3.229 -67.274  -4.471  1.00  0.00    -0.550 OA
ATOM      4  O   UNL     1      -2.448 -65.902  -6.132  1.00  0.00    -0.550 OA
ENDBRANCH   1   2
BRANCH   1   5
ATOM      5  C   UNL     1      -4.559 -68.544  -6.976  1.00  0.00     0.003 C 
ATOM      6  C   UNL     1      -4.921 -68.600  -8.459  1.00  0.00     0.004 C 
ENDBRANCH   1   5
TORSDOF 2
ENDMDL
MODEL 4
REMARK VINA RESULT:    -2.597     13.882     14.463
REMARK INTER + INTRA:          -2.934
REMARK INTER:                  -2.926
REMARK INTRA:                  -0.008
REMARK UNBOUND:                -0.033
REMARK SMILES CCCC(=O)[O-]
REMARK SMILES IDX 3 1 4 2 5 3 6 4 2 5 1 6
REMARK H PARENT
REMARK Flexibility Score: inf
ROOT
ATOM      1  C   UNL     1     -17.879 -71.198  -8.665  1.00  0.00     0.052 C 
ENDROOT
BRANCH   1   2
ATOM      2  C   UNL     1     -17.752 -69.845  -9.292  1.00  0.00     0.041 C 
ATOM      3  O   UNL     1     -17.276 -69.727 -10.452  1.00  0.00    -0.550 OA
ATOM      4  O   UNL     1     -18.124 -68.709  -8.582  1.00  0.00    -0.550 OA
ENDBRANCH   1   2
BRANCH   1   5
ATOM      5  C   UNL     1     -17.996 -71.110  -7.138  1.00  0.00     0.003 C 
ATOM      6  C   UNL     1     -18.118 -72.485  -6.483  1.00  0.00     0.004 C 
ENDBRANCH   1   5
TORSDOF 2
ENDMDL
MODEL 5
REMARK VINA RESULT:    -2.589     15.590     16.363
REMARK INTER + INTRA:          -2.924
REMARK INTER:                  -2.886
REMARK INTRA:                  -0.038
REMARK UNBOUND:                -0.033
REMARK SMILES CCCC(=O)[O-]
REMARK SMILES IDX 3 1 4 2 5 3 6 4 2 5 1 6
REMARK H PARENT
REMARK Flexibility Score: inf
ROOT
ATOM      1  C   UNL     1      -8.833 -65.128   0.319  1.00  0.00     0.052 C 
ENDROOT
BRANCH   1   2
ATOM      2  C   UNL     1      -9.192 -63.696   0.067  1.00  0.00     0.041 C 
ATOM      3  O   UNL     1     -10.100 -63.143   0.742  1.00  0.00    -0.550 OA
ATOM      4  O   UNL     1      -8.547 -62.982  -0.936  1.00  0.00    -0.550 OA
ENDBRANCH   1   2
BRANCH   1   5
ATOM      5  C   UNL     1      -8.388 -65.358   1.769  1.00  0.00     0.003 C 
ATOM      6  C   UNL     1      -9.414 -66.156   2.572  1.00  0.00     0.004 C 
ENDBRANCH   1   5
TORSDOF 2
ENDMDL
MODEL 6
REMARK VINA RESULT:    -2.582     16.116     16.661
REMARK INTER + INTRA:          -2.917
REMARK INTER:                  -2.881
REMARK INTRA:                  -0.036
REMARK UNBOUND:                -0.033
REMARK SMILES CCCC(=O)[O-]
REMARK SMILES IDX 3 1 4 2 5 3 6 4 2 5 1 6
REMARK H PARENT
REMARK Flexibility Score: inf
ROOT
ATOM      1  C   UNL     1      -7.932 -74.602   4.960  1.00  0.00     0.052 C 
ENDROOT
BRANCH   1   2
ATOM      2  C   UNL     1      -8.351 -73.793   3.772  1.00  0.00     0.041 C 
ATOM      3  O   UNL     1      -8.742 -74.367   2.721  1.00  0.00    -0.550 OA
ATOM      4  O   UNL     1      -8.276 -72.406   3.811  1.00  0.00    -0.550 OA
ENDBRANCH   1   2
BRANCH   1   5
ATOM      5  C   UNL     1      -7.222 -75.897   4.547  1.00  0.00     0.003 C 
ATOM      6  C   UNL     1      -8.067 -77.139   4.828  1.00  0.00     0.004 C 
ENDBRANCH   1   5
TORSDOF 2
ENDMDL
MODEL 7
REMARK VINA RESULT:    -2.564      8.701      9.121
REMARK INTER + INTRA:          -2.897
REMARK INTER:                  -2.849
REMARK INTRA:                  -0.048
REMARK UNBOUND:                -0.033
REMARK SMILES CCCC(=O)[O-]
REMARK SMILES IDX 3 1 4 2 5 3 6 4 2 5 1 6
REMARK H PARENT
REMARK Flexibility Score: inf
ROOT
ATOM      1  C   UNL     1      -4.581 -67.454  -6.260  1.00  0.00     0.052 C 
ENDROOT
BRANCH   1   2
ATOM      2  C   UNL     1      -3.437 -66.936  -5.445  1.00  0.00     0.041 C 
ATOM      3  O   UNL     1      -3.420 -67.107  -4.197  1.00  0.00    -0.550 OA
ATOM      4  O   UNL     1      -2.406 -66.234  -6.057  1.00  0.00    -0.550 OA
ENDBRANCH   1   2
BRANCH   1   5
ATOM      5  C   UNL     1      -4.967 -66.481  -7.382  1.00  0.00     0.003 C 
ATOM      6  C   UNL     1      -5.660 -65.227  -6.852  1.00  0.00     0.004 C 
ENDBRANCH   1   5
TORSDOF 2
ENDMDL
MODEL 8
REMARK VINA RESULT:    -2.481      9.863     10.622
REMARK INTER + INTRA:          -2.805
REMARK INTER:                  -2.777
REMARK INTRA:                  -0.028
REMARK UNBOUND:                -0.033
REMARK SMILES CCCC(=O)[O-]
REMARK SMILES IDX 3 1 4 2 5 3 6 4 2 5 1 6
REMARK H PARENT
REMARK Flexibility Score: inf
ROOT
ATOM      1  C   UNL     1     -14.189 -76.139  -8.937  1.00  0.00     0.052 C 
ENDROOT
BRANCH   1   2
ATOM      2  C   UNL     1     -13.631 -76.662 -10.225  1.00  0.00     0.041 C 
ATOM      3  O   UNL     1     -13.237 -75.863 -11.115  1.00  0.00    -0.550 OA
ATOM      4  O   UNL     1     -13.577 -78.031 -10.456  1.00  0.00    -0.550 OA
ENDBRANCH   1   2
BRANCH   1   5
ATOM      5  C   UNL     1     -13.555 -76.825  -7.721  1.00  0.00     0.003 C 
ATOM      6  C   UNL     1     -14.602 -77.369  -6.749  1.00  0.00     0.004 C 
ENDBRANCH   1   5
TORSDOF 2
ENDMDL
MODEL 9
REMARK VINA RESULT:    -2.468     11.120     12.396
REMARK INTER + INTRA:          -2.790
REMARK INTER:                  -2.752
REMARK INTRA:                  -0.038
REMARK UNBOUND:                -0.033
REMARK SMILES CCCC(=O)[O-]
REMARK SMILES IDX 3 1 4 2 5 3 6 4 2 5 1 6
REMARK H PARENT
REMARK Flexibility Score: inf
ROOT
ATOM      1  C   UNL     1       0.293 -62.887  -6.587  1.00  0.00     0.052 C 
ENDROOT
BRANCH   1   2
ATOM      2  C   UNL     1       0.437 -64.371  -6.718  1.00  0.00     0.041 C 
ATOM      3  O   UNL     1       1.019 -65.033  -5.818  1.00  0.00    -0.550 OA
ATOM      4  O   UNL     1      -0.040 -65.021  -7.850  1.00  0.00    -0.550 OA
ENDBRANCH   1   2
BRANCH   1   5
ATOM      5  C   UNL     1       1.641 -62.169  -6.729  1.00  0.00     0.003 C 
ATOM      6  C   UNL     1       2.125 -61.573  -5.408  1.00  0.00     0.004 C 
ENDBRANCH   1   5
TORSDOF 2
ENDMDL
