MODEL 1
REMARK VINA RESULT:    24.999      0.000      0.000
REMARK INTER + INTRA:          29.577
REMARK INTER:                  29.383
REMARK INTRA:                   0.193
REMARK UNBOUND:                 0.193
REMARK SMILES O=c1c(O)c(-c2ccc(O)cc2)oc2cc(O)cc(O)c12
REMARK SMILES IDX 5 1 3 2 2 3 1 4 21 5 19 6 18 7 16 8 15 9 14 10 13 11 6 12
REMARK SMILES IDX 7 13 8 14 9 15 12 16 11 17 10 18 4 20 20 22 17 24
REMARK H PARENT 10 19 4 21 20 23 17 25
REMARK Flexibility Score: inf
ROOT
ATOM      1  C   UNL     1      28.668 -14.051 -24.109  1.00  0.00     0.180 A 
ATOM      2  C   UNL     1      28.585 -14.511 -25.434  1.00  0.00     0.208 A 
ATOM      3  C   UNL     1      28.783 -15.877 -25.694  1.00  0.00     0.238 A 
ATOM      4  O   UNL     1      28.761 -16.275 -26.888  1.00  0.00    -0.285 OA
ATOM      5  C   UNL     1      29.046 -16.767 -24.624  1.00  0.00     0.111 A 
ATOM      6  C   UNL     1      29.222 -18.176 -24.766  1.00  0.00     0.134 A 
ATOM      7  C   UNL     1      29.607 -18.940 -23.657  1.00  0.00     0.093 A 
ATOM      8  C   UNL     1      29.757 -18.354 -22.398  1.00  0.00     0.123 A 
ATOM      9  C   UNL     1      29.528 -16.990 -22.237  1.00  0.00     0.094 A 
ATOM     10  C   UNL     1      29.179 -16.196 -23.331  1.00  0.00     0.146 A 
ATOM     11  O   UNL     1      28.982 -14.898 -23.136  1.00  0.00    -0.452 OA
ENDROOT
BRANCH   1  12
ATOM     12  C   UNL     1      28.447 -12.630 -23.754  1.00  0.00     0.021 A 
ATOM     13  C   UNL     1      27.486 -11.849 -24.421  1.00  0.00     0.016 A 
ATOM     14  C   UNL     1      27.277 -10.517 -24.052  1.00  0.00     0.047 A 
ATOM     15  C   UNL     1      28.017  -9.952 -23.004  1.00  0.00     0.115 A 
ATOM     16  C   UNL     1      29.169 -12.062 -22.691  1.00  0.00     0.016 A 
ATOM     17  C   UNL     1      28.959 -10.730 -22.324  1.00  0.00     0.047 A 
BRANCH  15  18
ATOM     18  O   UNL     1      27.818  -8.626 -22.628  1.00  0.00    -0.508 OA
ATOM     19  H   UNL     1      27.801  -7.879 -23.312  1.00  0.00     0.293 HD
ENDBRANCH  15  18
ENDBRANCH   1  12
BRANCH   2  20
ATOM     20  O   UNL     1      28.348 -13.613 -26.478  1.00  0.00    -0.502 OA
ATOM     21  H   UNL     1      29.081 -13.297 -27.102  1.00  0.00     0.293 HD
ENDBRANCH   2  20
BRANCH   6  22
ATOM     22  O   UNL     1      29.008 -18.873 -25.959  1.00  0.00    -0.507 OA
ATOM     23  H   UNL     1      29.595 -18.805 -26.778  1.00  0.00     0.293 HD
ENDBRANCH   6  22
BRANCH   8  24
ATOM     24  O   UNL     1      30.124 -19.125 -21.296  1.00  0.00    -0.508 OA
ATOM     25  H   UNL     1      30.617 -18.722 -20.508  1.00  0.00     0.293 HD
ENDBRANCH   8  24
TORSDOF 5
ENDMDL
MODEL 2
REMARK VINA RESULT:    27.884     11.042     12.794
REMARK INTER + INTRA:          32.967
REMARK INTER:                  33.221
REMARK INTRA:                  -0.254
REMARK UNBOUND:                 0.193
REMARK SMILES O=c1c(O)c(-c2ccc(O)cc2)oc2cc(O)cc(O)c12
REMARK SMILES IDX 5 1 3 2 2 3 1 4 21 5 19 6 18 7 16 8 15 9 14 10 13 11 6 12
REMARK SMILES IDX 7 13 8 14 9 15 12 16 11 17 10 18 4 20 20 22 17 24
REMARK H PARENT 10 19 4 21 20 23 17 25
REMARK Flexibility Score: inf
ROOT
ATOM      1  C   UNL     1      20.150 -12.524 -15.566  1.00  0.00     0.180 A 
ATOM      2  C   UNL     1      21.312 -12.128 -14.881  1.00  0.00     0.208 A 
ATOM      3  C   UNL     1      22.464 -11.813 -15.621  1.00  0.00     0.238 A 
ATOM      4  O   UNL     1      23.516 -11.511 -15.001  1.00  0.00    -0.285 OA
ATOM      5  C   UNL     1      22.434 -11.882 -17.035  1.00  0.00     0.111 A 
ATOM      6  C   UNL     1      23.529 -11.546 -17.886  1.00  0.00     0.134 A 
ATOM      7  C   UNL     1      23.430 -11.776 -19.264  1.00  0.00     0.093 A 
ATOM      8  C   UNL     1      22.251 -12.270 -19.827  1.00  0.00     0.123 A 
ATOM      9  C   UNL     1      21.156 -12.545 -19.011  1.00  0.00     0.094 A 
ATOM     10  C   UNL     1      21.237 -12.359 -17.630  1.00  0.00     0.146 A 
ATOM     11  O   UNL     1      20.174 -12.644 -16.888  1.00  0.00    -0.452 OA
ENDROOT
BRANCH   1  12
ATOM     12  C   UNL     1      18.891 -12.849 -14.857  1.00  0.00     0.021 A 
ATOM     13  C   UNL     1      18.520 -14.181 -14.597  1.00  0.00     0.016 A 
ATOM     14  C   UNL     1      17.339 -14.463 -13.904  1.00  0.00     0.047 A 
ATOM     15  C   UNL     1      16.520 -13.419 -13.452  1.00  0.00     0.115 A 
ATOM     16  C   UNL     1      18.076 -11.808 -14.382  1.00  0.00     0.016 A 
ATOM     17  C   UNL     1      16.895 -12.093 -13.691  1.00  0.00     0.047 A 
BRANCH  15  18
ATOM     18  O   UNL     1      15.342 -13.688 -12.762  1.00  0.00    -0.508 OA
ATOM     19  H   UNL     1      15.347 -13.923 -11.776  1.00  0.00     0.293 HD
ENDBRANCH  15  18
ENDBRANCH   1  12
BRANCH   2  20
ATOM     20  O   UNL     1      21.327 -12.088 -13.485  1.00  0.00    -0.502 OA
ATOM     21  H   UNL     1      20.722 -12.670 -12.917  1.00  0.00     0.293 HD
ENDBRANCH   2  20
BRANCH   6  22
ATOM     22  O   UNL     1      24.717 -10.962 -17.436  1.00  0.00    -0.507 OA
ATOM     23  H   UNL     1      24.956 -10.819 -16.465  1.00  0.00     0.293 HD
ENDBRANCH   6  22
BRANCH   8  24
ATOM     24  O   UNL     1      22.156 -12.482 -21.201  1.00  0.00    -0.508 OA
ATOM     25  H   UNL     1      21.446 -12.023 -21.760  1.00  0.00     0.293 HD
ENDBRANCH   8  24
TORSDOF 5
ENDMDL
