MODEL 1
REMARK VINA RESULT:    -4.022      0.000      0.000
REMARK INTER + INTRA:          -9.395
REMARK INTER:                  -7.078
REMARK INTRA:                  -2.316
REMARK UNBOUND:                -2.316
REMARK SMILES CCCCCCCCCCCCCCC(=O)[O-]
REMARK SMILES IDX 9 1 10 2 11 3 12 4 13 5 14 6 15 7 16 8 17 9 8 10 7 11 6 12
REMARK SMILES IDX 5 13 4 14 3 15 2 16 1 17
REMARK H PARENT
REMARK Flexibility Score: inf
ROOT
ATOM      1  C   UNL     1      -6.644  -9.863 -15.262  1.00  0.00     0.000 C 
ENDROOT
BRANCH   1   2
ATOM      2  C   UNL     1      -5.922  -9.012 -14.209  1.00  0.00     0.000 C 
BRANCH   2   3
ATOM      3  C   UNL     1      -4.953  -8.021 -14.872  1.00  0.00     0.000 C 
BRANCH   3   4
ATOM      4  C   UNL     1      -5.465  -7.535 -16.245  1.00  0.00     0.000 C 
BRANCH   4   5
ATOM      5  C   UNL     1      -4.369  -6.913 -17.127  1.00  0.00     0.006 C 
BRANCH   5   6
ATOM      6  C   UNL     1      -4.457  -7.359 -18.591  1.00  0.00     0.053 C 
BRANCH   6   7
ATOM      7  C   UNL     1      -3.090  -7.622 -19.141  1.00  0.00     0.041 C 
ATOM      8  O   UNL     1      -2.939  -8.400 -20.119  1.00  0.00    -0.550 OA
ATOM      9  O   UNL     1      -1.978  -7.045 -18.542  1.00  0.00    -0.550 OA
ENDBRANCH   6   7
ENDBRANCH   5   6
ENDBRANCH   4   5
ENDBRANCH   3   4
ENDBRANCH   2   3
ENDBRANCH   1   2
BRANCH   1  10
ATOM     10  C   UNL     1      -5.818 -11.106 -15.624  1.00  0.00     0.000 C 
BRANCH  10  11
ATOM     11  C   UNL     1      -5.466 -11.166 -17.119  1.00  0.00    -0.000 C 
BRANCH  11  12
ATOM     12  C   UNL     1      -3.988 -10.833 -17.392  1.00  0.00    -0.000 C 
BRANCH  12  13
ATOM     13  C   UNL     1      -3.120 -10.914 -16.127  1.00  0.00    -0.000 C 
BRANCH  13  14
ATOM     14  C   UNL     1      -2.021  -9.837 -16.094  1.00  0.00    -0.000 C 
BRANCH  14  15
ATOM     15  C   UNL     1      -1.388  -9.696 -14.693  1.00  0.00    -0.000 C 
BRANCH  15  16
ATOM     16  C   UNL     1      -1.367  -8.250 -14.170  1.00  0.00    -0.003 C 
ATOM     17  C   UNL     1      -0.976  -7.232 -15.238  1.00  0.00     0.004 C 
ENDBRANCH  15  16
ENDBRANCH  14  15
ENDBRANCH  13  14
ENDBRANCH  12  13
ENDBRANCH  11  12
ENDBRANCH  10  11
ENDBRANCH   1  10
TORSDOF 13
ENDMDL
MODEL 2
REMARK VINA RESULT:    -3.915      3.056      5.442
REMARK INTER + INTRA:          -9.207
REMARK INTER:                  -7.286
REMARK INTRA:                  -1.922
REMARK UNBOUND:                -2.316
REMARK SMILES CCCCCCCCCCCCCCC(=O)[O-]
REMARK SMILES IDX 9 1 10 2 11 3 12 4 13 5 14 6 15 7 16 8 17 9 8 10 7 11 6 12
REMARK SMILES IDX 5 13 4 14 3 15 2 16 1 17
REMARK H PARENT
REMARK Flexibility Score: inf
ROOT
ATOM      1  C   UNL     1      -0.775  -9.178 -13.852  1.00  0.00     0.000 C 
ENDROOT
BRANCH   1   2
ATOM      2  C   UNL     1      -1.796 -10.323 -13.833  1.00  0.00     0.000 C 
BRANCH   2   3
ATOM      3  C   UNL     1      -2.675 -10.298 -15.093  1.00  0.00     0.000 C 
BRANCH   3   4
ATOM      4  C   UNL     1      -4.169 -10.511 -14.765  1.00  0.00     0.000 C 
BRANCH   4   5
ATOM      5  C   UNL     1      -4.945  -9.201 -14.545  1.00  0.00     0.006 C 
BRANCH   5   6
ATOM      6  C   UNL     1      -6.446  -9.344 -14.819  1.00  0.00     0.053 C 
BRANCH   6   7
ATOM      7  C   UNL     1      -7.017 -10.476 -14.023  1.00  0.00     0.041 C 
ATOM      8  O   UNL     1      -6.993 -10.441 -12.764  1.00  0.00    -0.550 OA
ATOM      9  O   UNL     1      -7.533 -11.590 -14.671  1.00  0.00    -0.550 OA
ENDBRANCH   6   7
ENDBRANCH   5   6
ENDBRANCH   4   5
ENDBRANCH   3   4
ENDBRANCH   2   3
ENDBRANCH   1   2
BRANCH   1  10
ATOM     10  C   UNL     1      -1.456  -7.840 -14.172  1.00  0.00     0.000 C 
BRANCH  10  11
ATOM     11  C   UNL     1      -0.696  -7.029 -15.233  1.00  0.00    -0.000 C 
BRANCH  11  12
ATOM     12  C   UNL     1      -0.215  -7.898 -16.409  1.00  0.00    -0.000 C 
BRANCH  12  13
ATOM     13  C   UNL     1      -1.273  -8.035 -17.514  1.00  0.00    -0.000 C 
BRANCH  13  14
ATOM     14  C   UNL     1      -2.218  -6.821 -17.582  1.00  0.00    -0.000 C 
BRANCH  14  15
ATOM     15  C   UNL     1      -3.683  -7.209 -17.290  1.00  0.00    -0.000 C 
BRANCH  15  16
ATOM     16  C   UNL     1      -4.436  -7.742 -18.521  1.00  0.00    -0.003 C 
ATOM     17  C   UNL     1      -4.733  -9.237 -18.440  1.00  0.00     0.004 C 
ENDBRANCH  15  16
ENDBRANCH  14  15
ENDBRANCH  13  14
ENDBRANCH  12  13
ENDBRANCH  11  12
ENDBRANCH  10  11
ENDBRANCH   1  10
TORSDOF 13
ENDMDL
MODEL 3
REMARK VINA RESULT:    -3.909      2.994      4.988
REMARK INTER + INTRA:          -9.196
REMARK INTER:                  -6.862
REMARK INTRA:                  -2.334
REMARK UNBOUND:                -2.316
REMARK SMILES CCCCCCCCCCCCCCC(=O)[O-]
REMARK SMILES IDX 9 1 10 2 11 3 12 4 13 5 14 6 15 7 16 8 17 9 8 10 7 11 6 12
REMARK SMILES IDX 5 13 4 14 3 15 2 16 1 17
REMARK H PARENT
REMARK Flexibility Score: inf
ROOT
ATOM      1  C   UNL     1      -2.622  -6.965 -17.647  1.00  0.00     0.000 C 
ENDROOT
BRANCH   1   2
ATOM      2  C   UNL     1      -3.961  -7.582 -18.070  1.00  0.00     0.000 C 
BRANCH   2   3
ATOM      3  C   UNL     1      -4.533  -8.474 -16.957  1.00  0.00     0.000 C 
BRANCH   3   4
ATOM      4  C   UNL     1      -5.121  -7.648 -15.792  1.00  0.00     0.000 C 
BRANCH   4   5
ATOM      5  C   UNL     1      -5.800  -8.505 -14.710  1.00  0.00     0.006 C 
BRANCH   5   6
ATOM      6  C   UNL     1      -6.619  -9.661 -15.293  1.00  0.00     0.053 C 
BRANCH   6   7
ATOM      7  C   UNL     1      -7.008 -10.623 -14.213  1.00  0.00     0.041 C 
ATOM      8  O   UNL     1      -6.638 -10.426 -13.026  1.00  0.00    -0.550 OA
ATOM      9  O   UNL     1      -7.740 -11.760 -14.527  1.00  0.00    -0.550 OA
ENDBRANCH   6   7
ENDBRANCH   5   6
ENDBRANCH   4   5
ENDBRANCH   3   4
ENDBRANCH   2   3
ENDBRANCH   1   2
BRANCH   1  10
ATOM     10  C   UNL     1      -1.466  -7.950 -17.878  1.00  0.00     0.000 C 
BRANCH  10  11
ATOM     11  C   UNL     1      -0.554  -8.088 -16.649  1.00  0.00    -0.000 C 
BRANCH  11  12
ATOM     12  C   UNL     1      -1.023  -7.227 -15.463  1.00  0.00    -0.000 C 
BRANCH  12  13
ATOM     13  C   UNL     1      -1.425  -8.070 -14.244  1.00  0.00    -0.000 C 
BRANCH  13  14
ATOM     14  C   UNL     1      -1.395  -9.581 -14.533  1.00  0.00    -0.000 C 
BRANCH  14  15
ATOM     15  C   UNL     1      -2.739 -10.264 -14.199  1.00  0.00    -0.000 C 
BRANCH  15  16
ATOM     16  C   UNL     1      -3.130 -11.371 -15.193  1.00  0.00    -0.003 C 
ATOM     17  C   UNL     1      -2.304 -11.343 -16.476  1.00  0.00     0.004 C 
ENDBRANCH  15  16
ENDBRANCH  14  15
ENDBRANCH  13  14
ENDBRANCH  12  13
ENDBRANCH  11  12
ENDBRANCH  10  11
ENDBRANCH   1  10
TORSDOF 13
ENDMDL
MODEL 4
REMARK VINA RESULT:    -3.823      1.737      3.418
REMARK INTER + INTRA:          -9.044
REMARK INTER:                  -6.638
REMARK INTRA:                  -2.406
REMARK UNBOUND:                -2.316
REMARK SMILES CCCCCCCCCCCCCCC(=O)[O-]
REMARK SMILES IDX 9 1 10 2 11 3 12 4 13 5 14 6 15 7 16 8 17 9 8 10 7 11 6 12
REMARK SMILES IDX 5 13 4 14 3 15 2 16 1 17
REMARK H PARENT
REMARK Flexibility Score: inf
ROOT
ATOM      1  C   UNL     1      -4.085  -7.383 -18.299  1.00  0.00     0.000 C 
ENDROOT
BRANCH   1   2
ATOM      2  C   UNL     1      -4.618  -8.800 -18.547  1.00  0.00     0.000 C 
BRANCH   2   3
ATOM      3  C   UNL     1      -3.465  -9.795 -18.749  1.00  0.00     0.000 C 
BRANCH   3   4
ATOM      4  C   UNL     1      -2.089  -9.163 -18.447  1.00  0.00     0.000 C 
BRANCH   4   5
ATOM      5  C   UNL     1      -1.120  -9.197 -19.642  1.00  0.00     0.006 C 
BRANCH   5   6
ATOM      6  C   UNL     1      -1.029  -7.853 -20.373  1.00  0.00     0.053 C 
BRANCH   6   7
ATOM      7  C   UNL     1      -2.037  -7.789 -21.477  1.00  0.00     0.041 C 
ATOM      8  O   UNL     1      -2.465  -8.848 -22.007  1.00  0.00    -0.550 OA
ATOM      9  O   UNL     1      -2.470  -6.558 -21.952  1.00  0.00    -0.550 OA
ENDBRANCH   6   7
ENDBRANCH   5   6
ENDBRANCH   4   5
ENDBRANCH   3   4
ENDBRANCH   2   3
ENDBRANCH   1   2
BRANCH   1  10
ATOM     10  C   UNL     1      -4.550  -6.852 -16.935  1.00  0.00     0.000 C 
BRANCH  10  11
ATOM     11  C   UNL     1      -5.403  -7.871 -16.164  1.00  0.00    -0.000 C 
BRANCH  11  12
ATOM     12  C   UNL     1      -4.744  -8.319 -14.848  1.00  0.00    -0.000 C 
BRANCH  12  13
ATOM     13  C   UNL     1      -4.165  -9.739 -14.930  1.00  0.00    -0.000 C 
BRANCH  13  14
ATOM     14  C   UNL     1      -2.628  -9.757 -14.851  1.00  0.00    -0.000 C 
BRANCH  14  15
ATOM     15  C   UNL     1      -2.052  -8.393 -14.416  1.00  0.00    -0.000 C 
BRANCH  15  16
ATOM     16  C   UNL     1      -0.809  -7.966 -15.214  1.00  0.00    -0.003 C 
ATOM     17  C   UNL     1      -0.973  -6.613 -15.901  1.00  0.00     0.004 C 
ENDBRANCH  15  16
ENDBRANCH  14  15
ENDBRANCH  13  14
ENDBRANCH  12  13
ENDBRANCH  11  12
ENDBRANCH  10  11
ENDBRANCH   1  10
TORSDOF 13
ENDMDL
MODEL 5
REMARK VINA RESULT:    -3.819      2.444      4.502
REMARK INTER + INTRA:          -9.037
REMARK INTER:                  -7.035
REMARK INTRA:                  -2.002
REMARK UNBOUND:                -2.316
REMARK SMILES CCCCCCCCCCCCCCC(=O)[O-]
REMARK SMILES IDX 9 1 10 2 11 3 12 4 13 5 14 6 15 7 16 8 17 9 8 10 7 11 6 12
REMARK SMILES IDX 5 13 4 14 3 15 2 16 1 17
REMARK H PARENT
REMARK Flexibility Score: inf
ROOT
ATOM      1  C   UNL     1      -4.759  -8.924 -18.469  1.00  0.00     0.000 C 
ENDROOT
BRANCH   1   2
ATOM      2  C   UNL     1      -3.670  -9.902 -18.929  1.00  0.00     0.000 C 
BRANCH   2   3
ATOM      3  C   UNL     1      -3.617 -11.137 -18.017  1.00  0.00     0.000 C 
BRANCH   3   4
ATOM      4  C   UNL     1      -2.860 -10.857 -16.701  1.00  0.00     0.000 C 
BRANCH   4   5
ATOM      5  C   UNL     1      -3.727 -11.032 -15.442  1.00  0.00     0.006 C 
BRANCH   5   6
ATOM      6  C   UNL     1      -4.158  -9.697 -14.825  1.00  0.00     0.053 C 
BRANCH   6   7
ATOM      7  C   UNL     1      -5.644  -9.538 -14.909  1.00  0.00     0.041 C 
ATOM      8  O   UNL     1      -6.208  -8.552 -14.364  1.00  0.00    -0.550 OA
ATOM      9  O   UNL     1      -6.411 -10.502 -15.550  1.00  0.00    -0.550 OA
ENDBRANCH   6   7
ENDBRANCH   5   6
ENDBRANCH   4   5
ENDBRANCH   3   4
ENDBRANCH   2   3
ENDBRANCH   1   2
BRANCH   1  10
ATOM     10  C   UNL     1      -4.273  -7.471 -18.579  1.00  0.00     0.000 C 
BRANCH  10  11
ATOM     11  C   UNL     1      -3.800  -6.902 -17.232  1.00  0.00    -0.000 C 
BRANCH  11  12
ATOM     12  C   UNL     1      -2.310  -6.518 -17.243  1.00  0.00    -0.000 C 
BRANCH  12  13
ATOM     13  C   UNL     1      -1.415  -7.603 -16.624  1.00  0.00    -0.000 C 
BRANCH  13  14
ATOM     14  C   UNL     1      -0.712  -7.128 -15.340  1.00  0.00    -0.000 C 
BRANCH  14  15
ATOM     15  C   UNL     1      -1.218  -7.878 -14.089  1.00  0.00    -0.000 C 
BRANCH  15  16
ATOM     16  C   UNL     1      -0.623  -9.287 -13.933  1.00  0.00    -0.003 C 
ATOM     17  C   UNL     1      -0.392  -9.682 -12.477  1.00  0.00     0.004 C 
ENDBRANCH  15  16
ENDBRANCH  14  15
ENDBRANCH  13  14
ENDBRANCH  12  13
ENDBRANCH  11  12
ENDBRANCH  10  11
ENDBRANCH   1  10
TORSDOF 13
ENDMDL
MODEL 6
REMARK VINA RESULT:    -3.818      1.690      4.299
REMARK INTER + INTRA:          -9.036
REMARK INTER:                  -6.820
REMARK INTRA:                  -2.217
REMARK UNBOUND:                -2.316
REMARK SMILES CCCCCCCCCCCCCCC(=O)[O-]
REMARK SMILES IDX 9 1 10 2 11 3 12 4 13 5 14 6 15 7 16 8 17 9 8 10 7 11 6 12
REMARK SMILES IDX 5 13 4 14 3 15 2 16 1 17
REMARK H PARENT
REMARK Flexibility Score: inf
ROOT
ATOM      1  C   UNL     1      -6.183 -10.272 -15.551  1.00  0.00     0.000 C 
ENDROOT
BRANCH   1   2
ATOM      2  C   UNL     1      -5.461 -11.575 -15.184  1.00  0.00     0.000 C 
BRANCH   2   3
ATOM      3  C   UNL     1      -3.956 -11.473 -15.477  1.00  0.00     0.000 C 
BRANCH   3   4
ATOM      4  C   UNL     1      -3.109 -11.474 -14.185  1.00  0.00     0.000 C 
BRANCH   4   5
ATOM      5  C   UNL     1      -2.078 -10.334 -14.124  1.00  0.00     0.006 C 
BRANCH   5   6
ATOM      6  C   UNL     1      -2.031  -9.503 -15.411  1.00  0.00     0.053 C 
BRANCH   6   7
ATOM      7  C   UNL     1      -1.385  -8.177 -15.154  1.00  0.00     0.041 C 
ATOM      8  O   UNL     1      -0.792  -7.570 -16.085  1.00  0.00    -0.550 OA
ATOM      9  O   UNL     1      -1.398  -7.634 -13.876  1.00  0.00    -0.550 OA
ENDBRANCH   6   7
ENDBRANCH   5   6
ENDBRANCH   4   5
ENDBRANCH   3   4
ENDBRANCH   2   3
ENDBRANCH   1   2
BRANCH   1  10
ATOM     10  C   UNL     1      -6.072  -9.244 -14.416  1.00  0.00     0.000 C 
BRANCH  10  11
ATOM     11  C   UNL     1      -5.243  -8.012 -14.813  1.00  0.00    -0.000 C 
BRANCH  11  12
ATOM     12  C   UNL     1      -5.506  -7.564 -16.262  1.00  0.00    -0.000 C 
BRANCH  12  13
ATOM     13  C   UNL     1      -4.277  -6.909 -16.910  1.00  0.00    -0.000 C 
BRANCH  13  14
ATOM     14  C   UNL     1      -4.221  -7.133 -18.432  1.00  0.00    -0.000 C 
BRANCH  14  15
ATOM     15  C   UNL     1      -3.117  -8.136 -18.832  1.00  0.00    -0.000 C 
BRANCH  15  16
ATOM     16  C   UNL     1      -3.554  -9.607 -18.721  1.00  0.00    -0.003 C 
ATOM     17  C   UNL     1      -5.026  -9.821 -19.060  1.00  0.00     0.004 C 
ENDBRANCH  15  16
ENDBRANCH  14  15
ENDBRANCH  13  14
ENDBRANCH  12  13
ENDBRANCH  11  12
ENDBRANCH  10  11
ENDBRANCH   1  10
TORSDOF 13
ENDMDL
MODEL 7
REMARK VINA RESULT:    -3.795      1.883      4.366
REMARK INTER + INTRA:          -8.995
REMARK INTER:                  -7.021
REMARK INTRA:                  -1.974
REMARK UNBOUND:                -2.316
REMARK SMILES CCCCCCCCCCCCCCC(=O)[O-]
REMARK SMILES IDX 9 1 10 2 11 3 12 4 13 5 14 6 15 7 16 8 17 9 8 10 7 11 6 12
REMARK SMILES IDX 5 13 4 14 3 15 2 16 1 17
REMARK H PARENT
REMARK Flexibility Score: inf
ROOT
ATOM      1  C   UNL     1      -4.460  -6.850 -17.092  1.00  0.00     0.000 C 
ENDROOT
BRANCH   1   2
ATOM      2  C   UNL     1      -4.486  -7.460 -18.499  1.00  0.00     0.000 C 
BRANCH   2   3
ATOM      3  C   UNL     1      -3.066  -7.596 -19.068  1.00  0.00     0.000 C 
BRANCH   3   4
ATOM      4  C   UNL     1      -1.994  -7.063 -18.092  1.00  0.00     0.000 C 
BRANCH   4   5
ATOM      5  C   UNL     1      -1.019  -8.144 -17.597  1.00  0.00     0.006 C 
BRANCH   5   6
ATOM      6  C   UNL     1      -1.437  -8.753 -16.254  1.00  0.00     0.053 C 
BRANCH   6   7
ATOM      7  C   UNL     1      -1.047  -7.849 -15.126  1.00  0.00     0.041 C 
ATOM      8  O   UNL     1      -1.354  -8.145 -13.941  1.00  0.00    -0.550 OA
ATOM      9  O   UNL     1      -0.385  -6.657 -15.389  1.00  0.00    -0.550 OA
ENDBRANCH   6   7
ENDBRANCH   5   6
ENDBRANCH   4   5
ENDBRANCH   3   4
ENDBRANCH   2   3
ENDBRANCH   1   2
BRANCH   1  10
ATOM     10  C   UNL     1      -5.463  -7.556 -16.168  1.00  0.00     0.000 C 
BRANCH  10  11
ATOM     11  C   UNL     1      -4.801  -8.132 -14.907  1.00  0.00    -0.000 C 
BRANCH  11  12
ATOM     12  C   UNL     1      -5.318  -9.539 -14.557  1.00  0.00    -0.000 C 
BRANCH  12  13
ATOM     13  C   UNL     1      -4.246 -10.624 -14.737  1.00  0.00    -0.000 C 
BRANCH  13  14
ATOM     14  C   UNL     1      -4.675 -11.721 -15.727  1.00  0.00    -0.000 C 
BRANCH  14  15
ATOM     15  C   UNL     1      -5.505 -11.155 -16.899  1.00  0.00    -0.000 C 
BRANCH  15  16
ATOM     16  C   UNL     1      -4.682 -10.912 -18.176  1.00  0.00    -0.003 C 
ATOM     17  C   UNL     1      -3.307 -11.574 -18.136  1.00  0.00     0.004 C 
ENDBRANCH  15  16
ENDBRANCH  14  15
ENDBRANCH  13  14
ENDBRANCH  12  13
ENDBRANCH  11  12
ENDBRANCH  10  11
ENDBRANCH   1  10
TORSDOF 13
ENDMDL
MODEL 8
REMARK VINA RESULT:    -3.763      1.449      3.900
REMARK INTER + INTRA:          -8.938
REMARK INTER:                  -6.890
REMARK INTRA:                  -2.048
REMARK UNBOUND:                -2.316
REMARK SMILES CCCCCCCCCCCCCCC(=O)[O-]
REMARK SMILES IDX 9 1 10 2 11 3 12 4 13 5 14 6 15 7 16 8 17 9 8 10 7 11 6 12
REMARK SMILES IDX 5 13 4 14 3 15 2 16 1 17
REMARK H PARENT
REMARK Flexibility Score: inf
ROOT
ATOM      1  C   UNL     1      -2.615  -9.254 -14.623  1.00  0.00     0.000 C 
ENDROOT
BRANCH   1   2
ATOM      2  C   UNL     1      -1.387  -8.427 -14.219  1.00  0.00     0.000 C 
BRANCH   2   3
ATOM      3  C   UNL     1      -1.050  -7.381 -15.292  1.00  0.00     0.000 C 
BRANCH   3   4
ATOM      4  C   UNL     1      -0.742  -8.027 -16.660  1.00  0.00     0.000 C 
BRANCH   4   5
ATOM      5  C   UNL     1      -1.683  -7.564 -17.786  1.00  0.00     0.006 C 
BRANCH   5   6
ATOM      6  C   UNL     1      -2.738  -6.560 -17.306  1.00  0.00     0.053 C 
BRANCH   6   7
ATOM      7  C   UNL     1      -4.115  -7.096 -17.543  1.00  0.00     0.041 C 
ATOM      8  O   UNL     1      -4.963  -7.101 -16.612  1.00  0.00    -0.550 OA
ATOM      9  O   UNL     1      -4.448  -7.634 -18.779  1.00  0.00    -0.550 OA
ENDBRANCH   6   7
ENDBRANCH   5   6
ENDBRANCH   4   5
ENDBRANCH   3   4
ENDBRANCH   2   3
ENDBRANCH   1   2
BRANCH   1  10
ATOM     10  C   UNL     1      -2.405 -10.741 -14.304  1.00  0.00     0.000 C 
BRANCH  10  11
ATOM     11  C   UNL     1      -2.565 -11.639 -15.541  1.00  0.00    -0.000 C 
BRANCH  11  12
ATOM     12  C   UNL     1      -3.014 -10.855 -16.787  1.00  0.00    -0.000 C 
BRANCH  12  13
ATOM     13  C   UNL     1      -4.248 -11.474 -17.461  1.00  0.00    -0.000 C 
BRANCH  13  14
ATOM     14  C   UNL     1      -5.525 -10.647 -17.231  1.00  0.00    -0.000 C 
BRANCH  14  15
ATOM     15  C   UNL     1      -6.226 -11.017 -15.906  1.00  0.00    -0.000 C 
BRANCH  15  16
ATOM     16  C   UNL     1      -6.503  -9.807 -14.998  1.00  0.00    -0.003 C 
ATOM     17  C   UNL     1      -6.384 -10.135 -13.512  1.00  0.00     0.004 C 
ENDBRANCH  15  16
ENDBRANCH  14  15
ENDBRANCH  13  14
ENDBRANCH  12  13
ENDBRANCH  11  12
ENDBRANCH  10  11
ENDBRANCH   1  10
TORSDOF 13
ENDMDL
MODEL 9
REMARK VINA RESULT:    -3.760      1.857      3.780
REMARK INTER + INTRA:          -8.934
REMARK INTER:                  -6.861
REMARK INTRA:                  -2.073
REMARK UNBOUND:                -2.316
REMARK SMILES CCCCCCCCCCCCCCC(=O)[O-]
REMARK SMILES IDX 9 1 10 2 11 3 12 4 13 5 14 6 15 7 16 8 17 9 8 10 7 11 6 12
REMARK SMILES IDX 5 13 4 14 3 15 2 16 1 17
REMARK H PARENT
REMARK Flexibility Score: inf
ROOT
ATOM      1  C   UNL     1      -5.108  -7.244 -16.417  1.00  0.00     0.000 C 
ENDROOT
BRANCH   1   2
ATOM      2  C   UNL     1      -3.854  -6.936 -17.245  1.00  0.00     0.000 C 
BRANCH   2   3
ATOM      3  C   UNL     1      -2.621  -7.643 -16.661  1.00  0.00     0.000 C 
BRANCH   3   4
ATOM      4  C   UNL     1      -1.509  -7.840 -17.714  1.00  0.00     0.000 C 
BRANCH   4   5
ATOM      5  C   UNL     1      -1.874  -7.295 -19.105  1.00  0.00     0.006 C 
BRANCH   5   6
ATOM      6  C   UNL     1      -1.098  -7.979 -20.236  1.00  0.00     0.053 C 
BRANCH   6   7
ATOM      7  C   UNL     1      -1.994  -8.228 -21.409  1.00  0.00     0.041 C 
ATOM      8  O   UNL     1      -2.245  -9.406 -21.777  1.00  0.00    -0.550 OA
ATOM      9  O   UNL     1      -2.515  -7.158 -22.125  1.00  0.00    -0.550 OA
ENDBRANCH   6   7
ENDBRANCH   5   6
ENDBRANCH   4   5
ENDBRANCH   3   4
ENDBRANCH   2   3
ENDBRANCH   1   2
BRANCH   1  10
ATOM     10  C   UNL     1      -4.747  -8.005 -15.134  1.00  0.00     0.000 C 
BRANCH  10  11
ATOM     11  C   UNL     1      -5.955  -8.722 -14.512  1.00  0.00    -0.000 C 
BRANCH  11  12
ATOM     12  C   UNL     1      -5.735 -10.239 -14.371  1.00  0.00    -0.000 C 
BRANCH  12  13
ATOM     13  C   UNL     1      -4.391 -10.697 -14.955  1.00  0.00    -0.000 C 
BRANCH  13  14
ATOM     14  C   UNL     1      -4.558 -11.567 -16.214  1.00  0.00    -0.000 C 
BRANCH  14  15
ATOM     15  C   UNL     1      -5.544 -10.943 -17.225  1.00  0.00    -0.000 C 
BRANCH  15  16
ATOM     16  C   UNL     1      -4.855 -10.294 -18.437  1.00  0.00    -0.003 C 
ATOM     17  C   UNL     1      -3.426 -10.786 -18.648  1.00  0.00     0.004 C 
ENDBRANCH  15  16
ENDBRANCH  14  15
ENDBRANCH  13  14
ENDBRANCH  12  13
ENDBRANCH  11  12
ENDBRANCH  10  11
ENDBRANCH   1  10
TORSDOF 13
ENDMDL
