MODEL 1
REMARK VINA RESULT:    -4.277      0.000      0.000
REMARK INTER + INTRA:         -10.348
REMARK INTER:                  -8.027
REMARK INTRA:                  -2.321
REMARK UNBOUND:                -2.321
REMARK SMILES O=C([O-])CCCCCCCCCCCCCCC(=O)[O-]
REMARK SMILES IDX 10 1 9 2 8 3 7 4 6 5 5 6 4 7 2 8 1 9 3 10 11 11 12 12 13 13
REMARK SMILES IDX 14 14 15 15 16 16 17 17 18 18 19 19 20 20
REMARK H PARENT
REMARK Flexibility Score: inf
ROOT
ATOM      1  C   UNL     1       8.383   5.012   1.365  1.00  0.00     0.000 C 
ENDROOT
BRANCH   1   2
ATOM      2  C   UNL     1       8.520   3.552   0.919  1.00  0.00     0.000 C 
BRANCH   2   3
ATOM      3  C   UNL     1       9.996   3.127   0.878  1.00  0.00     0.000 C 
BRANCH   3   4
ATOM      4  C   UNL     1      10.448   2.690  -0.524  1.00  0.00     0.000 C 
BRANCH   4   5
ATOM      5  C   UNL     1      11.550   1.620  -0.485  1.00  0.00     0.000 C 
BRANCH   5   6
ATOM      6  C   UNL     1      12.309   1.566  -1.818  1.00  0.00     0.006 C 
BRANCH   6   7
ATOM      7  C   UNL     1      11.725   2.530  -2.860  1.00  0.00     0.053 C 
BRANCH   7   8
ATOM      8  C   UNL     1      11.540   1.863  -4.190  1.00  0.00     0.041 C 
ATOM      9  O   UNL     1      11.427   0.610  -4.261  1.00  0.00    -0.550 OA
ATOM     10  O   UNL     1      11.527   2.623  -5.352  1.00  0.00    -0.550 OA
ENDBRANCH   7   8
ENDBRANCH   6   7
ENDBRANCH   5   6
ENDBRANCH   4   5
ENDBRANCH   3   4
ENDBRANCH   2   3
ENDBRANCH   1   2
BRANCH   1  11
ATOM     11  C   UNL     1       9.732   5.572   1.838  1.00  0.00     0.000 C 
BRANCH  11  12
ATOM     12  C   UNL     1      10.033   6.971   1.270  1.00  0.00     0.000 C 
BRANCH  12  13
ATOM     13  C   UNL     1       9.728   7.103  -0.237  1.00  0.00     0.000 C 
BRANCH  13  14
ATOM     14  C   UNL     1      10.765   6.368  -1.105  1.00  0.00     0.000 C 
BRANCH  14  15
ATOM     15  C   UNL     1      10.160   5.797  -2.397  1.00  0.00     0.000 C 
BRANCH  15  16
ATOM     16  C   UNL     1       8.621   5.806  -2.384  1.00  0.00     0.006 C 
BRANCH  16  17
ATOM     17  C   UNL     1       8.029   4.534  -3.005  1.00  0.00     0.053 C 
BRANCH  17  18
ATOM     18  C   UNL     1       6.720   4.163  -2.377  1.00  0.00     0.041 C 
ATOM     19  O   UNL     1       6.068   3.176  -2.807  1.00  0.00    -0.550 OA
ATOM     20  O   UNL     1       6.207   4.925  -1.334  1.00  0.00    -0.550 OA
ENDBRANCH  17  18
ENDBRANCH  16  17
ENDBRANCH  15  16
ENDBRANCH  14  15
ENDBRANCH  13  14
ENDBRANCH  12  13
ENDBRANCH  11  12
ENDBRANCH   1  11
TORSDOF 15
ENDMDL
MODEL 2
REMARK VINA RESULT:    -4.115      2.145      6.171
REMARK INTER + INTRA:         -10.044
REMARK INTER:                  -8.124
REMARK INTRA:                  -1.920
REMARK UNBOUND:                -2.321
REMARK SMILES O=C([O-])CCCCCCCCCCCCCCC(=O)[O-]
REMARK SMILES IDX 10 1 9 2 8 3 7 4 6 5 5 6 4 7 2 8 1 9 3 10 11 11 12 12 13 13
REMARK SMILES IDX 14 14 15 15 16 16 17 17 18 18 19 19 20 20
REMARK H PARENT
REMARK Flexibility Score: inf
ROOT
ATOM      1  C   UNL     1       8.716   5.217  -1.751  1.00  0.00     0.000 C 
ENDROOT
BRANCH   1   2
ATOM      2  C   UNL     1      10.162   5.457  -2.197  1.00  0.00     0.000 C 
BRANCH   2   3
ATOM      3  C   UNL     1      10.828   6.544  -1.338  1.00  0.00     0.000 C 
BRANCH   3   4
ATOM      4  C   UNL     1      10.333   7.958  -1.684  1.00  0.00     0.000 C 
BRANCH   4   5
ATOM      5  C   UNL     1      10.039   8.805  -0.437  1.00  0.00     0.000 C 
BRANCH   5   6
ATOM      6  C   UNL     1       9.262   7.989   0.607  1.00  0.00     0.006 C 
BRANCH   6   7
ATOM      7  C   UNL     1       9.869   8.113   2.012  1.00  0.00     0.053 C 
BRANCH   7   8
ATOM      8  C   UNL     1       9.633   6.880   2.828  1.00  0.00     0.041 C 
ATOM      9  O   UNL     1       8.464   6.565   3.179  1.00  0.00    -0.550 OA
ATOM     10  O   UNL     1      10.707   6.096   3.230  1.00  0.00    -0.550 OA
ENDBRANCH   7   8
ENDBRANCH   6   7
ENDBRANCH   5   6
ENDBRANCH   4   5
ENDBRANCH   3   4
ENDBRANCH   2   3
ENDBRANCH   1   2
BRANCH   1  11
ATOM     11  C   UNL     1       8.573   3.856  -1.057  1.00  0.00     0.000 C 
BRANCH  11  12
ATOM     12  C   UNL     1       9.064   3.871   0.401  1.00  0.00     0.000 C 
BRANCH  12  13
ATOM     13  C   UNL     1      10.245   2.913   0.664  1.00  0.00     0.000 C 
BRANCH  13  14
ATOM     14  C   UNL     1      10.426   1.891  -0.470  1.00  0.00     0.000 C 
BRANCH  14  15
ATOM     15  C   UNL     1      11.893   1.739  -0.905  1.00  0.00     0.000 C 
BRANCH  15  16
ATOM     16  C   UNL     1      12.158   2.321  -2.305  1.00  0.00     0.006 C 
BRANCH  16  17
ATOM     17  C   UNL     1      10.996   2.055  -3.272  1.00  0.00     0.053 C 
BRANCH  17  18
ATOM     18  C   UNL     1      11.481   1.637  -4.626  1.00  0.00     0.041 C 
ATOM     19  O   UNL     1      11.897   0.464  -4.816  1.00  0.00    -0.550 OA
ATOM     20  O   UNL     1      11.500   2.551  -5.673  1.00  0.00    -0.550 OA
ENDBRANCH  17  18
ENDBRANCH  16  17
ENDBRANCH  15  16
ENDBRANCH  14  15
ENDBRANCH  13  14
ENDBRANCH  12  13
ENDBRANCH  11  12
ENDBRANCH   1  11
TORSDOF 15
ENDMDL
MODEL 3
REMARK VINA RESULT:    -4.053      3.034      5.849
REMARK INTER + INTRA:          -9.928
REMARK INTER:                  -7.852
REMARK INTRA:                  -2.076
REMARK UNBOUND:                -2.321
REMARK SMILES O=C([O-])CCCCCCCCCCCCCCC(=O)[O-]
REMARK SMILES IDX 10 1 9 2 8 3 7 4 6 5 5 6 4 7 2 8 1 9 3 10 11 11 12 12 13 13
REMARK SMILES IDX 14 14 15 15 16 16 17 17 18 18 19 19 20 20
REMARK H PARENT
REMARK Flexibility Score: inf
ROOT
ATOM      1  C   UNL     1      12.262   1.913  -1.905  1.00  0.00     0.000 C 
ENDROOT
BRANCH   1   2
ATOM      2  C   UNL     1      11.704   1.566  -0.520  1.00  0.00     0.000 C 
BRANCH   2   3
ATOM      3  C   UNL     1      10.268   2.087  -0.360  1.00  0.00     0.000 C 
BRANCH   3   4
ATOM      4  C   UNL     1      10.155   3.203   0.691  1.00  0.00     0.000 C 
BRANCH   4   5
ATOM      5  C   UNL     1       8.699   3.525   1.059  1.00  0.00     0.000 C 
BRANCH   5   6
ATOM      6  C   UNL     1       8.511   5.034   1.280  1.00  0.00     0.006 C 
BRANCH   6   7
ATOM      7  C   UNL     1       9.850   5.775   1.402  1.00  0.00     0.053 C 
BRANCH   7   8
ATOM      8  C   UNL     1       9.964   6.502   2.707  1.00  0.00     0.041 C 
ATOM      9  O   UNL     1       9.209   7.479   2.957  1.00  0.00    -0.550 OA
ATOM     10  O   UNL     1      10.925   6.121   3.633  1.00  0.00    -0.550 OA
ENDBRANCH   7   8
ENDBRANCH   6   7
ENDBRANCH   5   6
ENDBRANCH   4   5
ENDBRANCH   3   4
ENDBRANCH   2   3
ENDBRANCH   1   2
BRANCH   1  11
ATOM     11  C   UNL     1      11.232   1.613  -3.003  1.00  0.00     0.000 C 
BRANCH  11  12
ATOM     12  C   UNL     1      11.438   2.469  -4.266  1.00  0.00     0.000 C 
BRANCH  12  13
ATOM     13  C   UNL     1      10.715   3.831  -4.212  1.00  0.00     0.000 C 
BRANCH  13  14
ATOM     14  C   UNL     1       9.567   3.839  -3.188  1.00  0.00     0.000 C 
BRANCH  14  15
ATOM     15  C   UNL     1       9.445   5.178  -2.442  1.00  0.00     0.000 C 
BRANCH  15  16
ATOM     16  C   UNL     1      10.813   5.814  -2.141  1.00  0.00     0.006 C 
BRANCH  16  17
ATOM     17  C   UNL     1      10.707   7.324  -1.891  1.00  0.00     0.053 C 
BRANCH  17  18
ATOM     18  C   UNL     1      10.591   8.095  -3.170  1.00  0.00     0.041 C 
ATOM     19  O   UNL     1       9.486   8.595  -3.511  1.00  0.00    -0.550 OA
ATOM     20  O   UNL     1      11.696   8.239  -4.000  1.00  0.00    -0.550 OA
ENDBRANCH  17  18
ENDBRANCH  16  17
ENDBRANCH  15  16
ENDBRANCH  14  15
ENDBRANCH  13  14
ENDBRANCH  12  13
ENDBRANCH  11  12
ENDBRANCH   1  11
TORSDOF 15
ENDMDL
MODEL 4
REMARK VINA RESULT:    -3.949      2.799      5.113
REMARK INTER + INTRA:          -9.733
REMARK INTER:                  -8.063
REMARK INTRA:                  -1.670
REMARK UNBOUND:                -2.321
REMARK SMILES O=C([O-])CCCCCCCCCCCCCCC(=O)[O-]
REMARK SMILES IDX 10 1 9 2 8 3 7 4 6 5 5 6 4 7 2 8 1 9 3 10 11 11 12 12 13 13
REMARK SMILES IDX 14 14 15 15 16 16 17 17 18 18 19 19 20 20
REMARK H PARENT
REMARK Flexibility Score: inf
ROOT
ATOM      1  C   UNL     1      11.419   3.534  -6.125  1.00  0.00     0.000 C 
ENDROOT
BRANCH   1   2
ATOM      2  C   UNL     1      11.148   2.026  -6.069  1.00  0.00     0.000 C 
BRANCH   2   3
ATOM      3  C   UNL     1      11.593   1.439  -4.721  1.00  0.00     0.000 C 
BRANCH   3   4
ATOM      4  C   UNL     1      11.342   2.396  -3.544  1.00  0.00     0.000 C 
BRANCH   4   5
ATOM      5  C   UNL     1      10.985   1.657  -2.246  1.00  0.00     0.000 C 
BRANCH   5   6
ATOM      6  C   UNL     1      12.177   1.645  -1.278  1.00  0.00     0.006 C 
BRANCH   6   7
ATOM      7  C   UNL     1      11.800   1.089   0.103  1.00  0.00     0.053 C 
BRANCH   7   8
ATOM      8  C   UNL     1      12.824   0.119   0.608  1.00  0.00     0.041 C 
ATOM      9  O   UNL     1      13.766  -0.255  -0.140  1.00  0.00    -0.550 OA
ATOM     10  O   UNL     1      12.718  -0.396   1.893  1.00  0.00    -0.550 OA
ENDBRANCH   7   8
ENDBRANCH   6   7
ENDBRANCH   5   6
ENDBRANCH   4   5
ENDBRANCH   3   4
ENDBRANCH   2   3
ENDBRANCH   1   2
BRANCH   1  11
ATOM     11  C   UNL     1      10.109   4.332  -6.068  1.00  0.00     0.000 C 
BRANCH  11  12
ATOM     12  C   UNL     1      10.268   5.695  -5.372  1.00  0.00     0.000 C 
BRANCH  12  13
ATOM     13  C   UNL     1       8.994   6.165  -4.639  1.00  0.00     0.000 C 
BRANCH  13  14
ATOM     14  C   UNL     1       9.084   5.942  -3.119  1.00  0.00     0.000 C 
BRANCH  14  15
ATOM     15  C   UNL     1      10.531   5.950  -2.602  1.00  0.00     0.000 C 
BRANCH  15  16
ATOM     16  C   UNL     1      10.668   5.291  -1.218  1.00  0.00     0.006 C 
BRANCH  16  17
ATOM     17  C   UNL     1       9.332   4.733  -0.709  1.00  0.00     0.053 C 
BRANCH  17  18
ATOM     18  C   UNL     1       9.451   4.176   0.677  1.00  0.00     0.041 C 
ATOM     19  O   UNL     1      10.086   4.809   1.562  1.00  0.00    -0.550 OA
ATOM     20  O   UNL     1       8.885   2.944   0.985  1.00  0.00    -0.550 OA
ENDBRANCH  17  18
ENDBRANCH  16  17
ENDBRANCH  15  16
ENDBRANCH  14  15
ENDBRANCH  13  14
ENDBRANCH  12  13
ENDBRANCH  11  12
ENDBRANCH   1  11
TORSDOF 15
ENDMDL
MODEL 5
REMARK VINA RESULT:    -3.937      1.860      3.506
REMARK INTER + INTRA:          -9.710
REMARK INTER:                  -7.449
REMARK INTRA:                  -2.261
REMARK UNBOUND:                -2.321
REMARK SMILES O=C([O-])CCCCCCCCCCCCCCC(=O)[O-]
REMARK SMILES IDX 10 1 9 2 8 3 7 4 6 5 5 6 4 7 2 8 1 9 3 10 11 11 12 12 13 13
REMARK SMILES IDX 14 14 15 15 16 16 17 17 18 18 19 19 20 20
REMARK H PARENT
REMARK Flexibility Score: inf
ROOT
ATOM      1  C   UNL     1       8.697   4.023  -2.137  1.00  0.00     0.000 C 
ENDROOT
BRANCH   1   2
ATOM      2  C   UNL     1       8.117   4.038  -0.718  1.00  0.00     0.000 C 
BRANCH   2   3
ATOM      3  C   UNL     1       9.020   3.261   0.252  1.00  0.00     0.000 C 
BRANCH   3   4
ATOM      4  C   UNL     1      10.464   3.126  -0.261  1.00  0.00     0.000 C 
BRANCH   4   5
ATOM      5  C   UNL     1      10.890   1.663  -0.451  1.00  0.00     0.000 C 
BRANCH   5   6
ATOM      6  C   UNL     1      12.174   1.571  -1.289  1.00  0.00     0.006 C 
BRANCH   6   7
ATOM      7  C   UNL     1      12.237   2.652  -2.377  1.00  0.00     0.053 C 
BRANCH   7   8
ATOM      8  C   UNL     1      11.701   2.154  -3.685  1.00  0.00     0.041 C 
ATOM      9  O   UNL     1      11.178   2.957  -4.503  1.00  0.00    -0.550 OA
ATOM     10  O   UNL     1      11.750   0.799  -3.985  1.00  0.00    -0.550 OA
ENDBRANCH   7   8
ENDBRANCH   6   7
ENDBRANCH   5   6
ENDBRANCH   4   5
ENDBRANCH   3   4
ENDBRANCH   2   3
ENDBRANCH   1   2
BRANCH   1  11
ATOM     11  C   UNL     1       8.954   5.450  -2.641  1.00  0.00     0.000 C 
BRANCH  11  12
ATOM     12  C   UNL     1      10.446   5.827  -2.638  1.00  0.00     0.000 C 
BRANCH  12  13
ATOM     13  C   UNL     1      10.792   6.971  -1.663  1.00  0.00     0.000 C 
BRANCH  13  14
ATOM     14  C   UNL     1       9.545   7.761  -1.230  1.00  0.00     0.000 C 
BRANCH  14  15
ATOM     15  C   UNL     1       9.296   7.696   0.286  1.00  0.00     0.000 C 
BRANCH  15  16
ATOM     16  C   UNL     1      10.132   6.603   0.976  1.00  0.00     0.006 C 
BRANCH  16  17
ATOM     17  C   UNL     1       9.859   6.531   2.484  1.00  0.00     0.053 C 
BRANCH  17  18
ATOM     18  C   UNL     1       8.407   6.726   2.798  1.00  0.00     0.041 C 
ATOM     19  O   UNL     1       7.555   5.888   2.401  1.00  0.00    -0.550 OA
ATOM     20  O   UNL     1       7.991   7.847   3.506  1.00  0.00    -0.550 OA
ENDBRANCH  17  18
ENDBRANCH  16  17
ENDBRANCH  15  16
ENDBRANCH  14  15
ENDBRANCH  13  14
ENDBRANCH  12  13
ENDBRANCH  11  12
ENDBRANCH   1  11
TORSDOF 15
ENDMDL
MODEL 6
REMARK VINA RESULT:    -3.902      2.030      3.454
REMARK INTER + INTRA:          -9.644
REMARK INTER:                  -7.948
REMARK INTRA:                  -1.697
REMARK UNBOUND:                -2.321
REMARK SMILES O=C([O-])CCCCCCCCCCCCCCC(=O)[O-]
REMARK SMILES IDX 10 1 9 2 8 3 7 4 6 5 5 6 4 7 2 8 1 9 3 10 11 11 12 12 13 13
REMARK SMILES IDX 14 14 15 15 16 16 17 17 18 18 19 19 20 20
REMARK H PARENT
REMARK Flexibility Score: inf
ROOT
ATOM      1  C   UNL     1       8.799   3.349   0.663  1.00  0.00     0.000 C 
ENDROOT
BRANCH   1   2
ATOM      2  C   UNL     1      10.285   3.026   0.472  1.00  0.00     0.000 C 
BRANCH   2   3
ATOM      3  C   UNL     1      10.468   1.813  -0.453  1.00  0.00     0.000 C 
BRANCH   3   4
ATOM      4  C   UNL     1      11.924   1.631  -0.913  1.00  0.00     0.000 C 
BRANCH   4   5
ATOM      5  C   UNL     1      12.252   2.445  -2.173  1.00  0.00     0.000 C 
BRANCH   5   6
ATOM      6  C   UNL     1      11.165   2.262  -3.242  1.00  0.00     0.006 C 
BRANCH   6   7
ATOM      7  C   UNL     1      11.248   0.891  -3.927  1.00  0.00     0.053 C 
BRANCH   7   8
ATOM      8  C   UNL     1      11.535   1.020  -5.392  1.00  0.00     0.041 C 
ATOM      9  O   UNL     1      11.923   0.020  -6.053  1.00  0.00    -0.550 OA
ATOM     10  O   UNL     1      11.406   2.252  -6.020  1.00  0.00    -0.550 OA
ENDBRANCH   7   8
ENDBRANCH   6   7
ENDBRANCH   5   6
ENDBRANCH   4   5
ENDBRANCH   3   4
ENDBRANCH   2   3
ENDBRANCH   1   2
BRANCH   1  11
ATOM     11  C   UNL     1       8.273   4.220  -0.487  1.00  0.00     0.000 C 
BRANCH  11  12
ATOM     12  C   UNL     1       9.377   5.052  -1.162  1.00  0.00     0.000 C 
BRANCH  12  13
ATOM     13  C   UNL     1       8.880   6.404  -1.714  1.00  0.00     0.000 C 
BRANCH  13  14
ATOM     14  C   UNL     1       8.767   7.474  -0.614  1.00  0.00     0.000 C 
BRANCH  14  15
ATOM     15  C   UNL     1       9.950   7.445   0.368  1.00  0.00     0.000 C 
BRANCH  15  16
ATOM     16  C   UNL     1       9.540   7.835   1.798  1.00  0.00     0.006 C 
BRANCH  16  17
ATOM     17  C   UNL     1       9.260   6.607   2.675  1.00  0.00     0.053 C 
BRANCH  17  18
ATOM     18  C   UNL     1       7.809   6.492   3.028  1.00  0.00     0.041 C 
ATOM     19  O   UNL     1       6.970   6.145   2.154  1.00  0.00    -0.550 OA
ATOM     20  O   UNL     1       7.377   6.794   4.314  1.00  0.00    -0.550 OA
ENDBRANCH  17  18
ENDBRANCH  16  17
ENDBRANCH  15  16
ENDBRANCH  14  15
ENDBRANCH  13  14
ENDBRANCH  12  13
ENDBRANCH  11  12
ENDBRANCH   1  11
TORSDOF 15
ENDMDL
MODEL 7
REMARK VINA RESULT:    -3.889      2.279      5.528
REMARK INTER + INTRA:          -9.621
REMARK INTER:                  -7.779
REMARK INTRA:                  -1.841
REMARK UNBOUND:                -2.321
REMARK SMILES O=C([O-])CCCCCCCCCCCCCCC(=O)[O-]
REMARK SMILES IDX 10 1 9 2 8 3 7 4 6 5 5 6 4 7 2 8 1 9 3 10 11 11 12 12 13 13
REMARK SMILES IDX 14 14 15 15 16 16 17 17 18 18 19 19 20 20
REMARK H PARENT
REMARK Flexibility Score: inf
ROOT
ATOM      1  C   UNL     1      11.823   1.273  -3.371  1.00  0.00     0.000 C 
ENDROOT
BRANCH   1   2
ATOM      2  C   UNL     1      11.445   2.176  -4.551  1.00  0.00     0.000 C 
BRANCH   2   3
ATOM      3  C   UNL     1      10.697   3.427  -4.065  1.00  0.00     0.000 C 
BRANCH   3   4
ATOM      4  C   UNL     1      10.564   4.500  -5.159  1.00  0.00     0.000 C 
BRANCH   4   5
ATOM      5  C   UNL     1      10.116   5.859  -4.603  1.00  0.00     0.000 C 
BRANCH   5   6
ATOM      6  C   UNL     1       9.872   5.779  -3.089  1.00  0.00     0.006 C 
BRANCH   6   7
ATOM      7  C   UNL     1       8.416   6.092  -2.717  1.00  0.00     0.053 C 
BRANCH   7   8
ATOM      8  C   UNL     1       7.490   4.988  -3.128  1.00  0.00     0.041 C 
ATOM      9  O   UNL     1       7.519   3.879  -2.529  1.00  0.00    -0.550 OA
ATOM     10  O   UNL     1       6.617   5.172  -4.192  1.00  0.00    -0.550 OA
ENDBRANCH   7   8
ENDBRANCH   6   7
ENDBRANCH   5   6
ENDBRANCH   4   5
ENDBRANCH   3   4
ENDBRANCH   2   3
ENDBRANCH   1   2
BRANCH   1  11
ATOM     11  C   UNL     1      12.240   2.106  -2.151  1.00  0.00     0.000 C 
BRANCH  11  12
ATOM     12  C   UNL     1      12.312   1.277  -0.856  1.00  0.00     0.000 C 
BRANCH  12  13
ATOM     13  C   UNL     1      11.221   1.642   0.171  1.00  0.00     0.000 C 
BRANCH  13  14
ATOM     14  C   UNL     1      10.405   2.873  -0.261  1.00  0.00     0.000 C 
BRANCH  14  15
ATOM     15  C   UNL     1       9.103   3.035   0.541  1.00  0.00     0.000 C 
BRANCH  15  16
ATOM     16  C   UNL     1       8.686   4.507   0.699  1.00  0.00     0.006 C 
BRANCH  16  17
ATOM     17  C   UNL     1       9.893   5.430   0.917  1.00  0.00     0.053 C 
BRANCH  17  18
ATOM     18  C   UNL     1       9.983   5.905   2.334  1.00  0.00     0.041 C 
ATOM     19  O   UNL     1      11.045   5.741   2.991  1.00  0.00    -0.550 OA
ATOM     20  O   UNL     1       8.886   6.505   2.941  1.00  0.00    -0.550 OA
ENDBRANCH  17  18
ENDBRANCH  16  17
ENDBRANCH  15  16
ENDBRANCH  14  15
ENDBRANCH  13  14
ENDBRANCH  12  13
ENDBRANCH  11  12
ENDBRANCH   1  11
TORSDOF 15
ENDMDL
MODEL 8
REMARK VINA RESULT:    -3.882      2.803      4.992
REMARK INTER + INTRA:          -9.607
REMARK INTER:                  -7.482
REMARK INTRA:                  -2.124
REMARK UNBOUND:                -2.321
REMARK SMILES O=C([O-])CCCCCCCCCCCCCCC(=O)[O-]
REMARK SMILES IDX 10 1 9 2 8 3 7 4 6 5 5 6 4 7 2 8 1 9 3 10 11 11 12 12 13 13
REMARK SMILES IDX 14 14 15 15 16 16 17 17 18 18 19 19 20 20
REMARK H PARENT
REMARK Flexibility Score: inf
ROOT
ATOM      1  C   UNL     1      12.224   1.686  -1.967  1.00  0.00     0.000 C 
ENDROOT
BRANCH   1   2
ATOM      2  C   UNL     1      11.059   1.650  -2.963  1.00  0.00     0.000 C 
BRANCH   2   3
ATOM      3  C   UNL     1      11.567   1.408  -4.392  1.00  0.00     0.000 C 
BRANCH   3   4
ATOM      4  C   UNL     1      11.341   2.618  -5.314  1.00  0.00     0.000 C 
BRANCH   4   5
ATOM      5  C   UNL     1      10.746   3.824  -4.573  1.00  0.00     0.000 C 
BRANCH   5   6
ATOM      6  C   UNL     1       9.970   4.732  -5.539  1.00  0.00     0.006 C 
BRANCH   6   7
ATOM      7  C   UNL     1      10.749   6.006  -5.893  1.00  0.00     0.053 C 
BRANCH   7   8
ATOM      8  C   UNL     1      10.474   7.112  -4.920  1.00  0.00     0.041 C 
ATOM      9  O   UNL     1      11.426   7.698  -4.339  1.00  0.00    -0.550 OA
ATOM     10  O   UNL     1       9.165   7.473  -4.629  1.00  0.00    -0.550 OA
ENDBRANCH   7   8
ENDBRANCH   6   7
ENDBRANCH   5   6
ENDBRANCH   4   5
ENDBRANCH   3   4
ENDBRANCH   2   3
ENDBRANCH   1   2
BRANCH   1  11
ATOM     11  C   UNL     1      11.716   1.592  -0.522  1.00  0.00     0.000 C 
BRANCH  11  12
ATOM     12  C   UNL     1      10.210   1.886  -0.395  1.00  0.00     0.000 C 
BRANCH  12  13
ATOM     13  C   UNL     1       9.876   2.945   0.676  1.00  0.00     0.000 C 
BRANCH  13  14
ATOM     14  C   UNL     1       8.708   3.852   0.250  1.00  0.00     0.000 C 
BRANCH  14  15
ATOM     15  C   UNL     1       8.553   3.945  -1.276  1.00  0.00     0.000 C 
BRANCH  15  16
ATOM     16  C   UNL     1       8.850   5.355  -1.816  1.00  0.00     0.006 C 
BRANCH  16  17
ATOM     17  C   UNL     1      10.247   5.846  -1.414  1.00  0.00     0.053 C 
BRANCH  17  18
ATOM     18  C   UNL     1      10.187   7.129  -0.644  1.00  0.00     0.041 C 
ATOM     19  O   UNL     1      10.002   7.113   0.602  1.00  0.00    -0.550 OA
ATOM     20  O   UNL     1      10.307   8.346  -1.304  1.00  0.00    -0.550 OA
ENDBRANCH  17  18
ENDBRANCH  16  17
ENDBRANCH  15  16
ENDBRANCH  14  15
ENDBRANCH  13  14
ENDBRANCH  12  13
ENDBRANCH  11  12
ENDBRANCH   1  11
TORSDOF 15
ENDMDL
MODEL 9
REMARK VINA RESULT:    -3.800      1.863      2.503
REMARK INTER + INTRA:          -9.454
REMARK INTER:                  -7.160
REMARK INTRA:                  -2.294
REMARK UNBOUND:                -2.321
REMARK SMILES O=C([O-])CCCCCCCCCCCCCCC(=O)[O-]
REMARK SMILES IDX 10 1 9 2 8 3 7 4 6 5 5 6 4 7 2 8 1 9 3 10 11 11 12 12 13 13
REMARK SMILES IDX 14 14 15 15 16 16 17 17 18 18 19 19 20 20
REMARK H PARENT
REMARK Flexibility Score: inf
ROOT
ATOM      1  C   UNL     1       9.962   5.606   1.984  1.00  0.00     0.000 C 
ENDROOT
BRANCH   1   2
ATOM      2  C   UNL     1      10.161   4.803   0.694  1.00  0.00     0.000 C 
BRANCH   2   3
ATOM      3  C   UNL     1       9.901   3.308   0.933  1.00  0.00     0.000 C 
BRANCH   3   4
ATOM      4  C   UNL     1      10.166   2.452  -0.317  1.00  0.00     0.000 C 
BRANCH   4   5
ATOM      5  C   UNL     1      11.426   1.584  -0.184  1.00  0.00     0.000 C 
BRANCH   5   6
ATOM      6  C   UNL     1      12.222   1.570  -1.497  1.00  0.00     0.006 C 
BRANCH   6   7
ATOM      7  C   UNL     1      11.774   2.677  -2.462  1.00  0.00     0.053 C 
BRANCH   7   8
ATOM      8  C   UNL     1      11.536   2.146  -3.842  1.00  0.00     0.041 C 
ATOM      9  O   UNL     1      11.533   0.903  -4.052  1.00  0.00    -0.550 OA
ATOM     10  O   UNL     1      11.350   3.024  -4.902  1.00  0.00    -0.550 OA
ENDBRANCH   7   8
ENDBRANCH   6   7
ENDBRANCH   5   6
ENDBRANCH   4   5
ENDBRANCH   3   4
ENDBRANCH   2   3
ENDBRANCH   1   2
BRANCH   1  11
ATOM     11  C   UNL     1       8.602   6.318   1.985  1.00  0.00     0.000 C 
BRANCH  11  12
ATOM     12  C   UNL     1       8.457   7.334   0.838  1.00  0.00     0.000 C 
BRANCH  12  13
ATOM     13  C   UNL     1       7.218   7.088  -0.049  1.00  0.00     0.000 C 
BRANCH  13  14
ATOM     14  C   UNL     1       6.638   5.676   0.142  1.00  0.00     0.000 C 
BRANCH  14  15
ATOM     15  C   UNL     1       6.960   4.738  -1.033  1.00  0.00     0.000 C 
BRANCH  15  16
ATOM     16  C   UNL     1       7.472   5.495  -2.271  1.00  0.00     0.006 C 
BRANCH  16  17
ATOM     17  C   UNL     1       8.792   4.915  -2.798  1.00  0.00     0.053 C 
BRANCH  17  18
ATOM     18  C   UNL     1       9.788   5.989  -3.111  1.00  0.00     0.041 C 
ATOM     19  O   UNL     1      10.176   6.777  -2.208  1.00  0.00    -0.550 OA
ATOM     20  O   UNL     1      10.268   6.139  -4.407  1.00  0.00    -0.550 OA
ENDBRANCH  17  18
ENDBRANCH  16  17
ENDBRANCH  15  16
ENDBRANCH  14  15
ENDBRANCH  13  14
ENDBRANCH  12  13
ENDBRANCH  11  12
ENDBRANCH   1  11
TORSDOF 15
ENDMDL
