MODEL 1
REMARK VINA RESULT:    -7.008      0.000      0.000
REMARK INTER + INTRA:          -7.980
REMARK INTER:                  -8.442
REMARK INTRA:                   0.462
REMARK UNBOUND:                 0.462
REMARK SMILES O=c1c(O)c(-c2ccc(O)c(O)c2)oc2cc(O)cc(O)c12
REMARK SMILES IDX 5 1 3 2 2 3 1 4 22 5 20 6 19 7 17 8 16 9 15 10 14 11 6 12
REMARK SMILES IDX 7 13 8 14 9 15 13 16 11 17 10 18 12 20 4 22 21 24 18 26
REMARK H PARENT 10 19 12 21 4 23 21 25 18 27
REMARK Flexibility Score: inf
ROOT
ATOM      1  C   UNL     1       9.404  -7.381  -9.252  1.00  0.00     0.180 A 
ATOM      2  C   UNL     1       8.529  -8.269  -9.900  1.00  0.00     0.208 A 
ATOM      3  C   UNL     1       8.960  -8.920 -11.068  1.00  0.00     0.238 A 
ATOM      4  O   UNL     1       8.200  -9.768 -11.602  1.00  0.00    -0.285 OA
ATOM      5  C   UNL     1      10.239  -8.632 -11.604  1.00  0.00     0.111 A 
ATOM      6  C   UNL     1      10.761  -9.198 -12.806  1.00  0.00     0.134 A 
ATOM      7  C   UNL     1      12.082  -8.921 -13.183  1.00  0.00     0.093 A 
ATOM      8  C   UNL     1      12.876  -8.048 -12.435  1.00  0.00     0.123 A 
ATOM      9  C   UNL     1      12.357  -7.448 -11.291  1.00  0.00     0.094 A 
ATOM     10  C   UNL     1      11.057  -7.734 -10.869  1.00  0.00     0.146 A 
ATOM     11  O   UNL     1      10.610  -7.157  -9.760  1.00  0.00    -0.452 OA
ENDROOT
BRANCH   1  12
ATOM     12  C   UNL     1       9.027  -6.670  -8.009  1.00  0.00     0.025 A 
ATOM     13  C   UNL     1       7.724  -6.746  -7.488  1.00  0.00     0.016 A 
ATOM     14  C   UNL     1       7.399  -6.086  -6.300  1.00  0.00     0.051 A 
ATOM     15  C   UNL     1       8.373  -5.352  -5.609  1.00  0.00     0.157 A 
ATOM     16  C   UNL     1      10.005  -5.951  -7.302  1.00  0.00     0.062 A 
ATOM     17  C   UNL     1       9.683  -5.287  -6.113  1.00  0.00     0.158 A 
BRANCH  15  18
ATOM     18  O   UNL     1       8.044  -4.692  -4.426  1.00  0.00    -0.504 OA
ATOM     19  H   UNL     1       7.303  -4.002  -4.391  1.00  0.00     0.293 HD
ENDBRANCH  15  18
BRANCH  17  20
ATOM     20  O   UNL     1      10.676  -4.571  -5.445  1.00  0.00    -0.504 OA
ATOM     21  H   UNL     1      11.654  -4.823  -5.506  1.00  0.00     0.293 HD
ENDBRANCH  17  20
ENDBRANCH   1  12
BRANCH   2  22
ATOM     22  O   UNL     1       7.242  -8.481  -9.398  1.00  0.00    -0.502 OA
ATOM     23  H   UNL     1       6.409  -8.332  -9.956  1.00  0.00     0.293 HD
ENDBRANCH   2  22
BRANCH   6  24
ATOM     24  O   UNL     1      10.026 -10.012 -13.673  1.00  0.00    -0.507 OA
ATOM     25  H   UNL     1       9.403  -9.676 -14.391  1.00  0.00     0.293 HD
ENDBRANCH   6  24
BRANCH   8  26
ATOM     26  O   UNL     1      14.183  -7.765 -12.827  1.00  0.00    -0.508 OA
ATOM     27  H   UNL     1      14.493  -6.814 -12.992  1.00  0.00     0.293 HD
ENDBRANCH   8  26
TORSDOF 6
ENDMDL
MODEL 2
REMARK VINA RESULT:    -6.976      1.786      6.453
REMARK INTER + INTRA:          -7.941
REMARK INTER:                  -8.412
REMARK INTRA:                   0.470
REMARK UNBOUND:                 0.462
REMARK SMILES O=c1c(O)c(-c2ccc(O)c(O)c2)oc2cc(O)cc(O)c12
REMARK SMILES IDX 5 1 3 2 2 3 1 4 22 5 20 6 19 7 17 8 16 9 15 10 14 11 6 12
REMARK SMILES IDX 7 13 8 14 9 15 13 16 11 17 10 18 12 20 4 22 21 24 18 26
REMARK H PARENT 10 19 12 21 4 23 21 25 18 27
REMARK Flexibility Score: inf
ROOT
ATOM      1  C   UNL     1      10.834  -7.153  -9.188  1.00  0.00     0.180 A 
ATOM      2  C   UNL     1      10.027  -8.299  -9.289  1.00  0.00     0.208 A 
ATOM      3  C   UNL     1       8.965  -8.466  -8.384  1.00  0.00     0.238 A 
ATOM      4  O   UNL     1       8.202  -9.456  -8.527  1.00  0.00    -0.285 OA
ATOM      5  C   UNL     1       8.758  -7.515  -7.355  1.00  0.00     0.111 A 
ATOM      6  C   UNL     1       7.742  -7.606  -6.357  1.00  0.00     0.134 A 
ATOM      7  C   UNL     1       7.565  -6.551  -5.454  1.00  0.00     0.093 A 
ATOM      8  C   UNL     1       8.408  -5.437  -5.472  1.00  0.00     0.123 A 
ATOM      9  C   UNL     1       9.438  -5.364  -6.406  1.00  0.00     0.094 A 
ATOM     10  C   UNL     1       9.615  -6.382  -7.346  1.00  0.00     0.146 A 
ATOM     11  O   UNL     1      10.596  -6.262  -8.233  1.00  0.00    -0.452 OA
ENDROOT
BRANCH   1  12
ATOM     12  C   UNL     1      11.962  -6.899 -10.113  1.00  0.00     0.025 A 
ATOM     13  C   UNL     1      12.304  -7.818 -11.121  1.00  0.00     0.016 A 
ATOM     14  C   UNL     1      13.357  -7.545 -11.997  1.00  0.00     0.051 A 
ATOM     15  C   UNL     1      14.074  -6.346 -11.890  1.00  0.00     0.157 A 
ATOM     16  C   UNL     1      12.670  -5.690 -10.022  1.00  0.00     0.062 A 
ATOM     17  C   UNL     1      13.726  -5.413 -10.898  1.00  0.00     0.158 A 
BRANCH  15  18
ATOM     18  O   UNL     1      15.126  -6.078 -12.764  1.00  0.00    -0.504 OA
ATOM     19  H   UNL     1      15.605  -6.819 -13.262  1.00  0.00     0.293 HD
ENDBRANCH  15  18
BRANCH  17  20
ATOM     20  O   UNL     1      14.416  -4.208 -10.770  1.00  0.00    -0.504 OA
ATOM     21  H   UNL     1      13.990  -3.384 -10.365  1.00  0.00     0.293 HD
ENDBRANCH  17  20
ENDBRANCH   1  12
BRANCH   2  22
ATOM     22  O   UNL     1      10.295  -9.265 -10.262  1.00  0.00    -0.502 OA
ATOM     23  H   UNL     1      11.210  -9.684 -10.374  1.00  0.00     0.293 HD
ENDBRANCH   2  22
BRANCH   6  24
ATOM     24  O   UNL     1       6.902  -8.712  -6.193  1.00  0.00    -0.507 OA
ATOM     25  H   UNL     1       7.182  -9.597  -5.800  1.00  0.00     0.293 HD
ENDBRANCH   6  24
BRANCH   8  26
ATOM     26  O   UNL     1       8.235  -4.400  -4.558  1.00  0.00    -0.508 OA
ATOM     27  H   UNL     1       8.142  -3.437  -4.860  1.00  0.00     0.293 HD
ENDBRANCH   8  26
TORSDOF 6
ENDMDL
MODEL 3
REMARK VINA RESULT:    -6.872      9.865     13.908
REMARK INTER + INTRA:          -7.816
REMARK INTER:                  -7.642
REMARK INTRA:                  -0.174
REMARK UNBOUND:                 0.462
REMARK SMILES O=c1c(O)c(-c2ccc(O)c(O)c2)oc2cc(O)cc(O)c12
REMARK SMILES IDX 5 1 3 2 2 3 1 4 22 5 20 6 19 7 17 8 16 9 15 10 14 11 6 12
REMARK SMILES IDX 7 13 8 14 9 15 13 16 11 17 10 18 12 20 4 22 21 24 18 26
REMARK H PARENT 10 19 12 21 4 23 21 25 18 27
REMARK Flexibility Score: inf
ROOT
ATOM      1  C   UNL     1      18.522  -1.106 -16.691  1.00  0.00     0.180 A 
ATOM      2  C   UNL     1      17.879  -0.286 -15.747  1.00  0.00     0.208 A 
ATOM      3  C   UNL     1      17.182  -0.886 -14.685  1.00  0.00     0.238 A 
ATOM      4  O   UNL     1      16.672  -0.147 -13.804  1.00  0.00    -0.285 OA
ATOM      5  C   UNL     1      17.089  -2.298 -14.612  1.00  0.00     0.111 A 
ATOM      6  C   UNL     1      16.371  -3.012 -13.606  1.00  0.00     0.134 A 
ATOM      7  C   UNL     1      16.438  -4.411 -13.572  1.00  0.00     0.093 A 
ATOM      8  C   UNL     1      17.144  -5.122 -14.545  1.00  0.00     0.123 A 
ATOM      9  C   UNL     1      17.801  -4.437 -15.563  1.00  0.00     0.094 A 
ATOM     10  C   UNL     1      17.786  -3.040 -15.601  1.00  0.00     0.146 A 
ATOM     11  O   UNL     1      18.445  -2.426 -16.577  1.00  0.00    -0.452 OA
ENDROOT
BRANCH   1  12
ATOM     12  C   UNL     1      19.288  -0.547 -17.828  1.00  0.00     0.025 A 
ATOM     13  C   UNL     1      18.838  -0.687 -19.153  1.00  0.00     0.016 A 
ATOM     14  C   UNL     1      19.566  -0.129 -20.207  1.00  0.00     0.051 A 
ATOM     15  C   UNL     1      20.744   0.587 -19.954  1.00  0.00     0.157 A 
ATOM     16  C   UNL     1      20.457   0.189 -17.577  1.00  0.00     0.062 A 
ATOM     17  C   UNL     1      21.189   0.748 -18.631  1.00  0.00     0.158 A 
BRANCH  15  18
ATOM     18  O   UNL     1      21.468   1.139 -21.008  1.00  0.00    -0.504 OA
ATOM     19  H   UNL     1      22.378   0.780 -21.273  1.00  0.00     0.293 HD
ENDBRANCH  15  18
BRANCH  17  20
ATOM     20  O   UNL     1      22.353   1.461 -18.345  1.00  0.00    -0.504 OA
ATOM     21  H   UNL     1      22.360   2.470 -18.262  1.00  0.00     0.293 HD
ENDBRANCH  17  20
ENDBRANCH   1  12
BRANCH   2  22
ATOM     22  O   UNL     1      17.918   1.104 -15.881  1.00  0.00    -0.502 OA
ATOM     23  H   UNL     1      17.079   1.673 -15.896  1.00  0.00     0.293 HD
ENDBRANCH   2  22
BRANCH   6  24
ATOM     24  O   UNL     1      15.564  -2.406 -12.638  1.00  0.00    -0.507 OA
ATOM     25  H   UNL     1      15.256  -2.845 -11.785  1.00  0.00     0.293 HD
ENDBRANCH   6  24
BRANCH   8  26
ATOM     26  O   UNL     1      17.190  -6.514 -14.514  1.00  0.00    -0.508 OA
ATOM     27  H   UNL     1      17.906  -7.033 -15.011  1.00  0.00     0.293 HD
ENDBRANCH   8  26
TORSDOF 6
ENDMDL
MODEL 4
REMARK VINA RESULT:    -6.738     13.963     16.861
REMARK INTER + INTRA:          -7.655
REMARK INTER:                  -7.587
REMARK INTRA:                  -0.068
REMARK UNBOUND:                 0.462
REMARK SMILES O=c1c(O)c(-c2ccc(O)c(O)c2)oc2cc(O)cc(O)c12
REMARK SMILES IDX 5 1 3 2 2 3 1 4 22 5 20 6 19 7 17 8 16 9 15 10 14 11 6 12
REMARK SMILES IDX 7 13 8 14 9 15 13 16 11 17 10 18 12 20 4 22 21 24 18 26
REMARK H PARENT 10 19 12 21 4 23 21 25 18 27
REMARK Flexibility Score: inf
ROOT
ATOM      1  C   UNL     1      20.580   0.637 -17.152  1.00  0.00     0.180 A 
ATOM      2  C   UNL     1      19.361   0.570 -16.455  1.00  0.00     0.208 A 
ATOM      3  C   UNL     1      19.313   1.011 -15.122  1.00  0.00     0.238 A 
ATOM      4  O   UNL     1      18.203   1.017 -14.529  1.00  0.00    -0.285 OA
ATOM      5  C   UNL     1      20.495   1.461 -14.485  1.00  0.00     0.111 A 
ATOM      6  C   UNL     1      20.572   1.889 -13.125  1.00  0.00     0.134 A 
ATOM      7  C   UNL     1      21.774   2.414 -12.634  1.00  0.00     0.093 A 
ATOM      8  C   UNL     1      22.917   2.468 -13.434  1.00  0.00     0.123 A 
ATOM      9  C   UNL     1      22.867   2.002 -14.745  1.00  0.00     0.094 A 
ATOM     10  C   UNL     1      21.673   1.508 -15.276  1.00  0.00     0.146 A 
ATOM     11  O   UNL     1      21.664   1.095 -16.538  1.00  0.00    -0.452 OA
ENDROOT
BRANCH   1  12
ATOM     12  C   UNL     1      20.707   0.205 -18.562  1.00  0.00     0.025 A 
ATOM     13  C   UNL     1      20.341  -1.091 -18.967  1.00  0.00     0.016 A 
ATOM     14  C   UNL     1      20.447  -1.467 -20.308  1.00  0.00     0.051 A 
ATOM     15  C   UNL     1      20.905  -0.552 -21.266  1.00  0.00     0.157 A 
ATOM     16  C   UNL     1      21.144   1.125 -19.529  1.00  0.00     0.062 A 
ATOM     17  C   UNL     1      21.253   0.751 -20.873  1.00  0.00     0.158 A 
BRANCH  15  18
ATOM     18  O   UNL     1      21.011  -0.932 -22.603  1.00  0.00    -0.504 OA
ATOM     19  H   UNL     1      21.709  -0.527 -23.216  1.00  0.00     0.293 HD
ENDBRANCH  15  18
BRANCH  17  20
ATOM     20  O   UNL     1      21.704   1.687 -21.804  1.00  0.00    -0.504 OA
ATOM     21  H   UNL     1      22.396   2.388 -21.570  1.00  0.00     0.293 HD
ENDBRANCH  17  20
ENDBRANCH   1  12
BRANCH   2  22
ATOM     22  O   UNL     1      18.223   0.050 -17.078  1.00  0.00    -0.502 OA
ATOM     23  H   UNL     1      17.468  -0.382 -16.558  1.00  0.00     0.293 HD
ENDBRANCH   2  22
BRANCH   6  24
ATOM     24  O   UNL     1      19.515   1.797 -12.214  1.00  0.00    -0.507 OA
ATOM     25  H   UNL     1      18.876   1.021 -12.148  1.00  0.00     0.293 HD
ENDBRANCH   6  24
BRANCH   8  26
ATOM     26  O   UNL     1      24.113   2.976 -12.931  1.00  0.00    -0.508 OA
ATOM     27  H   UNL     1      24.980   2.456 -12.997  1.00  0.00     0.293 HD
ENDBRANCH   8  26
TORSDOF 6
ENDMDL
MODEL 5
REMARK VINA RESULT:    -6.591     12.667     16.861
REMARK INTER + INTRA:          -7.478
REMARK INTER:                  -7.336
REMARK INTRA:                  -0.142
REMARK UNBOUND:                 0.462
REMARK SMILES O=c1c(O)c(-c2ccc(O)c(O)c2)oc2cc(O)cc(O)c12
REMARK SMILES IDX 5 1 3 2 2 3 1 4 22 5 20 6 19 7 17 8 16 9 15 10 14 11 6 12
REMARK SMILES IDX 7 13 8 14 9 15 13 16 11 17 10 18 12 20 4 22 21 24 18 26
REMARK H PARENT 10 19 12 21 4 23 21 25 18 27
REMARK Flexibility Score: inf
ROOT
ATOM      1  C   UNL     1      20.687   0.651 -17.307  1.00  0.00     0.180 A 
ATOM      2  C   UNL     1      21.804   1.073 -16.565  1.00  0.00     0.208 A 
ATOM      3  C   UNL     1      21.628   1.446 -15.222  1.00  0.00     0.238 A 
ATOM      4  O   UNL     1      22.643   1.750 -14.543  1.00  0.00    -0.285 OA
ATOM      5  C   UNL     1      20.330   1.447 -14.654  1.00  0.00     0.111 A 
ATOM      6  C   UNL     1      20.029   1.848 -13.318  1.00  0.00     0.134 A 
ATOM      7  C   UNL     1      18.723   1.705 -12.832  1.00  0.00     0.093 A 
ATOM      8  C   UNL     1      17.696   1.236 -13.654  1.00  0.00     0.123 A 
ATOM      9  C   UNL     1      17.968   0.895 -14.976  1.00  0.00     0.094 A 
ATOM     10  C   UNL     1      19.268   0.989 -15.478  1.00  0.00     0.146 A 
ATOM     11  O   UNL     1      19.488   0.631 -16.738  1.00  0.00    -0.452 OA
ENDROOT
BRANCH   1  12
ATOM     12  C   UNL     1      20.795   0.229 -18.722  1.00  0.00     0.025 A 
ATOM     13  C   UNL     1      20.461  -1.075 -19.125  1.00  0.00     0.016 A 
ATOM     14  C   UNL     1      20.548  -1.442 -20.471  1.00  0.00     0.051 A 
ATOM     15  C   UNL     1      20.956  -0.510 -21.434  1.00  0.00     0.157 A 
ATOM     16  C   UNL     1      21.183   1.166 -19.694  1.00  0.00     0.062 A 
ATOM     17  C   UNL     1      21.272   0.802 -21.042  1.00  0.00     0.158 A 
BRANCH  15  18
ATOM     18  O   UNL     1      21.043  -0.880 -22.775  1.00  0.00    -0.504 OA
ATOM     19  H   UNL     1      20.249  -1.267 -23.272  1.00  0.00     0.293 HD
ENDBRANCH  15  18
BRANCH  17  20
ATOM     20  O   UNL     1      21.674   1.755 -21.977  1.00  0.00    -0.504 OA
ATOM     21  H   UNL     1      22.649   1.983 -22.129  1.00  0.00     0.293 HD
ENDBRANCH  17  20
ENDBRANCH   1  12
BRANCH   2  22
ATOM     22  O   UNL     1      23.064   1.138 -17.166  1.00  0.00    -0.502 OA
ATOM     23  H   UNL     1      23.217   0.886 -18.135  1.00  0.00     0.293 HD
ENDBRANCH   2  22
BRANCH   6  24
ATOM     24  O   UNL     1      20.960   2.411 -12.440  1.00  0.00    -0.507 OA
ATOM     25  H   UNL     1      20.961   2.285 -11.440  1.00  0.00     0.293 HD
ENDBRANCH   6  24
BRANCH   8  26
ATOM     26  O   UNL     1      16.396   1.114 -13.167  1.00  0.00    -0.508 OA
ATOM     27  H   UNL     1      15.591   1.208 -13.776  1.00  0.00     0.293 HD
ENDBRANCH   8  26
TORSDOF 6
ENDMDL
MODEL 6
REMARK VINA RESULT:    -6.472      3.265      6.489
REMARK INTER + INTRA:          -7.334
REMARK INTER:                  -7.003
REMARK INTRA:                  -0.331
REMARK UNBOUND:                 0.462
REMARK SMILES O=c1c(O)c(-c2ccc(O)c(O)c2)oc2cc(O)cc(O)c12
REMARK SMILES IDX 5 1 3 2 2 3 1 4 22 5 20 6 19 7 17 8 16 9 15 10 14 11 6 12
REMARK SMILES IDX 7 13 8 14 9 15 13 16 11 17 10 18 12 20 4 22 21 24 18 26
REMARK H PARENT 10 19 12 21 4 23 21 25 18 27
REMARK Flexibility Score: inf
ROOT
ATOM      1  C   UNL     1      12.889  -5.936 -10.623  1.00  0.00     0.180 A 
ATOM      2  C   UNL     1      12.747  -7.180 -11.263  1.00  0.00     0.208 A 
ATOM      3  C   UNL     1      11.773  -8.078 -10.797  1.00  0.00     0.238 A 
ATOM      4  O   UNL     1      11.602  -9.158 -11.419  1.00  0.00    -0.285 OA
ATOM      5  C   UNL     1      10.992  -7.746  -9.663  1.00  0.00     0.111 A 
ATOM      6  C   UNL     1      10.008  -8.598  -9.077  1.00  0.00     0.134 A 
ATOM      7  C   UNL     1       9.221  -8.120  -8.021  1.00  0.00     0.093 A 
ATOM      8  C   UNL     1       9.427  -6.845  -7.489  1.00  0.00     0.123 A 
ATOM      9  C   UNL     1      10.422  -6.027  -8.017  1.00  0.00     0.094 A 
ATOM     10  C   UNL     1      11.197  -6.460  -9.096  1.00  0.00     0.146 A 
ATOM     11  O   UNL     1      12.120  -5.639  -9.583  1.00  0.00    -0.452 OA
ENDROOT
BRANCH   1  12
ATOM     12  C   UNL     1      13.883  -4.931 -11.066  1.00  0.00     0.025 A 
ATOM     13  C   UNL     1      13.569  -3.973 -12.045  1.00  0.00     0.016 A 
ATOM     14  C   UNL     1      14.516  -3.019 -12.428  1.00  0.00     0.051 A 
ATOM     15  C   UNL     1      15.783  -3.000 -11.830  1.00  0.00     0.157 A 
ATOM     16  C   UNL     1      15.146  -4.895 -10.454  1.00  0.00     0.062 A 
ATOM     17  C   UNL     1      16.097  -3.942 -10.836  1.00  0.00     0.158 A 
BRANCH  15  18
ATOM     18  O   UNL     1      16.726  -2.049 -12.216  1.00  0.00    -0.504 OA
ATOM     19  H   UNL     1      17.219  -1.483 -11.536  1.00  0.00     0.293 HD
ENDBRANCH  15  18
BRANCH  17  20
ATOM     20  O   UNL     1      17.347  -3.944 -10.217  1.00  0.00    -0.504 OA
ATOM     21  H   UNL     1      17.471  -4.236  -9.255  1.00  0.00     0.293 HD
ENDBRANCH  17  20
ENDBRANCH   1  12
BRANCH   2  22
ATOM     22  O   UNL     1      13.580  -7.520 -12.331  1.00  0.00    -0.502 OA
ATOM     23  H   UNL     1      13.237  -7.989 -13.161  1.00  0.00     0.293 HD
ENDBRANCH   2  22
BRANCH   6  24
ATOM     24  O   UNL     1       9.780  -9.919  -9.472  1.00  0.00    -0.507 OA
ATOM     25  H   UNL     1       8.872 -10.323  -9.640  1.00  0.00     0.293 HD
ENDBRANCH   6  24
BRANCH   8  26
ATOM     26  O   UNL     1       8.651  -6.385  -6.428  1.00  0.00    -0.508 OA
ATOM     27  H   UNL     1       8.608  -6.884  -5.546  1.00  0.00     0.293 HD
ENDBRANCH   8  26
TORSDOF 6
ENDMDL
MODEL 7
REMARK VINA RESULT:    -6.461     10.431     13.238
REMARK INTER + INTRA:          -7.321
REMARK INTER:                  -7.017
REMARK INTRA:                  -0.305
REMARK UNBOUND:                 0.462
REMARK SMILES O=c1c(O)c(-c2ccc(O)c(O)c2)oc2cc(O)cc(O)c12
REMARK SMILES IDX 5 1 3 2 2 3 1 4 22 5 20 6 19 7 17 8 16 9 15 10 14 11 6 12
REMARK SMILES IDX 7 13 8 14 9 15 13 16 11 17 10 18 12 20 4 22 21 24 18 26
REMARK H PARENT 10 19 12 21 4 23 21 25 18 27
REMARK Flexibility Score: inf
ROOT
ATOM      1  C   UNL     1      18.046  -0.326 -15.505  1.00  0.00     0.180 A 
ATOM      2  C   UNL     1      19.100   0.460 -15.007  1.00  0.00     0.208 A 
ATOM      3  C   UNL     1      20.114   0.876 -15.886  1.00  0.00     0.238 A 
ATOM      4  O   UNL     1      21.014   1.640 -15.451  1.00  0.00    -0.285 OA
ATOM      5  C   UNL     1      20.091   0.455 -17.238  1.00  0.00     0.111 A 
ATOM      6  C   UNL     1      21.089   0.779 -18.206  1.00  0.00     0.134 A 
ATOM      7  C   UNL     1      20.907   0.396 -19.541  1.00  0.00     0.093 A 
ATOM      8  C   UNL     1      19.794  -0.354 -19.929  1.00  0.00     0.123 A 
ATOM      9  C   UNL     1      18.843  -0.723 -18.982  1.00  0.00     0.094 A 
ATOM     10  C   UNL     1      18.977  -0.322 -17.651  1.00  0.00     0.146 A 
ATOM     11  O   UNL     1      18.034  -0.677 -16.785  1.00  0.00    -0.452 OA
ENDROOT
BRANCH   1  12
ATOM     12  C   UNL     1      16.935  -0.790 -14.644  1.00  0.00     0.025 A 
ATOM     13  C   UNL     1      16.953  -2.062 -14.046  1.00  0.00     0.016 A 
ATOM     14  C   UNL     1      15.904  -2.468 -13.218  1.00  0.00     0.051 A 
ATOM     15  C   UNL     1      14.829  -1.605 -12.963  1.00  0.00     0.157 A 
ATOM     16  C   UNL     1      15.866   0.079 -14.369  1.00  0.00     0.062 A 
ATOM     17  C   UNL     1      14.813  -0.325 -13.540  1.00  0.00     0.158 A 
BRANCH  15  18
ATOM     18  O   UNL     1      13.783  -2.014 -12.138  1.00  0.00    -0.504 OA
ATOM     19  H   UNL     1      13.882  -2.044 -11.130  1.00  0.00     0.293 HD
ENDBRANCH  15  18
BRANCH  17  20
ATOM     20  O   UNL     1      13.761   0.560 -13.300  1.00  0.00    -0.504 OA
ATOM     21  H   UNL     1      13.357   1.128 -14.034  1.00  0.00     0.293 HD
ENDBRANCH  17  20
ENDBRANCH   1  12
BRANCH   2  22
ATOM     22  O   UNL     1      19.145   0.800 -13.653  1.00  0.00    -0.502 OA
ATOM     23  H   UNL     1      18.415   0.536 -13.002  1.00  0.00     0.293 HD
ENDBRANCH   2  22
BRANCH   6  24
ATOM     24  O   UNL     1      22.281   1.448 -17.910  1.00  0.00    -0.507 OA
ATOM     25  H   UNL     1      23.203   1.113 -18.139  1.00  0.00     0.293 HD
ENDBRANCH   6  24
BRANCH   8  26
ATOM     26  O   UNL     1      19.630  -0.746 -21.256  1.00  0.00    -0.508 OA
ATOM     27  H   UNL     1      20.279  -1.382 -21.706  1.00  0.00     0.293 HD
ENDBRANCH   8  26
TORSDOF 6
ENDMDL
MODEL 8
REMARK VINA RESULT:    -6.383     13.906     15.220
REMARK INTER + INTRA:          -7.228
REMARK INTER:                  -6.924
REMARK INTRA:                  -0.304
REMARK UNBOUND:                 0.462
REMARK SMILES O=c1c(O)c(-c2ccc(O)c(O)c2)oc2cc(O)cc(O)c12
REMARK SMILES IDX 5 1 3 2 2 3 1 4 22 5 20 6 19 7 17 8 16 9 15 10 14 11 6 12
REMARK SMILES IDX 7 13 8 14 9 15 13 16 11 17 10 18 12 20 4 22 21 24 18 26
REMARK H PARENT 10 19 12 21 4 23 21 25 18 27
REMARK Flexibility Score: inf
ROOT
ATOM      1  C   UNL     1       9.158   3.571 -18.691  1.00  0.00     0.180 A 
ATOM      2  C   UNL     1       8.681   2.806 -19.770  1.00  0.00     0.208 A 
ATOM      3  C   UNL     1       7.305   2.542 -19.863  1.00  0.00     0.238 A 
ATOM      4  O   UNL     1       6.877   1.920 -20.869  1.00  0.00    -0.285 OA
ATOM      5  C   UNL     1       6.429   2.997 -18.847  1.00  0.00     0.111 A 
ATOM      6  C   UNL     1       5.024   2.750 -18.816  1.00  0.00     0.134 A 
ATOM      7  C   UNL     1       4.241   3.341 -17.816  1.00  0.00     0.093 A 
ATOM      8  C   UNL     1       4.821   4.119 -16.812  1.00  0.00     0.123 A 
ATOM      9  C   UNL     1       6.199   4.321 -16.802  1.00  0.00     0.094 A 
ATOM     10  C   UNL     1       7.002   3.777 -17.807  1.00  0.00     0.146 A 
ATOM     11  O   UNL     1       8.308   4.013 -17.772  1.00  0.00    -0.452 OA
ENDROOT
BRANCH   1  12
ATOM     12  C   UNL     1      10.592   3.903 -18.533  1.00  0.00     0.025 A 
ATOM     13  C   UNL     1      11.098   5.161 -18.903  1.00  0.00     0.016 A 
ATOM     14  C   UNL     1      12.451   5.459 -18.721  1.00  0.00     0.051 A 
ATOM     15  C   UNL     1      13.314   4.512 -18.155  1.00  0.00     0.157 A 
ATOM     16  C   UNL     1      11.456   2.965 -17.946  1.00  0.00     0.062 A 
ATOM     17  C   UNL     1      12.812   3.260 -17.763  1.00  0.00     0.158 A 
BRANCH  15  18
ATOM     18  O   UNL     1      14.663   4.812 -17.977  1.00  0.00    -0.504 OA
ATOM     19  H   UNL     1      15.353   4.086 -17.823  1.00  0.00     0.293 HD
ENDBRANCH  15  18
BRANCH  17  20
ATOM     20  O   UNL     1      13.644   2.298 -17.189  1.00  0.00    -0.504 OA
ATOM     21  H   UNL     1      13.335   1.349 -17.022  1.00  0.00     0.293 HD
ENDBRANCH  17  20
ENDBRANCH   1  12
BRANCH   2  22
ATOM     22  O   UNL     1       9.572   2.300 -20.720  1.00  0.00    -0.502 OA
ATOM     23  H   UNL     1      10.047   1.413 -20.602  1.00  0.00     0.293 HD
ENDBRANCH   2  22
BRANCH   6  24
ATOM     24  O   UNL     1       4.354   1.918 -19.718  1.00  0.00    -0.507 OA
ATOM     25  H   UNL     1       4.195   0.931 -19.585  1.00  0.00     0.293 HD
ENDBRANCH   6  24
BRANCH   8  26
ATOM     26  O   UNL     1       4.037   4.689 -15.812  1.00  0.00    -0.508 OA
ATOM     27  H   UNL     1       4.450   5.201 -15.040  1.00  0.00     0.293 HD
ENDBRANCH   8  26
TORSDOF 6
ENDMDL
MODEL 9
REMARK VINA RESULT:    -6.368      2.388      3.620
REMARK INTER + INTRA:          -7.209
REMARK INTER:                  -7.159
REMARK INTRA:                  -0.050
REMARK UNBOUND:                 0.462
REMARK SMILES O=c1c(O)c(-c2ccc(O)c(O)c2)oc2cc(O)cc(O)c12
REMARK SMILES IDX 5 1 3 2 2 3 1 4 22 5 20 6 19 7 17 8 16 9 15 10 14 11 6 12
REMARK SMILES IDX 7 13 8 14 9 15 13 16 11 17 10 18 12 20 4 22 21 24 18 26
REMARK H PARENT 10 19 12 21 4 23 21 25 18 27
REMARK Flexibility Score: inf
ROOT
ATOM      1  C   UNL     1      11.546  -6.993  -9.921  1.00  0.00     0.180 A 
ATOM      2  C   UNL     1      11.637  -7.910 -10.983  1.00  0.00     0.208 A 
ATOM      3  C   UNL     1      12.710  -7.805 -11.883  1.00  0.00     0.238 A 
ATOM      4  O   UNL     1      12.827  -8.672 -12.786  1.00  0.00    -0.285 OA
ATOM      5  C   UNL     1      13.648  -6.752 -11.743  1.00  0.00     0.111 A 
ATOM      6  C   UNL     1      14.749  -6.523 -12.622  1.00  0.00     0.134 A 
ATOM      7  C   UNL     1      15.673  -5.513 -12.323  1.00  0.00     0.093 A 
ATOM      8  C   UNL     1      15.500  -4.684 -11.213  1.00  0.00     0.123 A 
ATOM      9  C   UNL     1      14.399  -4.864 -10.380  1.00  0.00     0.094 A 
ATOM     10  C   UNL     1      13.481  -5.887 -10.629  1.00  0.00     0.146 A 
ATOM     11  O   UNL     1      12.458  -6.037  -9.796  1.00  0.00    -0.452 OA
ENDROOT
BRANCH   1  12
ATOM     12  C   UNL     1      10.452  -7.049  -8.924  1.00  0.00     0.025 A 
ATOM     13  C   UNL     1      10.158  -8.232  -8.224  1.00  0.00     0.016 A 
ATOM     14  C   UNL     1       9.137  -8.252  -7.271  1.00  0.00     0.051 A 
ATOM     15  C   UNL     1       8.405  -7.090  -6.992  1.00  0.00     0.157 A 
ATOM     16  C   UNL     1       9.731  -5.881  -8.627  1.00  0.00     0.062 A 
ATOM     17  C   UNL     1       8.706  -5.898  -7.673  1.00  0.00     0.158 A 
BRANCH  15  18
ATOM     18  O   UNL     1       7.385  -7.115  -6.042  1.00  0.00    -0.504 OA
ATOM     19  H   UNL     1       6.627  -7.785  -6.094  1.00  0.00     0.293 HD
ENDBRANCH  15  18
BRANCH  17  20
ATOM     20  O   UNL     1       8.001  -4.723  -7.413  1.00  0.00    -0.504 OA
ATOM     21  H   UNL     1       8.072  -4.237  -6.528  1.00  0.00     0.293 HD
ENDBRANCH  17  20
ENDBRANCH   1  12
BRANCH   2  22
ATOM     22  O   UNL     1      10.659  -8.894 -11.148  1.00  0.00    -0.502 OA
ATOM     23  H   UNL     1       9.860  -8.976 -10.531  1.00  0.00     0.293 HD
ENDBRANCH   2  22
BRANCH   6  24
ATOM     24  O   UNL     1      14.967  -7.234 -13.806  1.00  0.00    -0.507 OA
ATOM     25  H   UNL     1      15.600  -8.012 -13.903  1.00  0.00     0.293 HD
ENDBRANCH   6  24
BRANCH   8  26
ATOM     26  O   UNL     1      16.414  -3.671 -10.933  1.00  0.00    -0.508 OA
ATOM     27  H   UNL     1      17.389  -3.875 -10.741  1.00  0.00     0.293 HD
ENDBRANCH   8  26
TORSDOF 6
ENDMDL
