MODEL 1
REMARK VINA RESULT:    -3.720      0.000      0.000
REMARK INTER + INTRA:          -5.044
REMARK INTER:                  -5.243
REMARK INTRA:                   0.198
REMARK UNBOUND:                 0.198
REMARK SMILES CC1=CCC(=C(C)C)C(=O)CC(C)=CCC1
REMARK SMILES IDX 12 1 14 2 13 3 15 4 16 5 2 6 1 7 3 8 11 10 9 11 10 12 5 13
REMARK SMILES IDX 6 14 7 15 8 16 4 17
REMARK H PARENT
REMARK Flexibility Score: 60.00
ROOT
ATOM      1  C   UNL     1     131.960 139.679 115.502  1.00  0.00    -0.070 C 
ATOM      2  C   UNL     1     131.736 138.402 115.122  1.00  0.00    -0.027 C 
ATOM      3  C   UNL     1     133.069 139.938 116.491  1.00  0.00     0.039 C 
ENDROOT
BRANCH   2   4
ATOM      4  C   UNL     1     130.615 137.932 114.221  1.00  0.00     0.032 C 
BRANCH   4   5
ATOM      5  C   UNL     1     129.389 137.356 114.959  1.00  0.00     0.034 C 
BRANCH   5   6
ATOM      6  C   UNL     1     128.073 137.939 114.477  1.00  0.00    -0.077 C 
ATOM      7  C   UNL     1     127.418 137.296 113.280  1.00  0.00     0.039 C 
ATOM      8  C   UNL     1     127.484 139.040 115.007  1.00  0.00    -0.023 CG0
ATOM      9  G   UNL     1     127.947 139.833 116.213  1.00  0.00     0.000 G0
ENDBRANCH   5   6
ENDBRANCH   4   5
ENDBRANCH   2   4
BRANCH   1  10
ATOM     10  C   UNL     1     131.097 140.842 115.057  1.00  0.00     0.111 C 
BRANCH  10  11
ATOM     11  C   UNL     1     130.078 141.211 116.102  1.00  0.00     0.163 C 
ATOM     12  O   UNL     1     130.493 141.548 117.245  1.00  0.00    -0.294 OA
BRANCH  11  13
ATOM     13  C   UNL     1     128.608 141.133 115.852  1.00  0.00    -0.002 C 
ATOM     14  C   UNL     1     127.919 142.217 115.386  1.00  0.00    -0.069 C 
ATOM     15  C   UNL     1     126.411 142.219 115.272  1.00  0.00     0.039 C 
ATOM     16  C   UNL     1     128.637 143.479 114.959  1.00  0.00     0.039 C 
BRANCH  13  17
ATOM     17  C   UNL     1     127.907 139.837 116.226  1.00  0.00     0.066 CG0
ATOM     18  G   UNL     1     127.488 139.036 115.010  1.00  0.00     0.000 G0
ENDBRANCH  13  17
ENDBRANCH  11  13
ENDBRANCH  10  11
ENDBRANCH   1  10
TORSDOF 0
ENDMDL
MODEL 2
REMARK VINA RESULT:    -3.685      1.675      3.721
REMARK INTER + INTRA:          -4.994
REMARK INTER:                  -5.193
REMARK INTRA:                   0.199
REMARK UNBOUND:                 0.198
REMARK SMILES CC1=CCC(=C(C)C)C(=O)CC(C)=CCC1
REMARK SMILES IDX 12 1 14 2 13 3 15 4 16 5 2 6 1 7 3 8 11 10 9 11 10 12 5 13
REMARK SMILES IDX 6 14 7 15 8 16 4 17
REMARK H PARENT
REMARK Flexibility Score: 60.00
ROOT
ATOM      1  C   UNL     1     129.363 143.821 115.711  1.00  0.00    -0.070 C 
ATOM      2  C   UNL     1     130.600 143.371 116.015  1.00  0.00    -0.027 C 
ATOM      3  C   UNL     1     128.867 145.058 116.418  1.00  0.00     0.039 C 
ENDROOT
BRANCH   2   4
ATOM      4  C   UNL     1     131.233 142.102 115.488  1.00  0.00     0.032 C 
BRANCH   4   5
ATOM      5  C   UNL     1     131.084 140.874 116.410  1.00  0.00     0.034 C 
BRANCH   5   6
ATOM      6  C   UNL     1     130.760 139.597 115.656  1.00  0.00    -0.077 C 
ATOM      7  C   UNL     1     131.900 138.862 114.997  1.00  0.00     0.039 C 
ATOM      8  C   UNL     1     129.506 139.111 115.479  1.00  0.00    -0.023 CG0
ATOM      9  G   UNL     1     128.220 139.666 116.059  1.00  0.00     0.000 G0
ENDBRANCH   5   6
ENDBRANCH   4   5
ENDBRANCH   2   4
BRANCH   1  10
ATOM     10  C   UNL     1     128.423 143.096 114.769  1.00  0.00     0.111 C 
BRANCH  10  11
ATOM     11  C   UNL     1     127.558 142.104 115.501  1.00  0.00     0.163 C 
ATOM     12  O   UNL     1     126.893 142.512 116.492  1.00  0.00    -0.294 OA
BRANCH  11  13
ATOM     13  C   UNL     1     127.512 140.658 115.133  1.00  0.00    -0.002 C 
ATOM     14  C   UNL     1     126.787 140.233 114.055  1.00  0.00    -0.069 C 
ATOM     15  C   UNL     1     126.590 138.765 113.750  1.00  0.00     0.039 C 
ATOM     16  C   UNL     1     126.139 141.219 113.108  1.00  0.00     0.039 C 
BRANCH  13  17
ATOM     17  C   UNL     1     128.219 139.682 116.059  1.00  0.00     0.066 CG0
ATOM     18  G   UNL     1     129.485 139.118 115.443  1.00  0.00     0.000 G0
ENDBRANCH  13  17
ENDBRANCH  11  13
ENDBRANCH  10  11
ENDBRANCH   1  10
TORSDOF 0
ENDMDL
MODEL 3
REMARK VINA RESULT:    -3.564      1.400      3.978
REMARK INTER + INTRA:          -4.824
REMARK INTER:                  -5.185
REMARK INTRA:                   0.361
REMARK UNBOUND:                 0.198
REMARK SMILES CC1=CCC(=C(C)C)C(=O)CC(C)=CCC1
REMARK SMILES IDX 12 1 14 2 13 3 15 4 16 5 2 6 1 7 3 8 11 10 9 11 10 12 5 13
REMARK SMILES IDX 6 14 7 15 8 16 4 17
REMARK H PARENT
REMARK Flexibility Score: 60.00
ROOT
ATOM      1  C   UNL     1     131.500 141.430 115.992  1.00  0.00    -0.070 C 
ATOM      2  C   UNL     1     130.895 142.615 115.760  1.00  0.00    -0.027 C 
ATOM      3  C   UNL     1     132.563 141.376 117.060  1.00  0.00     0.039 C 
ENDROOT
BRANCH   2   4
ATOM      4  C   UNL     1     129.881 142.893 114.673  1.00  0.00     0.032 C 
BRANCH   4   5
ATOM      5  C   UNL     1     128.484 143.305 115.181  1.00  0.00     0.034 C 
BRANCH   5   6
ATOM      6  C   UNL     1     127.956 142.400 116.279  1.00  0.00    -0.077 C 
ATOM      7  C   UNL     1     127.753 143.002 117.648  1.00  0.00     0.039 C 
ATOM      8  C   UNL     1     127.721 141.073 116.130  1.00  0.00    -0.023 CG0
ATOM      9  G   UNL     1     127.836 140.262 114.854  1.00  0.00     0.000 G0
ENDBRANCH   5   6
ENDBRANCH   4   5
ENDBRANCH   2   4
BRANCH   1  10
ATOM     10  C   UNL     1     131.228 140.184 115.173  1.00  0.00     0.111 C 
BRANCH  10  11
ATOM     11  C   UNL     1     130.100 139.372 115.755  1.00  0.00     0.163 C 
ATOM     12  O   UNL     1     130.257 138.873 116.902  1.00  0.00    -0.294 OA
BRANCH  11  13
ATOM     13  C   UNL     1     128.843 139.092 115.000  1.00  0.00    -0.002 C 
ATOM     14  C   UNL     1     128.649 137.886 114.388  1.00  0.00    -0.069 C 
ATOM     15  C   UNL     1     127.462 137.627 113.486  1.00  0.00     0.039 C 
ATOM     16  C   UNL     1     129.620 136.742 114.583  1.00  0.00     0.039 C 
BRANCH  13  17
ATOM     17  C   UNL     1     127.845 140.231 114.864  1.00  0.00     0.066 CG0
ATOM     18  G   UNL     1     127.725 141.047 116.135  1.00  0.00     0.000 G0
ENDBRANCH  13  17
ENDBRANCH  11  13
ENDBRANCH  10  11
ENDBRANCH   1  10
TORSDOF 0
ENDMDL
MODEL 4
REMARK VINA RESULT:    -3.513      2.178      4.227
REMARK INTER + INTRA:          -4.752
REMARK INTER:                  -4.936
REMARK INTRA:                   0.184
REMARK UNBOUND:                 0.198
REMARK SMILES CC1=CCC(=C(C)C)C(=O)CC(C)=CCC1
REMARK SMILES IDX 12 1 14 2 13 3 15 4 16 5 2 6 1 7 3 8 11 10 9 11 10 12 5 13
REMARK SMILES IDX 6 14 7 15 8 16 4 17
REMARK H PARENT
REMARK Flexibility Score: 60.00
ROOT
ATOM      1  C   UNL     1     128.745 139.038 115.386  1.00  0.00    -0.070 C 
ATOM      2  C   UNL     1     130.020 138.614 115.523  1.00  0.00    -0.027 C 
ATOM      3  C   UNL     1     127.872 138.336 114.375  1.00  0.00     0.039 C 
ENDROOT
BRANCH   2   4
ATOM      4  C   UNL     1     131.072 139.247 116.408  1.00  0.00     0.032 C 
BRANCH   4   5
ATOM      5  C   UNL     1     131.970 140.285 115.704  1.00  0.00     0.034 C 
BRANCH   5   6
ATOM      6  C   UNL     1     132.024 141.618 116.428  1.00  0.00    -0.077 C 
ATOM      7  C   UNL     1     132.976 141.746 117.592  1.00  0.00     0.039 C 
ATOM      8  C   UNL     1     131.226 142.676 116.143  1.00  0.00    -0.023 CG0
ATOM      9  G   UNL     1     130.217 142.784 115.016  1.00  0.00     0.000 G0
ENDBRANCH   5   6
ENDBRANCH   4   5
ENDBRANCH   2   4
BRANCH   1  10
ATOM     10  C   UNL     1     128.182 140.233 116.127  1.00  0.00     0.111 C 
BRANCH  10  11
ATOM     11  C   UNL     1     128.040 141.431 115.225  1.00  0.00     0.163 C 
ATOM     12  O   UNL     1     127.317 141.319 114.198  1.00  0.00    -0.294 OA
BRANCH  11  13
ATOM     13  C   UNL     1     128.767 142.711 115.472  1.00  0.00    -0.002 C 
ATOM     14  C   UNL     1     128.128 143.783 116.028  1.00  0.00    -0.069 C 
ATOM     15  C   UNL     1     128.789 145.138 116.145  1.00  0.00     0.039 C 
ATOM     16  C   UNL     1     126.714 143.666 116.556  1.00  0.00     0.039 C 
BRANCH  13  17
ATOM     17  C   UNL     1     130.207 142.795 114.994  1.00  0.00     0.066 CG0
ATOM     18  G   UNL     1     131.201 142.675 116.132  1.00  0.00     0.000 G0
ENDBRANCH  13  17
ENDBRANCH  11  13
ENDBRANCH  10  11
ENDBRANCH   1  10
TORSDOF 0
ENDMDL
MODEL 5
REMARK VINA RESULT:    -3.454      1.887      3.867
REMARK INTER + INTRA:          -4.669
REMARK INTER:                  -4.768
REMARK INTRA:                   0.099
REMARK UNBOUND:                 0.198
REMARK SMILES CC1=CCC(=C(C)C)C(=O)CC(C)=CCC1
REMARK SMILES IDX 12 1 14 2 13 3 15 4 16 5 2 6 1 7 3 8 11 10 9 11 10 12 5 13
REMARK SMILES IDX 6 14 7 15 8 16 4 17
REMARK H PARENT
REMARK Flexibility Score: 60.00
ROOT
ATOM      1  C   UNL     1     129.694 137.600 114.931  1.00  0.00    -0.070 C 
ATOM      2  C   UNL     1     130.984 137.924 114.693  1.00  0.00    -0.027 C 
ATOM      3  C   UNL     1     129.061 136.538 114.067  1.00  0.00     0.039 C 
ENDROOT
BRANCH   2   4
ATOM      4  C   UNL     1     131.761 139.024 115.383  1.00  0.00     0.032 C 
BRANCH   4   5
ATOM      5  C   UNL     1     131.506 140.441 114.830  1.00  0.00     0.034 C 
BRANCH   5   6
ATOM      6  C   UNL     1     131.240 141.468 115.915  1.00  0.00    -0.077 C 
ATOM      7  C   UNL     1     132.381 141.829 116.835  1.00  0.00     0.039 C 
ATOM      8  C   UNL     1     130.030 142.030 116.156  1.00  0.00    -0.023 CG0
ATOM      9  G   UNL     1     128.756 141.834 115.359  1.00  0.00     0.000 G0
ENDBRANCH   5   6
ENDBRANCH   4   5
ENDBRANCH   2   4
BRANCH   1  10
ATOM     10  C   UNL     1     128.834 138.311 115.956  1.00  0.00     0.111 C 
BRANCH  10  11
ATOM     11  C   UNL     1     127.978 139.375 115.321  1.00  0.00     0.163 C 
ATOM     12  O   UNL     1     127.404 139.105 114.231  1.00  0.00    -0.294 OA
BRANCH  11  13
ATOM     13  C   UNL     1     127.838 140.743 115.902  1.00  0.00    -0.002 C 
ATOM     14  C   UNL     1     126.878 141.011 116.837  1.00  0.00    -0.069 C 
ATOM     15  C   UNL     1     126.607 142.416 117.327  1.00  0.00     0.039 C 
ATOM     16  C   UNL     1     126.032 139.906 117.432  1.00  0.00     0.039 C 
BRANCH  13  17
ATOM     17  C   UNL     1     128.737 141.832 115.341  1.00  0.00     0.066 CG0
ATOM     18  G   UNL     1     130.013 141.997 116.143  1.00  0.00     0.000 G0
ENDBRANCH  13  17
ENDBRANCH  11  13
ENDBRANCH  10  11
ENDBRANCH   1  10
TORSDOF 0
ENDMDL
MODEL 6
REMARK VINA RESULT:    -3.406      1.979      4.496
REMARK INTER + INTRA:          -4.602
REMARK INTER:                  -4.898
REMARK INTRA:                   0.296
REMARK UNBOUND:                 0.198
REMARK SMILES CC1=CCC(=C(C)C)C(=O)CC(C)=CCC1
REMARK SMILES IDX 12 1 14 2 13 3 15 4 16 5 2 6 1 7 3 8 11 10 9 11 10 12 5 13
REMARK SMILES IDX 6 14 7 15 8 16 4 17
REMARK H PARENT
REMARK Flexibility Score: 60.00
ROOT
ATOM      1  C   UNL     1     128.812 138.282 114.850  1.00  0.00    -0.070 C 
ATOM      2  C   UNL     1     127.695 139.001 114.606  1.00  0.00    -0.027 C 
ATOM      3  C   UNL     1     129.004 136.995 114.087  1.00  0.00     0.039 C 
ENDROOT
BRANCH   2   4
ATOM      4  C   UNL     1     127.278 140.261 115.333  1.00  0.00     0.032 C 
BRANCH   4   5
ATOM      5  C   UNL     1     127.654 141.575 114.619  1.00  0.00     0.034 C 
BRANCH   5   6
ATOM      6  C   UNL     1     128.287 142.599 115.544  1.00  0.00    -0.077 C 
ATOM      7  C   UNL     1     127.365 143.498 116.331  1.00  0.00     0.039 C 
ATOM      8  C   UNL     1     129.622 142.803 115.659  1.00  0.00    -0.023 CG0
ATOM      9  G   UNL     1     130.729 142.016 114.986  1.00  0.00     0.000 G0
ENDBRANCH   5   6
ENDBRANCH   4   5
ENDBRANCH   2   4
BRANCH   1  10
ATOM     10  C   UNL     1     129.827 138.658 115.909  1.00  0.00     0.111 C 
BRANCH  10  11
ATOM     11  C   UNL     1     130.949 139.484 115.336  1.00  0.00     0.163 C 
ATOM     12  O   UNL     1     131.677 138.964 114.448  1.00  0.00    -0.294 OA
BRANCH  11  13
ATOM     13  C   UNL     1     131.262 140.860 115.826  1.00  0.00    -0.002 C 
ATOM     14  C   UNL     1     131.894 141.049 117.022  1.00  0.00    -0.069 C 
ATOM     15  C   UNL     1     132.083 142.426 117.619  1.00  0.00     0.039 C 
ATOM     16  C   UNL     1     132.440 139.881 117.815  1.00  0.00     0.039 C 
BRANCH  13  17
ATOM     17  C   UNL     1     130.763 142.026 114.988  1.00  0.00     0.066 CG0
ATOM     18  G   UNL     1     129.633 142.779 115.664  1.00  0.00     0.000 G0
ENDBRANCH  13  17
ENDBRANCH  11  13
ENDBRANCH  10  11
ENDBRANCH   1  10
TORSDOF 0
ENDMDL
MODEL 7
REMARK VINA RESULT:    -3.351     11.911     14.489
REMARK INTER + INTRA:          -4.524
REMARK INTER:                  -5.097
REMARK INTRA:                   0.573
REMARK UNBOUND:                 0.198
REMARK SMILES CC1=CCC(=C(C)C)C(=O)CC(C)=CCC1
REMARK SMILES IDX 12 1 14 2 13 3 15 4 16 5 2 6 1 7 3 8 11 10 9 11 10 12 5 13
REMARK SMILES IDX 6 14 7 15 8 16 4 17
REMARK H PARENT
REMARK Flexibility Score: 60.00
ROOT
ATOM      1  C   UNL     1     138.996 134.358 122.638  1.00  0.00    -0.070 C 
ATOM      2  C   UNL     1     138.383 134.795 121.517  1.00  0.00    -0.027 C 
ATOM      3  C   UNL     1     139.174 132.870 122.813  1.00  0.00     0.039 C 
ENDROOT
BRANCH   2   4
ATOM      4  C   UNL     1     138.028 136.233 121.207  1.00  0.00     0.032 C 
BRANCH   4   5
ATOM      5  C   UNL     1     138.861 136.876 120.079  1.00  0.00     0.034 C 
BRANCH   5   6
ATOM      6  C   UNL     1     139.937 137.817 120.592  1.00  0.00    -0.077 C 
ATOM      7  C   UNL     1     139.631 139.294 120.600  1.00  0.00     0.039 C 
ATOM      8  C   UNL     1     141.176 137.424 120.978  1.00  0.00    -0.023 CG0
ATOM      9  G   UNL     1     141.698 136.004 121.070  1.00  0.00     0.000 G0
ENDBRANCH   5   6
ENDBRANCH   4   5
ENDBRANCH   2   4
BRANCH   1  10
ATOM     10  C   UNL     1     139.429 135.278 123.762  1.00  0.00     0.111 C 
BRANCH  10  11
ATOM     11  C   UNL     1     140.717 135.988 123.434  1.00  0.00     0.163 C 
ATOM     12  O   UNL     1     140.926 137.114 123.961  1.00  0.00    -0.294 OA
BRANCH  11  13
ATOM     13  C   UNL     1     141.713 135.435 122.469  1.00  0.00    -0.002 C 
ATOM     14  C   UNL     1     142.650 134.527 122.875  1.00  0.00    -0.069 C 
ATOM     15  C   UNL     1     143.768 134.069 121.965  1.00  0.00     0.039 C 
ATOM     16  C   UNL     1     142.615 133.931 124.266  1.00  0.00     0.039 C 
BRANCH  13  17
ATOM     17  C   UNL     1     141.698 135.996 121.057  1.00  0.00     0.066 CG0
ATOM     18  G   UNL     1     141.171 137.417 121.006  1.00  0.00     0.000 G0
ENDBRANCH  13  17
ENDBRANCH  11  13
ENDBRANCH  10  11
ENDBRANCH   1  10
TORSDOF 0
ENDMDL
MODEL 8
REMARK VINA RESULT:    -3.307     13.695     15.645
REMARK INTER + INTRA:          -4.462
REMARK INTER:                  -4.789
REMARK INTRA:                   0.327
REMARK UNBOUND:                 0.198
REMARK SMILES CC1=CCC(=C(C)C)C(=O)CC(C)=CCC1
REMARK SMILES IDX 12 1 14 2 13 3 15 4 16 5 2 6 1 7 3 8 11 10 9 11 10 12 5 13
REMARK SMILES IDX 6 14 7 15 8 16 4 17
REMARK H PARENT
REMARK Flexibility Score: 60.00
ROOT
ATOM      1  C   UNL     1     140.210 133.996 123.279  1.00  0.00    -0.070 C 
ATOM      2  C   UNL     1     141.388 133.424 123.608  1.00  0.00    -0.027 C 
ATOM      3  C   UNL     1     139.077 133.092 122.863  1.00  0.00     0.039 C 
ENDROOT
BRANCH   2   4
ATOM      4  C   UNL     1     142.663 134.161 123.956  1.00  0.00     0.032 C 
BRANCH   4   5
ATOM      5  C   UNL     1     143.732 134.166 122.844  1.00  0.00     0.034 C 
BRANCH   5   6
ATOM      6  C   UNL     1     144.438 135.501 122.699  1.00  0.00    -0.077 C 
ATOM      7  C   UNL     1     145.687 135.727 123.516  1.00  0.00     0.039 C 
ATOM      8  C   UNL     1     143.984 136.528 121.938  1.00  0.00    -0.023 CG0
ATOM      9  G   UNL     1     142.773 136.525 121.027  1.00  0.00     0.000 G0
ENDBRANCH   5   6
ENDBRANCH   4   5
ENDBRANCH   2   4
BRANCH   1  10
ATOM     10  C   UNL     1     140.002 135.496 123.220  1.00  0.00     0.111 C 
BRANCH  10  11
ATOM     11  C   UNL     1     140.392 136.059 121.878  1.00  0.00     0.163 C 
ATOM     12  O   UNL     1     139.779 135.642 120.858  1.00  0.00    -0.294 OA
BRANCH  11  13
ATOM     13  C   UNL     1     141.508 137.037 121.714  1.00  0.00    -0.002 C 
ATOM     14  C   UNL     1     141.359 138.340 122.098  1.00  0.00    -0.069 C 
ATOM     15  C   UNL     1     142.408 139.388 121.801  1.00  0.00     0.039 C 
ATOM     16  C   UNL     1     140.125 138.802 122.844  1.00  0.00     0.039 C 
BRANCH  13  17
ATOM     17  C   UNL     1     142.767 136.545 121.018  1.00  0.00     0.066 CG0
ATOM     18  G   UNL     1     143.971 136.541 121.940  1.00  0.00     0.000 G0
ENDBRANCH  13  17
ENDBRANCH  11  13
ENDBRANCH  10  11
ENDBRANCH   1  10
TORSDOF 0
ENDMDL
MODEL 9
REMARK VINA RESULT:    -3.267      8.241     11.211
REMARK INTER + INTRA:          -4.406
REMARK INTER:                  -4.850
REMARK INTRA:                   0.443
REMARK UNBOUND:                 0.198
REMARK SMILES CC1=CCC(=C(C)C)C(=O)CC(C)=CCC1
REMARK SMILES IDX 12 1 14 2 13 3 15 4 16 5 2 6 1 7 3 8 11 10 9 11 10 12 5 13
REMARK SMILES IDX 6 14 7 15 8 16 4 17
REMARK H PARENT
REMARK Flexibility Score: 60.00
ROOT
ATOM      1  C   UNL     1     137.304 140.136 117.286  1.00  0.00    -0.070 C 
ATOM      2  C   UNL     1     138.409 140.901 117.156  1.00  0.00    -0.027 C 
ATOM      3  C   UNL     1     135.963 140.827 117.293  1.00  0.00     0.039 C 
ENDROOT
BRANCH   2   4
ATOM      4  C   UNL     1     139.838 140.409 117.224  1.00  0.00     0.032 C 
BRANCH   4   5
ATOM      5  C   UNL     1     140.660 140.968 118.403  1.00  0.00     0.034 C 
BRANCH   5   6
ATOM      6  C   UNL     1     139.937 140.871 119.735  1.00  0.00    -0.077 C 
ATOM      7  C   UNL     1     139.656 142.154 120.476  1.00  0.00     0.039 C 
ATOM      8  C   UNL     1     139.589 139.705 120.332  1.00  0.00    -0.023 CG0
ATOM      9  G   UNL     1     139.753 138.305 119.773  1.00  0.00     0.000 G0
ENDBRANCH   5   6
ENDBRANCH   4   5
ENDBRANCH   2   4
BRANCH   1  10
ATOM     10  C   UNL     1     137.352 138.639 117.516  1.00  0.00     0.111 C 
BRANCH  10  11
ATOM     11  C   UNL     1     137.306 138.300 118.983  1.00  0.00     0.163 C 
ATOM     12  O   UNL     1     136.315 138.697 119.654  1.00  0.00    -0.294 OA
BRANCH  11  13
ATOM     13  C   UNL     1     138.412 137.571 119.671  1.00  0.00    -0.002 C 
ATOM     14  C   UNL     1     138.194 136.350 120.245  1.00  0.00    -0.069 C 
ATOM     15  C   UNL     1     139.246 135.659 121.083  1.00  0.00     0.039 C 
ATOM     16  C   UNL     1     136.878 135.623 120.068  1.00  0.00     0.039 C 
BRANCH  13  17
ATOM     17  C   UNL     1     139.748 138.285 119.788  1.00  0.00     0.066 CG0
ATOM     18  G   UNL     1     139.602 139.699 120.315  1.00  0.00     0.000 G0
ENDBRANCH  13  17
ENDBRANCH  11  13
ENDBRANCH  10  11
ENDBRANCH   1  10
TORSDOF 0
ENDMDL
