MODEL 1
REMARK VINA RESULT:    -4.724      0.000      0.000
REMARK INTER + INTRA:          -7.335
REMARK INTER:                  -6.933
REMARK INTRA:                  -0.402
REMARK UNBOUND:                -0.402
REMARK SMILES O=C([O-])CCCCCCCC(=O)[O-]
REMARK SMILES IDX 7 1 6 2 5 3 4 4 2 5 1 6 3 7 8 8 9 9 10 10 11 11 12 12 13 13
REMARK H PARENT
REMARK Flexibility Score: inf
ROOT
ATOM      1  C   UNL     1      17.640  18.475  34.300  1.00  0.00     0.000 C 
ENDROOT
BRANCH   1   2
ATOM      2  C   UNL     1      19.010  18.499  34.994  1.00  0.00     0.000 C 
BRANCH   2   3
ATOM      3  C   UNL     1      19.421  19.910  35.445  1.00  0.00     0.006 C 
BRANCH   3   4
ATOM      4  C   UNL     1      20.611  19.897  36.415  1.00  0.00     0.053 C 
BRANCH   4   5
ATOM      5  C   UNL     1      20.206  20.451  37.744  1.00  0.00     0.041 C 
ATOM      6  O   UNL     1      21.040  21.080  38.449  1.00  0.00    -0.550 OA
ATOM      7  O   UNL     1      18.922  20.233  38.226  1.00  0.00    -0.550 OA
ENDBRANCH   4   5
ENDBRANCH   3   4
ENDBRANCH   2   3
ENDBRANCH   1   2
BRANCH   1   8
ATOM      8  C   UNL     1      16.784  17.311  34.815  1.00  0.00     0.000 C 
BRANCH   8   9
ATOM      9  C   UNL     1      16.903  17.174  36.340  1.00  0.00     0.006 C 
BRANCH   9  10
ATOM     10  C   UNL     1      16.595  15.750  36.822  1.00  0.00     0.053 C 
BRANCH  10  11
ATOM     11  C   UNL     1      15.314  15.689  37.595  1.00  0.00     0.041 C 
ATOM     12  O   UNL     1      14.512  16.661  37.571  1.00  0.00    -0.550 OA
ATOM     13  O   UNL     1      15.020  14.574  38.368  1.00  0.00    -0.550 OA
ENDBRANCH  10  11
ENDBRANCH   9  10
ENDBRANCH   8   9
ENDBRANCH   1   8
TORSDOF 8
ENDMDL
MODEL 2
REMARK VINA RESULT:    -4.658      1.136      5.378
REMARK INTER + INTRA:          -7.238
REMARK INTER:                  -6.666
REMARK INTRA:                  -0.572
REMARK UNBOUND:                -0.402
REMARK SMILES O=C([O-])CCCCCCCC(=O)[O-]
REMARK SMILES IDX 7 1 6 2 5 3 4 4 2 5 1 6 3 7 8 8 9 9 10 10 11 11 12 12 13 13
REMARK H PARENT
REMARK Flexibility Score: inf
ROOT
ATOM      1  C   UNL     1      19.778  17.940  34.404  1.00  0.00     0.000 C 
ENDROOT
BRANCH   1   2
ATOM      2  C   UNL     1      18.531  17.085  34.127  1.00  0.00     0.000 C 
BRANCH   2   3
ATOM      3  C   UNL     1      18.074  16.289  35.359  1.00  0.00     0.006 C 
BRANCH   3   4
ATOM      4  C   UNL     1      17.340  17.161  36.388  1.00  0.00     0.053 C 
BRANCH   4   5
ATOM      5  C   UNL     1      16.040  16.530  36.774  1.00  0.00     0.041 C 
ATOM      6  O   UNL     1      15.507  16.803  37.881  1.00  0.00    -0.550 OA
ATOM      7  O   UNL     1      15.441  15.602  35.931  1.00  0.00    -0.550 OA
ENDBRANCH   4   5
ENDBRANCH   3   4
ENDBRANCH   2   3
ENDBRANCH   1   2
BRANCH   1   8
ATOM      8  C   UNL     1      19.514  19.416  34.085  1.00  0.00     0.000 C 
BRANCH   8   9
ATOM      9  C   UNL     1      19.445  20.253  35.371  1.00  0.00     0.006 C 
BRANCH   9  10
ATOM     10  C   UNL     1      20.502  19.826  36.398  1.00  0.00     0.053 C 
BRANCH  10  11
ATOM     11  C   UNL     1      20.138  20.262  37.784  1.00  0.00     0.041 C 
ATOM     12  O   UNL     1      18.934  20.259  38.155  1.00  0.00    -0.550 OA
ATOM     13  O   UNL     1      21.125  20.704  38.657  1.00  0.00    -0.550 OA
ENDBRANCH  10  11
ENDBRANCH   9  10
ENDBRANCH   8   9
ENDBRANCH   1   8
TORSDOF 8
ENDMDL
MODEL 3
REMARK VINA RESULT:    -4.649      1.570      5.323
REMARK INTER + INTRA:          -7.226
REMARK INTER:                  -6.580
REMARK INTRA:                  -0.646
REMARK UNBOUND:                -0.402
REMARK SMILES O=C([O-])CCCCCCCC(=O)[O-]
REMARK SMILES IDX 7 1 6 2 5 3 4 4 2 5 1 6 3 7 8 8 9 9 10 10 11 11 12 12 13 13
REMARK H PARENT
REMARK Flexibility Score: inf
ROOT
ATOM      1  C   UNL     1      19.409  16.894  35.047  1.00  0.00     0.000 C 
ENDROOT
BRANCH   1   2
ATOM      2  C   UNL     1      18.752  15.796  35.899  1.00  0.00     0.000 C 
BRANCH   2   3
ATOM      3  C   UNL     1      17.220  15.794  35.783  1.00  0.00     0.006 C 
BRANCH   3   4
ATOM      4  C   UNL     1      16.530  15.351  37.081  1.00  0.00     0.053 C 
BRANCH   4   5
ATOM      5  C   UNL     1      15.057  15.602  37.000  1.00  0.00     0.041 C 
ATOM      6  O   UNL     1      14.341  14.920  36.220  1.00  0.00    -0.550 OA
ATOM      7  O   UNL     1      14.484  16.621  37.750  1.00  0.00    -0.550 OA
ENDBRANCH   4   5
ENDBRANCH   3   4
ENDBRANCH   2   3
ENDBRANCH   1   2
BRANCH   1   8
ATOM      8  C   UNL     1      20.015  17.988  35.935  1.00  0.00     0.000 C 
BRANCH   8   9
ATOM      9  C   UNL     1      19.597  19.383  35.450  1.00  0.00     0.006 C 
BRANCH   9  10
ATOM     10  C   UNL     1      18.133  19.701  35.786  1.00  0.00     0.053 C 
BRANCH  10  11
ATOM     11  C   UNL     1      17.867  19.601  37.257  1.00  0.00     0.041 C 
ATOM     12  O   UNL     1      16.917  18.892  37.683  1.00  0.00    -0.550 OA
ATOM     13  O   UNL     1      18.646  20.318  38.156  1.00  0.00    -0.550 OA
ENDBRANCH  10  11
ENDBRANCH   9  10
ENDBRANCH   8   9
ENDBRANCH   1   8
TORSDOF 8
ENDMDL
MODEL 4
REMARK VINA RESULT:    -4.617      2.170      2.798
REMARK INTER + INTRA:          -7.178
REMARK INTER:                  -6.411
REMARK INTRA:                  -0.766
REMARK UNBOUND:                -0.402
REMARK SMILES O=C([O-])CCCCCCCC(=O)[O-]
REMARK SMILES IDX 7 1 6 2 5 3 4 4 2 5 1 6 3 7 8 8 9 9 10 10 11 11 12 12 13 13
REMARK H PARENT
REMARK Flexibility Score: inf
ROOT
ATOM      1  C   UNL     1      19.086  16.527  35.939  1.00  0.00     0.000 C 
ENDROOT
BRANCH   1   2
ATOM      2  C   UNL     1      20.111  17.661  35.782  1.00  0.00     0.000 C 
BRANCH   2   3
ATOM      3  C   UNL     1      19.621  18.988  36.381  1.00  0.00     0.006 C 
BRANCH   3   4
ATOM      4  C   UNL     1      19.806  20.173  35.422  1.00  0.00     0.053 C 
BRANCH   4   5
ATOM      5  C   UNL     1      18.828  20.087  34.293  1.00  0.00     0.041 C 
ATOM      6  O   UNL     1      17.596  19.966  34.530  1.00  0.00    -0.550 OA
ATOM      7  O   UNL     1      19.280  20.091  32.980  1.00  0.00    -0.550 OA
ENDBRANCH   4   5
ENDBRANCH   3   4
ENDBRANCH   2   3
ENDBRANCH   1   2
BRANCH   1   8
ATOM      8  C   UNL     1      18.217  16.394  34.682  1.00  0.00     0.000 C 
BRANCH   8   9
ATOM      9  C   UNL     1      16.724  16.455  35.037  1.00  0.00     0.006 C 
BRANCH   9  10
ATOM     10  C   UNL     1      16.485  16.995  36.453  1.00  0.00     0.053 C 
BRANCH  10  11
ATOM     11  C   UNL     1      15.593  16.092  37.249  1.00  0.00     0.041 C 
ATOM     12  O   UNL     1      15.925  14.895  37.457  1.00  0.00    -0.550 OA
ATOM     13  O   UNL     1      14.380  16.564  37.734  1.00  0.00    -0.550 OA
ENDBRANCH  10  11
ENDBRANCH   9  10
ENDBRANCH   8   9
ENDBRANCH   1   8
TORSDOF 8
ENDMDL
MODEL 5
REMARK VINA RESULT:    -4.610     16.354     17.868
REMARK INTER + INTRA:          -7.168
REMARK INTER:                  -6.626
REMARK INTRA:                  -0.542
REMARK UNBOUND:                -0.402
REMARK SMILES O=C([O-])CCCCCCCC(=O)[O-]
REMARK SMILES IDX 7 1 6 2 5 3 4 4 2 5 1 6 3 7 8 8 9 9 10 10 11 11 12 12 13 13
REMARK H PARENT
REMARK Flexibility Score: inf
ROOT
ATOM      1  C   UNL     1       9.046  31.321  27.542  1.00  0.00     0.000 C 
ENDROOT
BRANCH   1   2
ATOM      2  C   UNL     1       8.221  30.219  26.859  1.00  0.00     0.000 C 
BRANCH   2   3
ATOM      3  C   UNL     1       8.398  28.847  27.526  1.00  0.00     0.006 C 
BRANCH   3   4
ATOM      4  C   UNL     1       7.069  28.250  28.010  1.00  0.00     0.053 C 
BRANCH   4   5
ATOM      5  C   UNL     1       6.494  27.344  26.968  1.00  0.00     0.041 C 
ATOM      6  O   UNL     1       5.326  27.534  26.537  1.00  0.00    -0.550 OA
ATOM      7  O   UNL     1       7.231  26.260  26.507  1.00  0.00    -0.550 OA
ENDBRANCH   4   5
ENDBRANCH   3   4
ENDBRANCH   2   3
ENDBRANCH   1   2
BRANCH   1   8
ATOM      8  C   UNL     1      10.265  30.728  28.260  1.00  0.00     0.000 C 
BRANCH   8   9
ATOM      9  C   UNL     1      10.485  31.406  29.620  1.00  0.00     0.006 C 
BRANCH   9  10
ATOM     10  C   UNL     1       9.844  30.622  30.772  1.00  0.00     0.053 C 
BRANCH  10  11
ATOM     11  C   UNL     1       8.897  31.471  31.564  1.00  0.00     0.041 C 
ATOM     12  O   UNL     1       7.816  31.864  31.049  1.00  0.00    -0.550 OA
ATOM     13  O   UNL     1       9.222  31.855  32.858  1.00  0.00    -0.550 OA
ENDBRANCH  10  11
ENDBRANCH   9  10
ENDBRANCH   8   9
ENDBRANCH   1   8
TORSDOF 8
ENDMDL
MODEL 6
REMARK VINA RESULT:    -4.556      1.117      5.273
REMARK INTER + INTRA:          -7.089
REMARK INTER:                  -6.606
REMARK INTRA:                  -0.484
REMARK UNBOUND:                -0.402
REMARK SMILES O=C([O-])CCCCCCCC(=O)[O-]
REMARK SMILES IDX 7 1 6 2 5 3 4 4 2 5 1 6 3 7 8 8 9 9 10 10 11 11 12 12 13 13
REMARK H PARENT
REMARK Flexibility Score: inf
ROOT
ATOM      1  C   UNL     1      18.263  19.379  34.708  1.00  0.00     0.000 C 
ENDROOT
BRANCH   1   2
ATOM      2  C   UNL     1      18.735  17.953  34.383  1.00  0.00     0.000 C 
BRANCH   2   3
ATOM      3  C   UNL     1      17.821  16.875  34.987  1.00  0.00     0.006 C 
BRANCH   3   4
ATOM      4  C   UNL     1      17.489  17.141  36.462  1.00  0.00     0.053 C 
BRANCH   4   5
ATOM      5  C   UNL     1      16.093  16.698  36.770  1.00  0.00     0.041 C 
ATOM      6  O   UNL     1      15.559  17.005  37.868  1.00  0.00    -0.550 OA
ATOM      7  O   UNL     1      15.401  15.905  35.864  1.00  0.00    -0.550 OA
ENDBRANCH   4   5
ENDBRANCH   3   4
ENDBRANCH   2   3
ENDBRANCH   1   2
BRANCH   1   8
ATOM      8  C   UNL     1      19.431  20.245  35.196  1.00  0.00     0.000 C 
BRANCH   8   9
ATOM      9  C   UNL     1      20.621  19.373  35.623  1.00  0.00     0.006 C 
BRANCH   9  10
ATOM     10  C   UNL     1      20.605  19.065  37.126  1.00  0.00     0.053 C 
BRANCH  10  11
ATOM     11  C   UNL     1      20.116  20.232  37.928  1.00  0.00     0.041 C 
ATOM     12  O   UNL     1      20.916  21.139  38.281  1.00  0.00    -0.550 OA
ATOM     13  O   UNL     1      18.784  20.301  38.315  1.00  0.00    -0.550 OA
ENDBRANCH  10  11
ENDBRANCH   9  10
ENDBRANCH   8   9
ENDBRANCH   1   8
TORSDOF 8
ENDMDL
MODEL 7
REMARK VINA RESULT:    -4.526     16.361     17.279
REMARK INTER + INTRA:          -7.044
REMARK INTER:                  -6.449
REMARK INTRA:                  -0.595
REMARK UNBOUND:                -0.402
REMARK SMILES O=C([O-])CCCCCCCC(=O)[O-]
REMARK SMILES IDX 7 1 6 2 5 3 4 4 2 5 1 6 3 7 8 8 9 9 10 10 11 11 12 12 13 13
REMARK H PARENT
REMARK Flexibility Score: inf
ROOT
ATOM      1  C   UNL     1       8.945  31.309  27.813  1.00  0.00     0.000 C 
ENDROOT
BRANCH   1   2
ATOM      2  C   UNL     1      10.192  30.717  28.488  1.00  0.00     0.000 C 
BRANCH   2   3
ATOM      3  C   UNL     1      10.506  31.382  29.838  1.00  0.00     0.006 C 
BRANCH   3   4
ATOM      4  C   UNL     1       9.898  30.622  31.026  1.00  0.00     0.053 C 
BRANCH   4   5
ATOM      5  C   UNL     1       8.968  31.510  31.791  1.00  0.00     0.041 C 
ATOM      6  O   UNL     1       9.264  31.884  32.956  1.00  0.00    -0.550 OA
ATOM      7  O   UNL     1       7.752  31.885  31.235  1.00  0.00    -0.550 OA
ENDBRANCH   4   5
ENDBRANCH   3   4
ENDBRANCH   2   3
ENDBRANCH   1   2
BRANCH   1   8
ATOM      8  C   UNL     1       7.727  30.399  28.017  1.00  0.00     0.000 C 
BRANCH   8   9
ATOM      9  C   UNL     1       8.153  28.929  28.136  1.00  0.00     0.006 C 
BRANCH   9  10
ATOM     10  C   UNL     1       6.954  27.972  28.094  1.00  0.00     0.053 C 
BRANCH  10  11
ATOM     11  C   UNL     1       6.546  27.651  26.688  1.00  0.00     0.041 C 
ATOM     12  O   UNL     1       5.333  27.467  26.406  1.00  0.00    -0.550 OA
ATOM     13  O   UNL     1       7.511  27.524  25.696  1.00  0.00    -0.550 OA
ENDBRANCH  10  11
ENDBRANCH   9  10
ENDBRANCH   8   9
ENDBRANCH   1   8
TORSDOF 8
ENDMDL
MODEL 8
REMARK VINA RESULT:    -4.494     16.187     17.808
REMARK INTER + INTRA:          -6.997
REMARK INTER:                  -6.467
REMARK INTRA:                  -0.531
REMARK UNBOUND:                -0.402
REMARK SMILES O=C([O-])CCCCCCCC(=O)[O-]
REMARK SMILES IDX 7 1 6 2 5 3 4 4 2 5 1 6 3 7 8 8 9 9 10 10 11 11 12 12 13 13
REMARK H PARENT
REMARK Flexibility Score: inf
ROOT
ATOM      1  C   UNL     1       8.855  31.326  27.666  1.00  0.00     0.000 C 
ENDROOT
BRANCH   1   2
ATOM      2  C   UNL     1       8.235  30.297  26.707  1.00  0.00     0.000 C 
BRANCH   2   3
ATOM      3  C   UNL     1       8.416  28.851  27.193  1.00  0.00     0.006 C 
BRANCH   3   4
ATOM      4  C   UNL     1       7.150  28.287  27.854  1.00  0.00     0.053 C 
BRANCH   4   5
ATOM      5  C   UNL     1       6.510  27.266  26.967  1.00  0.00     0.041 C 
ATOM      6  O   UNL     1       7.125  26.207  26.674  1.00  0.00    -0.550 OA
ATOM      7  O   UNL     1       5.254  27.507  26.425  1.00  0.00    -0.550 OA
ENDBRANCH   4   5
ENDBRANCH   3   4
ENDBRANCH   2   3
ENDBRANCH   1   2
BRANCH   1   8
ATOM      8  C   UNL     1       7.805  31.866  28.644  1.00  0.00     0.000 C 
BRANCH   8   9
ATOM      9  C   UNL     1       8.361  31.915  30.075  1.00  0.00     0.006 C 
BRANCH   9  10
ATOM     10  C   UNL     1       9.135  30.641  30.441  1.00  0.00     0.053 C 
BRANCH  10  11
ATOM     11  C   UNL     1       9.661  30.693  31.843  1.00  0.00     0.041 C 
ATOM     12  O   UNL     1       9.314  31.626  32.616  1.00  0.00    -0.550 OA
ATOM     13  O   UNL     1      10.560  29.731  32.285  1.00  0.00    -0.550 OA
ENDBRANCH  10  11
ENDBRANCH   9  10
ENDBRANCH   8   9
ENDBRANCH   1   8
TORSDOF 8
ENDMDL
MODEL 9
REMARK VINA RESULT:    -4.481      2.272      5.583
REMARK INTER + INTRA:          -6.979
REMARK INTER:                  -6.394
REMARK INTRA:                  -0.586
REMARK UNBOUND:                -0.402
REMARK SMILES O=C([O-])CCCCCCCC(=O)[O-]
REMARK SMILES IDX 7 1 6 2 5 3 4 4 2 5 1 6 3 7 8 8 9 9 10 10 11 11 12 12 13 13
REMARK H PARENT
REMARK Flexibility Score: inf
ROOT
ATOM      1  C   UNL     1      20.459  16.550  36.032  1.00  0.00     0.000 C 
ENDROOT
BRANCH   1   2
ATOM      2  C   UNL     1      19.232  16.194  35.178  1.00  0.00     0.000 C 
BRANCH   2   3
ATOM      3  C   UNL     1      18.029  15.751  36.025  1.00  0.00     0.006 C 
BRANCH   3   4
ATOM      4  C   UNL     1      17.069  16.907  36.340  1.00  0.00     0.053 C 
BRANCH   4   5
ATOM      5  C   UNL     1      15.812  16.386  36.961  1.00  0.00     0.041 C 
ATOM      6  O   UNL     1      15.094  15.559  36.340  1.00  0.00    -0.550 OA
ATOM      7  O   UNL     1      15.407  16.851  38.206  1.00  0.00    -0.550 OA
ENDBRANCH   4   5
ENDBRANCH   3   4
ENDBRANCH   2   3
ENDBRANCH   1   2
BRANCH   1   8
ATOM      8  C   UNL     1      20.963  17.961  35.707  1.00  0.00     0.000 C 
BRANCH   8   9
ATOM      9  C   UNL     1      20.115  19.025  36.420  1.00  0.00     0.006 C 
BRANCH   9  10
ATOM     10  C   UNL     1      19.943  20.293  35.573  1.00  0.00     0.053 C 
BRANCH  10  11
ATOM     11  C   UNL     1      18.941  20.098  34.477  1.00  0.00     0.041 C 
ATOM     12  O   UNL     1      17.732  19.877  34.754  1.00  0.00    -0.550 OA
ATOM     13  O   UNL     1      19.348  20.126  33.149  1.00  0.00    -0.550 OA
ENDBRANCH  10  11
ENDBRANCH   9  10
ENDBRANCH   8   9
ENDBRANCH   1   8
TORSDOF 8
ENDMDL
