MODEL 1
REMARK VINA RESULT:    -3.871      0.000      0.000
REMARK INTER + INTRA:          -5.349
REMARK INTER:                  -5.229
REMARK INTRA:                  -0.120
REMARK UNBOUND:                -0.120
REMARK SMILES [NH3+]CCCC[C@H]([NH3+])C(=O)[O-]
REMARK SMILES IDX 4 1 3 2 2 3 1 4 5 8 6 9 7 10 8 14 9 15 10 16
REMARK H PARENT 1 5 1 6 1 7 7 11 7 12 7 13
REMARK Flexibility Score: inf
ROOT
ATOM      1  C   UNL     1      24.525 -11.461  32.037  1.00  0.00     0.012 C 
ENDROOT
BRANCH   1   2
ATOM      2  C   UNL     1      25.710 -12.157  31.353  1.00  0.00     0.061 C 
BRANCH   2   3
ATOM      3  C   UNL     1      26.920 -12.321  32.289  1.00  0.00     0.258 C 
BRANCH   3   4
ATOM      4  N   UNL     1      27.724 -11.101  32.374  1.00  0.00    -0.358 N 
ATOM      5  H   UNL     1      28.447 -11.118  31.620  1.00  0.00     0.344 HD
ATOM      6  H   UNL     1      28.207 -11.044  33.300  1.00  0.00     0.344 HD
ATOM      7  H   UNL     1      27.122 -10.259  32.232  1.00  0.00     0.344 HD
ENDBRANCH   3   4
ENDBRANCH   2   3
ENDBRANCH   1   2
BRANCH   1   8
ATOM      8  C   UNL     1      23.472 -11.028  31.006  1.00  0.00     0.072 C 
BRANCH   8   9
ATOM      9  C   UNL     1      22.613 -12.208  30.500  1.00  0.00     0.227 C 
BRANCH   9  10
ATOM     10  N   UNL     1      22.900 -12.528  29.094  1.00  0.00    -0.350 N 
ATOM     11  H   UNL     1      23.147 -13.538  28.998  1.00  0.00     0.345 HD
ATOM     12  H   UNL     1      23.688 -11.941  28.732  1.00  0.00     0.345 HD
ATOM     13  H   UNL     1      22.050 -12.354  28.509  1.00  0.00     0.345 HD
ENDBRANCH   9  10
BRANCH   9  14
ATOM     14  C   UNL     1      21.154 -11.872  30.664  1.00  0.00     0.099 C 
ATOM     15  O   UNL     1      20.755 -11.262  31.691  1.00  0.00    -0.544 OA
ATOM     16  O   UNL     1      20.241 -12.216  29.672  1.00  0.00    -0.544 OA
ENDBRANCH   9  14
ENDBRANCH   8   9
ENDBRANCH   1   8
TORSDOF 7
ENDMDL
MODEL 2
REMARK VINA RESULT:    -3.829      1.711      1.917
REMARK INTER + INTRA:          -5.292
REMARK INTER:                  -5.197
REMARK INTRA:                  -0.095
REMARK UNBOUND:                -0.120
REMARK SMILES [NH3+]CCCC[C@H]([NH3+])C(=O)[O-]
REMARK SMILES IDX 4 1 3 2 2 3 1 4 5 8 6 9 7 10 8 14 9 15 10 16
REMARK H PARENT 1 5 1 6 1 7 7 11 7 12 7 13
REMARK Flexibility Score: inf
ROOT
ATOM      1  C   UNL     1      23.817 -11.597  31.061  1.00  0.00     0.012 C 
ENDROOT
BRANCH   1   2
ATOM      2  C   UNL     1      24.868 -11.414  32.165  1.00  0.00     0.061 C 
BRANCH   2   3
ATOM      3  C   UNL     1      26.205 -12.097  31.827  1.00  0.00     0.258 C 
BRANCH   3   4
ATOM      4  N   UNL     1      27.356 -11.306  32.266  1.00  0.00    -0.358 N 
ATOM      5  H   UNL     1      28.215 -11.898  32.210  1.00  0.00     0.344 HD
ATOM      6  H   UNL     1      27.228 -10.992  33.255  1.00  0.00     0.344 HD
ATOM      7  H   UNL     1      27.488 -10.478  31.642  1.00  0.00     0.344 HD
ENDBRANCH   3   4
ENDBRANCH   2   3
ENDBRANCH   1   2
BRANCH   1   8
ATOM      8  C   UNL     1      22.472 -12.049  31.651  1.00  0.00     0.072 C 
BRANCH   8   9
ATOM      9  C   UNL     1      21.262 -11.524  30.849  1.00  0.00     0.227 C 
BRANCH   9  10
ATOM     10  N   UNL     1      20.166 -11.097  31.731  1.00  0.00    -0.350 N 
ATOM     11  H   UNL     1      20.422 -11.263  32.730  1.00  0.00     0.345 HD
ATOM     12  H   UNL     1      19.285 -11.616  31.507  1.00  0.00     0.345 HD
ATOM     13  H   UNL     1      19.996 -10.072  31.617  1.00  0.00     0.345 HD
ENDBRANCH   9  10
BRANCH   9  14
ATOM     14  C   UNL     1      20.778 -12.598  29.910  1.00  0.00     0.099 C 
ATOM     15  O   UNL     1      19.875 -13.397  30.273  1.00  0.00    -0.544 OA
ATOM     16  O   UNL     1      21.311 -12.700  28.630  1.00  0.00    -0.544 OA
ENDBRANCH   9  14
ENDBRANCH   8   9
ENDBRANCH   1   8
TORSDOF 7
ENDMDL
MODEL 3
REMARK VINA RESULT:    -3.811      2.721      4.921
REMARK INTER + INTRA:          -5.267
REMARK INTER:                  -4.872
REMARK INTRA:                  -0.395
REMARK UNBOUND:                -0.120
REMARK SMILES [NH3+]CCCC[C@H]([NH3+])C(=O)[O-]
REMARK SMILES IDX 4 1 3 2 2 3 1 4 5 8 6 9 7 10 8 14 9 15 10 16
REMARK H PARENT 1 5 1 6 1 7 7 11 7 12 7 13
REMARK Flexibility Score: inf
ROOT
ATOM      1  C   UNL     1      21.534 -12.222  31.105  1.00  0.00     0.012 C 
ENDROOT
BRANCH   1   2
ATOM      2  C   UNL     1      20.557 -12.186  29.922  1.00  0.00     0.061 C 
BRANCH   2   3
ATOM      3  C   UNL     1      20.848 -13.282  28.881  1.00  0.00     0.258 C 
BRANCH   3   4
ATOM      4  N   UNL     1      21.678 -12.791  27.779  1.00  0.00    -0.358 N 
ATOM      5  H   UNL     1      21.213 -11.960  27.349  1.00  0.00     0.344 HD
ATOM      6  H   UNL     1      21.788 -13.530  27.047  1.00  0.00     0.344 HD
ATOM      7  H   UNL     1      22.615 -12.495  28.133  1.00  0.00     0.344 HD
ENDBRANCH   3   4
ENDBRANCH   2   3
ENDBRANCH   1   2
BRANCH   1   8
ATOM      8  C   UNL     1      22.798 -11.403  30.801  1.00  0.00     0.072 C 
BRANCH   8   9
ATOM      9  C   UNL     1      24.078 -12.043  31.383  1.00  0.00     0.227 C 
BRANCH   9  10
ATOM     10  N   UNL     1      24.871 -11.074  32.152  1.00  0.00    -0.350 N 
ATOM     11  H   UNL     1      25.697 -11.545  32.583  1.00  0.00     0.345 HD
ATOM     12  H   UNL     1      24.291 -10.632  32.904  1.00  0.00     0.345 HD
ATOM     13  H   UNL     1      25.232 -10.325  31.517  1.00  0.00     0.345 HD
ENDBRANCH   9  10
BRANCH   9  14
ATOM     14  C   UNL     1      24.907 -12.613  30.262  1.00  0.00     0.099 C 
ATOM     15  O   UNL     1      24.361 -12.963  29.183  1.00  0.00    -0.544 OA
ATOM     16  O   UNL     1      26.285 -12.737  30.405  1.00  0.00    -0.544 OA
ENDBRANCH   9  14
ENDBRANCH   8   9
ENDBRANCH   1   8
TORSDOF 7
ENDMDL
MODEL 4
REMARK VINA RESULT:    -3.771      2.790      4.893
REMARK INTER + INTRA:          -5.213
REMARK INTER:                  -4.980
REMARK INTRA:                  -0.234
REMARK UNBOUND:                -0.120
REMARK SMILES [NH3+]CCCC[C@H]([NH3+])C(=O)[O-]
REMARK SMILES IDX 4 1 3 2 2 3 1 4 5 8 6 9 7 10 8 14 9 15 10 16
REMARK H PARENT 1 5 1 6 1 7 7 11 7 12 7 13
REMARK Flexibility Score: inf
ROOT
ATOM      1  C   UNL     1      20.984 -11.634  31.151  1.00  0.00     0.012 C 
ENDROOT
BRANCH   1   2
ATOM      2  C   UNL     1      19.876 -12.476  30.502  1.00  0.00     0.061 C 
BRANCH   2   3
ATOM      3  C   UNL     1      20.421 -13.467  29.459  1.00  0.00     0.258 C 
BRANCH   3   4
ATOM      4  N   UNL     1      20.616 -12.842  28.150  1.00  0.00    -0.358 N 
ATOM      5  H   UNL     1      20.347 -13.524  27.405  1.00  0.00     0.344 HD
ATOM      6  H   UNL     1      21.619 -12.578  28.017  1.00  0.00     0.344 HD
ATOM      7  H   UNL     1      20.009 -11.997  28.056  1.00  0.00     0.344 HD
ENDBRANCH   3   4
ENDBRANCH   2   3
ENDBRANCH   1   2
BRANCH   1   8
ATOM      8  C   UNL     1      22.279 -12.448  31.297  1.00  0.00     0.072 C 
BRANCH   8   9
ATOM      9  C   UNL     1      23.498 -11.750  30.655  1.00  0.00     0.227 C 
BRANCH   9  10
ATOM     10  N   UNL     1      23.956 -12.453  29.448  1.00  0.00    -0.350 N 
ATOM     11  H   UNL     1      23.267 -12.326  28.673  1.00  0.00     0.345 HD
ATOM     12  H   UNL     1      24.082 -13.475  29.637  1.00  0.00     0.345 HD
ATOM     13  H   UNL     1      24.867 -12.052  29.126  1.00  0.00     0.345 HD
ENDBRANCH   9  10
BRANCH   9  14
ATOM     14  C   UNL     1      24.617 -11.670  31.659  1.00  0.00     0.099 C 
ATOM     15  O   UNL     1      24.374 -11.361  32.855  1.00  0.00    -0.544 OA
ATOM     16  O   UNL     1      25.923 -11.958  31.277  1.00  0.00    -0.544 OA
ENDBRANCH   9  14
ENDBRANCH   8   9
ENDBRANCH   1   8
TORSDOF 7
ENDMDL
MODEL 5
REMARK VINA RESULT:    -3.679      3.068      4.966
REMARK INTER + INTRA:          -5.089
REMARK INTER:                  -4.680
REMARK INTRA:                  -0.409
REMARK UNBOUND:                -0.120
REMARK SMILES [NH3+]CCCC[C@H]([NH3+])C(=O)[O-]
REMARK SMILES IDX 4 1 3 2 2 3 1 4 5 8 6 9 7 10 8 14 9 15 10 16
REMARK H PARENT 1 5 1 6 1 7 7 11 7 12 7 13
REMARK Flexibility Score: inf
ROOT
ATOM      1  C   UNL     1      24.063 -12.358  32.086  1.00  0.00     0.012 C 
ENDROOT
BRANCH   1   2
ATOM      2  C   UNL     1      22.883 -11.689  31.365  1.00  0.00     0.061 C 
BRANCH   2   3
ATOM      3  C   UNL     1      22.561 -12.354  30.015  1.00  0.00     0.258 C 
BRANCH   3   4
ATOM      4  N   UNL     1      23.753 -12.521  29.182  1.00  0.00    -0.358 N 
ATOM      5  H   UNL     1      23.537 -13.193  28.413  1.00  0.00     0.344 HD
ATOM      6  H   UNL     1      24.545 -12.902  29.750  1.00  0.00     0.344 HD
ATOM      7  H   UNL     1      24.028 -11.609  28.753  1.00  0.00     0.344 HD
ENDBRANCH   3   4
ENDBRANCH   2   3
ENDBRANCH   1   2
BRANCH   1   8
ATOM      8  C   UNL     1      25.241 -11.383  32.234  1.00  0.00     0.072 C 
BRANCH   8   9
ATOM      9  C   UNL     1      26.606 -12.104  32.304  1.00  0.00     0.227 C 
BRANCH   9  10
ATOM     10  N   UNL     1      27.723 -11.151  32.370  1.00  0.00    -0.350 N 
ATOM     11  H   UNL     1      28.034 -10.893  31.406  1.00  0.00     0.345 HD
ATOM     12  H   UNL     1      28.529 -11.559  32.899  1.00  0.00     0.345 HD
ATOM     13  H   UNL     1      27.414 -10.272  32.845  1.00  0.00     0.345 HD
ENDBRANCH   9  10
BRANCH   9  14
ATOM     14  C   UNL     1      26.762 -12.998  31.102  1.00  0.00     0.099 C 
ATOM     15  O   UNL     1      26.795 -12.504  29.944  1.00  0.00    -0.544 OA
ATOM     16  O   UNL     1      26.892 -14.373  31.265  1.00  0.00    -0.544 OA
ENDBRANCH   9  14
ENDBRANCH   8   9
ENDBRANCH   1   8
TORSDOF 7
ENDMDL
MODEL 6
REMARK VINA RESULT:    -3.670      3.158      5.123
REMARK INTER + INTRA:          -5.076
REMARK INTER:                  -4.959
REMARK INTRA:                  -0.117
REMARK UNBOUND:                -0.120
REMARK SMILES [NH3+]CCCC[C@H]([NH3+])C(=O)[O-]
REMARK SMILES IDX 4 1 3 2 2 3 1 4 5 8 6 9 7 10 8 14 9 15 10 16
REMARK H PARENT 1 5 1 6 1 7 7 11 7 12 7 13
REMARK Flexibility Score: inf
ROOT
ATOM      1  C   UNL     1      23.865 -12.151  31.770  1.00  0.00     0.012 C 
ENDROOT
BRANCH   1   2
ATOM      2  C   UNL     1      22.993 -11.441  30.726  1.00  0.00     0.061 C 
BRANCH   2   3
ATOM      3  C   UNL     1      21.546 -11.964  30.708  1.00  0.00     0.258 C 
BRANCH   3   4
ATOM      4  N   UNL     1      20.640 -11.108  31.476  1.00  0.00    -0.358 N 
ATOM      5  H   UNL     1      19.661 -11.451  31.349  1.00  0.00     0.344 HD
ATOM      6  H   UNL     1      20.696 -10.120  31.139  1.00  0.00     0.344 HD
ATOM      7  H   UNL     1      20.872 -11.153  32.494  1.00  0.00     0.344 HD
ENDBRANCH   3   4
ENDBRANCH   2   3
ENDBRANCH   1   2
BRANCH   1   8
ATOM      8  C   UNL     1      25.080 -11.290  32.151  1.00  0.00     0.072 C 
BRANCH   8   9
ATOM      9  C   UNL     1      26.383 -12.112  32.259  1.00  0.00     0.227 C 
BRANCH   9  10
ATOM     10  N   UNL     1      27.567 -11.247  32.355  1.00  0.00    -0.350 N 
ATOM     11  H   UNL     1      27.533 -10.505  31.621  1.00  0.00     0.345 HD
ATOM     12  H   UNL     1      28.446 -11.806  32.244  1.00  0.00     0.345 HD
ATOM     13  H   UNL     1      27.584 -10.769  33.285  1.00  0.00     0.345 HD
ENDBRANCH   9  10
BRANCH   9  14
ATOM     14  C   UNL     1      26.504 -13.019  31.062  1.00  0.00     0.099 C 
ATOM     15  O   UNL     1      26.760 -12.539  29.927  1.00  0.00    -0.544 OA
ATOM     16  O   UNL     1      26.354 -14.394  31.208  1.00  0.00    -0.544 OA
ENDBRANCH   9  14
ENDBRANCH   8   9
ENDBRANCH   1   8
TORSDOF 7
ENDMDL
MODEL 7
REMARK VINA RESULT:    -3.639      1.323      1.884
REMARK INTER + INTRA:          -5.035
REMARK INTER:                  -4.863
REMARK INTRA:                  -0.172
REMARK UNBOUND:                -0.120
REMARK SMILES [NH3+]CCCC[C@H]([NH3+])C(=O)[O-]
REMARK SMILES IDX 4 1 3 2 2 3 1 4 5 8 6 9 7 10 8 14 9 15 10 16
REMARK H PARENT 1 5 1 6 1 7 7 11 7 12 7 13
REMARK Flexibility Score: inf
ROOT
ATOM      1  C   UNL     1      23.418 -11.875  32.032  1.00  0.00     0.012 C 
ENDROOT
BRANCH   1   2
ATOM      2  C   UNL     1      24.763 -11.173  32.269  1.00  0.00     0.061 C 
BRANCH   2   3
ATOM      3  C   UNL     1      25.966 -12.077  31.953  1.00  0.00     0.258 C 
BRANCH   3   4
ATOM      4  N   UNL     1      27.243 -11.415  32.227  1.00  0.00    -0.358 N 
ATOM      5  H   UNL     1      27.313 -10.557  31.636  1.00  0.00     0.344 HD
ATOM      6  H   UNL     1      28.041 -12.050  31.995  1.00  0.00     0.344 HD
ATOM      7  H   UNL     1      27.295 -11.128  33.230  1.00  0.00     0.344 HD
ENDBRANCH   3   4
ENDBRANCH   2   3
ENDBRANCH   1   2
BRANCH   1   8
ATOM      8  C   UNL     1      22.879 -11.570  30.626  1.00  0.00     0.072 C 
BRANCH   8   9
ATOM      9  C   UNL     1      22.959 -12.789  29.680  1.00  0.00     0.227 C 
BRANCH   9  10
ATOM     10  N   UNL     1      24.155 -12.740  28.827  1.00  0.00    -0.350 N 
ATOM     11  H   UNL     1      24.467 -13.708  28.589  1.00  0.00     0.345 HD
ATOM     12  H   UNL     1      24.934 -12.231  29.308  1.00  0.00     0.345 HD
ATOM     13  H   UNL     1      23.932 -12.252  27.929  1.00  0.00     0.345 HD
ENDBRANCH   9  10
BRANCH   9  14
ATOM     14  C   UNL     1      21.719 -12.842  28.826  1.00  0.00     0.099 C 
ATOM     15  O   UNL     1      21.766 -13.343  27.671  1.00  0.00    -0.544 OA
ATOM     16  O   UNL     1      20.512 -12.356  29.314  1.00  0.00    -0.544 OA
ENDBRANCH   9  14
ENDBRANCH   8   9
ENDBRANCH   1   8
TORSDOF 7
ENDMDL
MODEL 8
REMARK VINA RESULT:    -3.606      3.372      5.430
REMARK INTER + INTRA:          -4.991
REMARK INTER:                  -4.867
REMARK INTRA:                  -0.124
REMARK UNBOUND:                -0.120
REMARK SMILES [NH3+]CCCC[C@H]([NH3+])C(=O)[O-]
REMARK SMILES IDX 4 1 3 2 2 3 1 4 5 8 6 9 7 10 8 14 9 15 10 16
REMARK H PARENT 1 5 1 6 1 7 7 11 7 12 7 13
REMARK Flexibility Score: inf
ROOT
ATOM      1  C   UNL     1      23.368 -12.086  30.382  1.00  0.00     0.012 C 
ENDROOT
BRANCH   1   2
ATOM      2  C   UNL     1      22.154 -13.013  30.230  1.00  0.00     0.061 C 
BRANCH   2   3
ATOM      3  C   UNL     1      21.201 -12.561  29.109  1.00  0.00     0.258 C 
BRANCH   3   4
ATOM      4  N   UNL     1      21.772 -12.776  27.778  1.00  0.00    -0.358 N 
ATOM      5  H   UNL     1      21.870 -13.803  27.613  1.00  0.00     0.344 HD
ATOM      6  H   UNL     1      22.716 -12.333  27.709  1.00  0.00     0.344 HD
ATOM      7  H   UNL     1      21.139 -12.385  27.044  1.00  0.00     0.344 HD
ENDBRANCH   3   4
ENDBRANCH   2   3
ENDBRANCH   1   2
BRANCH   1   8
ATOM      8  C   UNL     1      24.620 -12.881  30.780  1.00  0.00     0.072 C 
BRANCH   8   9
ATOM      9  C   UNL     1      25.402 -12.222  31.938  1.00  0.00     0.227 C 
BRANCH   9  10
ATOM     10  N   UNL     1      24.813 -10.933  32.330  1.00  0.00    -0.350 N 
ATOM     11  H   UNL     1      24.601 -10.930  33.352  1.00  0.00     0.345 HD
ATOM     12  H   UNL     1      23.935 -10.747  31.791  1.00  0.00     0.345 HD
ATOM     13  H   UNL     1      25.494 -10.161  32.147  1.00  0.00     0.345 HD
ENDBRANCH   9  10
BRANCH   9  14
ATOM     14  C   UNL     1      26.838 -12.028  31.527  1.00  0.00     0.099 C 
ATOM     15  O   UNL     1      27.251 -12.487  30.429  1.00  0.00    -0.544 OA
ATOM     16  O   UNL     1      27.712 -11.323  32.347  1.00  0.00    -0.544 OA
ENDBRANCH   9  14
ENDBRANCH   8   9
ENDBRANCH   1   8
TORSDOF 7
ENDMDL
MODEL 9
REMARK VINA RESULT:    -3.496      1.569      1.796
REMARK INTER + INTRA:          -4.841
REMARK INTER:                  -4.709
REMARK INTRA:                  -0.132
REMARK UNBOUND:                -0.120
REMARK SMILES [NH3+]CCCC[C@H]([NH3+])C(=O)[O-]
REMARK SMILES IDX 4 1 3 2 2 3 1 4 5 8 6 9 7 10 8 14 9 15 10 16
REMARK H PARENT 1 5 1 6 1 7 7 11 7 12 7 13
REMARK Flexibility Score: inf
ROOT
ATOM      1  C   UNL     1      25.751 -11.770  32.223  1.00  0.00     0.012 C 
ENDROOT
BRANCH   1   2
ATOM      2  C   UNL     1      25.914 -13.266  32.528  1.00  0.00     0.061 C 
BRANCH   2   3
ATOM      3  C   UNL     1      27.356 -13.759  32.317  1.00  0.00     0.258 C 
BRANCH   3   4
ATOM      4  N   UNL     1      28.050 -13.996  33.584  1.00  0.00    -0.358 N 
ATOM      5  H   UNL     1      27.343 -14.061  34.351  1.00  0.00     0.344 HD
ATOM      6  H   UNL     1      28.703 -13.207  33.797  1.00  0.00     0.344 HD
ATOM      7  H   UNL     1      28.578 -14.896  33.547  1.00  0.00     0.344 HD
ENDBRANCH   3   4
ENDBRANCH   2   3
ENDBRANCH   1   2
BRANCH   1   8
ATOM      8  C   UNL     1      24.270 -11.404  32.041  1.00  0.00     0.072 C 
BRANCH   8   9
ATOM      9  C   UNL     1      23.499 -12.442  31.197  1.00  0.00     0.227 C 
BRANCH   9  10
ATOM     10  N   UNL     1      23.686 -12.222  29.756  1.00  0.00    -0.350 N 
ATOM     11  H   UNL     1      23.737 -11.199  29.551  1.00  0.00     0.345 HD
ATOM     12  H   UNL     1      22.902 -12.647  29.209  1.00  0.00     0.345 HD
ATOM     13  H   UNL     1      24.589 -12.649  29.445  1.00  0.00     0.345 HD
ENDBRANCH   9  10
BRANCH   9  14
ATOM     14  C   UNL     1      22.034 -12.380  31.541  1.00  0.00     0.099 C 
ATOM     15  O   UNL     1      21.473 -13.355  32.106  1.00  0.00    -0.544 OA
ATOM     16  O   UNL     1      21.296 -11.236  31.253  1.00  0.00    -0.544 OA
ENDBRANCH   9  14
ENDBRANCH   8   9
ENDBRANCH   1   8
TORSDOF 7
ENDMDL
