MODEL 1
REMARK VINA RESULT:    69.082      0.000      0.000
REMARK INTER + INTRA:         178.563
REMARK INTER:                 163.988
REMARK INTRA:                  14.575
REMARK UNBOUND:                14.575
REMARK SMILES O=C(OC[C@H]1O[C@H](OC(=O)c2cc(O)c(O)c(O)c2)[C@H](OC(=O)c2cc(O)c(O)c(O)c2)[C@@H](OC(=O)c2cc(O)c(O)c(O)c2)[C@H]1OC(=O)c1cc(O)c(O)c(O)c1)c1cc(O)c(O)c(O)c1
REMARK SMILES IDX 5 1 46 2 33 3 20 4 7 5 6 6 4 7 3 8 2 9 1 10 59 11 60 12
REMARK SMILES IDX 61 13 67 14 63 15 65 16 62 17 64 19 66 21 47 23 48 24 49 25
REMARK SMILES IDX 50 26 58 27 51 28 56 29 52 30 54 31 57 32 53 34 55 36 34 38
REMARK SMILES IDX 35 39 36 40 37 41 45 42 38 43 43 44 39 45 41 46 44 47 40 49
REMARK SMILES IDX 42 51 8 53 9 54 10 55 11 56 19 57 12 58 17 59 13 60 15 61
REMARK SMILES IDX 18 62 14 64 16 66 21 68 22 69 23 70 24 71 32 72 25 73 30 74
REMARK SMILES IDX 26 75 28 76 31 77 27 79 29 81
REMARK H PARENT 62 18 64 20 66 22 57 33 53 35 55 37 44 48 40 50 42 52 18 63
REMARK H PARENT 14 65 16 67 31 78 27 80 29 82
REMARK Flexibility Score: inf
ROOT
ATOM      1  C   UNL     1      21.724 -42.744   7.996  1.00  0.00     0.205 C 
ATOM      2  C   UNL     1      20.368 -43.451   7.818  1.00  0.00     0.254 C 
ATOM      3  C   UNL     1      19.579 -42.673   6.759  1.00  0.00     0.267 C 
ATOM      4  C   UNL     1      20.392 -42.610   5.452  1.00  0.00     0.290 C 
ATOM      5  C   UNL     1      21.808 -42.064   5.748  1.00  0.00     0.357 C 
ATOM      6  O   UNL     1      22.461 -42.791   6.782  1.00  0.00    -0.329 OA
ENDROOT
BRANCH   1   7
ATOM      7  C   UNL     1      22.566 -43.369   9.123  1.00  0.00     0.269 C 
BRANCH   7   8
ATOM      8  O   UNL     1      23.174 -44.567   8.653  1.00  0.00    -0.459 OA
BRANCH   8   9
ATOM      9  C   UNL     1      23.752 -44.666   7.379  1.00  0.00     0.338 C 
ATOM     10  O   UNL     1      24.124 -43.620   6.774  1.00  0.00    -0.246 OA
BRANCH   9  11
ATOM     11  C   UNL     1      23.894 -45.987   6.733  1.00  0.00     0.067 A 
ATOM     12  C   UNL     1      23.894 -46.094   5.336  1.00  0.00     0.066 A 
ATOM     13  C   UNL     1      23.975 -47.340   4.711  1.00  0.00     0.162 A 
ATOM     14  C   UNL     1      23.986 -47.157   7.513  1.00  0.00     0.066 A 
ATOM     15  C   UNL     1      24.030 -48.516   5.495  1.00  0.00     0.200 A 
ATOM     16  C   UNL     1      24.041 -48.413   6.898  1.00  0.00     0.162 A 
BRANCH  13  17
ATOM     17  O   UNL     1      24.009 -47.363   3.316  1.00  0.00    -0.504 OA
ATOM     18  H   UNL     1      23.199 -47.226   2.736  1.00  0.00     0.293 HD
ENDBRANCH  13  17
BRANCH  15  19
ATOM     19  O   UNL     1      24.068 -49.790   4.919  1.00  0.00    -0.502 OA
ATOM     20  H   UNL     1      24.853 -50.421   4.979  1.00  0.00     0.293 HD
ENDBRANCH  15  19
BRANCH  16  21
ATOM     21  O   UNL     1      24.104 -49.550   7.704  1.00  0.00    -0.504 OA
ATOM     22  H   UNL     1      23.485 -49.682   8.495  1.00  0.00     0.293 HD
ENDBRANCH  16  21
ENDBRANCH   9  11
ENDBRANCH   8   9
ENDBRANCH   7   8
ENDBRANCH   1   7
BRANCH   2  23
ATOM     23  O   UNL     1      20.563 -44.790   7.361  1.00  0.00    -0.452 OA
BRANCH  23  24
ATOM     24  C   UNL     1      20.970 -45.851   8.181  1.00  0.00     0.338 C 
ATOM     25  O   UNL     1      21.784 -45.642   9.118  1.00  0.00    -0.246 OA
BRANCH  24  26
ATOM     26  C   UNL     1      20.421 -47.205   7.948  1.00  0.00     0.067 A 
ATOM     27  C   UNL     1      19.035 -47.443   8.013  1.00  0.00     0.066 A 
ATOM     28  C   UNL     1      21.287 -48.285   7.711  1.00  0.00     0.066 A 
ATOM     29  C   UNL     1      18.525 -48.743   7.858  1.00  0.00     0.162 A 
ATOM     30  C   UNL     1      20.783 -49.579   7.546  1.00  0.00     0.162 A 
ATOM     31  C   UNL     1      19.402 -49.814   7.621  1.00  0.00     0.200 A 
BRANCH  29  32
ATOM     32  O   UNL     1      17.155 -48.973   7.946  1.00  0.00    -0.504 OA
ATOM     33  H   UNL     1      16.685 -49.617   7.320  1.00  0.00     0.293 HD
ENDBRANCH  29  32
BRANCH  30  34
ATOM     34  O   UNL     1      21.676 -50.623   7.316  1.00  0.00    -0.504 OA
ATOM     35  H   UNL     1      22.360 -50.593   6.566  1.00  0.00     0.293 HD
ENDBRANCH  30  34
BRANCH  31  36
ATOM     36  O   UNL     1      18.923 -51.113   7.466  1.00  0.00    -0.502 OA
ATOM     37  H   UNL     1      19.515 -51.877   7.166  1.00  0.00     0.293 HD
ENDBRANCH  31  36
ENDBRANCH  24  26
ENDBRANCH  23  24
ENDBRANCH   2  23
BRANCH   3  38
ATOM     38  O   UNL     1      18.303 -43.276   6.546  1.00  0.00    -0.450 OA
BRANCH  38  39
ATOM     39  C   UNL     1      17.649 -44.029   7.531  1.00  0.00     0.338 C 
ATOM     40  O   UNL     1      18.315 -44.770   8.304  1.00  0.00    -0.246 OA
BRANCH  39  41
ATOM     41  C   UNL     1      16.180 -43.941   7.681  1.00  0.00     0.067 A 
ATOM     42  C   UNL     1      15.403 -45.110   7.763  1.00  0.00     0.066 A 
ATOM     43  C   UNL     1      15.546 -42.690   7.748  1.00  0.00     0.066 A 
ATOM     44  C   UNL     1      14.015 -45.032   7.903  1.00  0.00     0.162 A 
ATOM     45  C   UNL     1      14.158 -42.598   7.885  1.00  0.00     0.162 A 
ATOM     46  C   UNL     1      13.378 -43.782   7.954  1.00  0.00     0.200 A 
BRANCH  44  47
ATOM     47  O   UNL     1      13.262 -46.204   7.996  1.00  0.00    -0.504 OA
ATOM     48  H   UNL     1      12.250 -46.182   8.093  1.00  0.00     0.293 HD
ENDBRANCH  44  47
BRANCH  45  49
ATOM     49  O   UNL     1      13.598 -41.322   7.944  1.00  0.00    -0.504 OA
ATOM     50  H   UNL     1      12.609 -41.133   7.862  1.00  0.00     0.293 HD
ENDBRANCH  45  49
BRANCH  46  51
ATOM     51  O   UNL     1      11.985 -43.765   8.067  1.00  0.00    -0.502 OA
ATOM     52  H   UNL     1      11.477 -44.209   8.825  1.00  0.00     0.293 HD
ENDBRANCH  46  51
ENDBRANCH  39  41
ENDBRANCH  38  39
ENDBRANCH   3  38
BRANCH   5  53
ATOM     53  O   UNL     1      21.751 -40.674   6.060  1.00  0.00    -0.428 OA
BRANCH  53  54
ATOM     54  C   UNL     1      22.737 -40.010   6.797  1.00  0.00     0.340 C 
ATOM     55  O   UNL     1      23.619 -40.658   7.417  1.00  0.00    -0.246 OA
BRANCH  54  56
ATOM     56  C   UNL     1      22.740 -38.539   6.838  1.00  0.00     0.067 A 
ATOM     57  C   UNL     1      23.385 -37.851   7.874  1.00  0.00     0.066 A 
ATOM     58  C   UNL     1      22.106 -37.812   5.824  1.00  0.00     0.066 A 
ATOM     59  C   UNL     1      23.430 -36.451   7.891  1.00  0.00     0.162 A 
ATOM     60  C   UNL     1      22.114 -36.417   5.836  1.00  0.00     0.162 A 
ATOM     61  C   UNL     1      22.789 -35.719   6.859  1.00  0.00     0.200 A 
BRANCH  59  62
ATOM     62  O   UNL     1      24.123 -35.841   8.941  1.00  0.00    -0.504 OA
ATOM     63  H   UNL     1      24.518 -34.909   8.893  1.00  0.00     0.293 HD
ENDBRANCH  59  62
BRANCH  60  64
ATOM     64  O   UNL     1      21.436 -35.739   4.823  1.00  0.00    -0.504 OA
ATOM     65  H   UNL     1      21.665 -34.784   4.569  1.00  0.00     0.293 HD
ENDBRANCH  60  64
BRANCH  61  66
ATOM     66  O   UNL     1      22.806 -34.317   6.817  1.00  0.00    -0.502 OA
ATOM     67  H   UNL     1      23.019 -33.728   7.611  1.00  0.00     0.293 HD
ENDBRANCH  61  66
ENDBRANCH  54  56
ENDBRANCH  53  54
ENDBRANCH   5  53
BRANCH   4  68
ATOM     68  O   UNL     1      19.761 -41.731   4.523  1.00  0.00    -0.448 OA
BRANCH  68  69
ATOM     69  C   UNL     1      20.445 -40.982   3.561  1.00  0.00     0.339 C 
ATOM     70  O   UNL     1      21.234 -40.061   3.914  1.00  0.00    -0.246 OA
BRANCH  69  71
ATOM     71  C   UNL     1      20.227 -41.266   2.127  1.00  0.00     0.067 A 
ATOM     72  C   UNL     1      20.903 -40.540   1.138  1.00  0.00     0.066 A 
ATOM     73  C   UNL     1      19.339 -42.281   1.736  1.00  0.00     0.066 A 
ATOM     74  C   UNL     1      20.710 -40.828  -0.222  1.00  0.00     0.162 A 
ATOM     75  C   UNL     1      19.142 -42.578   0.384  1.00  0.00     0.162 A 
ATOM     76  C   UNL     1      19.828 -41.853  -0.601  1.00  0.00     0.200 A 
BRANCH  74  77
ATOM     77  O   UNL     1      21.399 -40.106  -1.197  1.00  0.00    -0.504 OA
ATOM     78  H   UNL     1      22.196 -39.524  -0.961  1.00  0.00     0.293 HD
ENDBRANCH  74  77
BRANCH  75  79
ATOM     79  O   UNL     1      18.260 -43.603   0.038  1.00  0.00    -0.504 OA
ATOM     80  H   UNL     1      18.580 -44.505  -0.288  1.00  0.00     0.293 HD
ENDBRANCH  75  79
BRANCH  76  81
ATOM     81  O   UNL     1      19.626 -42.157  -1.949  1.00  0.00    -0.502 OA
ATOM     82  H   UNL     1      18.706 -42.220  -2.359  1.00  0.00     0.293 HD
ENDBRANCH  76  81
ENDBRANCH  69  71
ENDBRANCH  68  69
ENDBRANCH   4  68
TORSDOF 31
ENDMDL
