MODEL 1
REMARK VINA RESULT:    -5.940      0.000      0.000
REMARK INTER + INTRA:          -6.114
REMARK INTER:                  -6.114
REMARK INTRA:                   0.000
REMARK UNBOUND:                 0.000
REMARK SMILES C=C1[C@H](O)C[C@]23C[C@H]1C(C)(C)[C@H]2CC[C@H]3C
REMARK SMILES IDX 16 1 15 2 14 3 13 4 12 5 6 6 7 7 8 8 9 9 10 10 11 11 2 12
REMARK SMILES IDX 1 13 3 14 5 15 4 16
REMARK H PARENT 4 17
REMARK Flexibility Score: inf
ROOT
ATOM      1  C   UNL     1      12.305 -15.239  30.295  1.00  0.00     0.008 C 
ATOM      2  C   UNL     1      12.862 -15.631  28.916  1.00  0.00    -0.008 C 
ATOM      3  C   UNL     1      14.378 -15.860  28.974  1.00  0.00     0.004 C 
ATOM      4  C   UNL     1      15.006 -14.614  28.380  1.00  0.00     0.005 C 
ATOM      5  C   UNL     1      14.036 -14.179  27.273  1.00  0.00     0.002 C 
ATOM      6  C   UNL     1      12.635 -14.587  27.773  1.00  0.00    -0.020 C 
ATOM      7  C   UNL     1      11.981 -13.254  28.163  1.00  0.00     0.016 C 
ATOM      8  C   UNL     1      12.432 -12.349  27.028  1.00  0.00     0.023 C 
ATOM      9  C   UNL     1      13.956 -12.654  26.910  1.00  0.00    -0.025 C 
ATOM     10  C   UNL     1      14.524 -12.394  25.491  1.00  0.00     0.012 C 
ATOM     11  C   UNL     1      14.735 -11.720  27.875  1.00  0.00     0.012 C 
ATOM     12  C   UNL     1      11.658 -12.761  25.781  1.00  0.00    -0.045 C 
ATOM     13  C   UNL     1      11.257 -11.821  24.908  1.00  0.00     0.011 C 
ATOM     14  C   UNL     1      11.494 -14.240  25.435  1.00  0.00     0.140 C 
ATOM     15  C   UNL     1      11.778 -15.203  26.628  1.00  0.00     0.044 C 
ENDROOT
BRANCH  14  16
ATOM     16  O   UNL     1      10.192 -14.466  24.957  1.00  0.00    -0.389 OA
ATOM     17  H   UNL     1       9.890 -13.620  24.533  1.00  0.00     0.211 HD
ENDBRANCH  14  16
TORSDOF 1
ENDMDL
MODEL 2
REMARK VINA RESULT:    -5.940      7.809     10.308
REMARK INTER + INTRA:          -6.113
REMARK INTER:                  -6.113
REMARK INTRA:                   0.000
REMARK UNBOUND:                 0.000
REMARK SMILES C=C1[C@H](O)C[C@]23C[C@H]1C(C)(C)[C@H]2CC[C@H]3C
REMARK SMILES IDX 16 1 15 2 14 3 13 4 12 5 6 6 7 7 8 8 9 9 10 10 11 11 2 12
REMARK SMILES IDX 1 13 3 14 5 15 4 16
REMARK H PARENT 4 17
REMARK Flexibility Score: inf
ROOT
ATOM      1  C   UNL     1       3.128 -16.757  20.375  1.00  0.00     0.008 C 
ATOM      2  C   UNL     1       3.899 -15.978  21.454  1.00  0.00    -0.008 C 
ATOM      3  C   UNL     1       5.128 -15.277  20.862  1.00  0.00     0.004 C 
ATOM      4  C   UNL     1       6.319 -16.129  21.257  1.00  0.00     0.005 C 
ATOM      5  C   UNL     1       5.967 -16.666  22.651  1.00  0.00     0.002 C 
ATOM      6  C   UNL     1       4.433 -16.831  22.651  1.00  0.00    -0.020 C 
ATOM      7  C   UNL     1       4.228 -18.351  22.574  1.00  0.00     0.016 C 
ATOM      8  C   UNL     1       5.305 -18.854  23.522  1.00  0.00     0.023 C 
ATOM      9  C   UNL     1       6.568 -18.048  23.089  1.00  0.00    -0.025 C 
ATOM     10  C   UNL     1       7.599 -17.866  24.232  1.00  0.00     0.012 C 
ATOM     11  C   UNL     1       7.297 -18.822  21.957  1.00  0.00     0.012 C 
ATOM     12  C   UNL     1       4.859 -18.516  24.940  1.00  0.00    -0.045 C 
ATOM     13  C   UNL     1       5.120 -19.376  25.940  1.00  0.00     0.011 C 
ATOM     14  C   UNL     1       4.279 -17.138  25.253  1.00  0.00     0.140 C 
ATOM     15  C   UNL     1       3.808 -16.350  23.994  1.00  0.00     0.044 C 
ENDROOT
BRANCH  14  16
ATOM     16  O   UNL     1       3.201 -17.276  26.143  1.00  0.00    -0.389 OA
ATOM     17  H   UNL     1       2.472 -17.731  25.644  1.00  0.00     0.211 HD
ENDBRANCH  14  16
TORSDOF 1
ENDMDL
MODEL 3
REMARK VINA RESULT:    -5.717      1.953      3.421
REMARK INTER + INTRA:          -5.884
REMARK INTER:                  -5.884
REMARK INTRA:                   0.000
REMARK UNBOUND:                 0.000
REMARK SMILES C=C1[C@H](O)C[C@]23C[C@H]1C(C)(C)[C@H]2CC[C@H]3C
REMARK SMILES IDX 16 1 15 2 14 3 13 4 12 5 6 6 7 7 8 8 9 9 10 10 11 11 2 12
REMARK SMILES IDX 1 13 3 14 5 15 4 16
REMARK H PARENT 4 17
REMARK Flexibility Score: inf
ROOT
ATOM      1  C   UNL     1      14.670 -15.997  29.369  1.00  0.00     0.008 C 
ATOM      2  C   UNL     1      14.040 -14.594  29.398  1.00  0.00    -0.008 C 
ATOM      3  C   UNL     1      12.621 -14.634  29.975  1.00  0.00     0.004 C 
ATOM      4  C   UNL     1      11.688 -14.542  28.783  1.00  0.00     0.005 C 
ATOM      5  C   UNL     1      12.410 -13.617  27.794  1.00  0.00     0.002 C 
ATOM      6  C   UNL     1      13.915 -13.882  28.011  1.00  0.00    -0.020 C 
ATOM      7  C   UNL     1      14.329 -14.686  26.771  1.00  0.00     0.016 C 
ATOM      8  C   UNL     1      13.571 -13.961  25.669  1.00  0.00     0.023 C 
ATOM      9  C   UNL     1      12.137 -13.809  26.260  1.00  0.00    -0.025 C 
ATOM     10  C   UNL     1      11.362 -12.598  25.682  1.00  0.00     0.012 C 
ATOM     11  C   UNL     1      11.308 -15.073  25.906  1.00  0.00     0.012 C 
ATOM     12  C   UNL     1      14.257 -12.616  25.453  1.00  0.00    -0.045 C 
ATOM     13  C   UNL     1      14.353 -12.113  24.211  1.00  0.00     0.011 C 
ATOM     14  C   UNL     1      14.673 -11.767  26.653  1.00  0.00     0.140 C 
ATOM     15  C   UNL     1      14.734 -12.557  27.995  1.00  0.00     0.044 C 
ENDROOT
BRANCH  14  16
ATOM     16  O   UNL     1      15.926 -11.184  26.401  1.00  0.00    -0.389 OA
ATOM     17  H   UNL     1      16.546 -11.925  26.168  1.00  0.00     0.211 HD
ENDBRANCH  14  16
TORSDOF 1
ENDMDL
MODEL 4
REMARK VINA RESULT:    -5.703      1.650      4.189
REMARK INTER + INTRA:          -5.870
REMARK INTER:                  -5.870
REMARK INTRA:                   0.000
REMARK UNBOUND:                 0.000
REMARK SMILES C=C1[C@H](O)C[C@]23C[C@H]1C(C)(C)[C@H]2CC[C@H]3C
REMARK SMILES IDX 16 1 15 2 14 3 13 4 12 5 6 6 7 7 8 8 9 9 10 10 11 11 2 12
REMARK SMILES IDX 1 13 3 14 5 15 4 16
REMARK H PARENT 4 17
REMARK Flexibility Score: inf
ROOT
ATOM      1  C   UNL     1      15.873 -13.378  23.616  1.00  0.00     0.008 C 
ATOM      2  C   UNL     1      14.370 -13.370  23.943  1.00  0.00    -0.008 C 
ATOM      3  C   UNL     1      13.785 -11.957  23.829  1.00  0.00     0.004 C 
ATOM      4  C   UNL     1      13.644 -11.454  25.253  1.00  0.00     0.005 C 
ATOM      5  C   UNL     1      13.273 -12.698  26.070  1.00  0.00     0.002 C 
ATOM      6  C   UNL     1      13.987 -13.874  25.373  1.00  0.00    -0.020 C 
ATOM      7  C   UNL     1      15.140 -14.220  26.325  1.00  0.00     0.016 C 
ATOM      8  C   UNL     1      14.464 -14.101  27.681  1.00  0.00     0.023 C 
ATOM      9  C   UNL     1      13.695 -12.749  27.581  1.00  0.00    -0.025 C 
ATOM     10  C   UNL     1      12.452 -12.681  28.505  1.00  0.00     0.012 C 
ATOM     11  C   UNL     1      14.638 -11.598  28.026  1.00  0.00     0.012 C 
ATOM     12  C   UNL     1      13.525 -15.294  27.829  1.00  0.00    -0.045 C 
ATOM     13  C   UNL     1      13.377 -15.877  29.030  1.00  0.00     0.011 C 
ATOM     14  C   UNL     1      12.628 -15.711  26.665  1.00  0.00     0.140 C 
ATOM     15  C   UNL     1      13.069 -15.129  25.288  1.00  0.00     0.044 C 
ENDROOT
BRANCH  14  16
ATOM     16  O   UNL     1      12.588 -17.113  26.584  1.00  0.00    -0.389 OA
ATOM     17  H   UNL     1      11.828 -17.346  25.989  1.00  0.00     0.211 HD
ENDBRANCH  14  16
TORSDOF 1
ENDMDL
MODEL 5
REMARK VINA RESULT:    -5.687      1.859      2.926
REMARK INTER + INTRA:          -5.853
REMARK INTER:                  -5.853
REMARK INTRA:                   0.000
REMARK UNBOUND:                 0.000
REMARK SMILES C=C1[C@H](O)C[C@]23C[C@H]1C(C)(C)[C@H]2CC[C@H]3C
REMARK SMILES IDX 16 1 15 2 14 3 13 4 12 5 6 6 7 7 8 8 9 9 10 10 11 11 2 12
REMARK SMILES IDX 1 13 3 14 5 15 4 16
REMARK H PARENT 4 17
REMARK Flexibility Score: inf
ROOT
ATOM      1  C   UNL     1      14.019 -17.614  25.525  1.00  0.00     0.008 C 
ATOM      2  C   UNL     1      14.762 -16.304  25.834  1.00  0.00    -0.008 C 
ATOM      3  C   UNL     1      15.476 -16.377  27.189  1.00  0.00     0.004 C 
ATOM      4  C   UNL     1      14.608 -15.594  28.156  1.00  0.00     0.005 C 
ATOM      5  C   UNL     1      14.030 -14.446  27.317  1.00  0.00     0.002 C 
ATOM      6  C   UNL     1      13.871 -15.020  25.893  1.00  0.00    -0.020 C 
ATOM      7  C   UNL     1      12.355 -15.213  25.742  1.00  0.00     0.016 C 
ATOM      8  C   UNL     1      11.819 -13.949  26.396  1.00  0.00     0.023 C 
ATOM      9  C   UNL     1      12.633 -13.858  27.723  1.00  0.00    -0.025 C 
ATOM     10  C   UNL     1      12.777 -12.409  28.255  1.00  0.00     0.012 C 
ATOM     11  C   UNL     1      11.891 -14.662  28.826  1.00  0.00     0.012 C 
ATOM     12  C   UNL     1      12.115 -12.787  25.453  1.00  0.00    -0.045 C 
ATOM     13  C   UNL     1      11.225 -11.788  25.332  1.00  0.00     0.011 C 
ATOM     14  C   UNL     1      13.485 -12.671  24.788  1.00  0.00     0.140 C 
ATOM     15  C   UNL     1      14.313 -13.991  24.812  1.00  0.00     0.044 C 
ENDROOT
BRANCH  14  16
ATOM     16  O   UNL     1      13.324 -12.248  23.458  1.00  0.00    -0.389 OA
ATOM     17  H   UNL     1      12.800 -12.953  22.994  1.00  0.00     0.211 HD
ENDBRANCH  14  16
TORSDOF 1
ENDMDL
MODEL 6
REMARK VINA RESULT:    -5.548      8.860     11.026
REMARK INTER + INTRA:          -5.710
REMARK INTER:                  -5.710
REMARK INTRA:                   0.000
REMARK UNBOUND:                 0.000
REMARK SMILES C=C1[C@H](O)C[C@]23C[C@H]1C(C)(C)[C@H]2CC[C@H]3C
REMARK SMILES IDX 16 1 15 2 14 3 13 4 12 5 6 6 7 7 8 8 9 9 10 10 11 11 2 12
REMARK SMILES IDX 1 13 3 14 5 15 4 16
REMARK H PARENT 4 17
REMARK Flexibility Score: inf
ROOT
ATOM      1  C   UNL     1       6.407 -15.161  21.022  1.00  0.00     0.008 C 
ATOM      2  C   UNL     1       6.296 -16.606  21.536  1.00  0.00    -0.008 C 
ATOM      3  C   UNL     1       6.075 -17.591  20.382  1.00  0.00     0.004 C 
ATOM      4  C   UNL     1       4.599 -17.937  20.413  1.00  0.00     0.005 C 
ATOM      5  C   UNL     1       4.232 -17.943  21.903  1.00  0.00     0.002 C 
ATOM      6  C   UNL     1       5.137 -16.875  22.551  1.00  0.00    -0.020 C 
ATOM      7  C   UNL     1       4.180 -15.712  22.845  1.00  0.00     0.016 C 
ATOM      8  C   UNL     1       2.950 -16.448  23.353  1.00  0.00     0.023 C 
ATOM      9  C   UNL     1       2.758 -17.588  22.308  1.00  0.00    -0.025 C 
ATOM     10  C   UNL     1       2.029 -18.830  22.884  1.00  0.00     0.012 C 
ATOM     11  C   UNL     1       1.877 -17.062  21.142  1.00  0.00     0.012 C 
ATOM     12  C   UNL     1       3.280 -16.982  24.743  1.00  0.00    -0.045 C 
ATOM     13  C   UNL     1       2.329 -16.994  25.692  1.00  0.00     0.011 C 
ATOM     14  C   UNL     1       4.624 -17.660  25.003  1.00  0.00     0.140 C 
ATOM     15  C   UNL     1       5.703 -17.361  23.918  1.00  0.00     0.044 C 
ENDROOT
BRANCH  14  16
ATOM     16  O   UNL     1       5.110 -17.265  26.261  1.00  0.00    -0.389 OA
ATOM     17  H   UNL     1       4.947 -16.288  26.339  1.00  0.00     0.211 HD
ENDBRANCH  14  16
TORSDOF 1
ENDMDL
MODEL 7
REMARK VINA RESULT:    -5.546      1.958      4.233
REMARK INTER + INTRA:          -5.708
REMARK INTER:                  -5.708
REMARK INTRA:                   0.000
REMARK UNBOUND:                 0.000
REMARK SMILES C=C1[C@H](O)C[C@]23C[C@H]1C(C)(C)[C@H]2CC[C@H]3C
REMARK SMILES IDX 16 1 15 2 14 3 13 4 12 5 6 6 7 7 8 8 9 9 10 10 11 11 2 12
REMARK SMILES IDX 1 13 3 14 5 15 4 16
REMARK H PARENT 4 17
REMARK Flexibility Score: inf
ROOT
ATOM      1  C   UNL     1      16.020 -10.982  26.493  1.00  0.00     0.008 C 
ATOM      2  C   UNL     1      15.802 -12.461  26.132  1.00  0.00    -0.008 C 
ATOM      3  C   UNL     1      15.550 -12.635  24.629  1.00  0.00     0.004 C 
ATOM      4  C   UNL     1      14.055 -12.839  24.483  1.00  0.00     0.005 C 
ATOM      5  C   UNL     1      13.647 -13.634  25.730  1.00  0.00     0.002 C 
ATOM      6  C   UNL     1      14.600 -13.161  26.847  1.00  0.00    -0.020 C 
ATOM      7  C   UNL     1      13.712 -12.285  27.742  1.00  0.00     0.016 C 
ATOM      8  C   UNL     1      12.423 -13.092  27.777  1.00  0.00     0.023 C 
ATOM      9  C   UNL     1      12.187 -13.458  26.280  1.00  0.00    -0.025 C 
ATOM     10  C   UNL     1      11.365 -14.758  26.090  1.00  0.00     0.012 C 
ATOM     11  C   UNL     1      11.376 -12.320  25.604  1.00  0.00     0.012 C 
ATOM     12  C   UNL     1      12.679 -14.322  28.643  1.00  0.00    -0.045 C 
ATOM     13  C   UNL     1      11.703 -14.785  29.441  1.00  0.00     0.011 C 
ATOM     14  C   UNL     1      13.969 -15.122  28.473  1.00  0.00     0.140 C 
ATOM     15  C   UNL     1      15.095 -14.354  27.717  1.00  0.00     0.044 C 
ENDROOT
BRANCH  14  16
ATOM     16  O   UNL     1      14.444 -15.515  29.736  1.00  0.00    -0.389 OA
ATOM     17  H   UNL     1      14.228 -16.480  29.837  1.00  0.00     0.211 HD
ENDBRANCH  14  16
TORSDOF 1
ENDMDL
MODEL 8
REMARK VINA RESULT:    -5.462      8.433     10.369
REMARK INTER + INTRA:          -5.622
REMARK INTER:                  -5.622
REMARK INTRA:                   0.000
REMARK UNBOUND:                 0.000
REMARK SMILES C=C1[C@H](O)C[C@]23C[C@H]1C(C)(C)[C@H]2CC[C@H]3C
REMARK SMILES IDX 16 1 15 2 14 3 13 4 12 5 6 6 7 7 8 8 9 9 10 10 11 11 2 12
REMARK SMILES IDX 1 13 3 14 5 15 4 16
REMARK H PARENT 4 17
REMARK Flexibility Score: inf
ROOT
ATOM      1  C   UNL     1       7.473 -22.203  35.000  1.00  0.00     0.008 C 
ATOM      2  C   UNL     1       7.642 -22.947  33.664  1.00  0.00    -0.008 C 
ATOM      3  C   UNL     1       9.077 -23.458  33.491  1.00  0.00     0.004 C 
ATOM      4  C   UNL     1       9.745 -22.495  32.529  1.00  0.00     0.005 C 
ATOM      5  C   UNL     1       8.633 -22.088  31.551  1.00  0.00     0.002 C 
ATOM      6  C   UNL     1       7.332 -22.109  32.380  1.00  0.00    -0.020 C 
ATOM      7  C   UNL     1       6.998 -20.624  32.578  1.00  0.00     0.016 C 
ATOM      8  C   UNL     1       7.323 -20.053  31.206  1.00  0.00     0.023 C 
ATOM      9  C   UNL     1       8.715 -20.673  30.879  1.00  0.00    -0.025 C 
ATOM     10  C   UNL     1       8.987 -20.798  29.358  1.00  0.00     0.012 C 
ATOM     11  C   UNL     1       9.825 -19.750  31.451  1.00  0.00     0.012 C 
ATOM     12  C   UNL     1       6.236 -20.526  30.247  1.00  0.00    -0.045 C 
ATOM     13  C   UNL     1       5.803 -19.703  29.277  1.00  0.00     0.011 C 
ATOM     14  C   UNL     1       5.769 -21.980  30.276  1.00  0.00     0.140 C 
ATOM     15  C   UNL     1       6.157 -22.742  31.579  1.00  0.00     0.044 C 
ENDROOT
BRANCH  14  16
ATOM     16  O   UNL     1       4.375 -22.027  30.109  1.00  0.00    -0.389 OA
ATOM     17  H   UNL     1       4.016 -22.590  30.845  1.00  0.00     0.211 HD
ENDBRANCH  14  16
TORSDOF 1
ENDMDL
MODEL 9
REMARK VINA RESULT:    -5.399      2.191      4.305
REMARK INTER + INTRA:          -5.557
REMARK INTER:                  -5.557
REMARK INTRA:                   0.000
REMARK UNBOUND:                 0.000
REMARK SMILES C=C1[C@H](O)C[C@]23C[C@H]1C(C)(C)[C@H]2CC[C@H]3C
REMARK SMILES IDX 16 1 15 2 14 3 13 4 12 5 6 6 7 7 8 8 9 9 10 10 11 11 2 12
REMARK SMILES IDX 1 13 3 14 5 15 4 16
REMARK H PARENT 4 17
REMARK Flexibility Score: inf
ROOT
ATOM      1  C   UNL     1      10.999 -14.936  25.623  1.00  0.00     0.008 C 
ATOM      2  C   UNL     1      11.620 -14.174  26.805  1.00  0.00    -0.008 C 
ATOM      3  C   UNL     1      11.755 -12.679  26.493  1.00  0.00     0.004 C 
ATOM      4  C   UNL     1      13.218 -12.458  26.159  1.00  0.00     0.005 C 
ATOM      5  C   UNL     1      13.977 -13.428  27.074  1.00  0.00     0.002 C 
ATOM      6  C   UNL     1      13.046 -14.647  27.240  1.00  0.00    -0.020 C 
ATOM      7  C   UNL     1      13.712 -15.737  26.387  1.00  0.00     0.016 C 
ATOM      8  C   UNL     1      15.181 -15.526  26.715  1.00  0.00     0.023 C 
ATOM      9  C   UNL     1      15.361 -13.983  26.585  1.00  0.00    -0.025 C 
ATOM     10  C   UNL     1      16.518 -13.426  27.454  1.00  0.00     0.012 C 
ATOM     11  C   UNL     1      15.711 -13.638  25.111  1.00  0.00     0.012 C 
ATOM     12  C   UNL     1      15.405 -16.019  28.141  1.00  0.00    -0.045 C 
ATOM     13  C   UNL     1      16.554 -16.642  28.455  1.00  0.00     0.011 C 
ATOM     14  C   UNL     1      14.412 -15.653  29.243  1.00  0.00     0.140 C 
ATOM     15  C   UNL     1      13.033 -15.158  28.711  1.00  0.00     0.044 C 
ENDROOT
BRANCH  14  16
ATOM     16  O   UNL     1      14.214 -16.764  30.080  1.00  0.00    -0.389 OA
ATOM     17  H   UNL     1      14.669 -16.561  30.940  1.00  0.00     0.211 HD
ENDBRANCH  14  16
TORSDOF 1
ENDMDL
