MODEL 1
REMARK VINA RESULT:    -5.618      0.000      0.000
REMARK INTER + INTRA:          -6.262
REMARK INTER:                  -6.275
REMARK INTRA:                   0.013
REMARK UNBOUND:                 0.013
REMARK SMILES O=C([O-])c1ccccc1C(=O)[O-]
REMARK SMILES IDX 4 1 9 2 5 3 8 4 6 5 7 6 2 7 1 8 3 9 10 10 11 11 12 12
REMARK H PARENT
REMARK Flexibility Score: inf
ROOT
ATOM      1  C   UNL     1       4.970 -35.752  22.430  1.00  0.00     0.006 A 
ATOM      2  C   UNL     1       5.002 -36.389  21.158  1.00  0.00     0.006 A 
ATOM      3  C   UNL     1       4.874 -36.542  23.590  1.00  0.00     0.010 A 
ATOM      4  C   UNL     1       5.002 -37.796  21.098  1.00  0.00     0.010 A 
ATOM      5  C   UNL     1       4.853 -37.934  23.506  1.00  0.00     0.001 A 
ATOM      6  C   UNL     1       4.928 -38.559  22.263  1.00  0.00     0.001 A 
ENDROOT
BRANCH   1   7
ATOM      7  C   UNL     1       5.104 -34.286  22.599  1.00  0.00     0.072 C 
ATOM      8  O   UNL     1       6.081 -33.796  23.224  1.00  0.00    -0.545 OA
ATOM      9  O   UNL     1       4.112 -33.435  22.125  1.00  0.00    -0.545 OA
ENDBRANCH   1   7
BRANCH   2  10
ATOM     10  C   UNL     1       4.961 -35.636  19.884  1.00  0.00     0.072 C 
ATOM     11  O   UNL     1       3.959 -35.727  19.125  1.00  0.00    -0.545 OA
ATOM     12  O   UNL     1       5.995 -34.773  19.537  1.00  0.00    -0.545 OA
ENDBRANCH   2  10
TORSDOF 2
ENDMDL
MODEL 2
REMARK VINA RESULT:    -5.584      0.139      3.012
REMARK INTER + INTRA:          -6.224
REMARK INTER:                  -6.312
REMARK INTRA:                   0.088
REMARK UNBOUND:                 0.013
REMARK SMILES O=C([O-])c1ccccc1C(=O)[O-]
REMARK SMILES IDX 4 1 9 2 5 3 8 4 6 5 7 6 2 7 1 8 3 9 10 10 11 11 12 12
REMARK H PARENT
REMARK Flexibility Score: inf
ROOT
ATOM      1  C   UNL     1       4.960 -36.313  21.109  1.00  0.00     0.006 A 
ATOM      2  C   UNL     1       4.957 -35.663  22.374  1.00  0.00     0.006 A 
ATOM      3  C   UNL     1       5.015 -37.718  21.060  1.00  0.00     0.010 A 
ATOM      4  C   UNL     1       4.944 -36.446  23.544  1.00  0.00     0.010 A 
ATOM      5  C   UNL     1       5.024 -38.473  22.233  1.00  0.00     0.001 A 
ATOM      6  C   UNL     1       4.977 -37.838  23.472  1.00  0.00     0.001 A 
ENDROOT
BRANCH   1   7
ATOM      7  C   UNL     1       4.836 -35.580  19.827  1.00  0.00     0.072 C 
ATOM      8  O   UNL     1       3.862 -35.788  19.057  1.00  0.00    -0.545 OA
ATOM      9  O   UNL     1       5.834 -34.698  19.429  1.00  0.00    -0.545 OA
ENDBRANCH   1   7
BRANCH   2  10
ATOM     10  C   UNL     1       5.042 -34.192  22.520  1.00  0.00     0.072 C 
ATOM     11  O   UNL     1       4.119 -33.457  22.076  1.00  0.00    -0.545 OA
ATOM     12  O   UNL     1       6.102 -33.606  23.202  1.00  0.00    -0.545 OA
ENDBRANCH   2  10
TORSDOF 2
ENDMDL
MODEL 3
REMARK VINA RESULT:    -5.520      2.029      3.507
REMARK INTER + INTRA:          -6.152
REMARK INTER:                  -6.253
REMARK INTRA:                   0.101
REMARK UNBOUND:                 0.013
REMARK SMILES O=C([O-])c1ccccc1C(=O)[O-]
REMARK SMILES IDX 4 1 9 2 5 3 8 4 6 5 7 6 2 7 1 8 3 9 10 10 11 11 12 12
REMARK H PARENT
REMARK Flexibility Score: inf
ROOT
ATOM      1  C   UNL     1       4.597 -35.378  21.048  1.00  0.00     0.006 A 
ATOM      2  C   UNL     1       5.012 -36.424  21.918  1.00  0.00     0.006 A 
ATOM      3  C   UNL     1       4.603 -34.052  21.519  1.00  0.00     0.010 A 
ATOM      4  C   UNL     1       5.481 -36.097  23.205  1.00  0.00     0.010 A 
ATOM      5  C   UNL     1       5.051 -33.754  22.806  1.00  0.00     0.001 A 
ATOM      6  C   UNL     1       5.499 -34.773  23.643  1.00  0.00     0.001 A 
ENDROOT
BRANCH   1   7
ATOM      7  C   UNL     1       4.219 -35.609  19.634  1.00  0.00     0.072 C 
ATOM      8  O   UNL     1       4.785 -34.975  18.705  1.00  0.00    -0.545 OA
ATOM      9  O   UNL     1       3.185 -36.483  19.323  1.00  0.00    -0.545 OA
ENDBRANCH   1   7
BRANCH   2  10
ATOM     10  C   UNL     1       4.906 -37.856  21.557  1.00  0.00     0.072 C 
ATOM     11  O   UNL     1       4.092 -38.604  22.163  1.00  0.00    -0.545 OA
ATOM     12  O   UNL     1       5.652 -38.379  20.507  1.00  0.00    -0.545 OA
ENDBRANCH   2  10
TORSDOF 2
ENDMDL
MODEL 4
REMARK VINA RESULT:    -5.504      2.013      3.358
REMARK INTER + INTRA:          -6.134
REMARK INTER:                  -6.238
REMARK INTRA:                   0.103
REMARK UNBOUND:                 0.013
REMARK SMILES O=C([O-])c1ccccc1C(=O)[O-]
REMARK SMILES IDX 4 1 9 2 5 3 8 4 6 5 7 6 2 7 1 8 3 9 10 10 11 11 12 12
REMARK H PARENT
REMARK Flexibility Score: inf
ROOT
ATOM      1  C   UNL     1       4.998 -36.486  21.917  1.00  0.00     0.006 A 
ATOM      2  C   UNL     1       4.592 -35.421  21.065  1.00  0.00     0.006 A 
ATOM      3  C   UNL     1       5.473 -36.188  23.207  1.00  0.00     0.010 A 
ATOM      4  C   UNL     1       4.615 -34.103  21.560  1.00  0.00     0.010 A 
ATOM      5  C   UNL     1       5.509 -34.872  23.669  1.00  0.00     0.001 A 
ATOM      6  C   UNL     1       5.070 -33.833  22.851  1.00  0.00     0.001 A 
ENDROOT
BRANCH   1   7
ATOM      7  C   UNL     1       4.880 -37.912  21.534  1.00  0.00     0.072 C 
ATOM      8  O   UNL     1       4.084 -38.677  22.139  1.00  0.00    -0.545 OA
ATOM      9  O   UNL     1       5.699 -38.438  20.543  1.00  0.00    -0.545 OA
ENDBRANCH   1   7
BRANCH   2  10
ATOM     10  C   UNL     1       4.212 -35.627  19.649  1.00  0.00     0.072 C 
ATOM     11  O   UNL     1       4.815 -35.005  18.733  1.00  0.00    -0.545 OA
ATOM     12  O   UNL     1       3.235 -36.555  19.305  1.00  0.00    -0.545 OA
ENDBRANCH   2  10
TORSDOF 2
ENDMDL
MODEL 5
REMARK VINA RESULT:    -5.464      1.402      2.376
REMARK INTER + INTRA:          -6.090
REMARK INTER:                  -5.996
REMARK INTRA:                  -0.094
REMARK UNBOUND:                 0.013
REMARK SMILES O=C([O-])c1ccccc1C(=O)[O-]
REMARK SMILES IDX 4 1 9 2 5 3 8 4 6 5 7 6 2 7 1 8 3 9 10 10 11 11 12 12
REMARK H PARENT
REMARK Flexibility Score: inf
ROOT
ATOM      1  C   UNL     1       5.089 -35.346  21.778  1.00  0.00     0.006 A 
ATOM      2  C   UNL     1       4.987 -36.753  21.594  1.00  0.00     0.006 A 
ATOM      3  C   UNL     1       5.244 -34.834  23.079  1.00  0.00     0.010 A 
ATOM      4  C   UNL     1       5.109 -37.599  22.712  1.00  0.00     0.010 A 
ATOM      5  C   UNL     1       5.340 -35.691  24.176  1.00  0.00     0.001 A 
ATOM      6  C   UNL     1       5.284 -37.071  23.991  1.00  0.00     0.001 A 
ENDROOT
BRANCH   1   7
ATOM      7  C   UNL     1       5.111 -34.385  20.649  1.00  0.00     0.072 C 
ATOM      8  O   UNL     1       4.187 -33.543  20.503  1.00  0.00    -0.545 OA
ATOM      9  O   UNL     1       6.123 -34.449  19.698  1.00  0.00    -0.545 OA
ENDBRANCH   1   7
BRANCH   2  10
ATOM     10  C   UNL     1       4.683 -37.369  20.282  1.00  0.00     0.072 C 
ATOM     11  O   UNL     1       5.514 -38.147  19.739  1.00  0.00    -0.545 OA
ATOM     12  O   UNL     1       3.457 -37.152  19.663  1.00  0.00    -0.545 OA
ENDBRANCH   2  10
TORSDOF 2
ENDMDL
MODEL 6
REMARK VINA RESULT:    -5.450      1.356      2.988
REMARK INTER + INTRA:          -6.074
REMARK INTER:                  -6.024
REMARK INTRA:                  -0.050
REMARK UNBOUND:                 0.013
REMARK SMILES O=C([O-])c1ccccc1C(=O)[O-]
REMARK SMILES IDX 4 1 9 2 5 3 8 4 6 5 7 6 2 7 1 8 3 9 10 10 11 11 12 12
REMARK H PARENT
REMARK Flexibility Score: inf
ROOT
ATOM      1  C   UNL     1       4.917 -36.865  21.701  1.00  0.00     0.006 A 
ATOM      2  C   UNL     1       5.032 -35.455  21.859  1.00  0.00     0.006 A 
ATOM      3  C   UNL     1       4.999 -37.691  22.837  1.00  0.00     0.010 A 
ATOM      4  C   UNL     1       5.159 -34.921  23.156  1.00  0.00     0.010 A 
ATOM      5  C   UNL     1       5.148 -37.140  24.110  1.00  0.00     0.001 A 
ATOM      6  C   UNL     1       5.216 -35.758  24.270  1.00  0.00     0.001 A 
ENDROOT
BRANCH   1   7
ATOM      7  C   UNL     1       4.643 -37.509  20.395  1.00  0.00     0.072 C 
ATOM      8  O   UNL     1       5.473 -38.303  19.882  1.00  0.00    -0.545 OA
ATOM      9  O   UNL     1       3.489 -37.189  19.688  1.00  0.00    -0.545 OA
ENDBRANCH   1   7
BRANCH   2  10
ATOM     10  C   UNL     1       5.097 -34.523  20.711  1.00  0.00     0.072 C 
ATOM     11  O   UNL     1       4.251 -33.595  20.598  1.00  0.00    -0.545 OA
ATOM     12  O   UNL     1       6.125 -34.616  19.779  1.00  0.00    -0.545 OA
ENDBRANCH   2  10
TORSDOF 2
ENDMDL
MODEL 7
REMARK VINA RESULT:    -5.428      1.614      3.385
REMARK INTER + INTRA:          -6.050
REMARK INTER:                  -6.142
REMARK INTRA:                   0.093
REMARK UNBOUND:                 0.013
REMARK SMILES O=C([O-])c1ccccc1C(=O)[O-]
REMARK SMILES IDX 4 1 9 2 5 3 8 4 6 5 7 6 2 7 1 8 3 9 10 10 11 11 12 12
REMARK H PARENT
REMARK Flexibility Score: inf
ROOT
ATOM      1  C   UNL     1       5.076 -35.864  22.337  1.00  0.00     0.006 A 
ATOM      2  C   UNL     1       5.008 -36.861  23.349  1.00  0.00     0.006 A 
ATOM      3  C   UNL     1       5.152 -36.260  20.989  1.00  0.00     0.010 A 
ATOM      4  C   UNL     1       4.951 -38.216  22.971  1.00  0.00     0.010 A 
ATOM      5  C   UNL     1       5.117 -37.610  20.639  1.00  0.00     0.001 A 
ATOM      6  C   UNL     1       5.005 -38.585  21.627  1.00  0.00     0.001 A 
ENDROOT
BRANCH   1   7
ATOM      7  C   UNL     1       5.002 -34.413  22.629  1.00  0.00     0.072 C 
ATOM      8  O   UNL     1       3.948 -33.764  22.404  1.00  0.00    -0.545 OA
ATOM      9  O   UNL     1       6.124 -33.738  23.096  1.00  0.00    -0.545 OA
ENDBRANCH   1   7
BRANCH   2  10
ATOM     10  C   UNL     1       5.067 -36.541  24.794  1.00  0.00     0.072 C 
ATOM     11  O   UNL     1       4.190 -36.993  25.579  1.00  0.00    -0.545 OA
ATOM     12  O   UNL     1       6.120 -35.797  25.313  1.00  0.00    -0.545 OA
ENDBRANCH   2  10
TORSDOF 2
ENDMDL
MODEL 8
REMARK VINA RESULT:    -4.969      2.564      3.492
REMARK INTER + INTRA:          -5.537
REMARK INTER:                  -5.857
REMARK INTRA:                   0.320
REMARK UNBOUND:                 0.013
REMARK SMILES O=C([O-])c1ccccc1C(=O)[O-]
REMARK SMILES IDX 4 1 9 2 5 3 8 4 6 5 7 6 2 7 1 8 3 9 10 10 11 11 12 12
REMARK H PARENT
REMARK Flexibility Score: inf
ROOT
ATOM      1  C   UNL     1       5.004 -36.137  22.857  1.00  0.00     0.006 A 
ATOM      2  C   UNL     1       4.817 -37.033  21.767  1.00  0.00     0.006 A 
ATOM      3  C   UNL     1       5.032 -34.753  22.609  1.00  0.00     0.010 A 
ATOM      4  C   UNL     1       4.599 -36.506  20.479  1.00  0.00     0.010 A 
ATOM      5  C   UNL     1       4.836 -34.254  21.321  1.00  0.00     0.001 A 
ATOM      6  C   UNL     1       4.608 -35.128  20.261  1.00  0.00     0.001 A 
ENDROOT
BRANCH   1   7
ATOM      7  C   UNL     1       5.104 -36.592  24.264  1.00  0.00     0.072 C 
ATOM      8  O   UNL     1       4.251 -37.380  24.748  1.00  0.00    -0.545 OA
ATOM      9  O   UNL     1       6.109 -36.096  25.086  1.00  0.00    -0.545 OA
ENDBRANCH   1   7
BRANCH   2  10
ATOM     10  C   UNL     1       4.913 -38.503  21.912  1.00  0.00     0.072 C 
ATOM     11  O   UNL     1       3.977 -39.149  22.453  1.00  0.00    -0.545 OA
ATOM     12  O   UNL     1       6.003 -39.196  21.398  1.00  0.00    -0.545 OA
ENDBRANCH   2  10
TORSDOF 2
ENDMDL
