MODEL 1
REMARK VINA RESULT:    -4.095      0.000      0.000
REMARK INTER + INTRA:          -5.156
REMARK INTER:                  -5.052
REMARK INTRA:                  -0.104
REMARK UNBOUND:                -0.104
REMARK SMILES CCCCCC(=O)[O-]
REMARK SMILES IDX 4 1 5 2 6 3 7 4 8 5 3 6 2 7 1 8
REMARK H PARENT
REMARK Flexibility Score: inf
ROOT
ATOM      1  C   UNL     1     -12.239  10.498   7.449  1.00  0.00     0.006 C 
ENDROOT
BRANCH   1   2
ATOM      2  C   UNL     1     -12.817   9.355   6.603  1.00  0.00     0.053 C 
BRANCH   2   3
ATOM      3  C   UNL     1     -13.694   8.451   7.414  1.00  0.00     0.041 C 
ATOM      4  O   UNL     1     -14.041   7.331   6.960  1.00  0.00    -0.550 OA
ATOM      5  O   UNL     1     -14.155   8.863   8.659  1.00  0.00    -0.550 OA
ENDBRANCH   2   3
ENDBRANCH   1   2
BRANCH   1   6
ATOM      6  C   UNL     1     -11.301  11.405   6.638  1.00  0.00     0.000 C 
BRANCH   6   7
ATOM      7  C   UNL     1     -11.351  11.053   5.147  1.00  0.00    -0.003 C 
ATOM      8  C   UNL     1     -10.463  11.987   4.330  1.00  0.00     0.004 C 
ENDBRANCH   6   7
ENDBRANCH   1   6
TORSDOF 4
ENDMDL
MODEL 2
REMARK VINA RESULT:    -3.971      1.855      2.779
REMARK INTER + INTRA:          -5.003
REMARK INTER:                  -4.953
REMARK INTRA:                  -0.050
REMARK UNBOUND:                -0.104
REMARK SMILES CCCCCC(=O)[O-]
REMARK SMILES IDX 4 1 5 2 6 3 7 4 8 5 3 6 2 7 1 8
REMARK H PARENT
REMARK Flexibility Score: inf
ROOT
ATOM      1  C   UNL     1     -11.687  11.016   5.652  1.00  0.00     0.006 C 
ENDROOT
BRANCH   1   2
ATOM      2  C   UNL     1     -11.480  11.393   7.126  1.00  0.00     0.053 C 
BRANCH   2   3
ATOM      3  C   UNL     1     -12.751  11.287   7.910  1.00  0.00     0.041 C 
ATOM      4  O   UNL     1     -13.213  12.293   8.508  1.00  0.00    -0.550 OA
ATOM      5  O   UNL     1     -13.409  10.067   8.009  1.00  0.00    -0.550 OA
ENDBRANCH   2   3
ENDBRANCH   1   2
BRANCH   1   6
ATOM      6  C   UNL     1     -10.773  11.817   4.713  1.00  0.00     0.000 C 
BRANCH   6   7
ATOM      7  C   UNL     1     -10.727  11.182   3.319  1.00  0.00    -0.003 C 
ATOM      8  C   UNL     1      -9.288  11.002   2.842  1.00  0.00     0.004 C 
ENDBRANCH   6   7
ENDBRANCH   1   6
TORSDOF 4
ENDMDL
MODEL 3
REMARK VINA RESULT:    -3.966      3.579      4.934
REMARK INTER + INTRA:          -4.998
REMARK INTER:                  -4.915
REMARK INTRA:                  -0.082
REMARK UNBOUND:                -0.104
REMARK SMILES CCCCCC(=O)[O-]
REMARK SMILES IDX 4 1 5 2 6 3 7 4 8 5 3 6 2 7 1 8
REMARK H PARENT
REMARK Flexibility Score: inf
ROOT
ATOM      1  C   UNL     1     -11.423  11.026   5.272  1.00  0.00     0.006 C 
ENDROOT
BRANCH   1   2
ATOM      2  C   UNL     1     -10.596  11.880   4.301  1.00  0.00     0.053 C 
BRANCH   2   3
ATOM      3  C   UNL     1     -10.248  11.126   3.055  1.00  0.00     0.041 C 
ATOM      4  O   UNL     1      -9.068  10.735   2.858  1.00  0.00    -0.550 OA
ATOM      5  O   UNL     1     -11.222  10.884   2.093  1.00  0.00    -0.550 OA
ENDBRANCH   2   3
ENDBRANCH   1   2
BRANCH   1   6
ATOM      6  C   UNL     1     -11.313  11.522   6.721  1.00  0.00     0.000 C 
BRANCH   6   7
ATOM      7  C   UNL     1     -12.052  10.582   7.680  1.00  0.00    -0.003 C 
ATOM      8  C   UNL     1     -12.751   9.457   6.921  1.00  0.00     0.004 C 
ENDBRANCH   6   7
ENDBRANCH   1   6
TORSDOF 4
ENDMDL
MODEL 4
REMARK VINA RESULT:    -3.956      1.501      2.296
REMARK INTER + INTRA:          -4.986
REMARK INTER:                  -4.857
REMARK INTRA:                  -0.129
REMARK UNBOUND:                -0.104
REMARK SMILES CCCCCC(=O)[O-]
REMARK SMILES IDX 4 1 5 2 6 3 7 4 8 5 3 6 2 7 1 8
REMARK H PARENT
REMARK Flexibility Score: inf
ROOT
ATOM      1  C   UNL     1     -12.598  11.153   6.829  1.00  0.00     0.006 C 
ENDROOT
BRANCH   1   2
ATOM      2  C   UNL     1     -12.570   9.666   6.450  1.00  0.00     0.053 C 
BRANCH   2   3
ATOM      3  C   UNL     1     -13.467   8.851   7.329  1.00  0.00     0.041 C 
ATOM      4  O   UNL     1     -13.977   7.784   6.900  1.00  0.00    -0.550 OA
ATOM      5  O   UNL     1     -13.768   9.288   8.614  1.00  0.00    -0.550 OA
ENDBRANCH   2   3
ENDBRANCH   1   2
BRANCH   1   6
ATOM      6  C   UNL     1     -11.247  11.641   7.373  1.00  0.00     0.000 C 
BRANCH   6   7
ATOM      7  C   UNL     1     -11.359  12.031   8.851  1.00  0.00    -0.003 C 
ATOM      8  C   UNL     1     -10.459  13.220   9.178  1.00  0.00     0.004 C 
ENDBRANCH   6   7
ENDBRANCH   1   6
TORSDOF 4
ENDMDL
MODEL 5
REMARK VINA RESULT:    -3.921      4.022      5.077
REMARK INTER + INTRA:          -4.942
REMARK INTER:                  -4.858
REMARK INTRA:                  -0.084
REMARK UNBOUND:                -0.104
REMARK SMILES CCCCCC(=O)[O-]
REMARK SMILES IDX 4 1 5 2 6 3 7 4 8 5 3 6 2 7 1 8
REMARK H PARENT
REMARK Flexibility Score: inf
ROOT
ATOM      1  C   UNL     1     -11.322  11.447   5.847  1.00  0.00     0.006 C 
ENDROOT
BRANCH   1   2
ATOM      2  C   UNL     1     -10.940  11.219   4.378  1.00  0.00     0.053 C 
BRANCH   2   3
ATOM      3  C   UNL     1     -10.262  12.417   3.787  1.00  0.00     0.041 C 
ATOM      4  O   UNL     1     -10.569  12.814   2.633  1.00  0.00    -0.550 OA
ATOM      5  O   UNL     1      -9.267  13.075   4.499  1.00  0.00    -0.550 OA
ENDBRANCH   2   3
ENDBRANCH   1   2
BRANCH   1   6
ATOM      6  C   UNL     1     -12.114  10.269   6.432  1.00  0.00     0.000 C 
BRANCH   6   7
ATOM      7  C   UNL     1     -12.247  10.398   7.953  1.00  0.00    -0.003 C 
ATOM      8  C   UNL     1     -11.537  11.649   8.465  1.00  0.00     0.004 C 
ENDBRANCH   6   7
ENDBRANCH   1   6
TORSDOF 4
ENDMDL
MODEL 6
REMARK VINA RESULT:    -3.867      8.218      8.551
REMARK INTER + INTRA:          -4.875
REMARK INTER:                  -4.764
REMARK INTRA:                  -0.112
REMARK UNBOUND:                -0.104
REMARK SMILES CCCCCC(=O)[O-]
REMARK SMILES IDX 4 1 5 2 6 3 7 4 8 5 3 6 2 7 1 8
REMARK H PARENT
REMARK Flexibility Score: inf
ROOT
ATOM      1  C   UNL     1      -4.920   8.163   7.342  1.00  0.00     0.006 C 
ENDROOT
BRANCH   1   2
ATOM      2  C   UNL     1      -5.708   6.911   7.749  1.00  0.00     0.053 C 
BRANCH   2   3
ATOM      3  C   UNL     1      -4.947   5.655   7.454  1.00  0.00     0.041 C 
ATOM      4  O   UNL     1      -3.689   5.664   7.442  1.00  0.00    -0.550 OA
ATOM      5  O   UNL     1      -5.629   4.481   7.158  1.00  0.00    -0.550 OA
ENDBRANCH   2   3
ENDBRANCH   1   2
BRANCH   1   6
ATOM      6  C   UNL     1      -4.543   9.032   8.552  1.00  0.00     0.000 C 
BRANCH   6   7
ATOM      7  C   UNL     1      -3.559  10.136   8.149  1.00  0.00    -0.003 C 
ATOM      8  C   UNL     1      -3.671  10.459   6.662  1.00  0.00     0.004 C 
ENDBRANCH   6   7
ENDBRANCH   1   6
TORSDOF 4
ENDMDL
MODEL 7
REMARK VINA RESULT:    -3.849      1.510      2.435
REMARK INTER + INTRA:          -4.853
REMARK INTER:                  -4.784
REMARK INTRA:                  -0.069
REMARK UNBOUND:                -0.104
REMARK SMILES CCCCCC(=O)[O-]
REMARK SMILES IDX 4 1 5 2 6 3 7 4 8 5 3 6 2 7 1 8
REMARK H PARENT
REMARK Flexibility Score: inf
ROOT
ATOM      1  C   UNL     1     -11.314  11.415   5.701  1.00  0.00     0.006 C 
ENDROOT
BRANCH   1   2
ATOM      2  C   UNL     1     -12.267  10.300   6.152  1.00  0.00     0.053 C 
BRANCH   2   3
ATOM      3  C   UNL     1     -12.417  10.266   7.641  1.00  0.00     0.041 C 
ATOM      4  O   UNL     1     -11.680  10.979   8.370  1.00  0.00    -0.550 OA
ATOM      5  O   UNL     1     -13.350   9.419   8.228  1.00  0.00    -0.550 OA
ENDBRANCH   2   3
ENDBRANCH   1   2
BRANCH   1   6
ATOM      6  C   UNL     1     -10.811  11.206   4.265  1.00  0.00     0.000 C 
BRANCH   6   7
ATOM      7  C   UNL     1     -10.317  12.524   3.659  1.00  0.00    -0.003 C 
ATOM      8  C   UNL     1      -9.189  13.126   4.492  1.00  0.00     0.004 C 
ENDBRANCH   6   7
ENDBRANCH   1   6
TORSDOF 4
ENDMDL
MODEL 8
REMARK VINA RESULT:    -3.833      1.551      2.463
REMARK INTER + INTRA:          -4.833
REMARK INTER:                  -4.748
REMARK INTRA:                  -0.085
REMARK UNBOUND:                -0.104
REMARK SMILES CCCCCC(=O)[O-]
REMARK SMILES IDX 4 1 5 2 6 3 7 4 8 5 3 6 2 7 1 8
REMARK H PARENT
REMARK Flexibility Score: inf
ROOT
ATOM      1  C   UNL     1     -11.213  11.062   4.842  1.00  0.00     0.006 C 
ENDROOT
BRANCH   1   2
ATOM      2  C   UNL     1     -11.574  11.206   6.327  1.00  0.00     0.053 C 
BRANCH   2   3
ATOM      3  C   UNL     1     -12.336  10.019   6.831  1.00  0.00     0.041 C 
ATOM      4  O   UNL     1     -13.012   9.316   6.037  1.00  0.00    -0.550 OA
ATOM      5  O   UNL     1     -12.326   9.710   8.186  1.00  0.00    -0.550 OA
ENDBRANCH   2   3
ENDBRANCH   1   2
BRANCH   1   6
ATOM      6  C   UNL     1     -10.315  12.205   4.348  1.00  0.00     0.000 C 
BRANCH   6   7
ATOM      7  C   UNL     1     -10.401  12.351   2.824  1.00  0.00    -0.003 C 
ATOM      8  C   UNL     1     -11.004  11.104   2.183  1.00  0.00     0.004 C 
ENDBRANCH   6   7
ENDBRANCH   1   6
TORSDOF 4
ENDMDL
MODEL 9
REMARK VINA RESULT:    -3.748      5.065      6.448
REMARK INTER + INTRA:          -4.729
REMARK INTER:                  -4.686
REMARK INTRA:                  -0.043
REMARK UNBOUND:                -0.104
REMARK SMILES CCCCCC(=O)[O-]
REMARK SMILES IDX 4 1 5 2 6 3 7 4 8 5 3 6 2 7 1 8
REMARK H PARENT
REMARK Flexibility Score: inf
ROOT
ATOM      1  C   UNL     1     -10.149  12.332   4.462  1.00  0.00     0.006 C 
ENDROOT
BRANCH   1   2
ATOM      2  C   UNL     1     -10.240  12.798   3.003  1.00  0.00     0.053 C 
BRANCH   2   3
ATOM      3  C   UNL     1      -9.227  13.857   2.693  1.00  0.00     0.041 C 
ATOM      4  O   UNL     1      -9.583  14.937   2.155  1.00  0.00    -0.550 OA
ATOM      5  O   UNL     1      -7.883  13.636   2.968  1.00  0.00    -0.550 OA
ENDBRANCH   2   3
ENDBRANCH   1   2
BRANCH   1   6
ATOM      6  C   UNL     1     -11.094  11.159   4.758  1.00  0.00     0.000 C 
BRANCH   6   7
ATOM      7  C   UNL     1     -11.549  11.176   6.222  1.00  0.00    -0.003 C 
ATOM      8  C   UNL     1     -12.355   9.926   6.565  1.00  0.00     0.004 C 
ENDBRANCH   6   7
ENDBRANCH   1   6
TORSDOF 4
ENDMDL
