MODEL 1
REMARK VINA RESULT:    -3.779      0.000      0.000
REMARK INTER + INTRA:          -5.452
REMARK INTER:                  -5.105
REMARK INTRA:                  -0.347
REMARK UNBOUND:                -0.347
REMARK SMILES CCCCCCCC(=O)[O-]
REMARK SMILES IDX 5 1 6 2 7 3 8 4 9 5 10 6 4 7 3 8 2 9 1 10
REMARK H PARENT
REMARK Flexibility Score: inf
ROOT
ATOM      1  C   UNL     1      31.461   5.225  46.810  1.00  0.00     0.000 C 
ENDROOT
BRANCH   1   2
ATOM      2  C   UNL     1      30.952   5.713  48.178  1.00  0.00     0.006 C 
BRANCH   2   3
ATOM      3  C   UNL     1      31.890   5.310  49.322  1.00  0.00     0.053 C 
BRANCH   3   4
ATOM      4  C   UNL     1      31.822   3.839  49.602  1.00  0.00     0.041 C 
ATOM      5  O   UNL     1      30.820   3.350  50.187  1.00  0.00    -0.550 OA
ATOM      6  O   UNL     1      32.850   3.005  49.186  1.00  0.00    -0.550 OA
ENDBRANCH   3   4
ENDBRANCH   2   3
ENDBRANCH   1   2
BRANCH   1   7
ATOM      7  C   UNL     1      31.574   6.361  45.781  1.00  0.00     0.000 C 
BRANCH   7   8
ATOM      8  C   UNL     1      32.907   6.339  45.019  1.00  0.00    -0.000 C 
BRANCH   8   9
ATOM      9  C   UNL     1      33.585   7.714  45.059  1.00  0.00    -0.003 C 
ATOM     10  C   UNL     1      33.663   8.250  46.486  1.00  0.00     0.004 C 
ENDBRANCH   8   9
ENDBRANCH   7   8
ENDBRANCH   1   7
TORSDOF 6
ENDMDL
MODEL 2
REMARK VINA RESULT:    -3.707      3.392      5.069
REMARK INTER + INTRA:          -5.354
REMARK INTER:                  -5.053
REMARK INTRA:                  -0.301
REMARK UNBOUND:                -0.347
REMARK SMILES CCCCCCCC(=O)[O-]
REMARK SMILES IDX 5 1 6 2 7 3 8 4 9 5 10 6 4 7 3 8 2 9 1 10
REMARK H PARENT
REMARK Flexibility Score: inf
ROOT
ATOM      1  C   UNL     1      30.424   6.363  47.601  1.00  0.00     0.000 C 
ENDROOT
BRANCH   1   2
ATOM      2  C   UNL     1      30.642   6.373  46.078  1.00  0.00     0.006 C 
BRANCH   2   3
ATOM      3  C   UNL     1      31.682   5.336  45.637  1.00  0.00     0.053 C 
BRANCH   3   4
ATOM      4  C   UNL     1      31.719   5.188  44.146  1.00  0.00     0.041 C 
ATOM      5  O   UNL     1      32.693   5.638  43.488  1.00  0.00    -0.550 OA
ATOM      6  O   UNL     1      30.692   4.524  43.488  1.00  0.00    -0.550 OA
ENDBRANCH   3   4
ENDBRANCH   2   3
ENDBRANCH   1   2
BRANCH   1   7
ATOM      7  C   UNL     1      31.594   5.720  48.363  1.00  0.00     0.000 C 
BRANCH   7   8
ATOM      8  C   UNL     1      31.170   5.141  49.720  1.00  0.00    -0.000 C 
BRANCH   8   9
ATOM      9  C   UNL     1      32.137   4.042  50.174  1.00  0.00    -0.003 C 
ATOM     10  C   UNL     1      32.396   3.038  49.055  1.00  0.00     0.004 C 
ENDBRANCH   8   9
ENDBRANCH   7   8
ENDBRANCH   1   7
TORSDOF 6
ENDMDL
MODEL 3
REMARK VINA RESULT:    -3.666      9.854     11.098
REMARK INTER + INTRA:          -5.299
REMARK INTER:                  -5.082
REMARK INTRA:                  -0.216
REMARK UNBOUND:                -0.347
REMARK SMILES CCCCCCCC(=O)[O-]
REMARK SMILES IDX 5 1 6 2 7 3 8 4 9 5 10 6 4 7 3 8 2 9 1 10
REMARK H PARENT
REMARK Flexibility Score: inf
ROOT
ATOM      1  C   UNL     1      24.855   2.498  39.901  1.00  0.00     0.000 C 
ENDROOT
BRANCH   1   2
ATOM      2  C   UNL     1      25.215   3.953  40.249  1.00  0.00     0.006 C 
BRANCH   2   3
ATOM      3  C   UNL     1      26.689   4.106  40.643  1.00  0.00     0.053 C 
BRANCH   3   4
ATOM      4  C   UNL     1      26.886   3.952  42.120  1.00  0.00     0.041 C 
ATOM      5  O   UNL     1      25.893   3.852  42.886  1.00  0.00    -0.550 OA
ATOM      6  O   UNL     1      28.170   3.887  42.646  1.00  0.00    -0.550 OA
ENDBRANCH   3   4
ENDBRANCH   2   3
ENDBRANCH   1   2
BRANCH   1   7
ATOM      7  C   UNL     1      23.645   2.396  38.959  1.00  0.00     0.000 C 
BRANCH   7   8
ATOM      8  C   UNL     1      23.020   0.993  38.947  1.00  0.00    -0.000 C 
BRANCH   8   9
ATOM      9  C   UNL     1      23.652   0.103  40.024  1.00  0.00    -0.003 C 
ATOM     10  C   UNL     1      23.865  -1.318  39.510  1.00  0.00     0.004 C 
ENDBRANCH   8   9
ENDBRANCH   7   8
ENDBRANCH   1   7
TORSDOF 6
ENDMDL
MODEL 4
REMARK VINA RESULT:    -3.643      3.206      5.289
REMARK INTER + INTRA:          -5.267
REMARK INTER:                  -5.025
REMARK INTRA:                  -0.242
REMARK UNBOUND:                -0.347
REMARK SMILES CCCCCCCC(=O)[O-]
REMARK SMILES IDX 5 1 6 2 7 3 8 4 9 5 10 6 4 7 3 8 2 9 1 10
REMARK H PARENT
REMARK Flexibility Score: inf
ROOT
ATOM      1  C   UNL     1      31.950   6.523  47.822  1.00  0.00     0.000 C 
ENDROOT
BRANCH   1   2
ATOM      2  C   UNL     1      31.391   7.335  46.641  1.00  0.00     0.006 C 
BRANCH   2   3
ATOM      3  C   UNL     1      32.419   7.502  45.516  1.00  0.00     0.053 C 
BRANCH   3   4
ATOM      4  C   UNL     1      33.613   8.287  45.968  1.00  0.00     0.041 C 
ATOM      5  O   UNL     1      34.775   7.845  45.770  1.00  0.00    -0.550 OA
ATOM      6  O   UNL     1      33.441   9.523  46.577  1.00  0.00    -0.550 OA
ENDBRANCH   3   4
ENDBRANCH   2   3
ENDBRANCH   1   2
BRANCH   1   7
ATOM      7  C   UNL     1      31.078   5.304  48.166  1.00  0.00     0.000 C 
BRANCH   7   8
ATOM      8  C   UNL     1      30.992   5.046  49.677  1.00  0.00    -0.000 C 
BRANCH   8   9
ATOM      9  C   UNL     1      32.105   4.097  50.136  1.00  0.00    -0.003 C 
ATOM     10  C   UNL     1      32.386   3.026  49.086  1.00  0.00     0.004 C 
ENDBRANCH   8   9
ENDBRANCH   7   8
ENDBRANCH   1   7
TORSDOF 6
ENDMDL
MODEL 5
REMARK VINA RESULT:    -3.548      2.150      3.197
REMARK INTER + INTRA:          -5.139
REMARK INTER:                  -4.694
REMARK INTRA:                  -0.445
REMARK UNBOUND:                -0.347
REMARK SMILES CCCCCCCC(=O)[O-]
REMARK SMILES IDX 5 1 6 2 7 3 8 4 9 5 10 6 4 7 3 8 2 9 1 10
REMARK H PARENT
REMARK Flexibility Score: inf
ROOT
ATOM      1  C   UNL     1      31.133   5.315  47.056  1.00  0.00     0.000 C 
ENDROOT
BRANCH   1   2
ATOM      2  C   UNL     1      31.677   5.787  48.415  1.00  0.00     0.006 C 
BRANCH   2   3
ATOM      3  C   UNL     1      31.176   4.916  49.573  1.00  0.00     0.053 C 
BRANCH   3   4
ATOM      4  C   UNL     1      32.216   3.934  50.019  1.00  0.00     0.041 C 
ATOM      5  O   UNL     1      32.642   3.056  49.225  1.00  0.00    -0.550 OA
ATOM      6  O   UNL     1      32.739   4.012  51.303  1.00  0.00    -0.550 OA
ENDBRANCH   3   4
ENDBRANCH   2   3
ENDBRANCH   1   2
BRANCH   1   7
ATOM      7  C   UNL     1      30.161   6.325  46.425  1.00  0.00     0.000 C 
BRANCH   7   8
ATOM      8  C   UNL     1      29.940   7.563  47.306  1.00  0.00    -0.000 C 
BRANCH   8   9
ATOM      9  C   UNL     1      28.459   7.717  47.674  1.00  0.00    -0.003 C 
ATOM     10  C   UNL     1      27.958   6.511  48.464  1.00  0.00     0.004 C 
ENDBRANCH   8   9
ENDBRANCH   7   8
ENDBRANCH   1   7
TORSDOF 6
ENDMDL
MODEL 6
REMARK VINA RESULT:    -3.423     14.601     15.678
REMARK INTER + INTRA:          -4.971
REMARK INTER:                  -4.399
REMARK INTRA:                  -0.571
REMARK UNBOUND:                -0.347
REMARK SMILES CCCCCCCC(=O)[O-]
REMARK SMILES IDX 5 1 6 2 7 3 8 4 9 5 10 6 4 7 3 8 2 9 1 10
REMARK H PARENT
REMARK Flexibility Score: inf
ROOT
ATOM      1  C   UNL     1      21.862  -1.626  54.746  1.00  0.00     0.000 C 
ENDROOT
BRANCH   1   2
ATOM      2  C   UNL     1      21.740  -0.383  55.644  1.00  0.00     0.006 C 
BRANCH   2   3
ATOM      3  C   UNL     1      21.549  -0.753  57.120  1.00  0.00     0.053 C 
BRANCH   3   4
ATOM      4  C   UNL     1      20.399  -1.695  57.311  1.00  0.00     0.041 C 
ATOM      5  O   UNL     1      20.581  -2.817  57.852  1.00  0.00    -0.550 OA
ATOM      6  O   UNL     1      19.121  -1.318  56.922  1.00  0.00    -0.550 OA
ENDBRANCH   3   4
ENDBRANCH   2   3
ENDBRANCH   1   2
BRANCH   1   7
ATOM      7  C   UNL     1      23.318  -2.091  54.573  1.00  0.00     0.000 C 
BRANCH   7   8
ATOM      8  C   UNL     1      23.606  -3.414  55.297  1.00  0.00    -0.000 C 
BRANCH   8   9
ATOM      9  C   UNL     1      24.675  -3.225  56.380  1.00  0.00    -0.003 C 
ATOM     10  C   UNL     1      24.065  -3.302  57.777  1.00  0.00     0.004 C 
ENDBRANCH   8   9
ENDBRANCH   7   8
ENDBRANCH   1   7
TORSDOF 6
ENDMDL
MODEL 7
REMARK VINA RESULT:    -3.352     14.757     15.744
REMARK INTER + INTRA:          -4.875
REMARK INTER:                  -4.434
REMARK INTRA:                  -0.441
REMARK UNBOUND:                -0.347
REMARK SMILES CCCCCCCC(=O)[O-]
REMARK SMILES IDX 5 1 6 2 7 3 8 4 9 5 10 6 4 7 3 8 2 9 1 10
REMARK H PARENT
REMARK Flexibility Score: inf
ROOT
ATOM      1  C   UNL     1      24.460  -3.189  56.463  1.00  0.00     0.000 C 
ENDROOT
BRANCH   1   2
ATOM      2  C   UNL     1      23.941  -3.350  57.902  1.00  0.00     0.006 C 
BRANCH   2   3
ATOM      3  C   UNL     1      22.598  -2.640  58.116  1.00  0.00     0.053 C 
BRANCH   3   4
ATOM      4  C   UNL     1      21.440  -3.542  57.818  1.00  0.00     0.041 C 
ATOM      5  O   UNL     1      21.638  -4.738  57.478  1.00  0.00    -0.550 OA
ATOM      6  O   UNL     1      20.141  -3.071  57.949  1.00  0.00    -0.550 OA
ENDBRANCH   3   4
ENDBRANCH   2   3
ENDBRANCH   1   2
BRANCH   1   7
ATOM      7  C   UNL     1      23.849  -1.974  55.746  1.00  0.00     0.000 C 
BRANCH   7   8
ATOM      8  C   UNL     1      23.079  -2.363  54.475  1.00  0.00    -0.000 C 
BRANCH   8   9
ATOM      9  C   UNL     1      21.734  -1.631  54.403  1.00  0.00    -0.003 C 
ATOM     10  C   UNL     1      21.671  -0.490  55.415  1.00  0.00     0.004 C 
ENDBRANCH   8   9
ENDBRANCH   7   8
ENDBRANCH   1   7
TORSDOF 6
ENDMDL
MODEL 8
REMARK VINA RESULT:    -3.351     14.034     15.468
REMARK INTER + INTRA:          -4.874
REMARK INTER:                  -4.406
REMARK INTRA:                  -0.468
REMARK UNBOUND:                -0.347
REMARK SMILES CCCCCCCC(=O)[O-]
REMARK SMILES IDX 5 1 6 2 7 3 8 4 9 5 10 6 4 7 3 8 2 9 1 10
REMARK H PARENT
REMARK Flexibility Score: inf
ROOT
ATOM      1  C   UNL     1      23.863  -2.114  55.810  1.00  0.00     0.000 C 
ENDROOT
BRANCH   1   2
ATOM      2  C   UNL     1      23.388  -2.634  54.442  1.00  0.00     0.006 C 
BRANCH   2   3
ATOM      3  C   UNL     1      23.324  -4.165  54.395  1.00  0.00     0.053 C 
BRANCH   3   4
ATOM      4  C   UNL     1      24.169  -4.722  53.290  1.00  0.00     0.041 C 
ATOM      5  O   UNL     1      23.983  -4.352  52.101  1.00  0.00    -0.550 OA
ATOM      6  O   UNL     1      25.184  -5.624  53.579  1.00  0.00    -0.550 OA
ENDBRANCH   3   4
ENDBRANCH   2   3
ENDBRANCH   1   2
BRANCH   1   7
ATOM      7  C   UNL     1      24.382  -3.237  56.722  1.00  0.00     0.000 C 
BRANCH   7   8
ATOM      8  C   UNL     1      23.708  -3.237  58.102  1.00  0.00    -0.000 C 
BRANCH   8   9
ATOM      9  C   UNL     1      22.291  -2.657  58.021  1.00  0.00    -0.003 C 
ATOM     10  C   UNL     1      21.268  -3.743  57.702  1.00  0.00     0.004 C 
ENDBRANCH   8   9
ENDBRANCH   7   8
ENDBRANCH   1   7
TORSDOF 6
ENDMDL
MODEL 9
REMARK VINA RESULT:    -3.273     14.339     15.799
REMARK INTER + INTRA:          -4.767
REMARK INTER:                  -4.118
REMARK INTRA:                  -0.649
REMARK UNBOUND:                -0.347
REMARK SMILES CCCCCCCC(=O)[O-]
REMARK SMILES IDX 5 1 6 2 7 3 8 4 9 5 10 6 4 7 3 8 2 9 1 10
REMARK H PARENT
REMARK Flexibility Score: inf
ROOT
ATOM      1  C   UNL     1      23.784  -3.280  57.904  1.00  0.00     0.000 C 
ENDROOT
BRANCH   1   2
ATOM      2  C   UNL     1      24.357  -2.736  56.583  1.00  0.00     0.006 C 
BRANCH   2   3
ATOM      3  C   UNL     1      24.056  -3.662  55.398  1.00  0.00     0.053 C 
BRANCH   3   4
ATOM      4  C   UNL     1      23.105  -3.030  54.428  1.00  0.00     0.041 C 
ATOM      5  O   UNL     1      23.187  -1.800  54.170  1.00  0.00    -0.550 OA
ATOM      6  O   UNL     1      22.151  -3.806  53.784  1.00  0.00    -0.550 OA
ENDBRANCH   3   4
ENDBRANCH   2   3
ENDBRANCH   1   2
BRANCH   1   7
ATOM      7  C   UNL     1      22.298  -2.936  58.090  1.00  0.00     0.000 C 
BRANCH   7   8
ATOM      8  C   UNL     1      22.016  -1.432  57.954  1.00  0.00    -0.000 C 
BRANCH   8   9
ATOM      9  C   UNL     1      20.939  -1.170  56.895  1.00  0.00    -0.003 C 
ATOM     10  C   UNL     1      20.146  -2.438  56.589  1.00  0.00     0.004 C 
ENDBRANCH   8   9
ENDBRANCH   7   8
ENDBRANCH   1   7
TORSDOF 6
ENDMDL
