MODEL 1
REMARK VINA RESULT:    -3.498      0.000      0.000
REMARK INTER + INTRA:          -7.385
REMARK INTER:                  -6.156
REMARK INTRA:                  -1.229
REMARK UNBOUND:                -1.229
REMARK SMILES CCCCCCCCCCCCCCC(=O)[O-]
REMARK SMILES IDX 9 1 10 2 11 3 12 4 13 5 14 6 15 7 16 8 17 9 8 10 7 11 6 12
REMARK SMILES IDX 5 13 4 14 3 15 2 16 1 17
REMARK H PARENT
REMARK Flexibility Score: inf
ROOT
ATOM      1  C   UNL     1       4.633  68.450  23.113  1.00  0.00     0.000 C 
ENDROOT
BRANCH   1   2
ATOM      2  C   UNL     1       3.107  68.608  22.990  1.00  0.00     0.000 C 
BRANCH   2   3
ATOM      3  C   UNL     1       2.667  69.013  21.573  1.00  0.00     0.000 C 
BRANCH   3   4
ATOM      4  C   UNL     1       3.845  69.447  20.687  1.00  0.00     0.000 C 
BRANCH   4   5
ATOM      5  C   UNL     1       3.360  69.831  19.281  1.00  0.00     0.006 C 
BRANCH   5   6
ATOM      6  C   UNL     1       3.162  71.345  19.128  1.00  0.00     0.053 C 
BRANCH   6   7
ATOM      7  C   UNL     1       1.713  71.710  19.029  1.00  0.00     0.041 C 
ATOM      8  O   UNL     1       0.878  70.876  18.591  1.00  0.00    -0.550 OA
ATOM      9  O   UNL     1       1.279  72.961  19.453  1.00  0.00    -0.550 OA
ENDBRANCH   6   7
ENDBRANCH   5   6
ENDBRANCH   4   5
ENDBRANCH   3   4
ENDBRANCH   2   3
ENDBRANCH   1   2
BRANCH   1  10
ATOM     10  C   UNL     1       5.294  69.656  23.801  1.00  0.00     0.000 C 
BRANCH  10  11
ATOM     11  C   UNL     1       6.830  69.605  23.729  1.00  0.00    -0.000 C 
BRANCH  11  12
ATOM     12  C   UNL     1       7.396  68.189  23.946  1.00  0.00    -0.000 C 
BRANCH  12  13
ATOM     13  C   UNL     1       8.780  67.932  23.323  1.00  0.00    -0.000 C 
BRANCH  13  14
ATOM     14  C   UNL     1       8.712  67.087  22.039  1.00  0.00    -0.000 C 
BRANCH  14  15
ATOM     15  C   UNL     1       7.369  66.352  21.888  1.00  0.00    -0.000 C 
BRANCH  15  16
ATOM     16  C   UNL     1       7.031  66.032  20.424  1.00  0.00    -0.003 C 
ATOM     17  C   UNL     1       5.526  66.101  20.182  1.00  0.00     0.004 C 
ENDBRANCH  15  16
ENDBRANCH  14  15
ENDBRANCH  13  14
ENDBRANCH  12  13
ENDBRANCH  11  12
ENDBRANCH  10  11
ENDBRANCH   1  10
TORSDOF 13
ENDMDL
MODEL 2
REMARK VINA RESULT:    -3.400      9.294     11.925
REMARK INTER + INTRA:          -7.214
REMARK INTER:                  -5.758
REMARK INTRA:                  -1.455
REMARK UNBOUND:                -1.229
REMARK SMILES CCCCCCCCCCCCCCC(=O)[O-]
REMARK SMILES IDX 9 1 10 2 11 3 12 4 13 5 14 6 15 7 16 8 17 9 8 10 7 11 6 12
REMARK SMILES IDX 5 13 4 14 3 15 2 16 1 17
REMARK H PARENT
REMARK Flexibility Score: inf
ROOT
ATOM      1  C   UNL     1       3.135  67.544  12.952  1.00  0.00     0.000 C 
ENDROOT
BRANCH   1   2
ATOM      2  C   UNL     1       4.247  67.155  13.941  1.00  0.00     0.000 C 
BRANCH   2   3
ATOM      3  C   UNL     1       3.834  66.006  14.875  1.00  0.00     0.000 C 
BRANCH   3   4
ATOM      4  C   UNL     1       2.309  65.884  15.027  1.00  0.00     0.000 C 
BRANCH   4   5
ATOM      5  C   UNL     1       1.847  64.442  14.766  1.00  0.00     0.006 C 
BRANCH   5   6
ATOM      6  C   UNL     1       3.018  63.507  14.438  1.00  0.00     0.053 C 
BRANCH   6   7
ATOM      7  C   UNL     1       3.172  62.426  15.464  1.00  0.00     0.041 C 
ATOM      8  O   UNL     1       2.421  62.399  16.473  1.00  0.00    -0.550 OA
ATOM      9  O   UNL     1       4.124  61.428  15.287  1.00  0.00    -0.550 OA
ENDBRANCH   6   7
ENDBRANCH   5   6
ENDBRANCH   4   5
ENDBRANCH   3   4
ENDBRANCH   2   3
ENDBRANCH   1   2
BRANCH   1  10
ATOM     10  C   UNL     1       3.347  66.931  11.558  1.00  0.00     0.000 C 
BRANCH  10  11
ATOM     11  C   UNL     1       2.460  65.697  11.316  1.00  0.00    -0.000 C 
BRANCH  11  12
ATOM     12  C   UNL     1       1.290  65.977  10.355  1.00  0.00    -0.000 C 
BRANCH  12  13
ATOM     13  C   UNL     1       1.601  65.761   8.862  1.00  0.00    -0.000 C 
BRANCH  13  14
ATOM     14  C   UNL     1       0.702  64.697   8.210  1.00  0.00    -0.000 C 
BRANCH  14  15
ATOM     15  C   UNL     1       1.483  63.440   7.793  1.00  0.00    -0.000 C 
BRANCH  15  16
ATOM     16  C   UNL     1       2.936  63.453   8.293  1.00  0.00    -0.003 C 
ATOM     17  C   UNL     1       3.133  62.455   9.431  1.00  0.00     0.004 C 
ENDBRANCH  15  16
ENDBRANCH  14  15
ENDBRANCH  13  14
ENDBRANCH  12  13
ENDBRANCH  11  12
ENDBRANCH  10  11
ENDBRANCH   1  10
TORSDOF 13
ENDMDL
MODEL 3
REMARK VINA RESULT:    -3.309      4.965      8.710
REMARK INTER + INTRA:          -7.052
REMARK INTER:                  -5.456
REMARK INTRA:                  -1.597
REMARK UNBOUND:                -1.229
REMARK SMILES CCCCCCCCCCCCCCC(=O)[O-]
REMARK SMILES IDX 9 1 10 2 11 3 12 4 13 5 14 6 15 7 16 8 17 9 8 10 7 11 6 12
REMARK SMILES IDX 5 13 4 14 3 15 2 16 1 17
REMARK H PARENT
REMARK Flexibility Score: inf
ROOT
ATOM      1  C   UNL     1       1.680  68.549  14.914  1.00  0.00     0.000 C 
ENDROOT
BRANCH   1   2
ATOM      2  C   UNL     1       3.043  69.045  15.430  1.00  0.00     0.000 C 
BRANCH   2   3
ATOM      3  C   UNL     1       2.907  70.066  16.572  1.00  0.00     0.000 C 
BRANCH   3   4
ATOM      4  C   UNL     1       2.829  69.401  17.955  1.00  0.00     0.000 C 
BRANCH   4   5
ATOM      5  C   UNL     1       2.554  70.444  19.049  1.00  0.00     0.006 C 
BRANCH   5   6
ATOM      6  C   UNL     1       3.349  71.738  18.831  1.00  0.00     0.053 C 
BRANCH   6   7
ATOM      7  C   UNL     1       2.452  72.931  18.714  1.00  0.00     0.041 C 
ATOM      8  O   UNL     1       1.350  72.957  19.323  1.00  0.00    -0.550 OA
ATOM      9  O   UNL     1       2.848  74.031  17.961  1.00  0.00    -0.550 OA
ENDBRANCH   6   7
ENDBRANCH   5   6
ENDBRANCH   4   5
ENDBRANCH   3   4
ENDBRANCH   2   3
ENDBRANCH   1   2
BRANCH   1  10
ATOM     10  C   UNL     1       1.576  68.606  13.381  1.00  0.00     0.000 C 
BRANCH  10  11
ATOM     11  C   UNL     1       0.227  69.169  12.903  1.00  0.00    -0.000 C 
BRANCH  11  12
ATOM     12  C   UNL     1       0.314  70.639  12.453  1.00  0.00    -0.000 C 
BRANCH  12  13
ATOM     13  C   UNL     1       1.661  71.057  11.833  1.00  0.00    -0.000 C 
BRANCH  13  14
ATOM     14  C   UNL     1       2.363  72.176  12.622  1.00  0.00    -0.000 C 
BRANCH  14  15
ATOM     15  C   UNL     1       3.798  71.801  13.026  1.00  0.00    -0.000 C 
BRANCH  15  16
ATOM     16  C   UNL     1       4.402  70.713  12.125  1.00  0.00    -0.003 C 
ATOM     17  C   UNL     1       5.514  69.957  12.848  1.00  0.00     0.004 C 
ENDBRANCH  15  16
ENDBRANCH  14  15
ENDBRANCH  13  14
ENDBRANCH  12  13
ENDBRANCH  11  12
ENDBRANCH  10  11
ENDBRANCH   1  10
TORSDOF 13
ENDMDL
MODEL 4
REMARK VINA RESULT:    -3.307      6.048      8.592
REMARK INTER + INTRA:          -7.049
REMARK INTER:                  -5.570
REMARK INTRA:                  -1.479
REMARK UNBOUND:                -1.229
REMARK SMILES CCCCCCCCCCCCCCC(=O)[O-]
REMARK SMILES IDX 9 1 10 2 11 3 12 4 13 5 14 6 15 7 16 8 17 9 8 10 7 11 6 12
REMARK SMILES IDX 5 13 4 14 3 15 2 16 1 17
REMARK H PARENT
REMARK Flexibility Score: inf
ROOT
ATOM      1  C   UNL     1       1.848  67.927  13.339  1.00  0.00     0.000 C 
ENDROOT
BRANCH   1   2
ATOM      2  C   UNL     1       0.790  68.967  13.747  1.00  0.00     0.000 C 
BRANCH   2   3
ATOM      3  C   UNL     1       1.095  70.370  13.196  1.00  0.00     0.000 C 
BRANCH   3   4
ATOM      4  C   UNL     1       2.372  70.407  12.343  1.00  0.00     0.000 C 
BRANCH   4   5
ATOM      5  C   UNL     1       3.393  71.394  12.928  1.00  0.00     0.006 C 
BRANCH   5   6
ATOM      6  C   UNL     1       4.193  72.119  11.836  1.00  0.00     0.053 C 
BRANCH   6   7
ATOM      7  C   UNL     1       3.653  73.490  11.568  1.00  0.00     0.041 C 
ATOM      8  O   UNL     1       4.379  74.503  11.744  1.00  0.00    -0.550 OA
ATOM      9  O   UNL     1       2.357  73.647  11.091  1.00  0.00    -0.550 OA
ENDBRANCH   6   7
ENDBRANCH   5   6
ENDBRANCH   4   5
ENDBRANCH   3   4
ENDBRANCH   2   3
ENDBRANCH   1   2
BRANCH   1  10
ATOM     10  C   UNL     1       2.595  67.343  14.550  1.00  0.00     0.000 C 
BRANCH  10  11
ATOM     11  C   UNL     1       3.617  68.327  15.142  1.00  0.00    -0.000 C 
BRANCH  11  12
ATOM     12  C   UNL     1       3.255  68.784  16.569  1.00  0.00    -0.000 C 
BRANCH  12  13
ATOM     13  C   UNL     1       2.699  70.216  16.678  1.00  0.00    -0.000 C 
BRANCH  13  14
ATOM     14  C   UNL     1       1.524  70.328  17.665  1.00  0.00    -0.000 C 
BRANCH  14  15
ATOM     15  C   UNL     1       1.786  71.358  18.777  1.00  0.00    -0.000 C 
BRANCH  15  16
ATOM     16  C   UNL     1       3.147  72.054  18.631  1.00  0.00    -0.003 C 
ATOM     17  C   UNL     1       2.982  73.474  18.095  1.00  0.00     0.004 C 
ENDBRANCH  15  16
ENDBRANCH  14  15
ENDBRANCH  13  14
ENDBRANCH  12  13
ENDBRANCH  11  12
ENDBRANCH  10  11
ENDBRANCH   1  10
TORSDOF 13
ENDMDL
MODEL 5
REMARK VINA RESULT:    -3.291      8.930     11.037
REMARK INTER + INTRA:          -7.022
REMARK INTER:                  -5.093
REMARK INTRA:                  -1.928
REMARK UNBOUND:                -1.229
REMARK SMILES CCCCCCCCCCCCCCC(=O)[O-]
REMARK SMILES IDX 9 1 10 2 11 3 12 4 13 5 14 6 15 7 16 8 17 9 8 10 7 11 6 12
REMARK SMILES IDX 5 13 4 14 3 15 2 16 1 17
REMARK H PARENT
REMARK Flexibility Score: inf
ROOT
ATOM      1  C   UNL     1       1.181  66.594  13.131  1.00  0.00     0.000 C 
ENDROOT
BRANCH   1   2
ATOM      2  C   UNL     1       2.392  67.265  12.459  1.00  0.00     0.000 C 
BRANCH   2   3
ATOM      3  C   UNL     1       2.962  66.431  11.300  1.00  0.00     0.000 C 
BRANCH   3   4
ATOM      4  C   UNL     1       1.974  65.370  10.789  1.00  0.00     0.000 C 
BRANCH   4   5
ATOM      5  C   UNL     1       2.012  65.281   9.256  1.00  0.00     0.006 C 
BRANCH   5   6
ATOM      6  C   UNL     1       2.951  64.172   8.762  1.00  0.00     0.053 C 
BRANCH   6   7
ATOM      7  C   UNL     1       2.211  62.900   8.484  1.00  0.00     0.041 C 
ATOM      8  O   UNL     1       1.238  62.894   7.686  1.00  0.00    -0.550 OA
ATOM      9  O   UNL     1       2.621  61.712   9.079  1.00  0.00    -0.550 OA
ENDBRANCH   6   7
ENDBRANCH   5   6
ENDBRANCH   4   5
ENDBRANCH   3   4
ENDBRANCH   2   3
ENDBRANCH   1   2
BRANCH   1  10
ATOM     10  C   UNL     1       1.078  66.932  14.628  1.00  0.00     0.000 C 
BRANCH  10  11
ATOM     11  C   UNL     1       0.746  65.700  15.488  1.00  0.00    -0.000 C 
BRANCH  11  12
ATOM     12  C   UNL     1       0.796  64.381  14.694  1.00  0.00    -0.000 C 
BRANCH  12  13
ATOM     13  C   UNL     1       1.910  63.404  15.114  1.00  0.00    -0.000 C 
BRANCH  13  14
ATOM     14  C   UNL     1       3.224  63.626  14.345  1.00  0.00    -0.000 C 
BRANCH  14  15
ATOM     15  C   UNL     1       4.320  64.255  15.221  1.00  0.00    -0.000 C 
BRANCH  15  16
ATOM     16  C   UNL     1       4.592  65.724  14.864  1.00  0.00    -0.003 C 
ATOM     17  C   UNL     1       4.506  66.614  16.101  1.00  0.00     0.004 C 
ENDBRANCH  15  16
ENDBRANCH  14  15
ENDBRANCH  13  14
ENDBRANCH  12  13
ENDBRANCH  11  12
ENDBRANCH  10  11
ENDBRANCH   1  10
TORSDOF 13
ENDMDL
MODEL 6
REMARK VINA RESULT:    -3.218      4.697      6.938
REMARK INTER + INTRA:          -6.892
REMARK INTER:                  -5.206
REMARK INTRA:                  -1.687
REMARK UNBOUND:                -1.229
REMARK SMILES CCCCCCCCCCCCCCC(=O)[O-]
REMARK SMILES IDX 9 1 10 2 11 3 12 4 13 5 14 6 15 7 16 8 17 9 8 10 7 11 6 12
REMARK SMILES IDX 5 13 4 14 3 15 2 16 1 17
REMARK H PARENT
REMARK Flexibility Score: inf
ROOT
ATOM      1  C   UNL     1       1.932  66.284  15.890  1.00  0.00     0.000 C 
ENDROOT
BRANCH   1   2
ATOM      2  C   UNL     1       3.311  66.609  15.289  1.00  0.00     0.000 C 
BRANCH   2   3
ATOM      3  C   UNL     1       3.822  68.000  15.702  1.00  0.00     0.000 C 
BRANCH   3   4
ATOM      4  C   UNL     1       3.148  68.525  16.979  1.00  0.00     0.000 C 
BRANCH   4   5
ATOM      5  C   UNL     1       2.704  69.985  16.802  1.00  0.00     0.006 C 
BRANCH   5   6
ATOM      6  C   UNL     1       1.662  70.406  17.848  1.00  0.00     0.053 C 
BRANCH   6   7
ATOM      7  C   UNL     1       2.152  71.540  18.696  1.00  0.00     0.041 C 
ATOM      8  O   UNL     1       1.332  72.277  19.303  1.00  0.00    -0.550 OA
ATOM      9  O   UNL     1       3.516  71.761  18.843  1.00  0.00    -0.550 OA
ENDBRANCH   6   7
ENDBRANCH   5   6
ENDBRANCH   4   5
ENDBRANCH   3   4
ENDBRANCH   2   3
ENDBRANCH   1   2
BRANCH   1  10
ATOM     10  C   UNL     1       1.240  65.112  15.174  1.00  0.00     0.000 C 
BRANCH  10  11
ATOM     11  C   UNL     1       2.245  64.105  14.587  1.00  0.00    -0.000 C 
BRANCH  11  12
ATOM     12  C   UNL     1       2.346  62.808  15.412  1.00  0.00    -0.000 C 
BRANCH  12  13
ATOM     13  C   UNL     1       3.752  62.185  15.486  1.00  0.00    -0.000 C 
BRANCH  13  14
ATOM     14  C   UNL     1       4.481  62.506  16.803  1.00  0.00    -0.000 C 
BRANCH  14  15
ATOM     15  C   UNL     1       5.305  63.802  16.720  1.00  0.00    -0.000 C 
BRANCH  15  16
ATOM     16  C   UNL     1       5.059  64.737  17.913  1.00  0.00    -0.003 C 
ATOM     17  C   UNL     1       3.704  64.458  18.558  1.00  0.00     0.004 C 
ENDBRANCH  15  16
ENDBRANCH  14  15
ENDBRANCH  13  14
ENDBRANCH  12  13
ENDBRANCH  11  12
ENDBRANCH  10  11
ENDBRANCH   1  10
TORSDOF 13
ENDMDL
MODEL 7
REMARK VINA RESULT:    -3.193     13.747     15.815
REMARK INTER + INTRA:          -6.849
REMARK INTER:                  -5.091
REMARK INTRA:                  -1.758
REMARK UNBOUND:                -1.229
REMARK SMILES CCCCCCCCCCCCCCC(=O)[O-]
REMARK SMILES IDX 9 1 10 2 11 3 12 4 13 5 14 6 15 7 16 8 17 9 8 10 7 11 6 12
REMARK SMILES IDX 5 13 4 14 3 15 2 16 1 17
REMARK H PARENT
REMARK Flexibility Score: inf
ROOT
ATOM      1  C   UNL     1       4.514  66.229   4.761  1.00  0.00     0.000 C 
ENDROOT
BRANCH   1   2
ATOM      2  C   UNL     1       3.290  67.069   4.356  1.00  0.00     0.000 C 
BRANCH   2   3
ATOM      3  C   UNL     1       2.141  66.969   5.373  1.00  0.00     0.000 C 
BRANCH   3   4
ATOM      4  C   UNL     1       2.460  66.019   6.537  1.00  0.00     0.000 C 
BRANCH   4   5
ATOM      5  C   UNL     1       1.187  65.672   7.324  1.00  0.00     0.006 C 
BRANCH   5   6
ATOM      6  C   UNL     1       1.485  64.818   8.564  1.00  0.00     0.053 C 
BRANCH   6   7
ATOM      7  C   UNL     1       1.756  63.390   8.205  1.00  0.00     0.041 C 
ATOM      8  O   UNL     1       2.784  62.810   8.641  1.00  0.00    -0.550 OA
ATOM      9  O   UNL     1       0.852  62.686   7.417  1.00  0.00    -0.550 OA
ENDBRANCH   6   7
ENDBRANCH   5   6
ENDBRANCH   4   5
ENDBRANCH   3   4
ENDBRANCH   2   3
ENDBRANCH   1   2
BRANCH   1  10
ATOM     10  C   UNL     1       5.829  67.019   4.659  1.00  0.00     0.000 C 
BRANCH  10  11
ATOM     11  C   UNL     1       5.619  68.535   4.810  1.00  0.00    -0.000 C 
BRANCH  11  12
ATOM     12  C   UNL     1       6.452  69.146   5.953  1.00  0.00    -0.000 C 
BRANCH  12  13
ATOM     13  C   UNL     1       5.642  69.884   7.035  1.00  0.00    -0.000 C 
BRANCH  13  14
ATOM     14  C   UNL     1       4.355  69.140   7.432  1.00  0.00    -0.000 C 
BRANCH  14  15
ATOM     15  C   UNL     1       3.096  70.003   7.252  1.00  0.00    -0.000 C 
BRANCH  15  16
ATOM     16  C   UNL     1       2.335  70.223   8.568  1.00  0.00    -0.003 C 
ATOM     17  C   UNL     1       1.480  69.007   8.916  1.00  0.00     0.004 C 
ENDBRANCH  15  16
ENDBRANCH  14  15
ENDBRANCH  13  14
ENDBRANCH  12  13
ENDBRANCH  11  12
ENDBRANCH  10  11
ENDBRANCH   1  10
TORSDOF 13
ENDMDL
MODEL 8
REMARK VINA RESULT:    -3.176      1.706      2.184
REMARK INTER + INTRA:          -6.820
REMARK INTER:                  -5.581
REMARK INTRA:                  -1.238
REMARK UNBOUND:                -1.229
REMARK SMILES CCCCCCCCCCCCCCC(=O)[O-]
REMARK SMILES IDX 9 1 10 2 11 3 12 4 13 5 14 6 15 7 16 8 17 9 8 10 7 11 6 12
REMARK SMILES IDX 5 13 4 14 3 15 2 16 1 17
REMARK H PARENT
REMARK Flexibility Score: inf
ROOT
ATOM      1  C   UNL     1       3.917  68.806  22.428  1.00  0.00     0.000 C 
ENDROOT
BRANCH   1   2
ATOM      2  C   UNL     1       3.095  68.324  21.219  1.00  0.00     0.000 C 
BRANCH   2   3
ATOM      3  C   UNL     1       1.957  69.292  20.854  1.00  0.00     0.000 C 
BRANCH   3   4
ATOM      4  C   UNL     1       1.205  68.870  19.582  1.00  0.00     0.000 C 
BRANCH   4   5
ATOM      5  C   UNL     1       0.611  70.093  18.867  1.00  0.00     0.006 C 
BRANCH   5   6
ATOM      6  C   UNL     1       1.639  70.797  17.970  1.00  0.00     0.053 C 
BRANCH   6   7
ATOM      7  C   UNL     1       2.283  71.957  18.666  1.00  0.00     0.041 C 
ATOM      8  O   UNL     1       1.585  72.929  19.056  1.00  0.00    -0.550 OA
ATOM      9  O   UNL     1       3.651  71.948  18.914  1.00  0.00    -0.550 OA
ENDBRANCH   6   7
ENDBRANCH   5   6
ENDBRANCH   4   5
ENDBRANCH   3   4
ENDBRANCH   2   3
ENDBRANCH   1   2
BRANCH   1  10
ATOM     10  C   UNL     1       5.340  69.238  22.037  1.00  0.00     0.000 C 
BRANCH  10  11
ATOM     11  C   UNL     1       6.323  69.164  23.218  1.00  0.00    -0.000 C 
BRANCH  11  12
ATOM     12  C   UNL     1       7.312  67.989  23.103  1.00  0.00    -0.000 C 
BRANCH  12  13
ATOM     13  C   UNL     1       7.315  67.263  21.745  1.00  0.00    -0.000 C 
BRANCH  13  14
ATOM     14  C   UNL     1       6.688  65.860  21.813  1.00  0.00    -0.000 C 
BRANCH  14  15
ATOM     15  C   UNL     1       6.744  65.258  23.227  1.00  0.00    -0.000 C 
BRANCH  15  16
ATOM     16  C   UNL     1       5.371  64.780  23.722  1.00  0.00    -0.003 C 
ATOM     17  C   UNL     1       4.283  65.077  22.692  1.00  0.00     0.004 C 
ENDBRANCH  15  16
ENDBRANCH  14  15
ENDBRANCH  13  14
ENDBRANCH  12  13
ENDBRANCH  11  12
ENDBRANCH  10  11
ENDBRANCH   1  10
TORSDOF 13
ENDMDL
MODEL 9
REMARK VINA RESULT:    -3.133      9.882     12.225
REMARK INTER + INTRA:          -6.744
REMARK INTER:                  -4.876
REMARK INTRA:                  -1.868
REMARK UNBOUND:                -1.229
REMARK SMILES CCCCCCCCCCCCCCC(=O)[O-]
REMARK SMILES IDX 9 1 10 2 11 3 12 4 13 5 14 6 15 7 16 8 17 9 8 10 7 11 6 12
REMARK SMILES IDX 5 13 4 14 3 15 2 16 1 17
REMARK H PARENT
REMARK Flexibility Score: inf
ROOT
ATOM      1  C   UNL     1       4.079  67.513  12.402  1.00  0.00     0.000 C 
ENDROOT
BRANCH   1   2
ATOM      2  C   UNL     1       3.173  66.939  11.299  1.00  0.00     0.000 C 
BRANCH   2   3
ATOM      3  C   UNL     1       3.281  67.720   9.978  1.00  0.00     0.000 C 
BRANCH   3   4
ATOM      4  C   UNL     1       2.510  67.052   8.829  1.00  0.00     0.000 C 
BRANCH   4   5
ATOM      5  C   UNL     1       2.158  65.598   9.179  1.00  0.00     0.006 C 
BRANCH   5   6
ATOM      6  C   UNL     1       2.793  64.596   8.206  1.00  0.00     0.053 C 
BRANCH   6   7
ATOM      7  C   UNL     1       2.337  63.194   8.473  1.00  0.00     0.041 C 
ATOM      8  O   UNL     1       1.332  62.730   7.874  1.00  0.00    -0.550 OA
ATOM      9  O   UNL     1       3.043  62.388   9.359  1.00  0.00    -0.550 OA
ENDBRANCH   6   7
ENDBRANCH   5   6
ENDBRANCH   4   5
ENDBRANCH   3   4
ENDBRANCH   2   3
ENDBRANCH   1   2
BRANCH   1  10
ATOM     10  C   UNL     1       5.147  68.470  11.847  1.00  0.00     0.000 C 
BRANCH  10  11
ATOM     11  C   UNL     1       5.439  69.642  12.800  1.00  0.00    -0.000 C 
BRANCH  11  12
ATOM     12  C   UNL     1       4.178  70.445  13.170  1.00  0.00    -0.000 C 
BRANCH  12  13
ATOM     13  C   UNL     1       3.798  71.563  12.182  1.00  0.00    -0.000 C 
BRANCH  13  14
ATOM     14  C   UNL     1       2.610  71.188  11.280  1.00  0.00    -0.000 C 
BRANCH  14  15
ATOM     15  C   UNL     1       1.565  70.328  12.009  1.00  0.00    -0.000 C 
BRANCH  15  16
ATOM     16  C   UNL     1       0.486  69.779  11.064  1.00  0.00    -0.003 C 
ATOM     17  C   UNL     1      -0.150  68.514  11.634  1.00  0.00     0.004 C 
ENDBRANCH  15  16
ENDBRANCH  14  15
ENDBRANCH  13  14
ENDBRANCH  12  13
ENDBRANCH  11  12
ENDBRANCH  10  11
ENDBRANCH   1  10
TORSDOF 13
ENDMDL
