MODEL 1
REMARK VINA RESULT:    -4.630      0.000      0.000
REMARK INTER + INTRA:          -5.607
REMARK INTER:                  -5.442
REMARK INTRA:                  -0.165
REMARK UNBOUND:                -0.165
REMARK SMILES COc1ccc(C=CC(=O)[O-])cc1
REMARK SMILES IDX 6 1 5 2 12 3 4 4 13 5 3 6 7 7 8 8 9 9 10 10 11 11 2 12 1 13
REMARK H PARENT
REMARK Flexibility Score: inf
ROOT
ATOM      1  C   UNL     1      11.304  -9.742  26.721  1.00  0.00    -0.025 A 
ATOM      2  C   UNL     1      10.653  -9.309  27.887  1.00  0.00     0.012 A 
ATOM      3  C   UNL     1      11.148  -8.994  25.537  1.00  0.00     0.012 A 
ATOM      4  C   UNL     1       9.882  -8.143  27.882  1.00  0.00     0.047 A 
ATOM      5  C   UNL     1      10.375  -7.827  25.535  1.00  0.00     0.047 A 
ATOM      6  C   UNL     1       9.740  -7.390  26.702  1.00  0.00     0.118 A 
ENDROOT
BRANCH   1   7
ATOM      7  C   UNL     1      12.102 -10.992  26.776  1.00  0.00     0.010 C 
ATOM      8  C   UNL     1      12.055 -11.947  25.836  1.00  0.00     0.025 C 
BRANCH   8   9
ATOM      9  C   UNL     1      12.873 -13.167  25.927  1.00  0.00     0.064 C 
ATOM     10  O   UNL     1      12.441 -14.158  26.572  1.00  0.00    -0.545 OA
ATOM     11  O   UNL     1      14.118 -13.244  25.313  1.00  0.00    -0.545 OA
ENDBRANCH   8   9
ENDBRANCH   1   7
BRANCH   6  12
ATOM     12  O   UNL     1       8.979  -6.214  26.645  1.00  0.00    -0.497 OA
ATOM     13  C   UNL     1       8.642  -5.531  25.441  1.00  0.00     0.278 C 
ENDBRANCH   6  12
TORSDOF 3
ENDMDL
MODEL 2
REMARK VINA RESULT:    -4.624      1.109      6.197
REMARK INTER + INTRA:          -5.600
REMARK INTER:                  -5.438
REMARK INTRA:                  -0.162
REMARK UNBOUND:                -0.165
REMARK SMILES COc1ccc(C=CC(=O)[O-])cc1
REMARK SMILES IDX 6 1 5 2 12 3 4 4 13 5 3 6 7 7 8 8 9 9 10 10 11 11 2 12 1 13
REMARK H PARENT
REMARK Flexibility Score: inf
ROOT
ATOM      1  C   UNL     1      10.833  -9.149  26.102  1.00  0.00    -0.025 A 
ATOM      2  C   UNL     1      11.125  -9.912  27.243  1.00  0.00     0.012 A 
ATOM      3  C   UNL     1      11.310  -9.587  24.851  1.00  0.00     0.012 A 
ATOM      4  C   UNL     1      11.855 -11.101  27.140  1.00  0.00     0.047 A 
ATOM      5  C   UNL     1      12.040 -10.776  24.750  1.00  0.00     0.047 A 
ATOM      6  C   UNL     1      12.316 -11.543  25.886  1.00  0.00     0.118 A 
ENDROOT
BRANCH   1   7
ATOM      7  C   UNL     1      10.065  -7.890  26.268  1.00  0.00     0.010 C 
ATOM      8  C   UNL     1       9.788  -7.048  25.261  1.00  0.00     0.025 C 
BRANCH   8   9
ATOM      9  C   UNL     1       9.013  -5.815  25.470  1.00  0.00     0.064 C 
ATOM     10  O   UNL     1       7.927  -5.866  26.105  1.00  0.00    -0.545 OA
ATOM     11  O   UNL     1       9.459  -4.594  24.978  1.00  0.00    -0.545 OA
ENDBRANCH   8   9
ENDBRANCH   1   7
BRANCH   6  12
ATOM     12  O   UNL     1      13.050 -12.727  25.729  1.00  0.00    -0.497 OA
ATOM     13  C   UNL     1      12.610 -14.010  26.164  1.00  0.00     0.278 C 
ENDBRANCH   6  12
TORSDOF 3
ENDMDL
MODEL 3
REMARK VINA RESULT:    -4.580      0.282      1.370
REMARK INTER + INTRA:          -5.549
REMARK INTER:                  -5.380
REMARK INTRA:                  -0.168
REMARK UNBOUND:                -0.165
REMARK SMILES COc1ccc(C=CC(=O)[O-])cc1
REMARK SMILES IDX 6 1 5 2 12 3 4 4 13 5 3 6 7 7 8 8 9 9 10 10 11 11 2 12 1 13
REMARK H PARENT
REMARK Flexibility Score: inf
ROOT
ATOM      1  C   UNL     1      11.351  -9.911  26.707  1.00  0.00    -0.025 A 
ATOM      2  C   UNL     1      11.309  -9.205  25.495  1.00  0.00     0.012 A 
ATOM      3  C   UNL     1      10.675  -9.381  27.825  1.00  0.00     0.012 A 
ATOM      4  C   UNL     1      10.590  -8.010  25.389  1.00  0.00     0.047 A 
ATOM      5  C   UNL     1       9.958  -8.185  27.717  1.00  0.00     0.047 A 
ATOM      6  C   UNL     1       9.905  -7.492  26.503  1.00  0.00     0.118 A 
ENDROOT
BRANCH   1   7
ATOM      7  C   UNL     1      12.136 -11.168  26.771  1.00  0.00     0.010 C 
ATOM      8  C   UNL     1      12.081 -12.129  25.837  1.00  0.00     0.025 C 
BRANCH   8   9
ATOM      9  C   UNL     1      12.888 -13.355  25.936  1.00  0.00     0.064 C 
ATOM     10  O   UNL     1      12.484 -14.308  26.653  1.00  0.00    -0.545 OA
ATOM     11  O   UNL     1      14.091 -13.480  25.251  1.00  0.00    -0.545 OA
ENDBRANCH   8   9
ENDBRANCH   1   7
BRANCH   6  12
ATOM     12  O   UNL     1       9.170  -6.300  26.448  1.00  0.00    -0.497 OA
ATOM     13  C   UNL     1       9.273  -5.339  25.402  1.00  0.00     0.278 C 
ENDBRANCH   6  12
TORSDOF 3
ENDMDL
MODEL 4
REMARK VINA RESULT:    -4.557      4.114      7.188
REMARK INTER + INTRA:          -5.521
REMARK INTER:                  -5.345
REMARK INTRA:                  -0.176
REMARK UNBOUND:                -0.165
REMARK SMILES COc1ccc(C=CC(=O)[O-])cc1
REMARK SMILES IDX 6 1 5 2 12 3 4 4 13 5 3 6 7 7 8 8 9 9 10 10 11 11 2 12 1 13
REMARK H PARENT
REMARK Flexibility Score: inf
ROOT
ATOM      1  C   UNL     1      11.678 -12.203  23.680  1.00  0.00    -0.025 A 
ATOM      2  C   UNL     1      11.962 -13.481  23.172  1.00  0.00     0.012 A 
ATOM      3  C   UNL     1      12.069 -11.894  24.999  1.00  0.00     0.012 A 
ATOM      4  C   UNL     1      12.642 -14.423  23.949  1.00  0.00     0.047 A 
ATOM      5  C   UNL     1      12.749 -12.839  25.774  1.00  0.00     0.047 A 
ATOM      6  C   UNL     1      13.044 -14.106  25.260  1.00  0.00     0.118 A 
ENDROOT
BRANCH   1   7
ATOM      7  C   UNL     1      10.944 -11.243  22.819  1.00  0.00     0.010 C 
ATOM      8  C   UNL     1      10.628 -11.483  21.538  1.00  0.00     0.025 C 
BRANCH   8   9
ATOM      9  C   UNL     1       9.889 -10.505  20.725  1.00  0.00     0.064 C 
ATOM     10  O   UNL     1      10.524  -9.657  20.044  1.00  0.00    -0.545 OA
ATOM     11  O   UNL     1       8.499 -10.499  20.696  1.00  0.00    -0.545 OA
ENDBRANCH   8   9
ENDBRANCH   1   7
BRANCH   6  12
ATOM     12  O   UNL     1      13.729 -15.015  26.079  1.00  0.00    -0.497 OA
ATOM     13  C   UNL     1      14.603 -16.031  25.597  1.00  0.00     0.278 C 
ENDBRANCH   6  12
TORSDOF 3
ENDMDL
MODEL 5
REMARK VINA RESULT:    -4.528      0.975      1.374
REMARK INTER + INTRA:          -5.487
REMARK INTER:                  -5.315
REMARK INTRA:                  -0.172
REMARK UNBOUND:                -0.165
REMARK SMILES COc1ccc(C=CC(=O)[O-])cc1
REMARK SMILES IDX 6 1 5 2 12 3 4 4 13 5 3 6 7 7 8 8 9 9 10 10 11 11 2 12 1 13
REMARK H PARENT
REMARK Flexibility Score: inf
ROOT
ATOM      1  C   UNL     1      11.812 -10.513  26.127  1.00  0.00    -0.025 A 
ATOM      2  C   UNL     1      11.371 -10.349  27.449  1.00  0.00     0.012 A 
ATOM      3  C   UNL     1      11.465  -9.539  25.169  1.00  0.00     0.012 A 
ATOM      4  C   UNL     1      10.622  -9.227  27.818  1.00  0.00     0.047 A 
ATOM      5  C   UNL     1      10.715  -8.418  25.540  1.00  0.00     0.047 A 
ATOM      6  C   UNL     1      10.290  -8.250  26.862  1.00  0.00     0.118 A 
ENDROOT
BRANCH   1   7
ATOM      7  C   UNL     1      12.595 -11.727  25.785  1.00  0.00     0.010 C 
ATOM      8  C   UNL     1      12.171 -12.977  26.020  1.00  0.00     0.025 C 
BRANCH   8   9
ATOM      9  C   UNL     1      12.977 -14.152  25.653  1.00  0.00     0.064 C 
ATOM     10  O   UNL     1      13.392 -14.275  24.470  1.00  0.00    -0.545 OA
ATOM     11  O   UNL     1      13.288 -15.130  26.589  1.00  0.00    -0.545 OA
ENDBRANCH   8   9
ENDBRANCH   1   7
BRANCH   6  12
ATOM     12  O   UNL     1       9.543  -7.107  27.181  1.00  0.00    -0.497 OA
ATOM     13  C   UNL     1       8.955  -6.236  26.219  1.00  0.00     0.278 C 
ENDBRANCH   6  12
TORSDOF 3
ENDMDL
MODEL 6
REMARK VINA RESULT:    -4.449      4.378      8.423
REMARK INTER + INTRA:          -5.394
REMARK INTER:                  -5.223
REMARK INTRA:                  -0.170
REMARK UNBOUND:                -0.165
REMARK SMILES COc1ccc(C=CC(=O)[O-])cc1
REMARK SMILES IDX 6 1 5 2 12 3 4 4 13 5 3 6 7 7 8 8 9 9 10 10 11 11 2 12 1 13
REMARK H PARENT
REMARK Flexibility Score: inf
ROOT
ATOM      1  C   UNL     1      11.581  -3.774  25.711  1.00  0.00    -0.025 A 
ATOM      2  C   UNL     1      10.353  -4.128  25.131  1.00  0.00     0.012 A 
ATOM      3  C   UNL     1      12.335  -4.768  26.366  1.00  0.00     0.012 A 
ATOM      4  C   UNL     1       9.894  -5.448  25.179  1.00  0.00     0.047 A 
ATOM      5  C   UNL     1      11.874  -6.088  26.413  1.00  0.00     0.047 A 
ATOM      6  C   UNL     1      10.657  -6.441  25.821  1.00  0.00     0.118 A 
ENDROOT
BRANCH   1   7
ATOM      7  C   UNL     1      12.017  -2.357  25.643  1.00  0.00     0.010 C 
ATOM      8  C   UNL     1      11.171  -1.316  25.650  1.00  0.00     0.025 C 
BRANCH   8   9
ATOM      9  C   UNL     1      11.650   0.074  25.591  1.00  0.00     0.064 C 
ATOM     10  O   UNL     1      11.108   0.884  24.794  1.00  0.00    -0.545 OA
ATOM     11  O   UNL     1      12.691   0.509  26.402  1.00  0.00    -0.545 OA
ENDBRANCH   8   9
ENDBRANCH   1   7
BRANCH   6  12
ATOM     12  O   UNL     1      10.242  -7.778  25.895  1.00  0.00    -0.497 OA
ATOM     13  C   UNL     1       9.971  -8.470  27.111  1.00  0.00     0.278 C 
ENDBRANCH   6  12
TORSDOF 3
ENDMDL
MODEL 7
REMARK VINA RESULT:    -4.445      3.714      4.485
REMARK INTER + INTRA:          -5.389
REMARK INTER:                  -5.215
REMARK INTRA:                  -0.174
REMARK UNBOUND:                -0.165
REMARK SMILES COc1ccc(C=CC(=O)[O-])cc1
REMARK SMILES IDX 6 1 5 2 12 3 4 4 13 5 3 6 7 7 8 8 9 9 10 10 11 11 2 12 1 13
REMARK H PARENT
REMARK Flexibility Score: inf
ROOT
ATOM      1  C   UNL     1       9.492  -8.711  28.792  1.00  0.00    -0.025 A 
ATOM      2  C   UNL     1       8.166  -8.252  28.754  1.00  0.00     0.012 A 
ATOM      3  C   UNL     1      10.419  -8.185  27.870  1.00  0.00     0.012 A 
ATOM      4  C   UNL     1       7.775  -7.271  27.837  1.00  0.00     0.047 A 
ATOM      5  C   UNL     1      10.026  -7.205  26.953  1.00  0.00     0.047 A 
ATOM      6  C   UNL     1       8.708  -6.738  26.928  1.00  0.00     0.118 A 
ENDROOT
BRANCH   1   7
ATOM      7  C   UNL     1       9.852  -9.760  29.777  1.00  0.00     0.010 C 
ATOM      8  C   UNL     1       9.437  -9.759  31.052  1.00  0.00     0.025 C 
BRANCH   8   9
ATOM      9  C   UNL     1       9.811 -10.828  31.992  1.00  0.00     0.064 C 
ATOM     10  O   UNL     1      10.105 -10.534  33.180  1.00  0.00    -0.545 OA
ATOM     11  O   UNL     1       9.845 -12.158  31.590  1.00  0.00    -0.545 OA
ENDBRANCH   8   9
ENDBRANCH   1   7
BRANCH   6  12
ATOM     12  O   UNL     1       8.367  -5.753  25.990  1.00  0.00    -0.497 OA
ATOM     13  C   UNL     1       9.309  -5.037  25.198  1.00  0.00     0.278 C 
ENDBRANCH   6  12
TORSDOF 3
ENDMDL
MODEL 8
REMARK VINA RESULT:    -4.428      4.408      6.355
REMARK INTER + INTRA:          -5.370
REMARK INTER:                  -5.197
REMARK INTRA:                  -0.173
REMARK UNBOUND:                -0.165
REMARK SMILES COc1ccc(C=CC(=O)[O-])cc1
REMARK SMILES IDX 6 1 5 2 12 3 4 4 13 5 3 6 7 7 8 8 9 9 10 10 11 11 2 12 1 13
REMARK H PARENT
REMARK Flexibility Score: inf
ROOT
ATOM      1  C   UNL     1       9.010  -7.988  28.030  1.00  0.00    -0.025 A 
ATOM      2  C   UNL     1       7.675  -8.066  28.455  1.00  0.00     0.012 A 
ATOM      3  C   UNL     1      10.018  -8.525  28.855  1.00  0.00     0.012 A 
ATOM      4  C   UNL     1       7.345  -8.688  29.664  1.00  0.00     0.047 A 
ATOM      5  C   UNL     1       9.686  -9.146  30.064  1.00  0.00     0.047 A 
ATOM      6  C   UNL     1       8.353  -9.236  30.478  1.00  0.00     0.118 A 
ENDROOT
BRANCH   1   7
ATOM      7  C   UNL     1       9.307  -7.308  26.745  1.00  0.00     0.010 C 
ATOM      8  C   UNL     1       8.682  -6.198  26.327  1.00  0.00     0.025 C 
BRANCH   8   9
ATOM      9  C   UNL     1       9.019  -5.551  25.049  1.00  0.00     0.064 C 
ATOM     10  O   UNL     1       8.664  -6.091  23.968  1.00  0.00    -0.545 OA
ATOM     11  O   UNL     1       9.723  -4.354  25.014  1.00  0.00    -0.545 OA
ENDBRANCH   8   9
ENDBRANCH   1   7
BRANCH   6  12
ATOM     12  O   UNL     1       8.075  -9.870  31.697  1.00  0.00    -0.497 OA
ATOM     13  C   UNL     1       8.813 -10.972  32.217  1.00  0.00     0.278 C 
ENDBRANCH   6  12
TORSDOF 3
ENDMDL
MODEL 9
REMARK VINA RESULT:    -4.406      2.219      5.770
REMARK INTER + INTRA:          -5.344
REMARK INTER:                  -5.186
REMARK INTRA:                  -0.157
REMARK UNBOUND:                -0.165
REMARK SMILES COc1ccc(C=CC(=O)[O-])cc1
REMARK SMILES IDX 6 1 5 2 12 3 4 4 13 5 3 6 7 7 8 8 9 9 10 10 11 11 2 12 1 13
REMARK H PARENT
REMARK Flexibility Score: inf
ROOT
ATOM      1  C   UNL     1      11.134  -9.675  26.826  1.00  0.00    -0.025 A 
ATOM      2  C   UNL     1      11.091  -9.266  25.484  1.00  0.00     0.012 A 
ATOM      3  C   UNL     1      11.820 -10.862  27.152  1.00  0.00     0.012 A 
ATOM      4  C   UNL     1      11.736 -10.007  24.490  1.00  0.00     0.047 A 
ATOM      5  C   UNL     1      12.464 -11.603  26.156  1.00  0.00     0.047 A 
ATOM      6  C   UNL     1      12.432 -11.184  24.822  1.00  0.00     0.118 A 
ENDROOT
BRANCH   1   7
ATOM      7  C   UNL     1      10.423  -8.859  27.841  1.00  0.00     0.010 C 
ATOM      8  C   UNL     1       9.958  -9.349  28.999  1.00  0.00     0.025 C 
BRANCH   8   9
ATOM      9  C   UNL     1       9.269  -8.498  29.982  1.00  0.00     0.064 C 
ATOM     10  O   UNL     1       8.077  -8.151  29.773  1.00  0.00    -0.545 OA
ATOM     11  O   UNL     1       9.911  -8.070  31.137  1.00  0.00    -0.545 OA
ENDBRANCH   8   9
ENDBRANCH   1   7
BRANCH   6  12
ATOM     12  O   UNL     1      13.096 -11.963  23.863  1.00  0.00    -0.497 OA
ATOM     13  C   UNL     1      12.465 -12.945  23.047  1.00  0.00     0.278 C 
ENDBRANCH   6  12
TORSDOF 3
ENDMDL
