MODEL 1
REMARK VINA RESULT:    -4.741      0.000      0.000
REMARK INTER + INTRA:          -6.937
REMARK INTER:                  -6.405
REMARK INTRA:                  -0.533
REMARK UNBOUND:                -0.533
REMARK SMILES COc1ccc(-c2cc(=O)c3c(OC)c(OC)c(OC)cc3o2)cc1OC
REMARK SMILES IDX 7 1 8 2 9 3 10 4 11 5 12 6 15 7 18 8 21 9 22 10 23 11 6 12
REMARK SMILES IDX 3 13 25 14 4 15 24 16 5 17 2 18 1 19 26 20 27 21 13 22 14 23
REMARK SMILES IDX 19 24 20 25 16 26 17 27
REMARK H PARENT
REMARK Flexibility Score: inf
ROOT
ATOM      1  C   UNL     1     100.602 110.268 118.259  1.00  0.00     0.138 A 
ATOM      2  C   UNL     1      99.994 111.531 118.250  1.00  0.00     0.100 A 
ATOM      3  C   UNL     1     100.027 112.300 117.086  1.00  0.00     0.197 A 
ATOM      4  O   UNL     1      99.474 113.433 117.096  1.00  0.00    -0.289 OA
ATOM      5  C   UNL     1     100.669 111.798 115.929  1.00  0.00     0.111 A 
ATOM      6  C   UNL     1     100.748 112.520 114.709  1.00  0.00     0.179 A 
ATOM      7  C   UNL     1     101.407 111.938 113.588  1.00  0.00     0.204 A 
ATOM      8  C   UNL     1     101.979 110.642 113.706  1.00  0.00     0.168 A 
ATOM      9  C   UNL     1     101.887 109.953 114.924  1.00  0.00     0.098 A 
ATOM     10  C   UNL     1     101.246 110.515 116.020  1.00  0.00     0.146 A 
ATOM     11  O   UNL     1     101.189 109.820 117.153  1.00  0.00    -0.456 OA
ENDROOT
BRANCH   1  12
ATOM     12  C   UNL     1     100.596 109.404 119.465  1.00  0.00     0.021 A 
ATOM     13  C   UNL     1     100.557 107.716 121.728  1.00  0.00     0.160 A 
ATOM     14  C   UNL     1     101.501 108.749 121.644  1.00  0.00     0.161 A 
ATOM     15  C   UNL     1      99.643 107.522 120.677  1.00  0.00     0.051 A 
ATOM     16  C   UNL     1     101.520 109.586 120.511  1.00  0.00     0.062 A 
ATOM     17  C   UNL     1      99.668 108.355 119.557  1.00  0.00     0.016 A 
BRANCH  13  18
ATOM     18  O   UNL     1     100.560 106.899 122.872  1.00  0.00    -0.493 OA
ATOM     19  C   UNL     1      99.407 106.264 123.412  1.00  0.00     0.278 C 
ENDBRANCH  13  18
BRANCH  14  20
ATOM     20  O   UNL     1     102.407 108.910 122.706  1.00  0.00    -0.493 OA
ATOM     21  C   UNL     1     103.824 108.861 122.574  1.00  0.00     0.278 C 
ENDBRANCH  14  20
ENDBRANCH   1  12
BRANCH   6  22
ATOM     22  O   UNL     1     100.156 113.801 114.669  1.00  0.00    -0.492 OA
ATOM     23  C   UNL     1      99.010 114.207 113.930  1.00  0.00     0.278 C 
ENDBRANCH   6  22
BRANCH   8  24
ATOM     24  O   UNL     1     102.632 110.059 112.607  1.00  0.00    -0.493 OA
ATOM     25  C   UNL     1     103.430 108.880 112.656  1.00  0.00     0.278 C 
ENDBRANCH   8  24
BRANCH   7  26
ATOM     26  O   UNL     1     101.468 112.679 112.392  1.00  0.00    -0.490 OA
ATOM     27  C   UNL     1     102.481 113.595 111.989  1.00  0.00     0.278 C 
ENDBRANCH   7  26
TORSDOF 6
ENDMDL
MODEL 2
REMARK VINA RESULT:    -4.566      4.604      8.565
REMARK INTER + INTRA:          -6.701
REMARK INTER:                  -6.107
REMARK INTRA:                  -0.593
REMARK UNBOUND:                -0.533
REMARK SMILES COc1ccc(-c2cc(=O)c3c(OC)c(OC)c(OC)cc3o2)cc1OC
REMARK SMILES IDX 7 1 8 2 9 3 10 4 11 5 12 6 15 7 18 8 21 9 22 10 23 11 6 12
REMARK SMILES IDX 3 13 25 14 4 15 24 16 5 17 2 18 1 19 26 20 27 21 13 22 14 23
REMARK SMILES IDX 19 24 20 25 16 26 17 27
REMARK H PARENT
REMARK Flexibility Score: inf
ROOT
ATOM      1  C   UNL     1     106.098 108.888 113.641  1.00  0.00     0.138 A 
ATOM      2  C   UNL     1     105.132 109.076 112.642  1.00  0.00     0.100 A 
ATOM      3  C   UNL     1     103.861 109.531 112.994  1.00  0.00     0.197 A 
ATOM      4  O   UNL     1     103.006 109.696 112.083  1.00  0.00    -0.289 OA
ATOM      5  C   UNL     1     103.562 109.802 114.350  1.00  0.00     0.111 A 
ATOM      6  C   UNL     1     102.294 110.266 114.788  1.00  0.00     0.179 A 
ATOM      7  C   UNL     1     102.076 110.521 116.174  1.00  0.00     0.204 A 
ATOM      8  C   UNL     1     103.133 110.307 117.100  1.00  0.00     0.168 A 
ATOM      9  C   UNL     1     104.376 109.847 116.638  1.00  0.00     0.098 A 
ATOM     10  C   UNL     1     104.593 109.597 115.290  1.00  0.00     0.146 A 
ATOM     11  O   UNL     1     105.789 109.160 114.905  1.00  0.00    -0.456 OA
ENDROOT
BRANCH   1  12
ATOM     12  C   UNL     1     107.467 108.408 113.327  1.00  0.00     0.021 A 
ATOM     13  C   UNL     1     110.081 107.545 112.698  1.00  0.00     0.160 A 
ATOM     14  C   UNL     1     109.435 107.042 113.836  1.00  0.00     0.161 A 
ATOM     15  C   UNL     1     109.423 108.485 111.885  1.00  0.00     0.051 A 
ATOM     16  C   UNL     1     108.132 107.478 114.149  1.00  0.00     0.062 A 
ATOM     17  C   UNL     1     108.133 108.914 112.201  1.00  0.00     0.016 A 
BRANCH  13  18
ATOM     18  O   UNL     1     111.378 107.089 112.409  1.00  0.00    -0.493 OA
ATOM     19  C   UNL     1     112.563 107.853 112.603  1.00  0.00     0.278 C 
ENDBRANCH  13  18
BRANCH  14  20
ATOM     20  O   UNL     1     110.121 106.112 114.634  1.00  0.00    -0.493 OA
ATOM     21  C   UNL     1     110.768 106.423 115.864  1.00  0.00     0.278 C 
ENDBRANCH  14  20
ENDBRANCH   1  12
BRANCH   6  22
ATOM     22  O   UNL     1     101.294 110.454 113.810  1.00  0.00    -0.492 OA
ATOM     23  C   UNL     1     100.774 111.686 113.324  1.00  0.00     0.278 C 
ENDBRANCH   6  22
BRANCH   8  24
ATOM     24  O   UNL     1     102.930 110.556 118.467  1.00  0.00    -0.493 OA
ATOM     25  C   UNL     1     102.466 109.599 119.416  1.00  0.00     0.278 C 
ENDBRANCH   8  24
BRANCH   7  26
ATOM     26  O   UNL     1     100.808 110.981 116.576  1.00  0.00    -0.490 OA
ATOM     27  C   UNL     1     100.434 112.313 116.912  1.00  0.00     0.278 C 
ENDBRANCH   7  26
TORSDOF 6
ENDMDL
MODEL 3
REMARK VINA RESULT:    -4.555      1.511      3.309
REMARK INTER + INTRA:          -6.685
REMARK INTER:                  -6.157
REMARK INTRA:                  -0.527
REMARK UNBOUND:                -0.533
REMARK SMILES COc1ccc(-c2cc(=O)c3c(OC)c(OC)c(OC)cc3o2)cc1OC
REMARK SMILES IDX 7 1 8 2 9 3 10 4 11 5 12 6 15 7 18 8 21 9 22 10 23 11 6 12
REMARK SMILES IDX 3 13 25 14 4 15 24 16 5 17 2 18 1 19 26 20 27 21 13 22 14 23
REMARK SMILES IDX 19 24 20 25 16 26 17 27
REMARK H PARENT
REMARK Flexibility Score: inf
ROOT
ATOM      1  C   UNL     1     101.145 110.364 117.505  1.00  0.00     0.138 A 
ATOM      2  C   UNL     1     101.634 109.738 116.350  1.00  0.00     0.100 A 
ATOM      3  C   UNL     1     101.475 110.363 115.113  1.00  0.00     0.197 A 
ATOM      4  O   UNL     1     101.922 109.787 114.085  1.00  0.00    -0.289 OA
ATOM      5  C   UNL     1     100.827 111.618 115.037  1.00  0.00     0.111 A 
ATOM      6  C   UNL     1     100.625 112.316 113.817  1.00  0.00     0.179 A 
ATOM      7  C   UNL     1      99.968 113.581 113.829  1.00  0.00     0.204 A 
ATOM      8  C   UNL     1      99.523 114.128 115.063  1.00  0.00     0.168 A 
ATOM      9  C   UNL     1      99.736 113.416 116.252  1.00  0.00     0.098 A 
ATOM     10  C   UNL     1     100.375 112.183 116.247  1.00  0.00     0.146 A 
ATOM     11  O   UNL     1     100.550 111.548 117.403  1.00  0.00    -0.456 OA
ENDROOT
BRANCH   1  12
ATOM     12  C   UNL     1     101.288 109.750 118.849  1.00  0.00     0.021 A 
ATOM     13  C   UNL     1     101.507 108.549 121.396  1.00  0.00     0.160 A 
ATOM     14  C   UNL     1     102.646 109.082 120.774  1.00  0.00     0.161 A 
ATOM     15  C   UNL     1     100.265 108.608 120.738  1.00  0.00     0.051 A 
ATOM     16  C   UNL     1     102.532 109.677 119.502  1.00  0.00     0.062 A 
ATOM     17  C   UNL     1     100.161 109.197 119.477  1.00  0.00     0.016 A 
BRANCH  13  18
ATOM     18  O   UNL     1     101.650 107.966 122.666  1.00  0.00    -0.493 OA
ATOM     19  C   UNL     1     101.062 106.731 123.057  1.00  0.00     0.278 C 
ENDBRANCH  13  18
BRANCH  14  20
ATOM     20  O   UNL     1     103.873 109.000 121.453  1.00  0.00    -0.493 OA
ATOM     21  C   UNL     1     104.978 108.208 121.030  1.00  0.00     0.278 C 
ENDBRANCH  14  20
ENDBRANCH   1  12
BRANCH   6  22
ATOM     22  O   UNL     1     101.094 111.708 112.632  1.00  0.00    -0.492 OA
ATOM     23  C   UNL     1     102.248 112.055 111.875  1.00  0.00     0.278 C 
ENDBRANCH   6  22
BRANCH   8  24
ATOM     24  O   UNL     1      98.875 115.374 115.086  1.00  0.00    -0.493 OA
ATOM     25  C   UNL     1      99.494 116.616 115.411  1.00  0.00     0.278 C 
ENDBRANCH   8  24
BRANCH   7  26
ATOM     26  O   UNL     1      99.783 114.247 112.602  1.00  0.00    -0.490 OA
ATOM     27  C   UNL     1     100.533 115.343 112.089  1.00  0.00     0.278 C 
ENDBRANCH   7  26
TORSDOF 6
ENDMDL
MODEL 4
REMARK VINA RESULT:    -4.551      4.867      8.791
REMARK INTER + INTRA:          -6.680
REMARK INTER:                  -6.111
REMARK INTRA:                  -0.569
REMARK UNBOUND:                -0.533
REMARK SMILES COc1ccc(-c2cc(=O)c3c(OC)c(OC)c(OC)cc3o2)cc1OC
REMARK SMILES IDX 7 1 8 2 9 3 10 4 11 5 12 6 15 7 18 8 21 9 22 10 23 11 6 12
REMARK SMILES IDX 3 13 25 14 4 15 24 16 5 17 2 18 1 19 26 20 27 21 13 22 14 23
REMARK SMILES IDX 19 24 20 25 16 26 17 27
REMARK H PARENT
REMARK Flexibility Score: inf
ROOT
ATOM      1  C   UNL     1     106.507 109.148 113.723  1.00  0.00     0.138 A 
ATOM      2  C   UNL     1     105.538 109.223 112.713  1.00  0.00     0.100 A 
ATOM      3  C   UNL     1     104.217 109.519 113.051  1.00  0.00     0.197 A 
ATOM      4  O   UNL     1     103.360 109.584 112.130  1.00  0.00    -0.289 OA
ATOM      5  C   UNL     1     103.870 109.744 114.404  1.00  0.00     0.111 A 
ATOM      6  C   UNL     1     102.550 110.048 114.828  1.00  0.00     0.179 A 
ATOM      7  C   UNL     1     102.287 110.268 116.211  1.00  0.00     0.204 A 
ATOM      8  C   UNL     1     103.351 110.179 117.150  1.00  0.00     0.168 A 
ATOM      9  C   UNL     1     104.645 109.876 116.702  1.00  0.00     0.098 A 
ATOM     10  C   UNL     1     104.908 109.660 115.356  1.00  0.00     0.146 A 
ATOM     11  O   UNL     1     106.152 109.374 114.985  1.00  0.00    -0.456 OA
ENDROOT
BRANCH   1  12
ATOM     12  C   UNL     1     107.928 108.839 113.425  1.00  0.00     0.021 A 
ATOM     13  C   UNL     1     110.618 108.251 112.798  1.00  0.00     0.160 A 
ATOM     14  C   UNL     1     110.304 108.870 114.017  1.00  0.00     0.161 A 
ATOM     15  C   UNL     1     109.588 107.938 111.892  1.00  0.00     0.051 A 
ATOM     16  C   UNL     1     108.961 109.165 114.324  1.00  0.00     0.062 A 
ATOM     17  C   UNL     1     108.260 108.235 112.202  1.00  0.00     0.016 A 
BRANCH  13  18
ATOM     18  O   UNL     1     111.965 107.965 112.521  1.00  0.00    -0.493 OA
ATOM     19  C   UNL     1     112.517 106.654 112.467  1.00  0.00     0.278 C 
ENDBRANCH  13  18
BRANCH  14  20
ATOM     20  O   UNL     1     111.355 109.178 114.895  1.00  0.00    -0.493 OA
ATOM     21  C   UNL     1     111.751 110.499 115.250  1.00  0.00     0.278 C 
ENDBRANCH  14  20
ENDBRANCH   1  12
BRANCH   6  22
ATOM     22  O   UNL     1     101.547 110.119 113.838  1.00  0.00    -0.492 OA
ATOM     23  C   UNL     1     100.831 111.271 113.405  1.00  0.00     0.278 C 
ENDBRANCH   6  22
BRANCH   8  24
ATOM     24  O   UNL     1     103.103 110.393 118.515  1.00  0.00    -0.493 OA
ATOM     25  C   UNL     1     102.740 109.383 119.453  1.00  0.00     0.278 C 
ENDBRANCH   8  24
BRANCH   7  26
ATOM     26  O   UNL     1     100.967 110.568 116.599  1.00  0.00    -0.490 OA
ATOM     27  C   UNL     1     100.451 111.828 117.016  1.00  0.00     0.278 C 
ENDBRANCH   7  26
TORSDOF 6
ENDMDL
MODEL 5
REMARK VINA RESULT:    -4.396      6.079      9.566
REMARK INTER + INTRA:          -6.471
REMARK INTER:                  -5.915
REMARK INTRA:                  -0.555
REMARK UNBOUND:                -0.533
REMARK SMILES COc1ccc(-c2cc(=O)c3c(OC)c(OC)c(OC)cc3o2)cc1OC
REMARK SMILES IDX 7 1 8 2 9 3 10 4 11 5 12 6 15 7 18 8 21 9 22 10 23 11 6 12
REMARK SMILES IDX 3 13 25 14 4 15 24 16 5 17 2 18 1 19 26 20 27 21 13 22 14 23
REMARK SMILES IDX 19 24 20 25 16 26 17 27
REMARK H PARENT
REMARK Flexibility Score: inf
ROOT
ATOM      1  C   UNL     1     106.509 108.910 114.043  1.00  0.00     0.138 A 
ATOM      2  C   UNL     1     107.286 109.152 112.902  1.00  0.00     0.100 A 
ATOM      3  C   UNL     1     108.641 108.817 112.911  1.00  0.00     0.197 A 
ATOM      4  O   UNL     1     109.323 109.040 111.876  1.00  0.00    -0.289 OA
ATOM      5  C   UNL     1     109.213 108.235 114.067  1.00  0.00     0.111 A 
ATOM      6  C   UNL     1     110.582 107.868 114.155  1.00  0.00     0.179 A 
ATOM      7  C   UNL     1     111.078 107.280 115.355  1.00  0.00     0.204 A 
ATOM      8  C   UNL     1     110.195 107.068 116.449  1.00  0.00     0.168 A 
ATOM      9  C   UNL     1     108.848 107.442 116.333  1.00  0.00     0.098 A 
ATOM     10  C   UNL     1     108.359 108.016 115.167  1.00  0.00     0.146 A 
ATOM     11  O   UNL     1     107.073 108.353 115.110  1.00  0.00    -0.456 OA
ENDROOT
BRANCH   1  12
ATOM     12  C   UNL     1     105.063 109.243 114.092  1.00  0.00     0.021 A 
ATOM     13  C   UNL     1     102.303 109.840 114.136  1.00  0.00     0.160 A 
ATOM     14  C   UNL     1     103.069 109.988 115.302  1.00  0.00     0.161 A 
ATOM     15  C   UNL     1     102.917 109.383 112.956  1.00  0.00     0.051 A 
ATOM     16  C   UNL     1     104.445 109.685 115.276  1.00  0.00     0.062 A 
ATOM     17  C   UNL     1     104.280 109.083 112.938  1.00  0.00     0.016 A 
BRANCH  13  18
ATOM     18  O   UNL     1     100.935 110.153 114.191  1.00  0.00    -0.493 OA
ATOM     19  C   UNL     1     100.375 111.396 113.785  1.00  0.00     0.278 C 
ENDBRANCH  13  18
BRANCH  14  20
ATOM     20  O   UNL     1     102.425 110.436 116.467  1.00  0.00    -0.493 OA
ATOM     21  C   UNL     1     102.815 110.087 117.791  1.00  0.00     0.278 C 
ENDBRANCH  14  20
ENDBRANCH   1  12
BRANCH   6  22
ATOM     22  O   UNL     1     111.396 108.110 113.028  1.00  0.00    -0.492 OA
ATOM     23  C   UNL     1     111.920 107.154 112.113  1.00  0.00     0.278 C 
ENDBRANCH   6  22
BRANCH   8  24
ATOM     24  O   UNL     1     110.673 106.490 117.636  1.00  0.00    -0.493 OA
ATOM     25  C   UNL     1     110.052 106.602 118.913  1.00  0.00     0.278 C 
ENDBRANCH   8  24
BRANCH   7  26
ATOM     26  O   UNL     1     112.440 106.927 115.410  1.00  0.00    -0.490 OA
ATOM     27  C   UNL     1     113.525 107.728 115.866  1.00  0.00     0.278 C 
ENDBRANCH   7  26
TORSDOF 6
ENDMDL
MODEL 6
REMARK VINA RESULT:    -4.359      8.943     12.748
REMARK INTER + INTRA:          -6.420
REMARK INTER:                  -5.807
REMARK INTRA:                  -0.613
REMARK UNBOUND:                -0.533
REMARK SMILES COc1ccc(-c2cc(=O)c3c(OC)c(OC)c(OC)cc3o2)cc1OC
REMARK SMILES IDX 7 1 8 2 9 3 10 4 11 5 12 6 15 7 18 8 21 9 22 10 23 11 6 12
REMARK SMILES IDX 3 13 25 14 4 15 24 16 5 17 2 18 1 19 26 20 27 21 13 22 14 23
REMARK SMILES IDX 19 24 20 25 16 26 17 27
REMARK H PARENT
REMARK Flexibility Score: inf
ROOT
ATOM      1  C   UNL     1     109.982 107.722 113.541  1.00  0.00     0.138 A 
ATOM      2  C   UNL     1     111.003 108.395 112.855  1.00  0.00     0.100 A 
ATOM      3  C   UNL     1     112.313 107.921 112.938  1.00  0.00     0.197 A 
ATOM      4  O   UNL     1     113.217 108.538 112.314  1.00  0.00    -0.289 OA
ATOM      5  C   UNL     1     112.596 106.768 113.707  1.00  0.00     0.111 A 
ATOM      6  C   UNL     1     113.901 106.225 113.842  1.00  0.00     0.179 A 
ATOM      7  C   UNL     1     114.099 105.055 114.631  1.00  0.00     0.204 A 
ATOM      8  C   UNL     1     112.987 104.446 115.274  1.00  0.00     0.168 A 
ATOM      9  C   UNL     1     111.710 105.005 115.124  1.00  0.00     0.098 A 
ATOM     10  C   UNL     1     111.510 106.145 114.356  1.00  0.00     0.146 A 
ATOM     11  O   UNL     1     110.278 106.635 114.248  1.00  0.00    -0.456 OA
ENDROOT
BRANCH   1  12
ATOM     12  C   UNL     1     108.570 108.178 113.489  1.00  0.00     0.021 A 
ATOM     13  C   UNL     1     105.874 109.015 113.443  1.00  0.00     0.160 A 
ATOM     14  C   UNL     1     106.838 109.721 112.708  1.00  0.00     0.161 A 
ATOM     15  C   UNL     1     106.263 107.900 114.207  1.00  0.00     0.051 A 
ATOM     16  C   UNL     1     108.182 109.302 112.737  1.00  0.00     0.062 A 
ATOM     17  C   UNL     1     107.597 107.492 114.232  1.00  0.00     0.016 A 
BRANCH  13  18
ATOM     18  O   UNL     1     104.540 109.454 113.392  1.00  0.00    -0.493 OA
ATOM     19  C   UNL     1     103.477 108.734 112.779  1.00  0.00     0.278 C 
ENDBRANCH  13  18
BRANCH  14  20
ATOM     20  O   UNL     1     106.419 110.836 111.963  1.00  0.00    -0.493 OA
ATOM     21  C   UNL     1     106.917 112.159 112.139  1.00  0.00     0.278 C 
ENDBRANCH  14  20
ENDBRANCH   1  12
BRANCH   6  22
ATOM     22  O   UNL     1     114.955 106.885 113.175  1.00  0.00    -0.492 OA
ATOM     23  C   UNL     1     115.682 106.434 112.038  1.00  0.00     0.278 C 
ENDBRANCH   6  22
BRANCH   8  24
ATOM     24  O   UNL     1     113.171 103.293 116.054  1.00  0.00    -0.493 OA
ATOM     25  C   UNL     1     113.071 103.237 117.475  1.00  0.00     0.278 C 
ENDBRANCH   8  24
BRANCH   7  26
ATOM     26  O   UNL     1     115.406 104.541 114.745  1.00  0.00    -0.490 OA
ATOM     27  C   UNL     1     116.376 104.852 115.739  1.00  0.00     0.278 C 
ENDBRANCH   7  26
TORSDOF 6
ENDMDL
MODEL 7
REMARK VINA RESULT:    -4.323      6.218      9.418
REMARK INTER + INTRA:          -6.372
REMARK INTER:                  -5.746
REMARK INTRA:                  -0.626
REMARK UNBOUND:                -0.533
REMARK SMILES COc1ccc(-c2cc(=O)c3c(OC)c(OC)c(OC)cc3o2)cc1OC
REMARK SMILES IDX 7 1 8 2 9 3 10 4 11 5 12 6 15 7 18 8 21 9 22 10 23 11 6 12
REMARK SMILES IDX 3 13 25 14 4 15 24 16 5 17 2 18 1 19 26 20 27 21 13 22 14 23
REMARK SMILES IDX 19 24 20 25 16 26 17 27
REMARK H PARENT
REMARK Flexibility Score: inf
ROOT
ATOM      1  C   UNL     1     106.532 109.309 114.772  1.00  0.00     0.138 A 
ATOM      2  C   UNL     1     106.922 109.180 113.432  1.00  0.00     0.100 A 
ATOM      3  C   UNL     1     108.256 108.903 113.130  1.00  0.00     0.197 A 
ATOM      4  O   UNL     1     108.589 108.789 111.920  1.00  0.00    -0.289 OA
ATOM      5  C   UNL     1     109.197 108.751 114.176  1.00  0.00     0.111 A 
ATOM      6  C   UNL     1     110.570 108.471 113.951  1.00  0.00     0.179 A 
ATOM      7  C   UNL     1     111.452 108.327 115.062  1.00  0.00     0.204 A 
ATOM      8  C   UNL     1     110.944 108.466 116.382  1.00  0.00     0.168 A 
ATOM      9  C   UNL     1     109.582 108.744 116.574  1.00  0.00     0.098 A 
ATOM     10  C   UNL     1     108.719 108.886 115.496  1.00  0.00     0.146 A 
ATOM     11  O   UNL     1     107.438 109.151 115.733  1.00  0.00    -0.456 OA
ENDROOT
BRANCH   1  12
ATOM     12  C   UNL     1     105.128 109.600 115.155  1.00  0.00     0.021 A 
ATOM     13  C   UNL     1     102.476 110.175 115.938  1.00  0.00     0.160 A 
ATOM     14  C   UNL     1     102.800 110.090 114.576  1.00  0.00     0.161 A 
ATOM     15  C   UNL     1     103.481 109.984 116.903  1.00  0.00     0.051 A 
ATOM     16  C   UNL     1     104.125 109.807 114.190  1.00  0.00     0.062 A 
ATOM     17  C   UNL     1     104.792 109.705 116.514  1.00  0.00     0.016 A 
BRANCH  13  18
ATOM     18  O   UNL     1     101.146 110.455 116.293  1.00  0.00    -0.493 OA
ATOM     19  C   UNL     1     100.665 111.741 116.669  1.00  0.00     0.278 C 
ENDBRANCH  13  18
BRANCH  14  20
ATOM     20  O   UNL     1     101.777 110.297 113.636  1.00  0.00    -0.493 OA
ATOM     21  C   UNL     1     101.658 111.450 112.810  1.00  0.00     0.278 C 
ENDBRANCH  14  20
ENDBRANCH   1  12
BRANCH   6  22
ATOM     22  O   UNL     1     111.001 108.348 112.612  1.00  0.00    -0.492 OA
ATOM     23  C   UNL     1     111.531 107.192 111.972  1.00  0.00     0.278 C 
ENDBRANCH   6  22
BRANCH   8  24
ATOM     24  O   UNL     1     111.803 108.326 117.484  1.00  0.00    -0.493 OA
ATOM     25  C   UNL     1     111.958 107.140 118.260  1.00  0.00     0.278 C 
ENDBRANCH   8  24
BRANCH   7  26
ATOM     26  O   UNL     1     112.808 108.049 114.805  1.00  0.00    -0.490 OA
ATOM     27  C   UNL     1     113.871 108.983 114.651  1.00  0.00     0.278 C 
ENDBRANCH   7  26
TORSDOF 6
ENDMDL
MODEL 8
REMARK VINA RESULT:    -4.303      6.007      9.504
REMARK INTER + INTRA:          -6.345
REMARK INTER:                  -5.766
REMARK INTRA:                  -0.578
REMARK UNBOUND:                -0.533
REMARK SMILES COc1ccc(-c2cc(=O)c3c(OC)c(OC)c(OC)cc3o2)cc1OC
REMARK SMILES IDX 7 1 8 2 9 3 10 4 11 5 12 6 15 7 18 8 21 9 22 10 23 11 6 12
REMARK SMILES IDX 3 13 25 14 4 15 24 16 5 17 2 18 1 19 26 20 27 21 13 22 14 23
REMARK SMILES IDX 19 24 20 25 16 26 17 27
REMARK H PARENT
REMARK Flexibility Score: inf
ROOT
ATOM      1  C   UNL     1     108.032 108.891 114.138  1.00  0.00     0.138 A 
ATOM      2  C   UNL     1     107.302 108.845 112.942  1.00  0.00     0.100 A 
ATOM      3  C   UNL     1     105.938 109.135 112.960  1.00  0.00     0.197 A 
ATOM      4  O   UNL     1     105.298 109.091 111.875  1.00  0.00    -0.289 OA
ATOM      5  C   UNL     1     105.307 109.474 114.180  1.00  0.00     0.111 A 
ATOM      6  C   UNL     1     103.924 109.780 114.281  1.00  0.00     0.179 A 
ATOM      7  C   UNL     1     103.368 110.119 115.549  1.00  0.00     0.204 A 
ATOM      8  C   UNL     1     104.206 110.146 116.697  1.00  0.00     0.168 A 
ATOM      9  C   UNL     1     105.568 109.839 116.567  1.00  0.00     0.098 A 
ATOM     10  C   UNL     1     106.116 109.507 115.335  1.00  0.00     0.146 A 
ATOM     11  O   UNL     1     107.413 109.223 115.267  1.00  0.00    -0.456 OA
ENDROOT
BRANCH   1  12
ATOM     12  C   UNL     1     109.486 108.595 114.181  1.00  0.00     0.021 A 
ATOM     13  C   UNL     1     112.261 108.084 114.296  1.00  0.00     0.160 A 
ATOM     14  C   UNL     1     111.365 107.030 114.063  1.00  0.00     0.161 A 
ATOM     15  C   UNL     1     111.766 109.387 114.482  1.00  0.00     0.051 A 
ATOM     16  C   UNL     1     109.982 107.289 114.010  1.00  0.00     0.062 A 
ATOM     17  C   UNL     1     110.394 109.636 114.430  1.00  0.00     0.016 A 
BRANCH  13  18
ATOM     18  O   UNL     1     113.635 107.796 114.339  1.00  0.00    -0.493 OA
ATOM     19  C   UNL     1     114.648 108.611 113.760  1.00  0.00     0.278 C 
ENDBRANCH  13  18
BRANCH  14  20
ATOM     20  O   UNL     1     111.890 105.738 113.891  1.00  0.00    -0.493 OA
ATOM     21  C   UNL     1     111.932 104.741 114.907  1.00  0.00     0.278 C 
ENDBRANCH  14  20
ENDBRANCH   1  12
BRANCH   6  22
ATOM     22  O   UNL     1     103.157 109.731 113.098  1.00  0.00    -0.492 OA
ATOM     23  C   UNL     1     102.549 110.819 112.410  1.00  0.00     0.278 C 
ENDBRANCH   6  22
BRANCH   8  24
ATOM     24  O   UNL     1     103.668 110.479 117.951  1.00  0.00    -0.493 OA
ATOM     25  C   UNL     1     103.175 109.545 118.908  1.00  0.00     0.278 C 
ENDBRANCH   8  24
BRANCH   7  26
ATOM     26  O   UNL     1     101.993 110.417 115.616  1.00  0.00    -0.490 OA
ATOM     27  C   UNL     1     100.921 109.514 115.864  1.00  0.00     0.278 C 
ENDBRANCH   7  26
TORSDOF 6
ENDMDL
MODEL 9
REMARK VINA RESULT:    -4.290      5.482      8.162
REMARK INTER + INTRA:          -6.327
REMARK INTER:                  -5.741
REMARK INTRA:                  -0.586
REMARK UNBOUND:                -0.533
REMARK SMILES COc1ccc(-c2cc(=O)c3c(OC)c(OC)c(OC)cc3o2)cc1OC
REMARK SMILES IDX 7 1 8 2 9 3 10 4 11 5 12 6 15 7 18 8 21 9 22 10 23 11 6 12
REMARK SMILES IDX 3 13 25 14 4 15 24 16 5 17 2 18 1 19 26 20 27 21 13 22 14 23
REMARK SMILES IDX 19 24 20 25 16 26 17 27
REMARK H PARENT
REMARK Flexibility Score: inf
ROOT
ATOM      1  C   UNL     1     106.350 109.342 113.837  1.00  0.00     0.138 A 
ATOM      2  C   UNL     1     105.203 108.634 113.450  1.00  0.00     0.100 A 
ATOM      3  C   UNL     1     103.985 109.306 113.344  1.00  0.00     0.197 A 
ATOM      4  O   UNL     1     102.966 108.654 112.993  1.00  0.00    -0.289 OA
ATOM      5  C   UNL     1     103.920 110.692 113.622  1.00  0.00     0.111 A 
ATOM      6  C   UNL     1     102.720 111.446 113.538  1.00  0.00     0.179 A 
ATOM      7  C   UNL     1     102.742 112.841 113.829  1.00  0.00     0.204 A 
ATOM      8  C   UNL     1     103.967 113.460 114.200  1.00  0.00     0.168 A 
ATOM      9  C   UNL     1     105.137 112.690 114.275  1.00  0.00     0.098 A 
ATOM     10  C   UNL     1     105.121 111.330 113.994  1.00  0.00     0.146 A 
ATOM     11  O   UNL     1     106.258 110.646 114.082  1.00  0.00    -0.456 OA
ENDROOT
BRANCH   1  12
ATOM     12  C   UNL     1     107.673 108.682 113.965  1.00  0.00     0.021 A 
ATOM     13  C   UNL     1     110.167 107.375 114.185  1.00  0.00     0.160 A 
ATOM     14  C   UNL     1     110.112 108.776 114.153  1.00  0.00     0.161 A 
ATOM     15  C   UNL     1     108.976 106.632 114.096  1.00  0.00     0.051 A 
ATOM     16  C   UNL     1     108.866 109.424 114.039  1.00  0.00     0.062 A 
ATOM     17  C   UNL     1     107.745 107.281 113.982  1.00  0.00     0.016 A 
BRANCH  13  18
ATOM     18  O   UNL     1     111.423 106.757 114.303  1.00  0.00    -0.493 OA
ATOM     19  C   UNL     1     111.640 105.478 114.886  1.00  0.00     0.278 C 
ENDBRANCH  13  18
BRANCH  14  20
ATOM     20  O   UNL     1     111.320 109.490 114.234  1.00  0.00    -0.493 OA
ATOM     21  C   UNL     1     111.620 110.460 115.232  1.00  0.00     0.278 C 
ENDBRANCH  14  20
ENDBRANCH   1  12
BRANCH   6  22
ATOM     22  O   UNL     1     101.544 110.761 113.163  1.00  0.00    -0.492 OA
ATOM     23  C   UNL     1     100.385 110.525 113.955  1.00  0.00     0.278 C 
ENDBRANCH   6  22
BRANCH   8  24
ATOM     24  O   UNL     1     104.000 114.834 114.488  1.00  0.00    -0.493 OA
ATOM     25  C   UNL     1     104.834 115.448 115.468  1.00  0.00     0.278 C 
ENDBRANCH   8  24
BRANCH   7  26
ATOM     26  O   UNL     1     101.535 113.560 113.736  1.00  0.00    -0.490 OA
ATOM     27  C   UNL     1     100.980 114.176 112.578  1.00  0.00     0.278 C 
ENDBRANCH   7  26
TORSDOF 6
ENDMDL
