MODEL 1
REMARK VINA RESULT:    -4.153      0.000      0.000
REMARK INTER + INTRA:          -5.953
REMARK INTER:                  -5.853
REMARK INTRA:                  -0.100
REMARK UNBOUND:                -0.100
REMARK SMILES CC1=CCC(=C(C)C)C(=O)CC(C)=CCC1
REMARK SMILES IDX 12 1 14 2 13 3 15 4 16 5 2 6 1 7 3 8 11 10 9 11 10 12 5 13
REMARK SMILES IDX 6 14 7 15 8 16 4 17
REMARK H PARENT
REMARK Flexibility Score: 60.00
ROOT
ATOM      1  C   UNL     1      23.180 208.119  13.678  1.00  0.00    -0.070 C 
ATOM      2  C   UNL     1      22.356 208.997  13.062  1.00  0.00    -0.027 C 
ATOM      3  C   UNL     1      24.343 208.668  14.465  1.00  0.00     0.039 C 
ENDROOT
BRANCH   2   4
ATOM      4  C   UNL     1      21.241 208.622  12.120  1.00  0.00     0.032 C 
BRANCH   4   5
ATOM      5  C   UNL     1      19.935 208.444  12.903  1.00  0.00     0.034 C 
BRANCH   5   6
ATOM      6  C   UNL     1      19.111 207.276  12.400  1.00  0.00    -0.077 C 
ATOM      7  C   UNL     1      18.445 207.391  11.052  1.00  0.00     0.039 C 
ATOM      8  C   UNL     1      18.997 206.097  13.062  1.00  0.00    -0.023 CG0
ATOM      9  G   UNL     1      19.524 205.762  14.445  1.00  0.00     0.000 G0
ENDBRANCH   5   6
ENDBRANCH   4   5
ENDBRANCH   2   4
BRANCH   1  10
ATOM     10  C   UNL     1      22.983 206.617  13.631  1.00  0.00     0.111 C 
BRANCH  10  11
ATOM     11  C   UNL     1      22.073 206.132  14.733  1.00  0.00     0.163 C 
ATOM     12  O   UNL     1      22.289 206.579  15.893  1.00  0.00    -0.294 OA
BRANCH  11  13
ATOM     13  C   UNL     1      20.933 205.180  14.517  1.00  0.00    -0.002 C 
ATOM     14  C   UNL     1      21.143 203.827  14.540  1.00  0.00    -0.069 C 
ATOM     15  C   UNL     1      19.999 202.839  14.560  1.00  0.00     0.039 C 
ATOM     16  C   UNL     1      22.538 203.244  14.497  1.00  0.00     0.039 C 
BRANCH  13  17
ATOM     17  C   UNL     1      19.525 205.759  14.455  1.00  0.00     0.066 CG0
ATOM     18  G   UNL     1      18.991 206.094  13.074  1.00  0.00     0.000 G0
ENDBRANCH  13  17
ENDBRANCH  11  13
ENDBRANCH  10  11
ENDBRANCH   1  10
TORSDOF 0
ENDMDL
MODEL 2
REMARK VINA RESULT:    -3.920      1.777      4.481
REMARK INTER + INTRA:          -5.624
REMARK INTER:                  -5.732
REMARK INTRA:                   0.108
REMARK UNBOUND:                -0.100
REMARK SMILES CC1=CCC(=C(C)C)C(=O)CC(C)=CCC1
REMARK SMILES IDX 12 1 14 2 13 3 15 4 16 5 2 6 1 7 3 8 11 10 9 11 10 12 5 13
REMARK SMILES IDX 6 14 7 15 8 16 4 17
REMARK H PARENT
REMARK Flexibility Score: 60.00
ROOT
ATOM      1  C   UNL     1      19.872 206.230  16.635  1.00  0.00    -0.070 C 
ATOM      2  C   UNL     1      19.013 205.264  17.034  1.00  0.00    -0.027 C 
ATOM      3  C   UNL     1      19.423 207.666  16.738  1.00  0.00     0.039 C 
ENDROOT
BRANCH   2   4
ATOM      4  C   UNL     1      19.238 203.784  16.864  1.00  0.00     0.032 C 
BRANCH   4   5
ATOM      5  C   UNL     1      18.327 203.242  15.756  1.00  0.00     0.034 C 
BRANCH   5   6
ATOM      6  C   UNL     1      19.092 202.894  14.495  1.00  0.00    -0.077 C 
ATOM      7  C   UNL     1      19.561 201.474  14.304  1.00  0.00     0.039 C 
ATOM      8  C   UNL     1      19.319 203.774  13.488  1.00  0.00    -0.023 CG0
ATOM      9  G   UNL     1      18.998 205.258  13.470  1.00  0.00     0.000 G0
ENDBRANCH   5   6
ENDBRANCH   4   5
ENDBRANCH   2   4
BRANCH   1  10
ATOM     10  C   UNL     1      21.264 205.943  16.109  1.00  0.00     0.111 C 
BRANCH  10  11
ATOM     11  C   UNL     1      21.275 205.766  14.610  1.00  0.00     0.163 C 
ATOM     12  O   UNL     1      22.277 205.186  14.109  1.00  0.00    -0.294 OA
BRANCH  11  13
ATOM     13  C   UNL     1      20.166 206.219  13.707  1.00  0.00    -0.002 C 
ATOM     14  C   UNL     1      20.281 207.380  12.991  1.00  0.00    -0.069 C 
ATOM     15  C   UNL     1      19.299 207.752  11.903  1.00  0.00     0.039 C 
ATOM     16  C   UNL     1      21.375 208.383  13.283  1.00  0.00     0.039 C 
BRANCH  13  17
ATOM     17  C   UNL     1      19.001 205.264  13.477  1.00  0.00     0.066 CG0
ATOM     18  G   UNL     1      19.325 203.781  13.508  1.00  0.00     0.000 G0
ENDBRANCH  13  17
ENDBRANCH  11  13
ENDBRANCH  10  11
ENDBRANCH   1  10
TORSDOF 0
ENDMDL
MODEL 3
REMARK VINA RESULT:    -3.606      1.804      3.787
REMARK INTER + INTRA:          -5.181
REMARK INTER:                  -5.528
REMARK INTRA:                   0.347
REMARK UNBOUND:                -0.100
REMARK SMILES CC1=CCC(=C(C)C)C(=O)CC(C)=CCC1
REMARK SMILES IDX 12 1 14 2 13 3 15 4 16 5 2 6 1 7 3 8 11 10 9 11 10 12 5 13
REMARK SMILES IDX 6 14 7 15 8 16 4 17
REMARK H PARENT
REMARK Flexibility Score: 60.00
ROOT
ATOM      1  C   UNL     1      19.421 207.713  12.208  1.00  0.00    -0.070 C 
ATOM      2  C   UNL     1      20.440 208.469  11.738  1.00  0.00    -0.027 C 
ATOM      3  C   UNL     1      18.364 207.261  11.233  1.00  0.00     0.039 C 
ENDROOT
BRANCH   2   4
ATOM      4  C   UNL     1      21.495 209.125  12.591  1.00  0.00     0.032 C 
BRANCH   4   5
ATOM      5  C   UNL     1      22.675 208.166  12.789  1.00  0.00     0.034 C 
BRANCH   5   6
ATOM      6  C   UNL     1      22.980 207.917  14.252  1.00  0.00    -0.077 C 
ATOM      7  C   UNL     1      23.617 209.023  15.055  1.00  0.00     0.039 C 
ATOM      8  C   UNL     1      22.646 206.775  14.904  1.00  0.00    -0.023 CG0
ATOM      9  G   UNL     1      22.054 205.511  14.307  1.00  0.00     0.000 G0
ENDBRANCH   5   6
ENDBRANCH   4   5
ENDBRANCH   2   4
BRANCH   1  10
ATOM     10  C   UNL     1      19.300 207.285  13.657  1.00  0.00     0.111 C 
BRANCH  10  11
ATOM     11  C   UNL     1      19.514 205.801  13.827  1.00  0.00     0.163 C 
ATOM     12  O   UNL     1      18.734 205.034  13.198  1.00  0.00    -0.294 OA
BRANCH  11  13
ATOM     13  C   UNL     1      20.600 205.205  14.674  1.00  0.00    -0.002 C 
ATOM     14  C   UNL     1      20.301 204.281  15.639  1.00  0.00    -0.069 C 
ATOM     15  C   UNL     1      21.375 203.489  16.351  1.00  0.00     0.039 C 
ATOM     16  C   UNL     1      18.877 204.037  16.085  1.00  0.00     0.039 C 
BRANCH  13  17
ATOM     17  C   UNL     1      22.044 205.520  14.304  1.00  0.00     0.066 CG0
ATOM     18  G   UNL     1      22.643 206.771  14.922  1.00  0.00     0.000 G0
ENDBRANCH  13  17
ENDBRANCH  11  13
ENDBRANCH  10  11
ENDBRANCH   1  10
TORSDOF 0
ENDMDL
MODEL 4
REMARK VINA RESULT:    -3.565      1.387      4.150
REMARK INTER + INTRA:          -5.124
REMARK INTER:                  -5.441
REMARK INTRA:                   0.317
REMARK UNBOUND:                -0.100
REMARK SMILES CC1=CCC(=C(C)C)C(=O)CC(C)=CCC1
REMARK SMILES IDX 12 1 14 2 13 3 15 4 16 5 2 6 1 7 3 8 11 10 9 11 10 12 5 13
REMARK SMILES IDX 6 14 7 15 8 16 4 17
REMARK H PARENT
REMARK Flexibility Score: 60.00
ROOT
ATOM      1  C   UNL     1      22.411 205.912  14.363  1.00  0.00    -0.070 C 
ATOM      2  C   UNL     1      22.540 204.596  14.077  1.00  0.00    -0.027 C 
ATOM      3  C   UNL     1      22.993 206.910  13.394  1.00  0.00     0.039 C 
ENDROOT
BRANCH   2   4
ATOM      4  C   UNL     1      22.152 203.469  14.999  1.00  0.00     0.032 C 
BRANCH   4   5
ATOM      5  C   UNL     1      20.853 202.819  14.508  1.00  0.00     0.034 C 
BRANCH   5   6
ATOM      6  C   UNL     1      19.638 203.294  15.279  1.00  0.00    -0.077 C 
ATOM      7  C   UNL     1      19.230 202.539  16.519  1.00  0.00     0.039 C 
ATOM      8  C   UNL     1      18.935 204.409  14.959  1.00  0.00    -0.023 CG0
ATOM      9  G   UNL     1      19.116 205.296  13.740  1.00  0.00     0.000 G0
ENDBRANCH   5   6
ENDBRANCH   4   5
ENDBRANCH   2   4
BRANCH   1  10
ATOM     10  C   UNL     1      21.697 206.431  15.595  1.00  0.00     0.111 C 
BRANCH  10  11
ATOM     11  C   UNL     1      20.334 206.989  15.265  1.00  0.00     0.163 C 
ATOM     12  O   UNL     1      19.796 207.737  16.127  1.00  0.00    -0.294 OA
BRANCH  11  13
ATOM     13  C   UNL     1      19.610 206.719  13.977  1.00  0.00    -0.002 C 
ATOM     14  C   UNL     1      19.559 207.672  12.995  1.00  0.00    -0.069 C 
ATOM     15  C   UNL     1      19.048 207.364  11.606  1.00  0.00     0.039 C 
ATOM     16  C   UNL     1      19.967 209.103  13.262  1.00  0.00     0.039 C 
BRANCH  13  17
ATOM     17  C   UNL     1      19.100 205.304  13.732  1.00  0.00     0.066 CG0
ATOM     18  G   UNL     1      18.935 204.422  14.956  1.00  0.00     0.000 G0
ENDBRANCH  13  17
ENDBRANCH  11  13
ENDBRANCH  10  11
ENDBRANCH   1  10
TORSDOF 0
ENDMDL
MODEL 5
REMARK VINA RESULT:    -3.394      1.803      4.078
REMARK INTER + INTRA:          -4.882
REMARK INTER:                  -5.089
REMARK INTRA:                   0.207
REMARK UNBOUND:                -0.100
REMARK SMILES CC1=CCC(=C(C)C)C(=O)CC(C)=CCC1
REMARK SMILES IDX 12 1 14 2 13 3 15 4 16 5 2 6 1 7 3 8 11 10 9 11 10 12 5 13
REMARK SMILES IDX 6 14 7 15 8 16 4 17
REMARK H PARENT
REMARK Flexibility Score: 60.00
ROOT
ATOM      1  C   UNL     1      19.971 207.648  13.313  1.00  0.00    -0.070 C 
ATOM      2  C   UNL     1      19.004 206.711  13.444  1.00  0.00    -0.027 C 
ATOM      3  C   UNL     1      19.596 209.090  13.543  1.00  0.00     0.039 C 
ENDROOT
BRANCH   2   4
ATOM      4  C   UNL     1      19.165 205.250  13.109  1.00  0.00     0.032 C 
BRANCH   4   5
ATOM      5  C   UNL     1      18.828 204.395  14.336  1.00  0.00     0.034 C 
BRANCH   5   6
ATOM      6  C   UNL     1      20.055 203.744  14.944  1.00  0.00    -0.077 C 
ATOM      7  C   UNL     1      20.342 202.300  14.618  1.00  0.00     0.039 C 
ATOM      8  C   UNL     1      20.955 204.409  15.709  1.00  0.00    -0.023 CG0
ATOM      9  G   UNL     1      20.860 205.837  16.216  1.00  0.00     0.000 G0
ENDBRANCH   5   6
ENDBRANCH   4   5
ENDBRANCH   2   4
BRANCH   1  10
ATOM     10  C   UNL     1      21.409 207.319  12.967  1.00  0.00     0.111 C 
BRANCH  10  11
ATOM     11  C   UNL     1      22.138 206.684  14.126  1.00  0.00     0.163 C 
ATOM     12  O   UNL     1      23.130 205.956  13.849  1.00  0.00    -0.294 OA
BRANCH  11  13
ATOM     13  C   UNL     1      21.759 206.887  15.564  1.00  0.00    -0.002 C 
ATOM     14  C   UNL     1      22.072 208.054  16.207  1.00  0.00    -0.069 C 
ATOM     15  C   UNL     1      21.511 208.393  17.570  1.00  0.00     0.039 C 
ATOM     16  C   UNL     1      23.039 209.051  15.609  1.00  0.00     0.039 C 
BRANCH  13  17
ATOM     17  C   UNL     1      20.866 205.840  16.219  1.00  0.00     0.066 CG0
ATOM     18  G   UNL     1      20.981 204.423  15.686  1.00  0.00     0.000 G0
ENDBRANCH  13  17
ENDBRANCH  11  13
ENDBRANCH  10  11
ENDBRANCH   1  10
TORSDOF 0
ENDMDL
MODEL 6
REMARK VINA RESULT:    -3.388      2.287      3.386
REMARK INTER + INTRA:          -4.874
REMARK INTER:                  -5.347
REMARK INTRA:                   0.472
REMARK UNBOUND:                -0.100
REMARK SMILES CC1=CCC(=C(C)C)C(=O)CC(C)=CCC1
REMARK SMILES IDX 12 1 14 2 13 3 15 4 16 5 2 6 1 7 3 8 11 10 9 11 10 12 5 13
REMARK SMILES IDX 6 14 7 15 8 16 4 17
REMARK H PARENT
REMARK Flexibility Score: 60.00
ROOT
ATOM      1  C   UNL     1      21.249 207.178  13.557  1.00  0.00    -0.070 C 
ATOM      2  C   UNL     1      21.884 207.822  14.563  1.00  0.00    -0.027 C 
ATOM      3  C   UNL     1      20.649 208.007  12.450  1.00  0.00     0.039 C 
ENDROOT
BRANCH   2   4
ATOM      4  C   UNL     1      22.408 207.166  15.814  1.00  0.00     0.032 C 
BRANCH   4   5
ATOM      5  C   UNL     1      21.653 207.699  17.037  1.00  0.00     0.034 C 
BRANCH   5   6
ATOM      6  C   UNL     1      20.156 207.767  16.811  1.00  0.00    -0.077 C 
ATOM      7  C   UNL     1      19.500 209.122  16.718  1.00  0.00     0.039 C 
ATOM      8  C   UNL     1      19.377 206.674  16.613  1.00  0.00    -0.023 CG0
ATOM      9  G   UNL     1      19.790 205.217  16.713  1.00  0.00     0.000 G0
ENDBRANCH   5   6
ENDBRANCH   4   5
ENDBRANCH   2   4
BRANCH   1  10
ATOM     10  C   UNL     1      21.126 205.669  13.479  1.00  0.00     0.111 C 
BRANCH  10  11
ATOM     11  C   UNL     1      19.860 205.171  14.132  1.00  0.00     0.163 C 
ATOM     12  O   UNL     1      18.775 205.410  13.535  1.00  0.00    -0.294 OA
BRANCH  11  13
ATOM     13  C   UNL     1      19.831 204.403  15.421  1.00  0.00    -0.002 C 
ATOM     14  C   UNL     1      20.010 203.046  15.427  1.00  0.00    -0.069 C 
ATOM     15  C   UNL     1      20.220 202.270  16.708  1.00  0.00     0.039 C 
ATOM     16  C   UNL     1      19.958 202.237  14.150  1.00  0.00     0.039 C 
BRANCH  13  17
ATOM     17  C   UNL     1      19.780 205.198  16.721  1.00  0.00     0.066 CG0
ATOM     18  G   UNL     1      19.378 206.657  16.607  1.00  0.00     0.000 G0
ENDBRANCH  13  17
ENDBRANCH  11  13
ENDBRANCH  10  11
ENDBRANCH   1  10
TORSDOF 0
ENDMDL
MODEL 7
REMARK VINA RESULT:    -3.233      2.665      5.023
REMARK INTER + INTRA:          -4.656
REMARK INTER:                  -4.668
REMARK INTRA:                   0.012
REMARK UNBOUND:                -0.100
REMARK SMILES CC1=CCC(=C(C)C)C(=O)CC(C)=CCC1
REMARK SMILES IDX 12 1 14 2 13 3 15 4 16 5 2 6 1 7 3 8 11 10 9 11 10 12 5 13
REMARK SMILES IDX 6 14 7 15 8 16 4 17
REMARK H PARENT
REMARK Flexibility Score: 60.00
ROOT
ATOM      1  C   UNL     1      19.680 205.040  15.037  1.00  0.00    -0.070 C 
ATOM      2  C   UNL     1      19.088 205.545  16.144  1.00  0.00    -0.027 C 
ATOM      3  C   UNL     1      18.894 204.070  14.191  1.00  0.00     0.039 C 
ENDROOT
BRANCH   2   4
ATOM      4  C   UNL     1      19.773 206.405  17.174  1.00  0.00     0.032 C 
BRANCH   4   5
ATOM      5  C   UNL     1      19.654 207.882  16.782  1.00  0.00     0.034 C 
BRANCH   5   6
ATOM      6  C   UNL     1      20.908 208.671  17.105  1.00  0.00    -0.077 C 
ATOM      7  C   UNL     1      21.263 208.898  18.553  1.00  0.00     0.039 C 
ATOM      8  C   UNL     1      21.772 209.125  16.165  1.00  0.00    -0.023 CG0
ATOM      9  G   UNL     1      21.607 209.070  14.656  1.00  0.00     0.000 G0
ENDBRANCH   5   6
ENDBRANCH   4   5
ENDBRANCH   2   4
BRANCH   1  10
ATOM     10  C   UNL     1      21.081 205.415  14.596  1.00  0.00     0.111 C 
BRANCH  10  11
ATOM     11  C   UNL     1      21.096 206.689  13.786  1.00  0.00     0.163 C 
ATOM     12  O   UNL     1      20.202 206.819  12.906  1.00  0.00    -0.294 OA
BRANCH  11  13
ATOM     13  C   UNL     1      22.092 207.794  13.986  1.00  0.00    -0.002 C 
ATOM     14  C   UNL     1      23.342 207.713  13.435  1.00  0.00    -0.069 C 
ATOM     15  C   UNL     1      24.287 208.894  13.415  1.00  0.00     0.039 C 
ATOM     16  C   UNL     1      23.868 206.419  12.857  1.00  0.00     0.039 C 
BRANCH  13  17
ATOM     17  C   UNL     1      21.608 209.073  14.661  1.00  0.00     0.066 CG0
ATOM     18  G   UNL     1      21.762 209.142  16.169  1.00  0.00     0.000 G0
ENDBRANCH  13  17
ENDBRANCH  11  13
ENDBRANCH  10  11
ENDBRANCH   1  10
TORSDOF 0
ENDMDL
MODEL 8
REMARK VINA RESULT:    -3.221      2.094      4.452
REMARK INTER + INTRA:          -4.638
REMARK INTER:                  -5.217
REMARK INTRA:                   0.579
REMARK UNBOUND:                -0.100
REMARK SMILES CC1=CCC(=C(C)C)C(=O)CC(C)=CCC1
REMARK SMILES IDX 12 1 14 2 13 3 15 4 16 5 2 6 1 7 3 8 11 10 9 11 10 12 5 13
REMARK SMILES IDX 6 14 7 15 8 16 4 17
REMARK H PARENT
REMARK Flexibility Score: 60.00
ROOT
ATOM      1  C   UNL     1      19.955 207.589  16.489  1.00  0.00    -0.070 C 
ATOM      2  C   UNL     1      19.806 206.348  17.006  1.00  0.00    -0.027 C 
ATOM      3  C   UNL     1      20.721 208.607  17.296  1.00  0.00     0.039 C 
ENDROOT
BRANCH   2   4
ATOM      4  C   UNL     1      18.952 205.259  16.409  1.00  0.00     0.032 C 
BRANCH   4   5
ATOM      5  C   UNL     1      19.733 203.940  16.382  1.00  0.00     0.034 C 
BRANCH   5   6
ATOM      6  C   UNL     1      20.152 203.542  14.981  1.00  0.00    -0.077 C 
ATOM      7  C   UNL     1      19.504 202.336  14.350  1.00  0.00     0.039 C 
ATOM      8  C   UNL     1      21.028 204.254  14.229  1.00  0.00    -0.023 CG0
ATOM      9  G   UNL     1      21.845 205.459  14.658  1.00  0.00     0.000 G0
ENDBRANCH   5   6
ENDBRANCH   4   5
ENDBRANCH   2   4
BRANCH   1  10
ATOM     10  C   UNL     1      19.409 207.999  15.136  1.00  0.00     0.111 C 
BRANCH  10  11
ATOM     11  C   UNL     1      20.038 207.213  14.011  1.00  0.00     0.163 C 
ATOM     12  O   UNL     1      19.296 206.914  13.036  1.00  0.00    -0.294 OA
BRANCH  11  13
ATOM     13  C   UNL     1      21.480 206.798  13.987  1.00  0.00    -0.002 C 
ATOM     14  C   UNL     1      22.445 207.656  13.533  1.00  0.00    -0.069 C 
ATOM     15  C   UNL     1      23.919 207.370  13.707  1.00  0.00     0.039 C 
ATOM     16  C   UNL     1      22.087 208.921  12.785  1.00  0.00     0.039 C 
BRANCH  13  17
ATOM     17  C   UNL     1      21.849 205.474  14.647  1.00  0.00     0.066 CG0
ATOM     18  G   UNL     1      21.040 204.260  14.229  1.00  0.00     0.000 G0
ENDBRANCH  13  17
ENDBRANCH  11  13
ENDBRANCH  10  11
ENDBRANCH   1  10
TORSDOF 0
ENDMDL
MODEL 9
REMARK VINA RESULT:    -3.206      1.751      2.564
REMARK INTER + INTRA:          -4.618
REMARK INTER:                  -5.716
REMARK INTRA:                   1.098
REMARK UNBOUND:                -0.100
REMARK SMILES CC1=CCC(=C(C)C)C(=O)CC(C)=CCC1
REMARK SMILES IDX 12 1 14 2 13 3 15 4 16 5 2 6 1 7 3 8 11 10 9 11 10 12 5 13
REMARK SMILES IDX 6 14 7 15 8 16 4 17
REMARK H PARENT
REMARK Flexibility Score: 60.00
ROOT
ATOM      1  C   UNL     1      21.731 207.386  16.478  1.00  0.00    -0.070 C 
ATOM      2  C   UNL     1      22.415 207.813  15.392  1.00  0.00    -0.027 C 
ATOM      3  C   UNL     1      21.318 208.410  17.505  1.00  0.00     0.039 C 
ENDROOT
BRANCH   2   4
ATOM      4  C   UNL     1      23.029 206.916  14.349  1.00  0.00     0.032 C 
BRANCH   4   5
ATOM      5  C   UNL     1      22.160 206.916  13.085  1.00  0.00     0.034 C 
BRANCH   5   6
ATOM      6  C   UNL     1      20.805 207.556  13.313  1.00  0.00    -0.077 C 
ATOM      7  C   UNL     1      20.710 209.061  13.320  1.00  0.00     0.039 C 
ATOM      8  C   UNL     1      19.654 206.851  13.440  1.00  0.00    -0.023 CG0
ATOM      9  G   UNL     1      19.500 205.342  13.521  1.00  0.00     0.000 G0
ENDBRANCH   5   6
ENDBRANCH   4   5
ENDBRANCH   2   4
BRANCH   1  10
ATOM     10  C   UNL     1      21.345 205.938  16.703  1.00  0.00     0.111 C 
BRANCH  10  11
ATOM     11  C   UNL     1      20.019 205.601  16.065  1.00  0.00     0.163 C 
ATOM     12  O   UNL     1      18.991 206.132  16.566  1.00  0.00    -0.294 OA
BRANCH  11  13
ATOM     13  C   UNL     1      19.870 204.700  14.874  1.00  0.00    -0.002 C 
ATOM     14  C   UNL     1      19.903 203.339  15.023  1.00  0.00    -0.069 C 
ATOM     15  C   UNL     1      19.528 202.401  13.898  1.00  0.00     0.039 C 
ATOM     16  C   UNL     1      20.365 202.697  16.311  1.00  0.00     0.039 C 
BRANCH  13  17
ATOM     17  C   UNL     1      19.504 205.339  13.540  1.00  0.00     0.066 CG0
ATOM     18  G   UNL     1      19.640 206.848  13.452  1.00  0.00     0.000 G0
ENDBRANCH  13  17
ENDBRANCH  11  13
ENDBRANCH  10  11
ENDBRANCH   1  10
TORSDOF 0
ENDMDL
