MODEL 1
REMARK VINA RESULT:    17.856      0.000      0.000
REMARK INTER + INTRA:          19.737
REMARK INTER:                  19.944
REMARK INTRA:                  -0.208
REMARK UNBOUND:                -0.208
REMARK SMILES CC(C)c1ccc(C(=O)[O-])cc1
REMARK SMILES IDX 7 1 6 2 11 3 5 4 12 5 4 6 8 7 9 8 10 9 2 10 1 11 3 12
REMARK H PARENT
REMARK Flexibility Score: inf
ROOT
ATOM      1  C   UNL     1      -0.540  -8.064  25.285  1.00  0.00    -0.003 A 
ATOM      2  C   UNL     1      -1.690  -8.860  25.144  1.00  0.00     0.010 A 
ATOM      3  C   UNL     1      -0.228  -7.136  24.277  1.00  0.00     0.010 A 
ATOM      4  C   UNL     1      -2.510  -8.731  24.020  1.00  0.00     0.004 A 
ATOM      5  C   UNL     1      -1.048  -7.007  23.152  1.00  0.00     0.004 A 
ATOM      6  C   UNL     1      -2.199  -7.803  23.011  1.00  0.00    -0.045 A 
ENDROOT
BRANCH   1   7
ATOM      7  C   UNL     1       0.330  -8.197  26.474  1.00  0.00     0.071 C 
ATOM      8  O   UNL     1       0.734  -7.175  27.090  1.00  0.00    -0.545 OA
ATOM      9  O   UNL     1       0.714  -9.453  26.930  1.00  0.00    -0.545 OA
ENDBRANCH   1   7
BRANCH   6  10
ATOM     10  C   UNL     1      -3.098  -7.674  21.796  1.00  0.00     0.013 C 
ATOM     11  C   UNL     1      -4.366  -6.877  22.128  1.00  0.00     0.012 C 
ATOM     12  C   UNL     1      -2.346  -7.047  20.616  1.00  0.00     0.012 C 
ENDBRANCH   6  10
TORSDOF 2
ENDMDL
MODEL 2
REMARK VINA RESULT:    18.008      1.447      2.415
REMARK INTER + INTRA:          19.906
REMARK INTER:                  20.116
REMARK INTRA:                  -0.210
REMARK UNBOUND:                -0.208
REMARK SMILES CC(C)c1ccc(C(=O)[O-])cc1
REMARK SMILES IDX 7 1 6 2 11 3 5 4 12 5 4 6 8 7 9 8 10 9 2 10 1 11 3 12
REMARK H PARENT
REMARK Flexibility Score: inf
ROOT
ATOM      1  C   UNL     1      -1.538  -7.976  23.791  1.00  0.00    -0.003 A 
ATOM      2  C   UNL     1      -2.866  -7.514  23.800  1.00  0.00     0.010 A 
ATOM      3  C   UNL     1      -0.867  -8.093  22.562  1.00  0.00     0.010 A 
ATOM      4  C   UNL     1      -3.509  -7.178  22.606  1.00  0.00     0.004 A 
ATOM      5  C   UNL     1      -1.510  -7.756  21.367  1.00  0.00     0.004 A 
ATOM      6  C   UNL     1      -2.839  -7.294  21.376  1.00  0.00    -0.045 A 
ENDROOT
BRANCH   1   7
ATOM      7  C   UNL     1      -0.853  -8.332  25.053  1.00  0.00     0.071 C 
ATOM      8  O   UNL     1      -1.067  -9.443  25.607  1.00  0.00    -0.545 OA
ATOM      9  O   UNL     1       0.039  -7.445  25.646  1.00  0.00    -0.545 OA
ENDBRANCH   1   7
BRANCH   6  10
ATOM     10  C   UNL     1      -3.550  -6.926  20.087  1.00  0.00     0.013 C 
ATOM     11  C   UNL     1      -2.685  -7.256  18.865  1.00  0.00     0.012 C 
ATOM     12  C   UNL     1      -4.919  -7.611  19.996  1.00  0.00     0.012 C 
ENDBRANCH   6  10
TORSDOF 2
ENDMDL
MODEL 3
REMARK VINA RESULT:    18.024      1.368      2.493
REMARK INTER + INTRA:          19.924
REMARK INTER:                  20.135
REMARK INTRA:                  -0.211
REMARK UNBOUND:                -0.208
REMARK SMILES CC(C)c1ccc(C(=O)[O-])cc1
REMARK SMILES IDX 7 1 6 2 11 3 5 4 12 5 4 6 8 7 9 8 10 9 2 10 1 11 3 12
REMARK H PARENT
REMARK Flexibility Score: inf
ROOT
ATOM      1  C   UNL     1      -1.465  -8.009  23.964  1.00  0.00    -0.003 A 
ATOM      2  C   UNL     1      -0.815  -8.011  22.718  1.00  0.00     0.010 A 
ATOM      3  C   UNL     1      -2.818  -7.634  24.025  1.00  0.00     0.010 A 
ATOM      4  C   UNL     1      -1.503  -7.647  21.558  1.00  0.00     0.004 A 
ATOM      5  C   UNL     1      -3.506  -7.269  22.864  1.00  0.00     0.004 A 
ATOM      6  C   UNL     1      -2.856  -7.272  21.616  1.00  0.00    -0.045 A 
ENDROOT
BRANCH   1   7
ATOM      7  C   UNL     1      -0.741  -8.395  25.195  1.00  0.00     0.071 C 
ATOM      8  O   UNL     1      -0.883  -9.546  25.687  1.00  0.00    -0.545 OA
ATOM      9  O   UNL     1       0.108  -7.492  25.826  1.00  0.00    -0.545 OA
ENDBRANCH   1   7
BRANCH   6  10
ATOM     10  C   UNL     1      -3.590  -6.878  20.348  1.00  0.00     0.013 C 
ATOM     11  C   UNL     1      -2.737  -7.162  19.105  1.00  0.00     0.012 C 
ATOM     12  C   UNL     1      -4.950  -7.581  20.257  1.00  0.00     0.012 C 
ENDBRANCH   6  10
TORSDOF 2
ENDMDL
MODEL 4
REMARK VINA RESULT:    18.496      3.917      5.567
REMARK INTER + INTRA:          20.450
REMARK INTER:                  20.657
REMARK INTRA:                  -0.207
REMARK UNBOUND:                -0.208
REMARK SMILES CC(C)c1ccc(C(=O)[O-])cc1
REMARK SMILES IDX 7 1 6 2 11 3 5 4 12 5 4 6 8 7 9 8 10 9 2 10 1 11 3 12
REMARK H PARENT
REMARK Flexibility Score: inf
ROOT
ATOM      1  C   UNL     1      -2.898  -7.430  20.979  1.00  0.00    -0.003 A 
ATOM      2  C   UNL     1      -1.573  -7.871  21.142  1.00  0.00     0.010 A 
ATOM      3  C   UNL     1      -3.657  -7.122  22.121  1.00  0.00     0.010 A 
ATOM      4  C   UNL     1      -1.020  -8.002  22.418  1.00  0.00     0.004 A 
ATOM      5  C   UNL     1      -3.104  -7.253  23.398  1.00  0.00     0.004 A 
ATOM      6  C   UNL     1      -1.778  -7.695  23.561  1.00  0.00    -0.045 A 
ENDROOT
BRANCH   1   7
ATOM      7  C   UNL     1      -3.487  -7.288  19.630  1.00  0.00     0.071 C 
ATOM      8  O   UNL     1      -2.789  -6.875  18.666  1.00  0.00    -0.545 OA
ATOM      9  O   UNL     1      -4.821  -7.611  19.406  1.00  0.00    -0.545 OA
ENDBRANCH   1   7
BRANCH   6  10
ATOM     10  C   UNL     1      -1.164  -7.843  24.940  1.00  0.00     0.013 C 
ATOM     11  C   UNL     1      -0.883  -9.315  25.266  1.00  0.00     0.012 C 
ATOM     12  C   UNL     1       0.108  -6.996  25.073  1.00  0.00     0.012 C 
ENDBRANCH   6  10
TORSDOF 2
ENDMDL
MODEL 5
REMARK VINA RESULT:    18.944      3.114      5.230
REMARK INTER + INTRA:          20.952
REMARK INTER:                  21.161
REMARK INTRA:                  -0.209
REMARK UNBOUND:                -0.208
REMARK SMILES CC(C)c1ccc(C(=O)[O-])cc1
REMARK SMILES IDX 7 1 6 2 11 3 5 4 12 5 4 6 8 7 9 8 10 9 2 10 1 11 3 12
REMARK H PARENT
REMARK Flexibility Score: inf
ROOT
ATOM      1  C   UNL     1      -2.360  -7.489  22.858  1.00  0.00    -0.003 A 
ATOM      2  C   UNL     1      -1.077  -6.915  22.864  1.00  0.00     0.010 A 
ATOM      3  C   UNL     1      -2.735  -8.329  23.920  1.00  0.00     0.010 A 
ATOM      4  C   UNL     1      -0.187  -7.178  23.909  1.00  0.00     0.004 A 
ATOM      5  C   UNL     1      -1.844  -8.592  24.965  1.00  0.00     0.004 A 
ATOM      6  C   UNL     1      -0.559  -8.019  24.972  1.00  0.00    -0.045 A 
ENDROOT
BRANCH   1   7
ATOM      7  C   UNL     1      -3.306  -7.213  21.755  1.00  0.00     0.071 C 
ATOM      8  O   UNL     1      -4.516  -6.960  21.996  1.00  0.00    -0.545 OA
ATOM      9  O   UNL     1      -2.871  -7.226  20.434  1.00  0.00    -0.545 OA
ENDBRANCH   1   7
BRANCH   6  10
ATOM     10  C   UNL     1       0.417  -8.295  26.099  1.00  0.00     0.013 C 
ATOM     11  C   UNL     1       0.561  -7.075  27.017  1.00  0.00     0.012 C 
ATOM     12  C   UNL     1       0.005  -9.539  26.895  1.00  0.00     0.012 C 
ENDBRANCH   6  10
TORSDOF 2
ENDMDL
