MODEL 1
REMARK VINA RESULT:    -3.706      0.000      0.000
REMARK INTER + INTRA:          -3.814
REMARK INTER:                  -3.814
REMARK INTRA:                   0.000
REMARK UNBOUND:                 0.000
REMARK SMILES Nc1ncnc2nc[nH]c12
REMARK SMILES IDX 8 1 7 2 6 3 5 4 4 5 3 6 2 7 10 8 9 9 1 11
REMARK H PARENT 9 10 1 12 1 13
REMARK Flexibility Score: inf
ROOT
ATOM      1  C   UNL     1      31.759  27.357  23.656  1.00  0.00     0.199 A 
ATOM      2  N   UNL     1      31.193  28.493  24.146  1.00  0.00    -0.217 NA
ATOM      3  C   UNL     1      29.969  28.071  24.505  1.00  0.00     0.182 A 
ATOM      4  N   UNL     1      28.987  28.821  25.059  1.00  0.00    -0.215 NA
ATOM      5  C   UNL     1      27.800  28.209  25.358  1.00  0.00     0.226 A 
ATOM      6  N   UNL     1      27.621  26.874  25.102  1.00  0.00    -0.217 NA
ATOM      7  C   UNL     1      28.612  26.116  24.545  1.00  0.00     0.152 A 
ATOM      8  C   UNL     1      29.813  26.753  24.245  1.00  0.00     0.127 A 
ATOM      9  N   UNL     1      30.940  26.275  23.703  1.00  0.00    -0.340 N 
ATOM     10  H   UNL     1      31.152  25.303  23.388  1.00  0.00     0.168 HD
ENDROOT
BRANCH   7  11
ATOM     11  N   UNL     1      28.403  24.727  24.288  1.00  0.00    -0.382 N 
ATOM     12  H   UNL     1      29.050  24.211  23.652  1.00  0.00     0.158 HD
ATOM     13  H   UNL     1      27.611  24.206  24.724  1.00  0.00     0.158 HD
ENDBRANCH   7  11
TORSDOF 1
ENDMDL
MODEL 2
REMARK VINA RESULT:    -3.317      0.971      2.530
REMARK INTER + INTRA:          -3.414
REMARK INTER:                  -3.414
REMARK INTRA:                   0.000
REMARK UNBOUND:                 0.000
REMARK SMILES Nc1ncnc2nc[nH]c12
REMARK SMILES IDX 8 1 7 2 6 3 5 4 4 5 3 6 2 7 10 8 9 9 1 11
REMARK H PARENT 9 10 1 12 1 13
REMARK Flexibility Score: inf
ROOT
ATOM      1  C   UNL     1      31.845  27.966  23.540  1.00  0.00     0.199 A 
ATOM      2  N   UNL     1      31.339  26.718  23.738  1.00  0.00    -0.217 NA
ATOM      3  C   UNL     1      30.110  26.980  24.212  1.00  0.00     0.182 A 
ATOM      4  N   UNL     1      29.173  26.072  24.574  1.00  0.00    -0.215 NA
ATOM      5  C   UNL     1      27.972  26.534  25.037  1.00  0.00     0.226 A 
ATOM      6  N   UNL     1      27.731  27.882  25.126  1.00  0.00    -0.217 NA
ATOM      7  C   UNL     1      28.675  28.799  24.760  1.00  0.00     0.152 A 
ATOM      8  C   UNL     1      29.892  28.314  24.291  1.00  0.00     0.127 A 
ATOM      9  N   UNL     1      30.984  28.962  23.869  1.00  0.00    -0.340 N 
ATOM     10  H   UNL     1      31.148  29.992  23.804  1.00  0.00     0.168 HD
ENDROOT
BRANCH   7  11
ATOM     11  N   UNL     1      28.402  30.198  24.861  1.00  0.00    -0.382 N 
ATOM     12  H   UNL     1      27.415  30.536  24.898  1.00  0.00     0.158 HD
ATOM     13  H   UNL     1      29.172  30.900  24.900  1.00  0.00     0.158 HD
ENDBRANCH   7  11
TORSDOF 1
ENDMDL
MODEL 3
REMARK VINA RESULT:    -3.313      1.293      2.304
REMARK INTER + INTRA:          -3.410
REMARK INTER:                  -3.410
REMARK INTRA:                   0.000
REMARK UNBOUND:                 0.000
REMARK SMILES Nc1ncnc2nc[nH]c12
REMARK SMILES IDX 8 1 7 2 6 3 5 4 4 5 3 6 2 7 10 8 9 9 1 11
REMARK H PARENT 9 10 1 12 1 13
REMARK Flexibility Score: inf
ROOT
ATOM      1  C   UNL     1      30.070  30.431  24.108  1.00  0.00     0.199 A 
ATOM      2  N   UNL     1      28.880  30.276  24.751  1.00  0.00    -0.217 NA
ATOM      3  C   UNL     1      28.769  28.940  24.828  1.00  0.00     0.182 A 
ATOM      4  N   UNL     1      27.750  28.245  25.387  1.00  0.00    -0.215 NA
ATOM      5  C   UNL     1      27.815  26.879  25.369  1.00  0.00     0.226 A 
ATOM      6  N   UNL     1      28.886  26.240  24.800  1.00  0.00    -0.217 NA
ATOM      7  C   UNL     1      29.916  26.939  24.237  1.00  0.00     0.152 A 
ATOM      8  C   UNL     1      29.835  28.329  24.262  1.00  0.00     0.127 A 
ATOM      9  N   UNL     1      30.678  29.259  23.796  1.00  0.00    -0.340 N 
ATOM     10  H   UNL     1      31.590  29.127  23.306  1.00  0.00     0.168 HD
ENDROOT
BRANCH   7  11
ATOM     11  N   UNL     1      31.022  26.253  23.650  1.00  0.00    -0.382 N 
ATOM     12  H   UNL     1      31.996  26.588  23.824  1.00  0.00     0.158 HD
ATOM     13  H   UNL     1      30.884  25.414  23.046  1.00  0.00     0.158 HD
ENDBRANCH   7  11
TORSDOF 1
ENDMDL
MODEL 4
REMARK VINA RESULT:    -3.223      1.122      3.075
REMARK INTER + INTRA:          -3.317
REMARK INTER:                  -3.317
REMARK INTRA:                   0.000
REMARK UNBOUND:                 0.000
REMARK SMILES Nc1ncnc2nc[nH]c12
REMARK SMILES IDX 8 1 7 2 6 3 5 4 4 5 3 6 2 7 10 8 9 9 1 11
REMARK H PARENT 9 10 1 12 1 13
REMARK Flexibility Score: inf
ROOT
ATOM      1  C   UNL     1      27.962  26.451  25.013  1.00  0.00     0.199 A 
ATOM      2  N   UNL     1      27.813  27.799  24.901  1.00  0.00    -0.217 NA
ATOM      3  C   UNL     1      29.060  28.201  24.603  1.00  0.00     0.182 A 
ATOM      4  N   UNL     1      29.468  29.473  24.384  1.00  0.00    -0.215 NA
ATOM      5  C   UNL     1      30.787  29.686  24.090  1.00  0.00     0.226 A 
ATOM      6  N   UNL     1      31.663  28.634  24.020  1.00  0.00    -0.217 NA
ATOM      7  C   UNL     1      31.253  27.349  24.239  1.00  0.00     0.152 A 
ATOM      8  C   UNL     1      29.908  27.149  24.537  1.00  0.00     0.127 A 
ATOM      9  N   UNL     1      29.232  26.023  24.796  1.00  0.00    -0.340 N 
ATOM     10  H   UNL     1      29.585  25.041  24.826  1.00  0.00     0.168 HD
ENDROOT
BRANCH   7  11
ATOM     11  N   UNL     1      32.183  26.268  24.160  1.00  0.00    -0.382 N 
ATOM     12  H   UNL     1      32.925  26.271  23.425  1.00  0.00     0.158 HD
ATOM     13  H   UNL     1      32.143  25.466  24.825  1.00  0.00     0.158 HD
ENDBRANCH   7  11
TORSDOF 1
ENDMDL
MODEL 5
REMARK VINA RESULT:    -3.204      1.015      2.915
REMARK INTER + INTRA:          -3.298
REMARK INTER:                  -3.298
REMARK INTRA:                   0.000
REMARK UNBOUND:                 0.000
REMARK SMILES Nc1ncnc2nc[nH]c12
REMARK SMILES IDX 8 1 7 2 6 3 5 4 4 5 3 6 2 7 10 8 9 9 1 11
REMARK H PARENT 9 10 1 12 1 13
REMARK Flexibility Score: inf
ROOT
ATOM      1  C   UNL     1      28.753  29.526  25.232  1.00  0.00     0.199 A 
ATOM      2  N   UNL     1      30.017  29.901  24.898  1.00  0.00    -0.217 NA
ATOM      3  C   UNL     1      30.526  28.768  24.387  1.00  0.00     0.182 A 
ATOM      4  N   UNL     1      31.776  28.593  23.896  1.00  0.00    -0.215 NA
ATOM      5  C   UNL     1      32.113  27.358  23.416  1.00  0.00     0.226 A 
ATOM      6  N   UNL     1      31.204  26.332  23.433  1.00  0.00    -0.217 NA
ATOM      7  C   UNL     1      29.942  26.507  23.927  1.00  0.00     0.152 A 
ATOM      8  C   UNL     1      29.614  27.769  24.413  1.00  0.00     0.127 A 
ATOM      9  N   UNL     1      28.476  28.228  24.948  1.00  0.00    -0.340 N 
ATOM     10  H   UNL     1      27.580  27.718  25.113  1.00  0.00     0.168 HD
ENDROOT
BRANCH   7  11
ATOM     11  N   UNL     1      29.011  25.423  23.935  1.00  0.00    -0.382 N 
ATOM     12  H   UNL     1      29.092  24.660  23.227  1.00  0.00     0.158 HD
ATOM     13  H   UNL     1      28.243  25.372  24.639  1.00  0.00     0.158 HD
ENDBRANCH   7  11
TORSDOF 1
ENDMDL
MODEL 6
REMARK VINA RESULT:    -3.108      1.711      3.804
REMARK INTER + INTRA:          -3.199
REMARK INTER:                  -3.199
REMARK INTRA:                   0.000
REMARK UNBOUND:                 0.000
REMARK SMILES Nc1ncnc2nc[nH]c12
REMARK SMILES IDX 8 1 7 2 6 3 5 4 4 5 3 6 2 7 10 8 9 9 1 11
REMARK H PARENT 9 10 1 12 1 13
REMARK Flexibility Score: inf
ROOT
ATOM      1  C   UNL     1      28.171  26.912  25.285  1.00  0.00     0.199 A 
ATOM      2  N   UNL     1      29.492  26.694  25.042  1.00  0.00    -0.217 NA
ATOM      3  C   UNL     1      29.909  27.900  24.623  1.00  0.00     0.182 A 
ATOM      4  N   UNL     1      31.165  28.235  24.247  1.00  0.00    -0.215 NA
ATOM      5  C   UNL     1      31.398  29.522  23.848  1.00  0.00     0.226 A 
ATOM      6  N   UNL     1      30.380  30.442  23.834  1.00  0.00    -0.217 NA
ATOM      7  C   UNL     1      29.112  30.106  24.213  1.00  0.00     0.152 A 
ATOM      8  C   UNL     1      28.891  28.792  24.617  1.00  0.00     0.127 A 
ATOM      9  N   UNL     1      27.773  28.185  25.034  1.00  0.00    -0.340 N 
ATOM     10  H   UNL     1      26.815  28.585  25.145  1.00  0.00     0.168 HD
ENDROOT
BRANCH   7  11
ATOM     11  N   UNL     1      28.067  31.080  24.191  1.00  0.00    -0.382 N 
ATOM     12  H   UNL     1      28.077  31.871  24.873  1.00  0.00     0.158 HD
ATOM     13  H   UNL     1      27.285  31.023  23.503  1.00  0.00     0.158 HD
ENDBRANCH   7  11
TORSDOF 1
ENDMDL
MODEL 7
REMARK VINA RESULT:    -3.021      1.332      2.943
REMARK INTER + INTRA:          -3.110
REMARK INTER:                  -3.110
REMARK INTRA:                   0.000
REMARK UNBOUND:                 0.000
REMARK SMILES Nc1ncnc2nc[nH]c12
REMARK SMILES IDX 8 1 7 2 6 3 5 4 4 5 3 6 2 7 10 8 9 9 1 11
REMARK H PARENT 9 10 1 12 1 13
REMARK Flexibility Score: inf
ROOT
ATOM      1  C   UNL     1      29.277  25.634  23.888  1.00  0.00     0.199 A 
ATOM      2  N   UNL     1      28.224  25.777  24.738  1.00  0.00    -0.217 NA
ATOM      3  C   UNL     1      28.278  27.084  25.043  1.00  0.00     0.182 A 
ATOM      4  N   UNL     1      27.439  27.757  25.866  1.00  0.00    -0.215 NA
ATOM      5  C   UNL     1      27.655  29.094  26.054  1.00  0.00     0.226 A 
ATOM      6  N   UNL     1      28.693  29.728  25.420  1.00  0.00    -0.217 NA
ATOM      7  C   UNL     1      29.539  29.051  24.587  1.00  0.00     0.152 A 
ATOM      8  C   UNL     1      29.307  27.690  24.407  1.00  0.00     0.127 A 
ATOM      9  N   UNL     1      29.959  26.786  23.666  1.00  0.00    -0.340 N 
ATOM     10  H   UNL     1      30.795  26.923  23.056  1.00  0.00     0.168 HD
ENDROOT
BRANCH   7  11
ATOM     11  N   UNL     1      30.613  29.732  23.937  1.00  0.00    -0.382 N 
ATOM     12  H   UNL     1      31.508  29.903  24.448  1.00  0.00     0.158 HD
ATOM     13  H   UNL     1      30.528  30.066  22.953  1.00  0.00     0.158 HD
ENDBRANCH   7  11
TORSDOF 1
ENDMDL
MODEL 8
REMARK VINA RESULT:    -3.003     11.614     12.720
REMARK INTER + INTRA:          -3.091
REMARK INTER:                  -3.091
REMARK INTRA:                   0.000
REMARK UNBOUND:                 0.000
REMARK SMILES Nc1ncnc2nc[nH]c12
REMARK SMILES IDX 8 1 7 2 6 3 5 4 4 5 3 6 2 7 10 8 9 9 1 11
REMARK H PARENT 9 10 1 12 1 13
REMARK Flexibility Score: inf
ROOT
ATOM      1  C   UNL     1      19.380  32.374  24.768  1.00  0.00     0.199 A 
ATOM      2  N   UNL     1      19.615  32.984  23.575  1.00  0.00    -0.217 NA
ATOM      3  C   UNL     1      18.661  32.456  22.791  1.00  0.00     0.182 A 
ATOM      4  N   UNL     1      18.447  32.730  21.482  1.00  0.00    -0.215 NA
ATOM      5  C   UNL     1      17.419  32.088  20.849  1.00  0.00     0.226 A 
ATOM      6  N   UNL     1      16.631  31.194  21.528  1.00  0.00    -0.217 NA
ATOM      7  C   UNL     1      16.845  30.917  22.849  1.00  0.00     0.152 A 
ATOM      8  C   UNL     1      17.895  31.578  23.480  1.00  0.00     0.127 A 
ATOM      9  N   UNL     1      18.335  31.509  24.742  1.00  0.00    -0.340 N 
ATOM     10  H   UNL     1      17.969  30.930  25.531  1.00  0.00     0.168 HD
ENDROOT
BRANCH   7  11
ATOM     11  N   UNL     1      16.012  29.983  23.537  1.00  0.00    -0.382 N 
ATOM     12  H   UNL     1      16.440  29.260  24.157  1.00  0.00     0.158 HD
ATOM     13  H   UNL     1      14.974  30.003  23.437  1.00  0.00     0.158 HD
ENDBRANCH   7  11
TORSDOF 1
ENDMDL
MODEL 9
REMARK VINA RESULT:    -2.964     19.852     20.578
REMARK INTER + INTRA:          -3.051
REMARK INTER:                  -3.051
REMARK INTRA:                   0.000
REMARK UNBOUND:                 0.000
REMARK SMILES Nc1ncnc2nc[nH]c12
REMARK SMILES IDX 8 1 7 2 6 3 5 4 4 5 3 6 2 7 10 8 9 9 1 11
REMARK H PARENT 9 10 1 12 1 13
REMARK Flexibility Score: inf
ROOT
ATOM      1  C   UNL     1      18.584  16.411   9.552  1.00  0.00     0.199 A 
ATOM      2  N   UNL     1      19.206  15.281   9.987  1.00  0.00    -0.217 NA
ATOM      3  C   UNL     1      18.813  15.215  11.270  1.00  0.00     0.182 A 
ATOM      4  N   UNL     1      19.154  14.263  12.171  1.00  0.00    -0.215 NA
ATOM      5  C   UNL     1      18.651  14.365  13.439  1.00  0.00     0.226 A 
ATOM      6  N   UNL     1      17.825  15.406  13.778  1.00  0.00    -0.217 NA
ATOM      7  C   UNL     1      17.479  16.366  12.870  1.00  0.00     0.152 A 
ATOM      8  C   UNL     1      17.999  16.249  11.584  1.00  0.00     0.127 A 
ATOM      9  N   UNL     1      17.838  17.025  10.505  1.00  0.00    -0.340 N 
ATOM     10  H   UNL     1      17.275  17.898  10.407  1.00  0.00     0.168 HD
ENDROOT
BRANCH   7  11
ATOM     11  N   UNL     1      16.616  17.441  13.246  1.00  0.00    -0.382 N 
ATOM     12  H   UNL     1      15.746  17.246  13.789  1.00  0.00     0.158 HD
ATOM     13  H   UNL     1      16.834  18.428  12.991  1.00  0.00     0.158 HD
ENDBRANCH   7  11
TORSDOF 1
ENDMDL
