MODEL 1
REMARK VINA RESULT:    -5.042      0.000      0.000
REMARK INTER + INTRA:         -11.871
REMARK INTER:                  -9.757
REMARK INTRA:                  -2.113
REMARK UNBOUND:                -2.113
REMARK SMILES CCCCCCCCCCCCCCCCCC(=O)[O-]
REMARK SMILES IDX 10 1 11 2 12 3 13 4 14 5 15 6 16 7 17 8 18 9 19 10 20 11
REMARK SMILES IDX 9 12 8 13 7 14 6 15 5 16 4 17 3 18 2 19 1 20
REMARK H PARENT
REMARK Flexibility Score: inf
ROOT
ATOM      1  C   UNL     1      35.621   7.657  11.183  1.00  0.00     0.000 C 
ENDROOT
BRANCH   1   2
ATOM      2  C   UNL     1      34.372   8.017  12.009  1.00  0.00     0.000 C 
BRANCH   2   3
ATOM      3  C   UNL     1      33.063   7.615  11.310  1.00  0.00     0.000 C 
BRANCH   3   4
ATOM      4  C   UNL     1      31.946   7.256  12.306  1.00  0.00     0.000 C 
BRANCH   4   5
ATOM      5  C   UNL     1      31.559   5.766  12.259  1.00  0.00     0.000 C 
BRANCH   5   6
ATOM      6  C   UNL     1      32.445   4.890  11.354  1.00  0.00     0.000 C 
BRANCH   6   7
ATOM      7  C   UNL     1      33.225   3.817  12.135  1.00  0.00     0.006 C 
BRANCH   7   8
ATOM      8  C   UNL     1      32.769   3.720  13.597  1.00  0.00     0.053 C 
BRANCH   8   9
ATOM      9  C   UNL     1      33.928   3.539  14.526  1.00  0.00     0.041 C 
ATOM     10  O   UNL     1      34.738   4.482  14.724  1.00  0.00    -0.550 OA
ATOM     11  O   UNL     1      34.091   2.339  15.207  1.00  0.00    -0.550 OA
ENDBRANCH   8   9
ENDBRANCH   7   8
ENDBRANCH   6   7
ENDBRANCH   5   6
ENDBRANCH   4   5
ENDBRANCH   3   4
ENDBRANCH   2   3
ENDBRANCH   1   2
BRANCH   1  12
ATOM     12  C   UNL     1      36.006   6.174  11.318  1.00  0.00     0.000 C 
BRANCH  12  13
ATOM     13  C   UNL     1      36.547   5.586  10.002  1.00  0.00    -0.000 C 
BRANCH  13  14
ATOM     14  C   UNL     1      35.599   4.544   9.388  1.00  0.00    -0.000 C 
BRANCH  14  15
ATOM     15  C   UNL     1      35.109   4.938   7.986  1.00  0.00    -0.000 C 
BRANCH  15  16
ATOM     16  C   UNL     1      33.613   5.274   8.002  1.00  0.00    -0.000 C 
BRANCH  16  17
ATOM     17  C   UNL     1      32.763   4.000   7.890  1.00  0.00    -0.000 C 
BRANCH  17  18
ATOM     18  C   UNL     1      31.983   3.921   6.568  1.00  0.00    -0.000 C 
BRANCH  18  19
ATOM     19  C   UNL     1      32.353   5.051   5.595  1.00  0.00    -0.003 C 
ATOM     20  C   UNL     1      31.250   5.269   4.562  1.00  0.00     0.004 C 
ENDBRANCH  18  19
ENDBRANCH  17  18
ENDBRANCH  16  17
ENDBRANCH  15  16
ENDBRANCH  14  15
ENDBRANCH  13  14
ENDBRANCH  12  13
ENDBRANCH   1  12
TORSDOF 16
ENDMDL
MODEL 2
REMARK VINA RESULT:    -5.036      3.430      6.413
REMARK INTER + INTRA:         -11.860
REMARK INTER:                  -9.360
REMARK INTRA:                  -2.500
REMARK UNBOUND:                -2.113
REMARK SMILES CCCCCCCCCCCCCCCCCC(=O)[O-]
REMARK SMILES IDX 10 1 11 2 12 3 13 4 14 5 15 6 16 7 17 8 18 9 19 10 20 11
REMARK SMILES IDX 9 12 8 13 7 14 6 15 5 16 4 17 3 18 2 19 1 20
REMARK H PARENT
REMARK Flexibility Score: inf
ROOT
ATOM      1  C   UNL     1      31.806   6.103  12.076  1.00  0.00     0.000 C 
ENDROOT
BRANCH   1   2
ATOM      2  C   UNL     1      32.619   5.134  12.953  1.00  0.00     0.000 C 
BRANCH   2   3
ATOM      3  C   UNL     1      32.994   3.838  12.215  1.00  0.00     0.000 C 
BRANCH   3   4
ATOM      4  C   UNL     1      32.878   3.971  10.687  1.00  0.00     0.000 C 
BRANCH   4   5
ATOM      5  C   UNL     1      34.230   3.804   9.967  1.00  0.00     0.000 C 
BRANCH   5   6
ATOM      6  C   UNL     1      34.288   4.388   8.543  1.00  0.00     0.000 C 
BRANCH   6   7
ATOM      7  C   UNL     1      32.902   4.490   7.880  1.00  0.00     0.006 C 
BRANCH   7   8
ATOM      8  C   UNL     1      32.998   4.876   6.398  1.00  0.00     0.053 C 
BRANCH   8   9
ATOM      9  C   UNL     1      31.666   4.801   5.721  1.00  0.00     0.041 C 
ATOM     10  O   UNL     1      30.675   4.305   6.319  1.00  0.00    -0.550 OA
ATOM     11  O   UNL     1      31.507   5.318   4.442  1.00  0.00    -0.550 OA
ENDBRANCH   8   9
ENDBRANCH   7   8
ENDBRANCH   6   7
ENDBRANCH   5   6
ENDBRANCH   4   5
ENDBRANCH   3   4
ENDBRANCH   2   3
ENDBRANCH   1   2
BRANCH   1  12
ATOM     12  C   UNL     1      31.850   7.548  12.599  1.00  0.00     0.000 C 
BRANCH  12  13
ATOM     13  C   UNL     1      32.989   8.367  11.968  1.00  0.00    -0.000 C 
BRANCH  13  14
ATOM     14  C   UNL     1      33.271   7.961  10.512  1.00  0.00    -0.000 C 
BRANCH  14  15
ATOM     15  C   UNL     1      34.715   7.480  10.297  1.00  0.00    -0.000 C 
BRANCH  15  16
ATOM     16  C   UNL     1      35.529   7.595  11.591  1.00  0.00    -0.000 C 
BRANCH  16  17
ATOM     17  C   UNL     1      36.371   6.331  11.822  1.00  0.00    -0.000 C 
BRANCH  17  18
ATOM     18  C   UNL     1      37.206   5.940  10.592  1.00  0.00    -0.000 C 
BRANCH  18  19
ATOM     19  C   UNL     1      38.461   6.811  10.427  1.00  0.00    -0.003 C 
ATOM     20  C   UNL     1      39.237   6.910  11.738  1.00  0.00     0.004 C 
ENDBRANCH  18  19
ENDBRANCH  17  18
ENDBRANCH  16  17
ENDBRANCH  15  16
ENDBRANCH  14  15
ENDBRANCH  13  14
ENDBRANCH  12  13
ENDBRANCH   1  12
TORSDOF 16
ENDMDL
MODEL 3
REMARK VINA RESULT:    -5.010      2.495      5.874
REMARK INTER + INTRA:         -11.809
REMARK INTER:                  -9.805
REMARK INTRA:                  -2.003
REMARK UNBOUND:                -2.113
REMARK SMILES CCCCCCCCCCCCCCCCCC(=O)[O-]
REMARK SMILES IDX 10 1 11 2 12 3 13 4 14 5 15 6 16 7 17 8 18 9 19 10 20 11
REMARK SMILES IDX 9 12 8 13 7 14 6 15 5 16 4 17 3 18 2 19 1 20
REMARK H PARENT
REMARK Flexibility Score: inf
ROOT
ATOM      1  C   UNL     1      33.527   3.081  11.345  1.00  0.00     0.000 C 
ENDROOT
BRANCH   1   2
ATOM      2  C   UNL     1      32.567   3.788  10.371  1.00  0.00     0.000 C 
BRANCH   2   3
ATOM      3  C   UNL     1      32.602   3.182   8.959  1.00  0.00     0.000 C 
BRANCH   3   4
ATOM      4  C   UNL     1      32.614   4.253   7.854  1.00  0.00     0.000 C 
BRANCH   4   5
ATOM      5  C   UNL     1      33.977   4.958   7.718  1.00  0.00     0.000 C 
BRANCH   5   6
ATOM      6  C   UNL     1      33.955   6.475   7.980  1.00  0.00     0.000 C 
BRANCH   6   7
ATOM      7  C   UNL     1      34.541   6.856   9.352  1.00  0.00     0.006 C 
BRANCH   7   8
ATOM      8  C   UNL     1      35.764   6.003   9.715  1.00  0.00     0.053 C 
BRANCH   8   9
ATOM      9  C   UNL     1      36.783   6.793  10.474  1.00  0.00     0.041 C 
ATOM     10  O   UNL     1      36.446   7.838  11.091  1.00  0.00    -0.550 OA
ATOM     11  O   UNL     1      38.099   6.353  10.536  1.00  0.00    -0.550 OA
ENDBRANCH   8   9
ENDBRANCH   7   8
ENDBRANCH   6   7
ENDBRANCH   5   6
ENDBRANCH   4   5
ENDBRANCH   3   4
ENDBRANCH   2   3
ENDBRANCH   1   2
BRANCH   1  12
ATOM     12  C   UNL     1      32.908   2.879  12.738  1.00  0.00     0.000 C 
BRANCH  12  13
ATOM     13  C   UNL     1      32.837   4.188  13.544  1.00  0.00    -0.000 C 
BRANCH  13  14
ATOM     14  C   UNL     1      34.175   4.944  13.561  1.00  0.00    -0.000 C 
BRANCH  14  15
ATOM     15  C   UNL     1      34.056   6.377  13.020  1.00  0.00    -0.000 C 
BRANCH  15  16
ATOM     16  C   UNL     1      32.600   6.717  12.682  1.00  0.00    -0.000 C 
BRANCH  16  17
ATOM     17  C   UNL     1      32.514   8.020  11.873  1.00  0.00    -0.000 C 
BRANCH  17  18
ATOM     18  C   UNL     1      31.334   8.907  12.301  1.00  0.00    -0.000 C 
BRANCH  18  19
ATOM     19  C   UNL     1      31.511  10.373  11.878  1.00  0.00    -0.003 C 
ATOM     20  C   UNL     1      30.303  11.213  12.286  1.00  0.00     0.004 C 
ENDBRANCH  18  19
ENDBRANCH  17  18
ENDBRANCH  16  17
ENDBRANCH  15  16
ENDBRANCH  14  15
ENDBRANCH  13  14
ENDBRANCH  12  13
ENDBRANCH   1  12
TORSDOF 16
ENDMDL
MODEL 4
REMARK VINA RESULT:    -4.966      2.398      5.336
REMARK INTER + INTRA:         -11.724
REMARK INTER:                  -9.118
REMARK INTRA:                  -2.606
REMARK UNBOUND:                -2.113
REMARK SMILES CCCCCCCCCCCCCCCCCC(=O)[O-]
REMARK SMILES IDX 10 1 11 2 12 3 13 4 14 5 15 6 16 7 17 8 18 9 19 10 20 11
REMARK SMILES IDX 9 12 8 13 7 14 6 15 5 16 4 17 3 18 2 19 1 20
REMARK H PARENT
REMARK Flexibility Score: inf
ROOT
ATOM      1  C   UNL     1      32.523   3.363  10.330  1.00  0.00     0.000 C 
ENDROOT
BRANCH   1   2
ATOM      2  C   UNL     1      33.265   2.310  11.174  1.00  0.00     0.000 C 
BRANCH   2   3
ATOM      3  C   UNL     1      33.161   2.580  12.684  1.00  0.00     0.000 C 
BRANCH   3   4
ATOM      4  C   UNL     1      32.849   4.053  13.003  1.00  0.00     0.000 C 
BRANCH   4   5
ATOM      5  C   UNL     1      33.999   4.762  13.743  1.00  0.00     0.000 C 
BRANCH   5   6
ATOM      6  C   UNL     1      34.538   6.028  13.051  1.00  0.00     0.000 C 
BRANCH   6   7
ATOM      7  C   UNL     1      33.607   6.547  11.941  1.00  0.00     0.006 C 
BRANCH   7   8
ATOM      8  C   UNL     1      33.649   8.076  11.821  1.00  0.00     0.053 C 
BRANCH   8   9
ATOM      9  C   UNL     1      32.389   8.705  12.329  1.00  0.00     0.041 C 
ATOM     10  O   UNL     1      31.687   8.114  13.191  1.00  0.00    -0.550 OA
ATOM     11  O   UNL     1      32.011   9.964  11.880  1.00  0.00    -0.550 OA
ENDBRANCH   8   9
ENDBRANCH   7   8
ENDBRANCH   6   7
ENDBRANCH   5   6
ENDBRANCH   4   5
ENDBRANCH   3   4
ENDBRANCH   2   3
ENDBRANCH   1   2
BRANCH   1  12
ATOM     12  C   UNL     1      32.278   2.892   8.887  1.00  0.00     0.000 C 
BRANCH  12  13
ATOM     13  C   UNL     1      32.848   3.870   7.845  1.00  0.00    -0.000 C 
BRANCH  13  14
ATOM     14  C   UNL     1      33.286   5.206   8.467  1.00  0.00    -0.000 C 
BRANCH  14  15
ATOM     15  C   UNL     1      34.761   5.536   8.193  1.00  0.00    -0.000 C 
BRANCH  15  16
ATOM     16  C   UNL     1      35.684   4.492   8.832  1.00  0.00    -0.000 C 
BRANCH  16  17
ATOM     17  C   UNL     1      36.445   5.089  10.025  1.00  0.00    -0.000 C 
BRANCH  17  18
ATOM     18  C   UNL     1      36.604   6.615   9.924  1.00  0.00    -0.000 C 
BRANCH  18  19
ATOM     19  C   UNL     1      37.335   7.216  11.134  1.00  0.00    -0.003 C 
ATOM     20  C   UNL     1      38.745   6.646  11.262  1.00  0.00     0.004 C 
ENDBRANCH  18  19
ENDBRANCH  17  18
ENDBRANCH  16  17
ENDBRANCH  15  16
ENDBRANCH  14  15
ENDBRANCH  13  14
ENDBRANCH  12  13
ENDBRANCH   1  12
TORSDOF 16
ENDMDL
MODEL 5
REMARK VINA RESULT:    -4.954      2.919      6.102
REMARK INTER + INTRA:         -11.700
REMARK INTER:                  -9.493
REMARK INTRA:                  -2.207
REMARK UNBOUND:                -2.113
REMARK SMILES CCCCCCCCCCCCCCCCCC(=O)[O-]
REMARK SMILES IDX 10 1 11 2 12 3 13 4 14 5 15 6 16 7 17 8 18 9 19 10 20 11
REMARK SMILES IDX 9 12 8 13 7 14 6 15 5 16 4 17 3 18 2 19 1 20
REMARK H PARENT
REMARK Flexibility Score: inf
ROOT
ATOM      1  C   UNL     1      32.578   4.851  13.404  1.00  0.00     0.000 C 
ENDROOT
BRANCH   1   2
ATOM      2  C   UNL     1      33.605   3.737  13.135  1.00  0.00     0.000 C 
BRANCH   2   3
ATOM      3  C   UNL     1      32.971   2.483  12.511  1.00  0.00     0.000 C 
BRANCH   3   4
ATOM      4  C   UNL     1      33.533   2.167  11.114  1.00  0.00     0.000 C 
BRANCH   4   5
ATOM      5  C   UNL     1      32.509   2.407   9.988  1.00  0.00     0.000 C 
BRANCH   5   6
ATOM      6  C   UNL     1      32.761   3.665   9.136  1.00  0.00     0.000 C 
BRANCH   6   7
ATOM      7  C   UNL     1      34.166   4.259   9.341  1.00  0.00     0.006 C 
BRANCH   7   8
ATOM      8  C   UNL     1      34.702   4.928   8.069  1.00  0.00     0.053 C 
BRANCH   8   9
ATOM      9  C   UNL     1      33.727   5.918   7.513  1.00  0.00     0.041 C 
ATOM     10  O   UNL     1      33.650   7.077   7.999  1.00  0.00    -0.550 OA
ATOM     11  O   UNL     1      32.930   5.573   6.428  1.00  0.00    -0.550 OA
ENDBRANCH   8   9
ENDBRANCH   7   8
ENDBRANCH   6   7
ENDBRANCH   5   6
ENDBRANCH   4   5
ENDBRANCH   3   4
ENDBRANCH   2   3
ENDBRANCH   1   2
BRANCH   1  12
ATOM     12  C   UNL     1      32.009   5.451  12.107  1.00  0.00     0.000 C 
BRANCH  12  13
ATOM     13  C   UNL     1      31.271   6.779  12.350  1.00  0.00    -0.000 C 
BRANCH  13  14
ATOM     14  C   UNL     1      32.229   7.977  12.458  1.00  0.00    -0.000 C 
BRANCH  14  15
ATOM     15  C   UNL     1      33.289   7.994  11.345  1.00  0.00    -0.000 C 
BRANCH  15  16
ATOM     16  C   UNL     1      34.703   7.950  11.935  1.00  0.00    -0.000 C 
BRANCH  16  17
ATOM     17  C   UNL     1      35.719   7.472  10.887  1.00  0.00    -0.000 C 
BRANCH  17  18
ATOM     18  C   UNL     1      36.524   6.249  11.356  1.00  0.00    -0.000 C 
BRANCH  18  19
ATOM     19  C   UNL     1      37.903   6.154  10.685  1.00  0.00    -0.003 C 
ATOM     20  C   UNL     1      38.971   6.853  11.524  1.00  0.00     0.004 C 
ENDBRANCH  18  19
ENDBRANCH  17  18
ENDBRANCH  16  17
ENDBRANCH  15  16
ENDBRANCH  14  15
ENDBRANCH  13  14
ENDBRANCH  12  13
ENDBRANCH   1  12
TORSDOF 16
ENDMDL
MODEL 6
REMARK VINA RESULT:    -4.919      1.758      4.803
REMARK INTER + INTRA:         -11.633
REMARK INTER:                  -9.618
REMARK INTRA:                  -2.015
REMARK UNBOUND:                -2.113
REMARK SMILES CCCCCCCCCCCCCCCCCC(=O)[O-]
REMARK SMILES IDX 10 1 11 2 12 3 13 4 14 5 15 6 16 7 17 8 18 9 19 10 20 11
REMARK SMILES IDX 9 12 8 13 7 14 6 15 5 16 4 17 3 18 2 19 1 20
REMARK H PARENT
REMARK Flexibility Score: inf
ROOT
ATOM      1  C   UNL     1      34.963   6.527   9.059  1.00  0.00     0.000 C 
ENDROOT
BRANCH   1   2
ATOM      2  C   UNL     1      34.564   5.420   8.066  1.00  0.00     0.000 C 
BRANCH   2   3
ATOM      3  C   UNL     1      33.050   5.159   8.044  1.00  0.00     0.000 C 
BRANCH   3   4
ATOM      4  C   UNL     1      32.706   3.660   8.050  1.00  0.00     0.000 C 
BRANCH   4   5
ATOM      5  C   UNL     1      32.825   3.023   9.448  1.00  0.00     0.000 C 
BRANCH   5   6
ATOM      6  C   UNL     1      32.524   3.972  10.624  1.00  0.00     0.000 C 
BRANCH   6   7
ATOM      7  C   UNL     1      33.588   3.908  11.734  1.00  0.00     0.006 C 
BRANCH   7   8
ATOM      8  C   UNL     1      33.003   4.236  13.114  1.00  0.00     0.053 C 
BRANCH   8   9
ATOM      9  C   UNL     1      33.923   3.816  14.218  1.00  0.00     0.041 C 
ATOM     10  O   UNL     1      34.686   4.657  14.764  1.00  0.00    -0.550 OA
ATOM     11  O   UNL     1      33.910   2.504  14.673  1.00  0.00    -0.550 OA
ENDBRANCH   8   9
ENDBRANCH   7   8
ENDBRANCH   6   7
ENDBRANCH   5   6
ENDBRANCH   4   5
ENDBRANCH   3   4
ENDBRANCH   2   3
ENDBRANCH   1   2
BRANCH   1  12
ATOM     12  C   UNL     1      36.210   6.158   9.880  1.00  0.00     0.000 C 
BRANCH  12  13
ATOM     13  C   UNL     1      36.121   6.649  11.335  1.00  0.00    -0.000 C 
BRANCH  13  14
ATOM     14  C   UNL     1      35.163   7.841  11.499  1.00  0.00    -0.000 C 
BRANCH  14  15
ATOM     15  C   UNL     1      34.005   7.545  12.464  1.00  0.00    -0.000 C 
BRANCH  15  16
ATOM     16  C   UNL     1      32.651   7.722  11.766  1.00  0.00    -0.000 C 
BRANCH  16  17
ATOM     17  C   UNL     1      31.781   8.747  12.509  1.00  0.00    -0.000 C 
BRANCH  17  18
ATOM     18  C   UNL     1      31.875  10.156  11.902  1.00  0.00    -0.000 C 
BRANCH  18  19
ATOM     19  C   UNL     1      30.991  11.177  12.633  1.00  0.00    -0.003 C 
ATOM     20  C   UNL     1      29.639  11.330  11.940  1.00  0.00     0.004 C 
ENDBRANCH  18  19
ENDBRANCH  17  18
ENDBRANCH  16  17
ENDBRANCH  15  16
ENDBRANCH  14  15
ENDBRANCH  13  14
ENDBRANCH  12  13
ENDBRANCH   1  12
TORSDOF 16
ENDMDL
MODEL 7
REMARK VINA RESULT:    -4.916      3.663      6.552
REMARK INTER + INTRA:         -11.628
REMARK INTER:                  -9.183
REMARK INTRA:                  -2.445
REMARK UNBOUND:                -2.113
REMARK SMILES CCCCCCCCCCCCCCCCCC(=O)[O-]
REMARK SMILES IDX 10 1 11 2 12 3 13 4 14 5 15 6 16 7 17 8 18 9 19 10 20 11
REMARK SMILES IDX 9 12 8 13 7 14 6 15 5 16 4 17 3 18 2 19 1 20
REMARK H PARENT
REMARK Flexibility Score: inf
ROOT
ATOM      1  C   UNL     1      36.778   6.543   9.981  1.00  0.00     0.000 C 
ENDROOT
BRANCH   1   2
ATOM      2  C   UNL     1      36.216   5.134  10.240  1.00  0.00     0.000 C 
BRANCH   2   3
ATOM      3  C   UNL     1      35.516   4.538   9.008  1.00  0.00     0.000 C 
BRANCH   3   4
ATOM      4  C   UNL     1      34.831   5.608   8.140  1.00  0.00     0.000 C 
BRANCH   4   5
ATOM      5  C   UNL     1      33.300   5.448   8.089  1.00  0.00     0.000 C 
BRANCH   5   6
ATOM      6  C   UNL     1      32.795   3.994   8.114  1.00  0.00     0.000 C 
BRANCH   6   7
ATOM      7  C   UNL     1      32.193   3.544   6.771  1.00  0.00     0.006 C 
BRANCH   7   8
ATOM      8  C   UNL     1      32.095   4.700   5.766  1.00  0.00     0.053 C 
BRANCH   8   9
ATOM      9  C   UNL     1      31.332   4.303   4.541  1.00  0.00     0.041 C 
ATOM     10  O   UNL     1      31.272   5.079   3.550  1.00  0.00    -0.550 OA
ATOM     11  O   UNL     1      30.720   3.058   4.476  1.00  0.00    -0.550 OA
ENDBRANCH   8   9
ENDBRANCH   7   8
ENDBRANCH   6   7
ENDBRANCH   5   6
ENDBRANCH   4   5
ENDBRANCH   3   4
ENDBRANCH   2   3
ENDBRANCH   1   2
BRANCH   1  12
ATOM     12  C   UNL     1      36.468   7.520  11.127  1.00  0.00     0.000 C 
BRANCH  12  13
ATOM     13  C   UNL     1      35.352   7.004  12.053  1.00  0.00    -0.000 C 
BRANCH  13  14
ATOM     14  C   UNL     1      34.116   7.919  12.054  1.00  0.00    -0.000 C 
BRANCH  14  15
ATOM     15  C   UNL     1      32.916   7.299  11.322  1.00  0.00    -0.000 C 
BRANCH  15  16
ATOM     16  C   UNL     1      32.203   6.272  12.209  1.00  0.00    -0.000 C 
BRANCH  16  17
ATOM     17  C   UNL     1      32.192   4.887  11.546  1.00  0.00    -0.000 C 
BRANCH  17  18
ATOM     18  C   UNL     1      33.236   3.933  12.150  1.00  0.00    -0.000 C 
BRANCH  18  19
ATOM     19  C   UNL     1      33.396   4.113  13.667  1.00  0.00    -0.003 C 
ATOM     20  C   UNL     1      33.550   2.765  14.367  1.00  0.00     0.004 C 
ENDBRANCH  18  19
ENDBRANCH  17  18
ENDBRANCH  16  17
ENDBRANCH  15  16
ENDBRANCH  14  15
ENDBRANCH  13  14
ENDBRANCH  12  13
ENDBRANCH   1  12
TORSDOF 16
ENDMDL
MODEL 8
REMARK VINA RESULT:    -4.881      1.392      4.268
REMARK INTER + INTRA:         -11.560
REMARK INTER:                  -9.310
REMARK INTRA:                  -2.251
REMARK UNBOUND:                -2.113
REMARK SMILES CCCCCCCCCCCCCCCCCC(=O)[O-]
REMARK SMILES IDX 10 1 11 2 12 3 13 4 14 5 15 6 16 7 17 8 18 9 19 10 20 11
REMARK SMILES IDX 9 12 8 13 7 14 6 15 5 16 4 17 3 18 2 19 1 20
REMARK H PARENT
REMARK Flexibility Score: inf
ROOT
ATOM      1  C   UNL     1      35.112   5.863   8.264  1.00  0.00     0.000 C 
ENDROOT
BRANCH   1   2
ATOM      2  C   UNL     1      33.609   5.664   7.997  1.00  0.00     0.000 C 
BRANCH   2   3
ATOM      3  C   UNL     1      33.227   4.185   7.827  1.00  0.00     0.000 C 
BRANCH   3   4
ATOM      4  C   UNL     1      32.116   3.744   8.797  1.00  0.00     0.000 C 
BRANCH   4   5
ATOM      5  C   UNL     1      32.584   2.669   9.796  1.00  0.00     0.000 C 
BRANCH   5   6
ATOM      6  C   UNL     1      33.497   3.182  10.925  1.00  0.00     0.000 C 
BRANCH   6   7
ATOM      7  C   UNL     1      32.947   2.873  12.329  1.00  0.00     0.006 C 
BRANCH   7   8
ATOM      8  C   UNL     1      33.045   4.084  13.267  1.00  0.00     0.053 C 
BRANCH   8   9
ATOM      9  C   UNL     1      34.015   3.841  14.382  1.00  0.00     0.041 C 
ATOM     10  O   UNL     1      34.053   2.722  14.958  1.00  0.00    -0.550 OA
ATOM     11  O   UNL     1      34.906   4.838  14.757  1.00  0.00    -0.550 OA
ENDBRANCH   8   9
ENDBRANCH   7   8
ENDBRANCH   6   7
ENDBRANCH   5   6
ENDBRANCH   4   5
ENDBRANCH   3   4
ENDBRANCH   2   3
ENDBRANCH   1   2
BRANCH   1  12
ATOM     12  C   UNL     1      35.758   4.634   8.926  1.00  0.00     0.000 C 
BRANCH  12  13
ATOM     13  C   UNL     1      36.633   5.010  10.134  1.00  0.00    -0.000 C 
BRANCH  13  14
ATOM     14  C   UNL     1      37.243   6.415  10.008  1.00  0.00    -0.000 C 
BRANCH  14  15
ATOM     15  C   UNL     1      36.828   7.350  11.155  1.00  0.00    -0.000 C 
BRANCH  15  16
ATOM     16  C   UNL     1      35.613   6.791  11.905  1.00  0.00    -0.000 C 
BRANCH  16  17
ATOM     17  C   UNL     1      34.492   7.838  11.988  1.00  0.00    -0.000 C 
BRANCH  17  18
ATOM     18  C   UNL     1      33.194   7.373  11.308  1.00  0.00    -0.000 C 
BRANCH  18  19
ATOM     19  C   UNL     1      31.974   7.461  12.236  1.00  0.00    -0.003 C 
ATOM     20  C   UNL     1      31.417   8.882  12.278  1.00  0.00     0.004 C 
ENDBRANCH  18  19
ENDBRANCH  17  18
ENDBRANCH  16  17
ENDBRANCH  15  16
ENDBRANCH  14  15
ENDBRANCH  13  14
ENDBRANCH  12  13
ENDBRANCH   1  12
TORSDOF 16
ENDMDL
MODEL 9
REMARK VINA RESULT:    -4.795      3.720      6.529
REMARK INTER + INTRA:         -11.393
REMARK INTER:                  -9.658
REMARK INTRA:                  -1.735
REMARK UNBOUND:                -2.113
REMARK SMILES CCCCCCCCCCCCCCCCCC(=O)[O-]
REMARK SMILES IDX 10 1 11 2 12 3 13 4 14 5 15 6 16 7 17 8 18 9 19 10 20 11
REMARK SMILES IDX 9 12 8 13 7 14 6 15 5 16 4 17 3 18 2 19 1 20
REMARK H PARENT
REMARK Flexibility Score: inf
ROOT
ATOM      1  C   UNL     1      33.062   4.141  12.949  1.00  0.00     0.000 C 
ENDROOT
BRANCH   1   2
ATOM      2  C   UNL     1      33.250   2.700  12.439  1.00  0.00     0.000 C 
BRANCH   2   3
ATOM      3  C   UNL     1      32.947   2.558  10.938  1.00  0.00     0.000 C 
BRANCH   3   4
ATOM      4  C   UNL     1      32.674   3.911  10.258  1.00  0.00     0.000 C 
BRANCH   4   5
ATOM      5  C   UNL     1      33.668   4.221   9.121  1.00  0.00     0.000 C 
BRANCH   5   6
ATOM      6  C   UNL     1      33.479   5.592   8.447  1.00  0.00     0.000 C 
BRANCH   6   7
ATOM      7  C   UNL     1      33.206   5.486   6.936  1.00  0.00     0.006 C 
BRANCH   7   8
ATOM      8  C   UNL     1      32.425   4.214   6.578  1.00  0.00     0.053 C 
BRANCH   8   9
ATOM      9  C   UNL     1      31.717   4.352   5.267  1.00  0.00     0.041 C 
ATOM     10  O   UNL     1      31.751   5.442   4.637  1.00  0.00    -0.550 OA
ATOM     11  O   UNL     1      31.052   3.263   4.718  1.00  0.00    -0.550 OA
ENDBRANCH   8   9
ENDBRANCH   7   8
ENDBRANCH   6   7
ENDBRANCH   5   6
ENDBRANCH   4   5
ENDBRANCH   3   4
ENDBRANCH   2   3
ENDBRANCH   1   2
BRANCH   1  12
ATOM     12  C   UNL     1      34.042   4.496  14.079  1.00  0.00     0.000 C 
BRANCH  12  13
ATOM     13  C   UNL     1      35.008   5.628  13.685  1.00  0.00    -0.000 C 
BRANCH  13  14
ATOM     14  C   UNL     1      34.916   5.990  12.194  1.00  0.00    -0.000 C 
BRANCH  14  15
ATOM     15  C   UNL     1      34.987   7.505  11.944  1.00  0.00    -0.000 C 
BRANCH  15  16
ATOM     16  C   UNL     1      33.646   8.040  11.429  1.00  0.00    -0.000 C 
BRANCH  16  17
ATOM     17  C   UNL     1      32.501   7.650  12.376  1.00  0.00    -0.000 C 
BRANCH  17  18
ATOM     18  C   UNL     1      31.307   8.615  12.292  1.00  0.00    -0.000 C 
BRANCH  18  19
ATOM     19  C   UNL     1      31.729  10.049  11.941  1.00  0.00    -0.003 C 
ATOM     20  C   UNL     1      30.622  11.046  12.280  1.00  0.00     0.004 C 
ENDBRANCH  18  19
ENDBRANCH  17  18
ENDBRANCH  16  17
ENDBRANCH  15  16
ENDBRANCH  14  15
ENDBRANCH  13  14
ENDBRANCH  12  13
ENDBRANCH   1  12
TORSDOF 16
ENDMDL
