MODEL 1
REMARK VINA RESULT:    -4.438      0.000      0.000
REMARK INTER + INTRA:          -9.643
REMARK INTER:                  -8.588
REMARK INTRA:                  -1.055
REMARK UNBOUND:                -1.055
REMARK SMILES CCCCCCCCCCCCCCCCCC(=O)[O-]
REMARK SMILES IDX 10 1 11 2 12 3 13 4 14 5 15 6 16 7 17 8 18 9 19 10 20 11
REMARK SMILES IDX 9 12 8 13 7 14 6 15 5 16 4 17 3 18 2 19 1 20
REMARK H PARENT
REMARK Flexibility Score: inf
ROOT
ATOM      1  C   UNL     1       2.000  14.518  16.550  1.00  0.00     0.000 C 
ENDROOT
BRANCH   1   2
ATOM      2  C   UNL     1       2.899  13.280  16.409  1.00  0.00     0.000 C 
BRANCH   2   3
ATOM      3  C   UNL     1       3.142  12.888  14.940  1.00  0.00     0.000 C 
BRANCH   3   4
ATOM      4  C   UNL     1       4.443  12.091  14.749  1.00  0.00     0.000 C 
BRANCH   4   5
ATOM      5  C   UNL     1       4.901  11.387  16.038  1.00  0.00     0.000 C 
BRANCH   5   6
ATOM      6  C   UNL     1       6.167  12.038  16.638  1.00  0.00     0.000 C 
BRANCH   6   7
ATOM      7  C   UNL     1       6.571  11.449  18.004  1.00  0.00     0.006 C 
BRANCH   7   8
ATOM      8  C   UNL     1       5.415  11.354  19.011  1.00  0.00     0.053 C 
BRANCH   8   9
ATOM      9  C   UNL     1       5.786  10.535  20.212  1.00  0.00     0.041 C 
ATOM     10  O   UNL     1       4.891  10.009  20.924  1.00  0.00    -0.550 OA
ATOM     11  O   UNL     1       7.124  10.352  20.541  1.00  0.00    -0.550 OA
ENDBRANCH   8   9
ENDBRANCH   7   8
ENDBRANCH   6   7
ENDBRANCH   5   6
ENDBRANCH   4   5
ENDBRANCH   3   4
ENDBRANCH   2   3
ENDBRANCH   1   2
BRANCH   1  12
ATOM     12  C   UNL     1       1.503  14.726  17.992  1.00  0.00     0.000 C 
BRANCH  12  13
ATOM     13  C   UNL     1       0.668  16.007  18.147  1.00  0.00    -0.000 C 
BRANCH  13  14
ATOM     14  C   UNL     1      -0.778  15.717  18.585  1.00  0.00    -0.000 C 
BRANCH  14  15
ATOM     15  C   UNL     1      -1.631  16.992  18.686  1.00  0.00    -0.000 C 
BRANCH  15  16
ATOM     16  C   UNL     1      -1.322  17.816  19.948  1.00  0.00    -0.000 C 
BRANCH  16  17
ATOM     17  C   UNL     1      -1.085  19.307  19.626  1.00  0.00    -0.000 C 
BRANCH  17  18
ATOM     18  C   UNL     1       0.351  19.620  19.172  1.00  0.00    -0.000 C 
BRANCH  18  19
ATOM     19  C   UNL     1       0.454  19.905  17.667  1.00  0.00    -0.003 C 
ATOM     20  C   UNL     1       1.894  19.774  17.180  1.00  0.00     0.004 C 
ENDBRANCH  18  19
ENDBRANCH  17  18
ENDBRANCH  16  17
ENDBRANCH  15  16
ENDBRANCH  14  15
ENDBRANCH  13  14
ENDBRANCH  12  13
ENDBRANCH   1  12
TORSDOF 16
ENDMDL
MODEL 2
REMARK VINA RESULT:    -4.088      2.482      3.564
REMARK INTER + INTRA:          -8.968
REMARK INTER:                  -7.692
REMARK INTRA:                  -1.276
REMARK UNBOUND:                -1.055
REMARK SMILES CCCCCCCCCCCCCCCCCC(=O)[O-]
REMARK SMILES IDX 10 1 11 2 12 3 13 4 14 5 15 6 16 7 17 8 18 9 19 10 20 11
REMARK SMILES IDX 9 12 8 13 7 14 6 15 5 16 4 17 3 18 2 19 1 20
REMARK H PARENT
REMARK Flexibility Score: inf
ROOT
ATOM      1  C   UNL     1       3.015  12.596  18.206  1.00  0.00     0.000 C 
ENDROOT
BRANCH   1   2
ATOM      2  C   UNL     1       2.770  11.233  18.872  1.00  0.00     0.000 C 
BRANCH   2   3
ATOM      3  C   UNL     1       4.056  10.616  19.451  1.00  0.00     0.000 C 
BRANCH   3   4
ATOM      4  C   UNL     1       5.221  11.616  19.499  1.00  0.00     0.000 C 
BRANCH   4   5
ATOM      5  C   UNL     1       6.498  11.071  18.837  1.00  0.00     0.000 C 
BRANCH   5   6
ATOM      6  C   UNL     1       6.875  11.858  17.563  1.00  0.00     0.000 C 
BRANCH   6   7
ATOM      7  C   UNL     1       6.035  11.468  16.331  1.00  0.00     0.006 C 
BRANCH   7   8
ATOM      8  C   UNL     1       5.287  12.644  15.685  1.00  0.00     0.053 C 
BRANCH   8   9
ATOM      9  C   UNL     1       4.194  12.176  14.771  1.00  0.00     0.041 C 
ATOM     10  O   UNL     1       4.249  11.032  14.247  1.00  0.00    -0.550 OA
ATOM     11  O   UNL     1       3.111  13.005  14.501  1.00  0.00    -0.550 OA
ENDBRANCH   8   9
ENDBRANCH   7   8
ENDBRANCH   6   7
ENDBRANCH   5   6
ENDBRANCH   4   5
ENDBRANCH   3   4
ENDBRANCH   2   3
ENDBRANCH   1   2
BRANCH   1  12
ATOM     12  C   UNL     1       2.008  13.666  18.660  1.00  0.00     0.000 C 
BRANCH  12  13
ATOM     13  C   UNL     1       1.640  14.645  17.532  1.00  0.00    -0.000 C 
BRANCH  13  14
ATOM     14  C   UNL     1       0.943  15.912  18.057  1.00  0.00    -0.000 C 
BRANCH  14  15
ATOM     15  C   UNL     1      -0.540  15.677  18.382  1.00  0.00    -0.000 C 
BRANCH  15  16
ATOM     16  C   UNL     1      -1.273  16.968  18.785  1.00  0.00    -0.000 C 
BRANCH  16  17
ATOM     17  C   UNL     1      -0.310  18.028  19.360  1.00  0.00    -0.000 C 
BRANCH  17  18
ATOM     18  C   UNL     1      -0.188  19.289  18.486  1.00  0.00    -0.000 C 
BRANCH  18  19
ATOM     19  C   UNL     1       1.247  19.547  18.004  1.00  0.00    -0.003 C 
ATOM     20  C   UNL     1       1.257  20.124  16.593  1.00  0.00     0.004 C 
ENDBRANCH  18  19
ENDBRANCH  17  18
ENDBRANCH  16  17
ENDBRANCH  15  16
ENDBRANCH  14  15
ENDBRANCH  13  14
ENDBRANCH  12  13
ENDBRANCH   1  12
TORSDOF 16
ENDMDL
MODEL 3
REMARK VINA RESULT:    -4.086      3.618      8.982
REMARK INTER + INTRA:          -8.963
REMARK INTER:                  -7.873
REMARK INTRA:                  -1.090
REMARK UNBOUND:                -1.055
REMARK SMILES CCCCCCCCCCCCCCCCCC(=O)[O-]
REMARK SMILES IDX 10 1 11 2 12 3 13 4 14 5 15 6 16 7 17 8 18 9 19 10 20 11
REMARK SMILES IDX 9 12 8 13 7 14 6 15 5 16 4 17 3 18 2 19 1 20
REMARK H PARENT
REMARK Flexibility Score: inf
ROOT
ATOM      1  C   UNL     1       2.007  14.434  16.503  1.00  0.00     0.000 C 
ENDROOT
BRANCH   1   2
ATOM      2  C   UNL     1       1.616  14.810  17.941  1.00  0.00     0.000 C 
BRANCH   2   3
ATOM      3  C   UNL     1       0.588  15.955  17.996  1.00  0.00     0.000 C 
BRANCH   3   4
ATOM      4  C   UNL     1      -0.684  15.569  18.768  1.00  0.00     0.000 C 
BRANCH   4   5
ATOM      5  C   UNL     1      -1.727  16.700  18.795  1.00  0.00     0.000 C 
BRANCH   5   6
ATOM      6  C   UNL     1      -1.516  17.658  19.988  1.00  0.00     0.000 C 
BRANCH   6   7
ATOM      7  C   UNL     1      -1.361  19.133  19.569  1.00  0.00     0.006 C 
BRANCH   7   8
ATOM      8  C   UNL     1       0.097  19.592  19.421  1.00  0.00     0.053 C 
BRANCH   8   9
ATOM      9  C   UNL     1       0.489  19.752  17.981  1.00  0.00     0.041 C 
ATOM     10  O   UNL     1       1.677  19.548  17.619  1.00  0.00    -0.550 OA
ATOM     11  O   UNL     1      -0.463  20.124  17.039  1.00  0.00    -0.550 OA
ENDBRANCH   8   9
ENDBRANCH   7   8
ENDBRANCH   6   7
ENDBRANCH   5   6
ENDBRANCH   4   5
ENDBRANCH   3   4
ENDBRANCH   2   3
ENDBRANCH   1   2
BRANCH   1  12
ATOM     12  C   UNL     1       3.035  13.291  16.451  1.00  0.00     0.000 C 
BRANCH  12  13
ATOM     13  C   UNL     1       3.482  12.968  15.015  1.00  0.00    -0.000 C 
BRANCH  13  14
ATOM     14  C   UNL     1       4.386  11.724  14.947  1.00  0.00    -0.000 C 
BRANCH  14  15
ATOM     15  C   UNL     1       4.877  11.276  16.332  1.00  0.00    -0.000 C 
BRANCH  15  16
ATOM     16  C   UNL     1       6.253  11.863  16.695  1.00  0.00    -0.000 C 
BRANCH  16  17
ATOM     17  C   UNL     1       6.501  11.866  18.218  1.00  0.00    -0.000 C 
BRANCH  17  18
ATOM     18  C   UNL     1       5.310  11.339  19.038  1.00  0.00    -0.000 C 
BRANCH  18  19
ATOM     19  C   UNL     1       5.740  10.626  20.327  1.00  0.00    -0.003 C 
ATOM     20  C   UNL     1       7.248  10.403  20.355  1.00  0.00     0.004 C 
ENDBRANCH  18  19
ENDBRANCH  17  18
ENDBRANCH  16  17
ENDBRANCH  15  16
ENDBRANCH  14  15
ENDBRANCH  13  14
ENDBRANCH  12  13
ENDBRANCH   1  12
TORSDOF 16
ENDMDL
MODEL 4
REMARK VINA RESULT:    -4.008      3.748      8.645
REMARK INTER + INTRA:          -8.813
REMARK INTER:                  -7.413
REMARK INTRA:                  -1.400
REMARK UNBOUND:                -1.055
REMARK SMILES CCCCCCCCCCCCCCCCCC(=O)[O-]
REMARK SMILES IDX 10 1 11 2 12 3 13 4 14 5 15 6 16 7 17 8 18 9 19 10 20 11
REMARK SMILES IDX 9 12 8 13 7 14 6 15 5 16 4 17 3 18 2 19 1 20
REMARK H PARENT
REMARK Flexibility Score: inf
ROOT
ATOM      1  C   UNL     1       1.979  13.948  18.751  1.00  0.00     0.000 C 
ENDROOT
BRANCH   1   2
ATOM      2  C   UNL     1       1.493  14.788  17.559  1.00  0.00     0.000 C 
BRANCH   2   3
ATOM      3  C   UNL     1       0.710  16.039  17.994  1.00  0.00     0.000 C 
BRANCH   3   4
ATOM      4  C   UNL     1      -0.739  15.720  18.395  1.00  0.00     0.000 C 
BRANCH   4   5
ATOM      5  C   UNL     1      -1.577  16.985  18.647  1.00  0.00     0.000 C 
BRANCH   5   6
ATOM      6  C   UNL     1      -1.056  17.798  19.853  1.00  0.00     0.000 C 
BRANCH   6   7
ATOM      7  C   UNL     1      -0.921  19.306  19.562  1.00  0.00     0.006 C 
BRANCH   7   8
ATOM      8  C   UNL     1       0.509  19.752  19.224  1.00  0.00     0.053 C 
BRANCH   8   9
ATOM      9  C   UNL     1       0.714  19.898  17.745  1.00  0.00     0.041 C 
ATOM     10  O   UNL     1      -0.266  20.125  16.987  1.00  0.00    -0.550 OA
ATOM     11  O   UNL     1       1.990  19.787  17.206  1.00  0.00    -0.550 OA
ENDBRANCH   8   9
ENDBRANCH   7   8
ENDBRANCH   6   7
ENDBRANCH   5   6
ENDBRANCH   4   5
ENDBRANCH   3   4
ENDBRANCH   2   3
ENDBRANCH   1   2
BRANCH   1  12
ATOM     12  C   UNL     1       3.115  12.984  18.371  1.00  0.00     0.000 C 
BRANCH  12  13
ATOM     13  C   UNL     1       2.787  11.522  18.719  1.00  0.00    -0.000 C 
BRANCH  13  14
ATOM     14  C   UNL     1       4.032  10.727  19.152  1.00  0.00    -0.000 C 
BRANCH  14  15
ATOM     15  C   UNL     1       5.263  11.625  19.353  1.00  0.00    -0.000 C 
BRANCH  15  16
ATOM     16  C   UNL     1       6.494  11.130  18.572  1.00  0.00    -0.000 C 
BRANCH  16  17
ATOM     17  C   UNL     1       6.655  11.856  17.220  1.00  0.00    -0.000 C 
BRANCH  17  18
ATOM     18  C   UNL     1       5.544  11.530  16.207  1.00  0.00    -0.000 C 
BRANCH  18  19
ATOM     19  C   UNL     1       5.093  12.754  15.398  1.00  0.00    -0.003 C 
ATOM     20  C   UNL     1       3.683  12.563  14.850  1.00  0.00     0.004 C 
ENDBRANCH  18  19
ENDBRANCH  17  18
ENDBRANCH  16  17
ENDBRANCH  15  16
ENDBRANCH  14  15
ENDBRANCH  13  14
ENDBRANCH  12  13
ENDBRANCH   1  12
TORSDOF 16
ENDMDL
MODEL 5
REMARK VINA RESULT:    -3.908      1.351      2.526
REMARK INTER + INTRA:          -8.618
REMARK INTER:                  -7.549
REMARK INTRA:                  -1.070
REMARK UNBOUND:                -1.055
REMARK SMILES CCCCCCCCCCCCCCCCCC(=O)[O-]
REMARK SMILES IDX 10 1 11 2 12 3 13 4 14 5 15 6 16 7 17 8 18 9 19 10 20 11
REMARK SMILES IDX 9 12 8 13 7 14 6 15 5 16 4 17 3 18 2 19 1 20
REMARK H PARENT
REMARK Flexibility Score: inf
ROOT
ATOM      1  C   UNL     1       3.135  12.645  14.836  1.00  0.00     0.000 C 
ENDROOT
BRANCH   1   2
ATOM      2  C   UNL     1       4.511  12.628  15.519  1.00  0.00     0.000 C 
BRANCH   2   3
ATOM      3  C   UNL     1       4.623  11.540  16.602  1.00  0.00     0.000 C 
BRANCH   3   4
ATOM      4  C   UNL     1       3.258  10.952  16.991  1.00  0.00     0.000 C 
BRANCH   4   5
ATOM      5  C   UNL     1       3.032  10.933  18.513  1.00  0.00     0.000 C 
BRANCH   5   6
ATOM      6  C   UNL     1       4.264  11.446  19.290  1.00  0.00     0.000 C 
BRANCH   6   7
ATOM      7  C   UNL     1       4.978  10.347  20.101  1.00  0.00     0.006 C 
BRANCH   7   8
ATOM      8  C   UNL     1       6.213  10.840  20.870  1.00  0.00     0.053 C 
BRANCH   8   9
ATOM      9  C   UNL     1       7.483  10.573  20.117  1.00  0.00     0.041 C 
ATOM     10  O   UNL     1       8.485  10.092  20.709  1.00  0.00    -0.550 OA
ATOM     11  O   UNL     1       7.557  10.854  18.758  1.00  0.00    -0.550 OA
ENDBRANCH   8   9
ENDBRANCH   7   8
ENDBRANCH   6   7
ENDBRANCH   5   6
ENDBRANCH   4   5
ENDBRANCH   3   4
ENDBRANCH   2   3
ENDBRANCH   1   2
BRANCH   1  12
ATOM     12  C   UNL     1       2.211  13.741  15.395  1.00  0.00     0.000 C 
BRANCH  12  13
ATOM     13  C   UNL     1       2.709  14.301  16.737  1.00  0.00    -0.000 C 
BRANCH  13  14
ATOM     14  C   UNL     1       1.585  14.404  17.784  1.00  0.00    -0.000 C 
BRANCH  14  15
ATOM     15  C   UNL     1       1.080  15.844  17.966  1.00  0.00    -0.000 C 
BRANCH  15  16
ATOM     16  C   UNL     1      -0.410  15.908  18.347  1.00  0.00    -0.000 C 
BRANCH  16  17
ATOM     17  C   UNL     1      -0.815  17.299  18.877  1.00  0.00    -0.000 C 
BRANCH  17  18
ATOM     18  C   UNL     1       0.369  18.270  19.031  1.00  0.00    -0.000 C 
BRANCH  18  19
ATOM     19  C   UNL     1       0.196  19.559  18.216  1.00  0.00    -0.003 C 
ATOM     20  C   UNL     1       1.335  19.736  17.217  1.00  0.00     0.004 C 
ENDBRANCH  18  19
ENDBRANCH  17  18
ENDBRANCH  16  17
ENDBRANCH  15  16
ENDBRANCH  14  15
ENDBRANCH  13  14
ENDBRANCH  12  13
ENDBRANCH   1  12
TORSDOF 16
ENDMDL
MODEL 6
REMARK VINA RESULT:    -3.864      4.079      8.881
REMARK INTER + INTRA:          -8.533
REMARK INTER:                  -7.776
REMARK INTRA:                  -0.757
REMARK UNBOUND:                -1.055
REMARK SMILES CCCCCCCCCCCCCCCCCC(=O)[O-]
REMARK SMILES IDX 10 1 11 2 12 3 13 4 14 5 15 6 16 7 17 8 18 9 19 10 20 11
REMARK SMILES IDX 9 12 8 13 7 14 6 15 5 16 4 17 3 18 2 19 1 20
REMARK H PARENT
REMARK Flexibility Score: inf
ROOT
ATOM      1  C   UNL     1       2.561  13.785  15.867  1.00  0.00     0.000 C 
ENDROOT
BRANCH   1   2
ATOM      2  C   UNL     1       2.603  13.288  17.321  1.00  0.00     0.000 C 
BRANCH   2   3
ATOM      3  C   UNL     1       1.985  14.294  18.309  1.00  0.00     0.000 C 
BRANCH   3   4
ATOM      4  C   UNL     1       1.158  15.381  17.605  1.00  0.00     0.000 C 
BRANCH   4   5
ATOM      5  C   UNL     1      -0.171  15.674  18.323  1.00  0.00     0.000 C 
BRANCH   5   6
ATOM      6  C   UNL     1      -0.218  17.106  18.899  1.00  0.00     0.000 C 
BRANCH   6   7
ATOM      7  C   UNL     1       0.961  17.989  18.447  1.00  0.00     0.006 C 
BRANCH   7   8
ATOM      8  C   UNL     1       0.696  19.497  18.564  1.00  0.00     0.053 C 
BRANCH   8   9
ATOM      9  C   UNL     1      -0.765  19.818  18.444  1.00  0.00     0.041 C 
ATOM     10  O   UNL     1      -1.441  20.096  19.469  1.00  0.00    -0.550 OA
ATOM     11  O   UNL     1      -1.377  19.814  17.196  1.00  0.00    -0.550 OA
ENDBRANCH   8   9
ENDBRANCH   7   8
ENDBRANCH   6   7
ENDBRANCH   5   6
ENDBRANCH   4   5
ENDBRANCH   3   4
ENDBRANCH   2   3
ENDBRANCH   1   2
BRANCH   1  12
ATOM     12  C   UNL     1       3.049  12.723  14.866  1.00  0.00     0.000 C 
BRANCH  12  13
ATOM     13  C   UNL     1       4.094  11.775  15.478  1.00  0.00    -0.000 C 
BRANCH  13  14
ATOM     14  C   UNL     1       5.424  12.486  15.786  1.00  0.00    -0.000 C 
BRANCH  14  15
ATOM     15  C   UNL     1       6.101  11.943  17.054  1.00  0.00    -0.000 C 
BRANCH  15  16
ATOM     16  C   UNL     1       5.116  11.229  17.996  1.00  0.00    -0.000 C 
BRANCH  16  17
ATOM     17  C   UNL     1       5.312  11.647  19.468  1.00  0.00    -0.000 C 
BRANCH  17  18
ATOM     18  C   UNL     1       6.130  10.637  20.293  1.00  0.00    -0.000 C 
BRANCH  18  19
ATOM     19  C   UNL     1       7.617  10.619  19.913  1.00  0.00    -0.003 C 
ATOM     20  C   UNL     1       8.460   9.994  21.021  1.00  0.00     0.004 C 
ENDBRANCH  18  19
ENDBRANCH  17  18
ENDBRANCH  16  17
ENDBRANCH  15  16
ENDBRANCH  14  15
ENDBRANCH  13  14
ENDBRANCH  12  13
ENDBRANCH   1  12
TORSDOF 16
ENDMDL
MODEL 7
REMARK VINA RESULT:    -3.810      3.837      8.476
REMARK INTER + INTRA:          -8.430
REMARK INTER:                  -6.890
REMARK INTRA:                  -1.540
REMARK UNBOUND:                -1.055
REMARK SMILES CCCCCCCCCCCCCCCCCC(=O)[O-]
REMARK SMILES IDX 10 1 11 2 12 3 13 4 14 5 15 6 16 7 17 8 18 9 19 10 20 11
REMARK SMILES IDX 9 12 8 13 7 14 6 15 5 16 4 17 3 18 2 19 1 20
REMARK H PARENT
REMARK Flexibility Score: inf
ROOT
ATOM      1  C   UNL     1       3.506  10.746  19.123  1.00  0.00     0.000 C 
ENDROOT
BRANCH   1   2
ATOM      2  C   UNL     1       2.738  11.681  18.175  1.00  0.00     0.000 C 
BRANCH   2   3
ATOM      3  C   UNL     1       2.733  13.142  18.659  1.00  0.00     0.000 C 
BRANCH   3   4
ATOM      4  C   UNL     1       1.985  14.079  17.698  1.00  0.00     0.000 C 
BRANCH   4   5
ATOM      5  C   UNL     1       1.625  15.428  18.345  1.00  0.00     0.000 C 
BRANCH   5   6
ATOM      6  C   UNL     1       0.113  15.732  18.255  1.00  0.00     0.000 C 
BRANCH   6   7
ATOM      7  C   UNL     1      -0.252  17.161  18.702  1.00  0.00     0.006 C 
BRANCH   7   8
ATOM      8  C   UNL     1       0.902  18.168  18.585  1.00  0.00     0.053 C 
BRANCH   8   9
ATOM      9  C   UNL     1       0.478  19.426  17.886  1.00  0.00     0.041 C 
ATOM     10  O   UNL     1       1.222  19.953  17.018  1.00  0.00    -0.550 OA
ATOM     11  O   UNL     1      -0.744  20.013  18.192  1.00  0.00    -0.550 OA
ENDBRANCH   8   9
ENDBRANCH   7   8
ENDBRANCH   6   7
ENDBRANCH   5   6
ENDBRANCH   4   5
ENDBRANCH   3   4
ENDBRANCH   2   3
ENDBRANCH   1   2
BRANCH   1  12
ATOM     12  C   UNL     1       4.649  11.463  19.862  1.00  0.00     0.000 C 
BRANCH  12  13
ATOM     13  C   UNL     1       5.802  10.512  20.225  1.00  0.00    -0.000 C 
BRANCH  13  14
ATOM     14  C   UNL     1       7.087  10.819  19.435  1.00  0.00    -0.000 C 
BRANCH  14  15
ATOM     15  C   UNL     1       6.890  11.940  18.403  1.00  0.00    -0.000 C 
BRANCH  15  16
ATOM     16  C   UNL     1       6.784  11.410  16.962  1.00  0.00    -0.000 C 
BRANCH  16  17
ATOM     17  C   UNL     1       5.678  12.126  16.159  1.00  0.00    -0.000 C 
BRANCH  17  18
ATOM     18  C   UNL     1       4.782  11.168  15.354  1.00  0.00    -0.000 C 
BRANCH  18  19
ATOM     19  C   UNL     1       4.029  11.869  14.214  1.00  0.00    -0.003 C 
ATOM     20  C   UNL     1       3.241  13.068  14.732  1.00  0.00     0.004 C 
ENDBRANCH  18  19
ENDBRANCH  17  18
ENDBRANCH  16  17
ENDBRANCH  15  16
ENDBRANCH  14  15
ENDBRANCH  13  14
ENDBRANCH  12  13
ENDBRANCH   1  12
TORSDOF 16
ENDMDL
MODEL 8
REMARK VINA RESULT:    -3.794      2.401      3.235
REMARK INTER + INTRA:          -8.398
REMARK INTER:                  -6.939
REMARK INTRA:                  -1.459
REMARK UNBOUND:                -1.055
REMARK SMILES CCCCCCCCCCCCCCCCCC(=O)[O-]
REMARK SMILES IDX 10 1 11 2 12 3 13 4 14 5 15 6 16 7 17 8 18 9 19 10 20 11
REMARK SMILES IDX 9 12 8 13 7 14 6 15 5 16 4 17 3 18 2 19 1 20
REMARK H PARENT
REMARK Flexibility Score: inf
ROOT
ATOM      1  C   UNL     1       1.718  13.842  18.728  1.00  0.00     0.000 C 
ENDROOT
BRANCH   1   2
ATOM      2  C   UNL     1       2.998  13.018  18.514  1.00  0.00     0.000 C 
BRANCH   2   3
ATOM      3  C   UNL     1       2.786  11.516  18.772  1.00  0.00     0.000 C 
BRANCH   3   4
ATOM      4  C   UNL     1       4.103  10.771  19.039  1.00  0.00     0.000 C 
BRANCH   4   5
ATOM      5  C   UNL     1       5.286  11.726  19.277  1.00  0.00     0.000 C 
BRANCH   5   6
ATOM      6  C   UNL     1       6.362  11.606  18.175  1.00  0.00     0.000 C 
BRANCH   6   7
ATOM      7  C   UNL     1       5.779  11.322  16.777  1.00  0.00     0.006 C 
BRANCH   7   8
ATOM      8  C   UNL     1       5.410  12.585  15.984  1.00  0.00     0.053 C 
BRANCH   8   9
ATOM      9  C   UNL     1       4.280  12.335  15.029  1.00  0.00     0.041 C 
ATOM     10  O   UNL     1       4.299  11.329  14.272  1.00  0.00    -0.550 OA
ATOM     11  O   UNL     1       3.205  13.213  14.979  1.00  0.00    -0.550 OA
ENDBRANCH   8   9
ENDBRANCH   7   8
ENDBRANCH   6   7
ENDBRANCH   5   6
ENDBRANCH   4   5
ENDBRANCH   3   4
ENDBRANCH   2   3
ENDBRANCH   1   2
BRANCH   1  12
ATOM     12  C   UNL     1       1.601  15.019  17.744  1.00  0.00     0.000 C 
BRANCH  12  13
ATOM     13  C   UNL     1       0.715  16.153  18.285  1.00  0.00    -0.000 C 
BRANCH  13  14
ATOM     14  C   UNL     1      -0.749  15.717  18.473  1.00  0.00    -0.000 C 
BRANCH  14  15
ATOM     15  C   UNL     1      -1.667  16.886  18.861  1.00  0.00    -0.000 C 
BRANCH  15  16
ATOM     16  C   UNL     1      -1.032  17.819  19.908  1.00  0.00    -0.000 C 
BRANCH  16  17
ATOM     17  C   UNL     1      -1.397  19.299  19.665  1.00  0.00    -0.000 C 
BRANCH  17  18
ATOM     18  C   UNL     1      -0.695  19.914  18.441  1.00  0.00    -0.000 C 
BRANCH  18  19
ATOM     19  C   UNL     1       0.835  19.815  18.516  1.00  0.00    -0.003 C 
ATOM     20  C   UNL     1       1.453  19.796  17.121  1.00  0.00     0.004 C 
ENDBRANCH  18  19
ENDBRANCH  17  18
ENDBRANCH  16  17
ENDBRANCH  15  16
ENDBRANCH  14  15
ENDBRANCH  13  14
ENDBRANCH  12  13
ENDBRANCH   1  12
TORSDOF 16
ENDMDL
MODEL 9
REMARK VINA RESULT:    -3.676      0.885      1.401
REMARK INTER + INTRA:          -8.170
REMARK INTER:                  -6.944
REMARK INTRA:                  -1.226
REMARK UNBOUND:                -1.055
REMARK SMILES CCCCCCCCCCCCCCCCCC(=O)[O-]
REMARK SMILES IDX 10 1 11 2 12 3 13 4 14 5 15 6 16 7 17 8 18 9 19 10 20 11
REMARK SMILES IDX 9 12 8 13 7 14 6 15 5 16 4 17 3 18 2 19 1 20
REMARK H PARENT
REMARK Flexibility Score: inf
ROOT
ATOM      1  C   UNL     1       2.365  14.119  15.886  1.00  0.00     0.000 C 
ENDROOT
BRANCH   1   2
ATOM      2  C   UNL     1       2.519  13.171  14.686  1.00  0.00     0.000 C 
BRANCH   2   3
ATOM      3  C   UNL     1       3.718  12.217  14.834  1.00  0.00     0.000 C 
BRANCH   3   4
ATOM      4  C   UNL     1       5.039  12.963  15.080  1.00  0.00     0.000 C 
BRANCH   4   5
ATOM      5  C   UNL     1       5.816  12.410  16.288  1.00  0.00     0.000 C 
BRANCH   5   6
ATOM      6  C   UNL     1       5.129  11.172  16.905  1.00  0.00     0.000 C 
BRANCH   6   7
ATOM      7  C   UNL     1       4.704  11.374  18.373  1.00  0.00     0.006 C 
BRANCH   7   8
ATOM      8  C   UNL     1       5.861  11.745  19.313  1.00  0.00     0.053 C 
BRANCH   8   9
ATOM      9  C   UNL     1       6.200  10.623  20.251  1.00  0.00     0.041 C 
ATOM     10  O   UNL     1       5.285   9.973  20.821  1.00  0.00    -0.550 OA
ATOM     11  O   UNL     1       7.528  10.296  20.491  1.00  0.00    -0.550 OA
ENDBRANCH   8   9
ENDBRANCH   7   8
ENDBRANCH   6   7
ENDBRANCH   5   6
ENDBRANCH   4   5
ENDBRANCH   3   4
ENDBRANCH   2   3
ENDBRANCH   1   2
BRANCH   1  12
ATOM     12  C   UNL     1       2.344  13.371  17.231  1.00  0.00     0.000 C 
BRANCH  12  13
ATOM     13  C   UNL     1       2.006  14.295  18.413  1.00  0.00    -0.000 C 
BRANCH  13  14
ATOM     14  C   UNL     1       1.260  15.566  17.970  1.00  0.00    -0.000 C 
BRANCH  14  15
ATOM     15  C   UNL     1      -0.222  15.549  18.373  1.00  0.00    -0.000 C 
BRANCH  15  16
ATOM     16  C   UNL     1      -0.760  16.949  18.721  1.00  0.00    -0.000 C 
BRANCH  16  17
ATOM     17  C   UNL     1       0.343  18.026  18.669  1.00  0.00    -0.000 C 
BRANCH  17  18
ATOM     18  C   UNL     1      -0.192  19.446  18.417  1.00  0.00    -0.000 C 
BRANCH  18  19
ATOM     19  C   UNL     1       0.455  20.123  17.201  1.00  0.00    -0.003 C 
ATOM     20  C   UNL     1       1.938  19.780  17.105  1.00  0.00     0.004 C 
ENDBRANCH  18  19
ENDBRANCH  17  18
ENDBRANCH  16  17
ENDBRANCH  15  16
ENDBRANCH  14  15
ENDBRANCH  13  14
ENDBRANCH  12  13
ENDBRANCH   1  12
TORSDOF 16
ENDMDL
