MODEL 1
REMARK VINA RESULT:    -3.792      0.000      0.000
REMARK INTER + INTRA:          -4.510
REMARK INTER:                  -4.457
REMARK INTRA:                  -0.053
REMARK UNBOUND:                -0.053
REMARK SMILES CCCCC(=O)[O-]
REMARK SMILES IDX 4 1 5 2 6 3 7 4 3 5 2 6 1 7
REMARK H PARENT
REMARK Flexibility Score: inf
ROOT
ATOM      1  C   UNL     1     158.969 146.307 153.439  1.00  0.00     0.053 C 
ENDROOT
BRANCH   1   2
ATOM      2  C   UNL     1     159.035 145.514 152.170  1.00  0.00     0.041 C 
ATOM      3  O   UNL     1     158.152 145.661 151.285  1.00  0.00    -0.550 OA
ATOM      4  O   UNL     1     160.090 144.637 151.951  1.00  0.00    -0.550 OA
ENDBRANCH   1   2
BRANCH   1   5
ATOM      5  C   UNL     1     160.029 145.853 154.455  1.00  0.00     0.006 C 
BRANCH   5   6
ATOM      6  C   UNL     1     160.887 146.998 155.022  1.00  0.00    -0.003 C 
ATOM      7  C   UNL     1     160.184 148.354 154.962  1.00  0.00     0.004 C 
ENDBRANCH   5   6
ENDBRANCH   1   5
TORSDOF 3
ENDMDL
MODEL 2
REMARK VINA RESULT:    -3.782      2.694      3.776
REMARK INTER + INTRA:          -4.498
REMARK INTER:                  -4.477
REMARK INTRA:                  -0.021
REMARK UNBOUND:                -0.053
REMARK SMILES CCCCC(=O)[O-]
REMARK SMILES IDX 4 1 5 2 6 3 7 4 3 5 2 6 1 7
REMARK H PARENT
REMARK Flexibility Score: inf
ROOT
ATOM      1  C   UNL     1     160.196 146.347 155.026  1.00  0.00     0.053 C 
ENDROOT
BRANCH   1   2
ATOM      2  C   UNL     1     160.451 147.817 154.890  1.00  0.00     0.041 C 
ATOM      3  O   UNL     1     159.531 148.587 154.506  1.00  0.00    -0.550 OA
ATOM      4  O   UNL     1     161.695 148.341 155.217  1.00  0.00    -0.550 OA
ENDBRANCH   1   2
BRANCH   1   5
ATOM      5  C   UNL     1     160.010 145.668 153.660  1.00  0.00     0.006 C 
BRANCH   5   6
ATOM      6  C   UNL     1     158.548 145.604 153.184  1.00  0.00    -0.003 C 
ATOM      7  C   UNL     1     158.420 145.564 151.661  1.00  0.00     0.004 C 
ENDBRANCH   5   6
ENDBRANCH   1   5
TORSDOF 3
ENDMDL
MODEL 3
REMARK VINA RESULT:    -3.654      2.511      3.990
REMARK INTER + INTRA:          -4.348
REMARK INTER:                  -4.326
REMARK INTRA:                  -0.022
REMARK UNBOUND:                -0.053
REMARK SMILES CCCCC(=O)[O-]
REMARK SMILES IDX 4 1 5 2 6 3 7 4 3 5 2 6 1 7
REMARK H PARENT
REMARK Flexibility Score: inf
ROOT
ATOM      1  C   UNL     1     159.826 145.861 153.965  1.00  0.00     0.053 C 
ENDROOT
BRANCH   1   2
ATOM      2  C   UNL     1     160.341 147.036 154.738  1.00  0.00     0.041 C 
ATOM      3  O   UNL     1     161.302 146.896 155.540  1.00  0.00    -0.550 OA
ATOM      4  O   UNL     1     159.780 148.293 154.549  1.00  0.00    -0.550 OA
ENDBRANCH   1   2
BRANCH   1   5
ATOM      5  C   UNL     1     158.593 146.224 153.122  1.00  0.00     0.006 C 
BRANCH   5   6
ATOM      6  C   UNL     1     158.386 145.322 151.892  1.00  0.00    -0.003 C 
ATOM      7  C   UNL     1     158.605 146.059 150.571  1.00  0.00     0.004 C 
ENDBRANCH   5   6
ENDBRANCH   1   5
TORSDOF 3
ENDMDL
MODEL 4
REMARK VINA RESULT:    -3.386      1.470      2.074
REMARK INTER + INTRA:          -4.033
REMARK INTER:                  -4.018
REMARK INTRA:                  -0.015
REMARK UNBOUND:                -0.053
REMARK SMILES CCCCC(=O)[O-]
REMARK SMILES IDX 4 1 5 2 6 3 7 4 3 5 2 6 1 7
REMARK H PARENT
REMARK Flexibility Score: inf
ROOT
ATOM      1  C   UNL     1     159.223 145.047 151.574  1.00  0.00     0.053 C 
ENDROOT
BRANCH   1   2
ATOM      2  C   UNL     1     158.778 145.704 150.303  1.00  0.00     0.041 C 
ATOM      3  O   UNL     1     157.553 145.901 150.087  1.00  0.00    -0.550 OA
ATOM      4  O   UNL     1     159.719 146.126 149.372  1.00  0.00    -0.550 OA
ENDBRANCH   1   2
BRANCH   1   5
ATOM      5  C   UNL     1     158.865 145.888 152.810  1.00  0.00     0.006 C 
BRANCH   5   6
ATOM      6  C   UNL     1     159.740 145.598 154.042  1.00  0.00    -0.003 C 
ATOM      7  C   UNL     1     160.216 146.868 154.746  1.00  0.00     0.004 C 
ENDBRANCH   5   6
ENDBRANCH   1   5
TORSDOF 3
ENDMDL
MODEL 5
REMARK VINA RESULT:    -3.341      2.202      3.893
REMARK INTER + INTRA:          -3.980
REMARK INTER:                  -3.932
REMARK INTRA:                  -0.048
REMARK UNBOUND:                -0.053
REMARK SMILES CCCCC(=O)[O-]
REMARK SMILES IDX 4 1 5 2 6 3 7 4 3 5 2 6 1 7
REMARK H PARENT
REMARK Flexibility Score: inf
ROOT
ATOM      1  C   UNL     1     158.617 145.456 153.078  1.00  0.00     0.053 C 
ENDROOT
BRANCH   1   2
ATOM      2  C   UNL     1     159.369 146.499 153.847  1.00  0.00     0.041 C 
ATOM      3  O   UNL     1     159.010 147.705 153.794  1.00  0.00    -0.550 OA
ATOM      4  O   UNL     1     160.445 146.135 154.646  1.00  0.00    -0.550 OA
ENDBRANCH   1   2
BRANCH   1   5
ATOM      5  C   UNL     1     159.201 145.247 151.672  1.00  0.00     0.006 C 
BRANCH   5   6
ATOM      6  C   UNL     1     158.439 145.988 150.559  1.00  0.00    -0.003 C 
ATOM      7  C   UNL     1     157.456 145.087 149.811  1.00  0.00     0.004 C 
ENDBRANCH   5   6
ENDBRANCH   1   5
TORSDOF 3
ENDMDL
MODEL 6
REMARK VINA RESULT:    -3.092     24.200     24.627
REMARK INTER + INTRA:          -3.687
REMARK INTER:                  -3.649
REMARK INTRA:                  -0.038
REMARK UNBOUND:                -0.053
REMARK SMILES CCCCC(=O)[O-]
REMARK SMILES IDX 4 1 5 2 6 3 7 4 3 5 2 6 1 7
REMARK H PARENT
REMARK Flexibility Score: inf
ROOT
ATOM      1  C   UNL     1     151.711 162.789 138.126  1.00  0.00     0.053 C 
ENDROOT
BRANCH   1   2
ATOM      2  C   UNL     1     151.989 162.657 136.660  1.00  0.00     0.041 C 
ATOM      3  O   UNL     1     151.081 162.277 135.875  1.00  0.00    -0.550 OA
ATOM      4  O   UNL     1     153.241 162.986 136.157  1.00  0.00    -0.550 OA
ENDBRANCH   1   2
BRANCH   1   5
ATOM      5  C   UNL     1     151.012 164.116 138.461  1.00  0.00     0.006 C 
BRANCH   5   6
ATOM      6  C   UNL     1     149.612 163.951 139.079  1.00  0.00    -0.003 C 
ATOM      7  C   UNL     1     149.609 164.115 140.598  1.00  0.00     0.004 C 
ENDBRANCH   5   6
ENDBRANCH   1   5
TORSDOF 3
ENDMDL
MODEL 7
REMARK VINA RESULT:    -2.797     24.170     24.667
REMARK INTER + INTRA:          -3.340
REMARK INTER:                  -3.319
REMARK INTRA:                  -0.021
REMARK UNBOUND:                -0.053
REMARK SMILES CCCCC(=O)[O-]
REMARK SMILES IDX 4 1 5 2 6 3 7 4 3 5 2 6 1 7
REMARK H PARENT
REMARK Flexibility Score: inf
ROOT
ATOM      1  C   UNL     1     150.914 163.879 139.486  1.00  0.00     0.053 C 
ENDROOT
BRANCH   1   2
ATOM      2  C   UNL     1     149.522 163.786 140.031  1.00  0.00     0.041 C 
ATOM      3  O   UNL     1     149.284 164.123 141.221  1.00  0.00    -0.550 OA
ATOM      4  O   UNL     1     148.482 163.356 139.216  1.00  0.00    -0.550 OA
ENDBRANCH   1   2
BRANCH   1   5
ATOM      5  C   UNL     1     150.941 163.740 137.955  1.00  0.00     0.006 C 
BRANCH   5   6
ATOM      6  C   UNL     1     152.306 163.314 137.388  1.00  0.00    -0.003 C 
ATOM      7  C   UNL     1     152.195 162.610 136.035  1.00  0.00     0.004 C 
ENDBRANCH   5   6
ENDBRANCH   1   5
TORSDOF 3
ENDMDL
MODEL 8
REMARK VINA RESULT:    -2.211     16.151     16.922
REMARK INTER + INTRA:          -2.652
REMARK INTER:                  -2.631
REMARK INTRA:                  -0.020
REMARK UNBOUND:                -0.053
REMARK SMILES CCCCC(=O)[O-]
REMARK SMILES IDX 4 1 5 2 6 3 7 4 3 5 2 6 1 7
REMARK H PARENT
REMARK Flexibility Score: inf
ROOT
ATOM      1  C   UNL     1     146.857 148.213 141.914  1.00  0.00     0.053 C 
ENDROOT
BRANCH   1   2
ATOM      2  C   UNL     1     146.782 149.605 142.463  1.00  0.00     0.041 C 
ATOM      3  O   UNL     1     147.408 150.542 141.901  1.00  0.00    -0.550 OA
ATOM      4  O   UNL     1     145.994 149.873 143.575  1.00  0.00    -0.550 OA
ENDBRANCH   1   2
BRANCH   1   5
ATOM      5  C   UNL     1     146.957 147.161 143.030  1.00  0.00     0.006 C 
BRANCH   5   6
ATOM      6  C   UNL     1     148.191 146.249 142.925  1.00  0.00    -0.003 C 
ATOM      7  C   UNL     1     147.897 144.931 142.207  1.00  0.00     0.004 C 
ENDBRANCH   5   6
ENDBRANCH   1   5
TORSDOF 3
ENDMDL
