MODEL 1
REMARK VINA RESULT:    -3.062      0.000      0.000
REMARK INTER + INTRA:          -3.724
REMARK INTER:                  -3.599
REMARK INTRA:                  -0.125
REMARK UNBOUND:                -0.125
REMARK SMILES CCCCC(=O)[O-]
REMARK SMILES IDX 4 1 5 2 6 3 7 4 3 5 2 6 1 7
REMARK H PARENT
REMARK Flexibility Score: inf
ROOT
ATOM      1  C   UNL     1      48.887  25.430  34.461  1.00  0.00     0.053 C 
ENDROOT
BRANCH   1   2
ATOM      2  C   UNL     1      49.634  25.692  35.733  1.00  0.00     0.041 C 
ATOM      3  O   UNL     1      49.686  26.856  36.210  1.00  0.00    -0.550 OA
ATOM      4  O   UNL     1      50.301  24.655  36.374  1.00  0.00    -0.550 OA
ENDBRANCH   1   2
BRANCH   1   5
ATOM      5  C   UNL     1      49.421  26.280  33.302  1.00  0.00     0.006 C 
BRANCH   5   6
ATOM      6  C   UNL     1      50.889  25.961  32.977  1.00  0.00    -0.003 C 
ATOM      7  C   UNL     1      51.043  24.525  32.484  1.00  0.00     0.004 C 
ENDBRANCH   5   6
ENDBRANCH   1   5
TORSDOF 3
ENDMDL
MODEL 2
REMARK VINA RESULT:    -3.045      2.325      3.205
REMARK INTER + INTRA:          -3.704
REMARK INTER:                  -3.572
REMARK INTRA:                  -0.132
REMARK UNBOUND:                -0.125
REMARK SMILES CCCCC(=O)[O-]
REMARK SMILES IDX 4 1 5 2 6 3 7 4 3 5 2 6 1 7
REMARK H PARENT
REMARK Flexibility Score: inf
ROOT
ATOM      1  C   UNL     1      50.192  26.764  34.390  1.00  0.00     0.053 C 
ENDROOT
BRANCH   1   2
ATOM      2  C   UNL     1      49.919  25.990  33.137  1.00  0.00     0.041 C 
ATOM      3  O   UNL     1      48.755  25.941  32.661  1.00  0.00    -0.550 OA
ATOM      4  O   UNL     1      50.947  25.295  32.512  1.00  0.00    -0.550 OA
ENDBRANCH   1   2
BRANCH   1   5
ATOM      5  C   UNL     1      49.425  26.193  35.590  1.00  0.00     0.006 C 
BRANCH   5   6
ATOM      6  C   UNL     1      49.822  24.740  35.894  1.00  0.00    -0.003 C 
ATOM      7  C   UNL     1      51.273  24.652  36.357  1.00  0.00     0.004 C 
ENDBRANCH   5   6
ENDBRANCH   1   5
TORSDOF 3
ENDMDL
MODEL 3
REMARK VINA RESULT:    -2.933      1.502      2.111
REMARK INTER + INTRA:          -3.572
REMARK INTER:                  -3.450
REMARK INTRA:                  -0.122
REMARK UNBOUND:                -0.125
REMARK SMILES CCCCC(=O)[O-]
REMARK SMILES IDX 4 1 5 2 6 3 7 4 3 5 2 6 1 7
REMARK H PARENT
REMARK Flexibility Score: inf
ROOT
ATOM      1  C   UNL     1      49.676  26.768  33.651  1.00  0.00     0.053 C 
ENDROOT
BRANCH   1   2
ATOM      2  C   UNL     1      49.091  26.026  34.814  1.00  0.00     0.041 C 
ATOM      3  O   UNL     1      48.351  25.026  34.622  1.00  0.00    -0.550 OA
ATOM      4  O   UNL     1      49.338  26.460  36.110  1.00  0.00    -0.550 OA
ENDBRANCH   1   2
BRANCH   1   5
ATOM      5  C   UNL     1      50.736  25.934  32.920  1.00  0.00     0.006 C 
BRANCH   5   6
ATOM      6  C   UNL     1      51.955  25.639  33.807  1.00  0.00    -0.003 C 
ATOM      7  C   UNL     1      52.801  26.892  34.013  1.00  0.00     0.004 C 
ENDBRANCH   5   6
ENDBRANCH   1   5
TORSDOF 3
ENDMDL
MODEL 4
REMARK VINA RESULT:    -2.901      2.054      2.944
REMARK INTER + INTRA:          -3.535
REMARK INTER:                  -3.423
REMARK INTRA:                  -0.112
REMARK UNBOUND:                -0.125
REMARK SMILES CCCCC(=O)[O-]
REMARK SMILES IDX 4 1 5 2 6 3 7 4 3 5 2 6 1 7
REMARK H PARENT
REMARK Flexibility Score: inf
ROOT
ATOM      1  C   UNL     1      48.950  25.878  35.150  1.00  0.00     0.053 C 
ENDROOT
BRANCH   1   2
ATOM      2  C   UNL     1      49.718  26.557  34.058  1.00  0.00     0.041 C 
ATOM      3  O   UNL     1      49.335  26.468  32.862  1.00  0.00    -0.550 OA
ATOM      4  O   UNL     1      50.878  27.261  34.358  1.00  0.00    -0.550 OA
ENDBRANCH   1   2
BRANCH   1   5
ATOM      5  C   UNL     1      49.844  24.952  35.984  1.00  0.00     0.006 C 
BRANCH   5   6
ATOM      6  C   UNL     1      50.074  23.596  35.299  1.00  0.00    -0.003 C 
ATOM      7  C   UNL     1      48.758  22.999  34.808  1.00  0.00     0.004 C 
ENDBRANCH   5   6
ENDBRANCH   1   5
TORSDOF 3
ENDMDL
MODEL 5
REMARK VINA RESULT:    -2.889      1.620      1.955
REMARK INTER + INTRA:          -3.522
REMARK INTER:                  -3.413
REMARK INTRA:                  -0.109
REMARK UNBOUND:                -0.125
REMARK SMILES CCCCC(=O)[O-]
REMARK SMILES IDX 4 1 5 2 6 3 7 4 3 5 2 6 1 7
REMARK H PARENT
REMARK Flexibility Score: inf
ROOT
ATOM      1  C   UNL     1      49.841  26.192  35.844  1.00  0.00     0.053 C 
ENDROOT
BRANCH   1   2
ATOM      2  C   UNL     1      50.279  24.780  36.084  1.00  0.00     0.041 C 
ATOM      3  O   UNL     1      49.533  23.819  35.760  1.00  0.00    -0.550 OA
ATOM      4  O   UNL     1      51.500  24.526  36.696  1.00  0.00    -0.550 OA
ENDBRANCH   1   2
BRANCH   1   5
ATOM      5  C   UNL     1      50.728  26.894  34.807  1.00  0.00     0.006 C 
BRANCH   5   6
ATOM      6  C   UNL     1      50.652  26.221  33.428  1.00  0.00    -0.003 C 
ATOM      7  C   UNL     1      49.217  26.189  32.910  1.00  0.00     0.004 C 
ENDBRANCH   5   6
ENDBRANCH   1   5
TORSDOF 3
ENDMDL
MODEL 6
REMARK VINA RESULT:    -2.827      3.115      3.711
REMARK INTER + INTRA:          -3.448
REMARK INTER:                  -3.384
REMARK INTRA:                  -0.064
REMARK UNBOUND:                -0.125
REMARK SMILES CCCCC(=O)[O-]
REMARK SMILES IDX 4 1 5 2 6 3 7 4 3 5 2 6 1 7
REMARK H PARENT
REMARK Flexibility Score: inf
ROOT
ATOM      1  C   UNL     1      51.290  27.283  34.942  1.00  0.00     0.053 C 
ENDROOT
BRANCH   1   2
ATOM      2  C   UNL     1      50.321  26.672  33.977  1.00  0.00     0.041 C 
ATOM      3  O   UNL     1      49.085  26.697  34.217  1.00  0.00    -0.550 OA
ATOM      4  O   UNL     1      50.786  26.044  32.828  1.00  0.00    -0.550 OA
ENDBRANCH   1   2
BRANCH   1   5
ATOM      5  C   UNL     1      52.741  27.123  34.468  1.00  0.00     0.006 C 
BRANCH   5   6
ATOM      6  C   UNL     1      53.473  28.470  34.375  1.00  0.00    -0.003 C 
ATOM      7  C   UNL     1      52.743  29.549  35.171  1.00  0.00     0.004 C 
ENDBRANCH   5   6
ENDBRANCH   1   5
TORSDOF 3
ENDMDL
MODEL 7
REMARK VINA RESULT:    -2.794      2.007      3.086
REMARK INTER + INTRA:          -3.409
REMARK INTER:                  -3.326
REMARK INTRA:                  -0.083
REMARK UNBOUND:                -0.125
REMARK SMILES CCCCC(=O)[O-]
REMARK SMILES IDX 4 1 5 2 6 3 7 4 3 5 2 6 1 7
REMARK H PARENT
REMARK Flexibility Score: inf
ROOT
ATOM      1  C   UNL     1      50.863  25.786  32.869  1.00  0.00     0.053 C 
ENDROOT
BRANCH   1   2
ATOM      2  C   UNL     1      52.123  25.837  33.677  1.00  0.00     0.041 C 
ATOM      3  O   UNL     1      52.890  26.833  33.597  1.00  0.00    -0.550 OA
ATOM      4  O   UNL     1      52.467  24.769  34.497  1.00  0.00    -0.550 OA
ENDBRANCH   1   2
BRANCH   1   5
ATOM      5  C   UNL     1      49.740  26.607  33.516  1.00  0.00     0.006 C 
BRANCH   5   6
ATOM      6  C   UNL     1      48.969  25.803  34.574  1.00  0.00    -0.003 C 
ATOM      7  C   UNL     1      49.390  26.205  35.984  1.00  0.00     0.004 C 
ENDBRANCH   5   6
ENDBRANCH   1   5
TORSDOF 3
ENDMDL
MODEL 8
REMARK VINA RESULT:    -2.763      1.510      2.337
REMARK INTER + INTRA:          -3.373
REMARK INTER:                  -3.260
REMARK INTRA:                  -0.113
REMARK UNBOUND:                -0.125
REMARK SMILES CCCCC(=O)[O-]
REMARK SMILES IDX 4 1 5 2 6 3 7 4 3 5 2 6 1 7
REMARK H PARENT
REMARK Flexibility Score: inf
ROOT
ATOM      1  C   UNL     1      49.393  26.560  33.678  1.00  0.00     0.053 C 
ENDROOT
BRANCH   1   2
ATOM      2  C   UNL     1      50.232  26.737  34.907  1.00  0.00     0.041 C 
ATOM      3  O   UNL     1      51.483  26.840  34.812  1.00  0.00    -0.550 OA
ATOM      4  O   UNL     1      49.633  26.757  36.160  1.00  0.00    -0.550 OA
ENDBRANCH   1   2
BRANCH   1   5
ATOM      5  C   UNL     1      49.355  25.096  33.222  1.00  0.00     0.006 C 
BRANCH   5   6
ATOM      6  C   UNL     1      48.279  24.286  33.961  1.00  0.00    -0.003 C 
ATOM      7  C   UNL     1      48.909  23.220  34.852  1.00  0.00     0.004 C 
ENDBRANCH   5   6
ENDBRANCH   1   5
TORSDOF 3
ENDMDL
MODEL 9
REMARK VINA RESULT:    -2.757      2.204      3.115
REMARK INTER + INTRA:          -3.366
REMARK INTER:                  -3.273
REMARK INTRA:                  -0.093
REMARK UNBOUND:                -0.125
REMARK SMILES CCCCC(=O)[O-]
REMARK SMILES IDX 4 1 5 2 6 3 7 4 3 5 2 6 1 7
REMARK H PARENT
REMARK Flexibility Score: inf
ROOT
ATOM      1  C   UNL     1      49.473  26.121  33.264  1.00  0.00     0.053 C 
ENDROOT
BRANCH   1   2
ATOM      2  C   UNL     1      50.029  24.742  33.081  1.00  0.00     0.041 C 
ATOM      3  O   UNL     1      51.135  24.575  32.503  1.00  0.00    -0.550 OA
ATOM      4  O   UNL     1      49.309  23.639  33.521  1.00  0.00    -0.550 OA
ENDBRANCH   1   2
BRANCH   1   5
ATOM      5  C   UNL     1      48.964  26.343  34.694  1.00  0.00     0.006 C 
BRANCH   5   6
ATOM      6  C   UNL     1      50.100  26.312  35.726  1.00  0.00    -0.003 C 
ATOM      7  C   UNL     1      51.209  27.292  35.353  1.00  0.00     0.004 C 
ENDBRANCH   5   6
ENDBRANCH   1   5
TORSDOF 3
ENDMDL
