MODEL 1
REMARK VINA RESULT:    -5.177      0.000      0.000
REMARK INTER + INTRA:          -6.351
REMARK INTER:                  -6.387
REMARK INTRA:                   0.036
REMARK UNBOUND:                 0.036
REMARK SMILES COc1cc(-c2oc3cc(O)cc(O)c3c(=O)c2O)ccc1O
REMARK SMILES IDX 6 1 18 2 16 3 17 4 15 5 13 6 12 7 10 8 9 9 8 10 7 11 5 12
REMARK SMILES IDX 3 13 22 14 4 15 21 16 20 17 2 18 1 19 23 20 19 22 14 24
REMARK SMILES IDX 11 26
REMARK H PARENT 23 21 19 23 14 25 11 27
REMARK Flexibility Score: inf
ROOT
ATOM      1  C   UNL     1      27.364  16.533  12.346  1.00  0.00     0.180 A 
ATOM      2  C   UNL     1      27.567  17.762  11.695  1.00  0.00     0.208 A 
ATOM      3  C   UNL     1      27.938  18.882  12.456  1.00  0.00     0.238 A 
ATOM      4  O   UNL     1      28.066  19.992  11.876  1.00  0.00    -0.285 OA
ATOM      5  C   UNL     1      28.118  18.756  13.855  1.00  0.00     0.111 A 
ATOM      6  C   UNL     1      28.533  19.814  14.717  1.00  0.00     0.134 A 
ATOM      7  C   UNL     1      28.552  19.610  16.103  1.00  0.00     0.093 A 
ATOM      8  C   UNL     1      28.233  18.365  16.650  1.00  0.00     0.123 A 
ATOM      9  C   UNL     1      27.885  17.308  15.812  1.00  0.00     0.094 A 
ATOM     10  C   UNL     1      27.823  17.492  14.429  1.00  0.00     0.146 A 
ATOM     11  O   UNL     1      27.477  16.462  13.667  1.00  0.00    -0.452 OA
ENDROOT
BRANCH   1  12
ATOM     12  C   UNL     1      26.995  15.302  11.609  1.00  0.00     0.025 A 
ATOM     13  C   UNL     1      27.686  13.307  10.374  1.00  0.00     0.161 A 
ATOM     14  C   UNL     1      26.335  12.986  10.154  1.00  0.00     0.157 A 
ATOM     15  C   UNL     1      28.007  14.472  11.098  1.00  0.00     0.062 A 
ATOM     16  C   UNL     1      25.327  13.822  10.646  1.00  0.00     0.051 A 
ATOM     17  C   UNL     1      25.652  14.974  11.363  1.00  0.00     0.016 A 
BRANCH  13  18
ATOM     18  O   UNL     1      28.677  12.454   9.862  1.00  0.00    -0.493 OA
ATOM     19  C   UNL     1      28.699  11.042  10.041  1.00  0.00     0.278 C 
ENDBRANCH  13  18
BRANCH  14  20
ATOM     20  O   UNL     1      25.971  11.841   9.444  1.00  0.00    -0.504 OA
ATOM     21  H   UNL     1      26.040  11.788   8.435  1.00  0.00     0.293 HD
ENDBRANCH  14  20
ENDBRANCH   1  12
BRANCH   2  22
ATOM     22  O   UNL     1      27.363  17.869  10.317  1.00  0.00    -0.502 OA
ATOM     23  H   UNL     1      27.283  18.762   9.846  1.00  0.00     0.293 HD
ENDBRANCH   2  22
BRANCH   6  24
ATOM     24  O   UNL     1      28.959  21.068  14.265  1.00  0.00    -0.507 OA
ATOM     25  H   UNL     1      28.533  21.581  13.511  1.00  0.00     0.293 HD
ENDBRANCH   6  24
BRANCH   8  26
ATOM     26  O   UNL     1      28.269  18.166  18.029  1.00  0.00    -0.508 OA
ATOM     27  H   UNL     1      27.500  17.726  18.522  1.00  0.00     0.293 HD
ENDBRANCH   8  26
TORSDOF 6
ENDMDL
MODEL 2
REMARK VINA RESULT:    -5.070      2.086      6.828
REMARK INTER + INTRA:          -6.220
REMARK INTER:                  -6.227
REMARK INTRA:                   0.007
REMARK UNBOUND:                 0.036
REMARK SMILES COc1cc(-c2oc3cc(O)cc(O)c3c(=O)c2O)ccc1O
REMARK SMILES IDX 6 1 18 2 16 3 17 4 15 5 13 6 12 7 10 8 9 9 8 10 7 11 5 12
REMARK SMILES IDX 3 13 22 14 4 15 21 16 20 17 2 18 1 19 23 20 19 22 14 24
REMARK SMILES IDX 11 26
REMARK H PARENT 23 21 19 23 14 25 11 27
REMARK Flexibility Score: inf
ROOT
ATOM      1  C   UNL     1      27.621  18.012  14.254  1.00  0.00     0.180 A 
ATOM      2  C   UNL     1      28.000  18.783  13.142  1.00  0.00     0.208 A 
ATOM      3  C   UNL     1      27.592  18.377  11.861  1.00  0.00     0.238 A 
ATOM      4  O   UNL     1      27.981  19.041  10.864  1.00  0.00    -0.285 OA
ATOM      5  C   UNL     1      26.797  17.215  11.709  1.00  0.00     0.111 A 
ATOM      6  C   UNL     1      26.294  16.734  10.464  1.00  0.00     0.134 A 
ATOM      7  C   UNL     1      25.628  15.503  10.416  1.00  0.00     0.093 A 
ATOM      8  C   UNL     1      25.391  14.769  11.581  1.00  0.00     0.123 A 
ATOM      9  C   UNL     1      25.825  15.259  12.810  1.00  0.00     0.094 A 
ATOM     10  C   UNL     1      26.524  16.466  12.883  1.00  0.00     0.146 A 
ATOM     11  O   UNL     1      26.930  16.893  14.074  1.00  0.00    -0.452 OA
ENDROOT
BRANCH   1  12
ATOM     12  C   UNL     1      27.990  18.389  15.638  1.00  0.00     0.025 A 
ATOM     13  C   UNL     1      28.717  17.717  17.875  1.00  0.00     0.161 A 
ATOM     14  C   UNL     1      28.644  19.058  18.292  1.00  0.00     0.157 A 
ATOM     15  C   UNL     1      28.382  17.391  16.546  1.00  0.00     0.062 A 
ATOM     16  C   UNL     1      28.235  20.049  17.394  1.00  0.00     0.051 A 
ATOM     17  C   UNL     1      27.905  19.720  16.079  1.00  0.00     0.016 A 
BRANCH  13  18
ATOM     18  O   UNL     1      29.122  16.741  18.799  1.00  0.00    -0.493 OA
ATOM     19  C   UNL     1      28.775  15.363  18.725  1.00  0.00     0.278 C 
ENDBRANCH  13  18
BRANCH  14  20
ATOM     20  O   UNL     1      28.968  19.426  19.597  1.00  0.00    -0.504 OA
ATOM     21  H   UNL     1      29.020  18.752  20.352  1.00  0.00     0.293 HD
ENDBRANCH  14  20
ENDBRANCH   1  12
BRANCH   2  22
ATOM     22  O   UNL     1      28.803  19.914  13.312  1.00  0.00    -0.502 OA
ATOM     23  H   UNL     1      29.053  20.271  14.226  1.00  0.00     0.293 HD
ENDBRANCH   2  22
BRANCH   6  24
ATOM     24  O   UNL     1      26.398  17.435   9.258  1.00  0.00    -0.507 OA
ATOM     25  H   UNL     1      25.916  18.295   9.050  1.00  0.00     0.293 HD
ENDBRANCH   6  24
BRANCH   8  26
ATOM     26  O   UNL     1      24.713  13.552  11.527  1.00  0.00    -0.508 OA
ATOM     27  H   UNL     1      24.049  13.283  12.244  1.00  0.00     0.293 HD
ENDBRANCH   8  26
TORSDOF 6
ENDMDL
MODEL 3
REMARK VINA RESULT:    -3.986      2.446      6.781
REMARK INTER + INTRA:          -4.881
REMARK INTER:                  -4.817
REMARK INTRA:                  -0.064
REMARK UNBOUND:                 0.036
REMARK SMILES COc1cc(-c2oc3cc(O)cc(O)c3c(=O)c2O)ccc1O
REMARK SMILES IDX 6 1 18 2 16 3 17 4 15 5 13 6 12 7 10 8 9 9 8 10 7 11 5 12
REMARK SMILES IDX 3 13 22 14 4 15 21 16 20 17 2 18 1 19 23 20 19 22 14 24
REMARK SMILES IDX 11 26
REMARK H PARENT 23 21 19 23 14 25 11 27
REMARK Flexibility Score: inf
ROOT
ATOM      1  C   UNL     1      28.006  18.162  15.605  1.00  0.00     0.180 A 
ATOM      2  C   UNL     1      28.463  19.372  15.055  1.00  0.00     0.208 A 
ATOM      3  C   UNL     1      28.306  19.596  13.678  1.00  0.00     0.238 A 
ATOM      4  O   UNL     1      28.766  20.658  13.182  1.00  0.00    -0.285 OA
ATOM      5  C   UNL     1      27.680  18.616  12.871  1.00  0.00     0.111 A 
ATOM      6  C   UNL     1      27.433  18.754  11.473  1.00  0.00     0.134 A 
ATOM      7  C   UNL     1      26.925  17.668  10.749  1.00  0.00     0.093 A 
ATOM      8  C   UNL     1      26.595  16.470  11.387  1.00  0.00     0.123 A 
ATOM      9  C   UNL     1      26.777  16.346  12.763  1.00  0.00     0.094 A 
ATOM     10  C   UNL     1      27.315  17.399  13.504  1.00  0.00     0.146 A 
ATOM     11  O   UNL     1      27.482  17.235  14.811  1.00  0.00    -0.452 OA
ENDROOT
BRANCH   1  12
ATOM     12  C   UNL     1      28.113  17.862  17.052  1.00  0.00     0.025 A 
ATOM     13  C   UNL     1      28.660  16.279  18.834  1.00  0.00     0.161 A 
ATOM     14  C   UNL     1      28.275  17.235  19.790  1.00  0.00     0.157 A 
ATOM     15  C   UNL     1      28.569  16.600  17.465  1.00  0.00     0.062 A 
ATOM     16  C   UNL     1      27.801  18.486  19.379  1.00  0.00     0.051 A 
ATOM     17  C   UNL     1      27.714  18.797  18.021  1.00  0.00     0.016 A 
BRANCH  13  18
ATOM     18  O   UNL     1      29.124  15.030  19.275  1.00  0.00    -0.493 OA
ATOM     19  C   UNL     1      28.333  13.847  19.332  1.00  0.00     0.278 C 
ENDBRANCH  13  18
BRANCH  14  20
ATOM     20  O   UNL     1      28.349  16.962  21.156  1.00  0.00    -0.504 OA
ATOM     21  H   UNL     1      28.539  16.032  21.510  1.00  0.00     0.293 HD
ENDBRANCH  14  20
ENDBRANCH   1  12
BRANCH   2  22
ATOM     22  O   UNL     1      29.097  20.316  15.866  1.00  0.00    -0.502 OA
ATOM     23  H   UNL     1      29.667  20.055  16.662  1.00  0.00     0.293 HD
ENDBRANCH   2  22
BRANCH   6  24
ATOM     24  O   UNL     1      27.641  19.938  10.757  1.00  0.00    -0.507 OA
ATOM     25  H   UNL     1      27.070  20.254   9.990  1.00  0.00     0.293 HD
ENDBRANCH   6  24
BRANCH   8  26
ATOM     26  O   UNL     1      26.076  15.399  10.663  1.00  0.00    -0.508 OA
ATOM     27  H   UNL     1      25.498  14.692  11.102  1.00  0.00     0.293 HD
ENDBRANCH   8  26
TORSDOF 6
ENDMDL
MODEL 4
REMARK VINA RESULT:    -3.977      2.086      2.638
REMARK INTER + INTRA:          -4.871
REMARK INTER:                  -5.959
REMARK INTRA:                   1.087
REMARK UNBOUND:                 0.036
REMARK SMILES COc1cc(-c2oc3cc(O)cc(O)c3c(=O)c2O)ccc1O
REMARK SMILES IDX 6 1 18 2 16 3 17 4 15 5 13 6 12 7 10 8 9 9 8 10 7 11 5 12
REMARK SMILES IDX 3 13 22 14 4 15 21 16 20 17 2 18 1 19 23 20 19 22 14 24
REMARK SMILES IDX 11 26
REMARK H PARENT 23 21 19 23 14 25 11 27
REMARK Flexibility Score: inf
ROOT
ATOM      1  C   UNL     1      26.736  16.558  12.241  1.00  0.00     0.180 A 
ATOM      2  C   UNL     1      27.960  16.998  12.774  1.00  0.00     0.208 A 
ATOM      3  C   UNL     1      27.997  18.208  13.484  1.00  0.00     0.238 A 
ATOM      4  O   UNL     1      29.106  18.624  13.912  1.00  0.00    -0.285 OA
ATOM      5  C   UNL     1      26.809  18.955  13.667  1.00  0.00     0.111 A 
ATOM      6  C   UNL     1      26.723  20.174  14.403  1.00  0.00     0.134 A 
ATOM      7  C   UNL     1      25.523  20.896  14.408  1.00  0.00     0.093 A 
ATOM      8  C   UNL     1      24.387  20.408  13.757  1.00  0.00     0.123 A 
ATOM      9  C   UNL     1      24.445  19.189  13.085  1.00  0.00     0.094 A 
ATOM     10  C   UNL     1      25.638  18.465  13.032  1.00  0.00     0.146 A 
ATOM     11  O   UNL     1      25.652  17.313  12.373  1.00  0.00    -0.452 OA
ENDROOT
BRANCH   1  12
ATOM     12  C   UNL     1      26.612  15.280  11.502  1.00  0.00     0.025 A 
ATOM     13  C   UNL     1      27.684  13.383  10.390  1.00  0.00     0.161 A 
ATOM     14  C   UNL     1      26.417  12.880  10.045  1.00  0.00     0.157 A 
ATOM     15  C   UNL     1      27.772  14.589  11.113  1.00  0.00     0.062 A 
ATOM     16  C   UNL     1      25.262  13.578  10.414  1.00  0.00     0.051 A 
ATOM     17  C   UNL     1      25.356  14.772  11.131  1.00  0.00     0.016 A 
BRANCH  13  18
ATOM     18  O   UNL     1      28.826  12.667   9.999  1.00  0.00    -0.493 OA
ATOM     19  C   UNL     1      28.922  11.246   9.979  1.00  0.00     0.278 C 
ENDBRANCH  13  18
BRANCH  14  20
ATOM     20  O   UNL     1      26.283  11.690   9.331  1.00  0.00    -0.504 OA
ATOM     21  H   UNL     1      26.186  11.674   8.322  1.00  0.00     0.293 HD
ENDBRANCH  14  20
ENDBRANCH   1  12
BRANCH   2  22
ATOM     22  O   UNL     1      29.125  16.255  12.563  1.00  0.00    -0.502 OA
ATOM     23  H   UNL     1      29.130  15.385  12.045  1.00  0.00     0.293 HD
ENDBRANCH   2  22
BRANCH   6  24
ATOM     24  O   UNL     1      27.772  20.703  15.163  1.00  0.00    -0.507 OA
ATOM     25  H   UNL     1      28.111  21.649  15.095  1.00  0.00     0.293 HD
ENDBRANCH   6  24
BRANCH   8  26
ATOM     26  O   UNL     1      23.192  21.124  13.780  1.00  0.00    -0.508 OA
ATOM     27  H   UNL     1      22.916  21.720  13.008  1.00  0.00     0.293 HD
ENDBRANCH   8  26
TORSDOF 6
ENDMDL
MODEL 5
REMARK VINA RESULT:    -3.888      2.568      7.408
REMARK INTER + INTRA:          -4.761
REMARK INTER:                  -4.621
REMARK INTRA:                  -0.140
REMARK UNBOUND:                 0.036
REMARK SMILES COc1cc(-c2oc3cc(O)cc(O)c3c(=O)c2O)ccc1O
REMARK SMILES IDX 6 1 18 2 16 3 17 4 15 5 13 6 12 7 10 8 9 9 8 10 7 11 5 12
REMARK SMILES IDX 3 13 22 14 4 15 21 16 20 17 2 18 1 19 23 20 19 22 14 24
REMARK SMILES IDX 11 26
REMARK H PARENT 23 21 19 23 14 25 11 27
REMARK Flexibility Score: inf
ROOT
ATOM      1  C   UNL     1      28.151  17.933  16.125  1.00  0.00     0.180 A 
ATOM      2  C   UNL     1      28.555  19.233  15.775  1.00  0.00     0.208 A 
ATOM      3  C   UNL     1      28.413  19.655  14.443  1.00  0.00     0.238 A 
ATOM      4  O   UNL     1      28.827  20.800  14.125  1.00  0.00    -0.285 OA
ATOM      5  C   UNL     1      27.853  18.778  13.482  1.00  0.00     0.111 A 
ATOM      6  C   UNL     1      27.625  19.114  12.115  1.00  0.00     0.134 A 
ATOM      7  C   UNL     1      27.188  18.127  11.224  1.00  0.00     0.093 A 
ATOM      8  C   UNL     1      26.908  16.832  11.666  1.00  0.00     0.123 A 
ATOM      9  C   UNL     1      27.070  16.510  13.012  1.00  0.00     0.094 A 
ATOM     10  C   UNL     1      27.540  17.464  13.916  1.00  0.00     0.146 A 
ATOM     11  O   UNL     1      27.690  17.113  15.188  1.00  0.00    -0.452 OA
ENDROOT
BRANCH   1  12
ATOM     12  C   UNL     1      28.246  17.424  17.513  1.00  0.00     0.025 A 
ATOM     13  C   UNL     1      27.711  17.682  19.886  1.00  0.00     0.161 A 
ATOM     14  C   UNL     1      28.453  16.522  20.170  1.00  0.00     0.157 A 
ATOM     15  C   UNL     1      27.619  18.130  18.553  1.00  0.00     0.062 A 
ATOM     16  C   UNL     1      29.095  15.830  19.138  1.00  0.00     0.051 A 
ATOM     17  C   UNL     1      28.999  16.279  17.820  1.00  0.00     0.016 A 
BRANCH  13  18
ATOM     18  O   UNL     1      27.085  18.361  20.943  1.00  0.00    -0.493 OA
ATOM     19  C   UNL     1      27.615  19.512  21.592  1.00  0.00     0.278 C 
ENDBRANCH  13  18
BRANCH  14  20
ATOM     20  O   UNL     1      28.571  16.042  21.475  1.00  0.00    -0.504 OA
ATOM     21  H   UNL     1      27.761  15.833  22.048  1.00  0.00     0.293 HD
ENDBRANCH  14  20
ENDBRANCH   1  12
BRANCH   2  22
ATOM     22  O   UNL     1      29.125  20.073  16.735  1.00  0.00    -0.502 OA
ATOM     23  H   UNL     1      30.124  20.123  16.890  1.00  0.00     0.293 HD
ENDBRANCH   2  22
BRANCH   6  24
ATOM     24  O   UNL     1      27.786  20.401  11.590  1.00  0.00    -0.507 OA
ATOM     25  H   UNL     1      28.637  20.753  11.181  1.00  0.00     0.293 HD
ENDBRANCH   6  24
BRANCH   8  26
ATOM     26  O   UNL     1      26.458  15.858  10.776  1.00  0.00    -0.508 OA
ATOM     27  H   UNL     1      27.090  15.394  10.134  1.00  0.00     0.293 HD
ENDBRANCH   8  26
TORSDOF 6
ENDMDL
MODEL 6
REMARK VINA RESULT:    -3.862      2.057      3.960
REMARK INTER + INTRA:          -4.729
REMARK INTER:                  -5.108
REMARK INTRA:                   0.378
REMARK UNBOUND:                 0.036
REMARK SMILES COc1cc(-c2oc3cc(O)cc(O)c3c(=O)c2O)ccc1O
REMARK SMILES IDX 6 1 18 2 16 3 17 4 15 5 13 6 12 7 10 8 9 9 8 10 7 11 5 12
REMARK SMILES IDX 3 13 22 14 4 15 21 16 20 17 2 18 1 19 23 20 19 22 14 24
REMARK SMILES IDX 11 26
REMARK H PARENT 23 21 19 23 14 25 11 27
REMARK Flexibility Score: inf
ROOT
ATOM      1  C   UNL     1      27.698  18.365  14.744  1.00  0.00     0.180 A 
ATOM      2  C   UNL     1      27.768  19.693  15.199  1.00  0.00     0.208 A 
ATOM      3  C   UNL     1      28.120  19.937  16.536  1.00  0.00     0.238 A 
ATOM      4  O   UNL     1      28.128  21.125  16.952  1.00  0.00    -0.285 OA
ATOM      5  C   UNL     1      28.413  18.852  17.397  1.00  0.00     0.111 A 
ATOM      6  C   UNL     1      28.820  18.984  18.758  1.00  0.00     0.134 A 
ATOM      7  C   UNL     1      28.957  17.840  19.553  1.00  0.00     0.093 A 
ATOM      8  C   UNL     1      28.766  16.564  19.017  1.00  0.00     0.123 A 
ATOM      9  C   UNL     1      28.428  16.422  17.673  1.00  0.00     0.094 A 
ATOM     10  C   UNL     1      28.248  17.546  16.865  1.00  0.00     0.146 A 
ATOM     11  O   UNL     1      27.916  17.366  15.592  1.00  0.00    -0.452 OA
ENDROOT
BRANCH   1  12
ATOM     12  C   UNL     1      27.359  18.028  13.342  1.00  0.00     0.025 A 
ATOM     13  C   UNL     1      26.898  16.330  11.642  1.00  0.00     0.161 A 
ATOM     14  C   UNL     1      26.771  17.344  10.676  1.00  0.00     0.157 A 
ATOM     15  C   UNL     1      27.199  16.682  12.973  1.00  0.00     0.062 A 
ATOM     16  C   UNL     1      26.950  18.683  11.039  1.00  0.00     0.051 A 
ATOM     17  C   UNL     1      27.247  19.025  12.359  1.00  0.00     0.016 A 
BRANCH  13  18
ATOM     18  O   UNL     1      26.722  14.995  11.248  1.00  0.00    -0.493 OA
ATOM     19  C   UNL     1      25.506  14.266  11.382  1.00  0.00     0.278 C 
ENDBRANCH  13  18
BRANCH  14  20
ATOM     20  O   UNL     1      26.473  17.043   9.348  1.00  0.00    -0.504 OA
ATOM     21  H   UNL     1      26.694  17.676   8.588  1.00  0.00     0.293 HD
ENDBRANCH  14  20
ENDBRANCH   1  12
BRANCH   2  22
ATOM     22  O   UNL     1      27.453  20.747  14.338  1.00  0.00    -0.502 OA
ATOM     23  H   UNL     1      26.511  21.105  14.237  1.00  0.00     0.293 HD
ENDBRANCH   2  22
BRANCH   6  24
ATOM     24  O   UNL     1      29.125  20.207  19.366  1.00  0.00    -0.507 OA
ATOM     25  H   UNL     1      29.338  21.057  18.870  1.00  0.00     0.293 HD
ENDBRANCH   6  24
BRANCH   8  26
ATOM     26  O   UNL     1      28.920  15.429  19.811  1.00  0.00    -0.508 OA
ATOM     27  H   UNL     1      28.672  14.507  19.471  1.00  0.00     0.293 HD
ENDBRANCH   8  26
TORSDOF 6
ENDMDL
MODEL 7
REMARK VINA RESULT:    -3.765      2.722      4.373
REMARK INTER + INTRA:          -4.610
REMARK INTER:                  -4.782
REMARK INTRA:                   0.172
REMARK UNBOUND:                 0.036
REMARK SMILES COc1cc(-c2oc3cc(O)cc(O)c3c(=O)c2O)ccc1O
REMARK SMILES IDX 6 1 18 2 16 3 17 4 15 5 13 6 12 7 10 8 9 9 8 10 7 11 5 12
REMARK SMILES IDX 3 13 22 14 4 15 21 16 20 17 2 18 1 19 23 20 19 22 14 24
REMARK SMILES IDX 11 26
REMARK H PARENT 23 21 19 23 14 25 11 27
REMARK Flexibility Score: inf
ROOT
ATOM      1  C   UNL     1      27.622  18.316  14.639  1.00  0.00     0.180 A 
ATOM      2  C   UNL     1      27.657  19.653  15.071  1.00  0.00     0.208 A 
ATOM      3  C   UNL     1      28.027  19.930  16.397  1.00  0.00     0.238 A 
ATOM      4  O   UNL     1      28.004  21.125  16.793  1.00  0.00    -0.285 OA
ATOM      5  C   UNL     1      28.373  18.870  17.269  1.00  0.00     0.111 A 
ATOM      6  C   UNL     1      28.802  19.039  18.619  1.00  0.00     0.134 A 
ATOM      7  C   UNL     1      28.993  17.913  19.430  1.00  0.00     0.093 A 
ATOM      8  C   UNL     1      28.833  16.623  18.918  1.00  0.00     0.123 A 
ATOM      9  C   UNL     1      28.473  16.447  17.584  1.00  0.00     0.094 A 
ATOM     10  C   UNL     1      28.241  17.551  16.762  1.00  0.00     0.146 A 
ATOM     11  O   UNL     1      27.889  17.339  15.499  1.00  0.00    -0.452 OA
ENDROOT
BRANCH   1  12
ATOM     12  C   UNL     1      27.265  17.944  13.250  1.00  0.00     0.025 A 
ATOM     13  C   UNL     1      27.314  18.462  10.860  1.00  0.00     0.161 A 
ATOM     14  C   UNL     1      26.558  17.304  10.603  1.00  0.00     0.157 A 
ATOM     15  C   UNL     1      27.658  18.778  12.189  1.00  0.00     0.062 A 
ATOM     16  C   UNL     1      26.150  16.485  11.661  1.00  0.00     0.051 A 
ATOM     17  C   UNL     1      26.494  16.803  12.975  1.00  0.00     0.016 A 
BRANCH  13  18
ATOM     18  O   UNL     1      27.702  19.270   9.780  1.00  0.00    -0.493 OA
ATOM     19  C   UNL     1      28.615  20.359   9.872  1.00  0.00     0.278 C 
ENDBRANCH  13  18
BRANCH  14  20
ATOM     20  O   UNL     1      26.196  16.952   9.303  1.00  0.00    -0.504 OA
ATOM     21  H   UNL     1      25.635  16.132   9.102  1.00  0.00     0.293 HD
ENDBRANCH  14  20
ENDBRANCH   1  12
BRANCH   2  22
ATOM     22  O   UNL     1      27.290  20.682  14.200  1.00  0.00    -0.502 OA
ATOM     23  H   UNL     1      27.466  20.640  13.204  1.00  0.00     0.293 HD
ENDBRANCH   2  22
BRANCH   6  24
ATOM     24  O   UNL     1      29.078  20.280  19.201  1.00  0.00    -0.507 OA
ATOM     25  H   UNL     1      29.854  20.466  19.817  1.00  0.00     0.293 HD
ENDBRANCH   6  24
BRANCH   8  26
ATOM     26  O   UNL     1      29.041  15.507  19.727  1.00  0.00    -0.508 OA
ATOM     27  H   UNL     1      28.970  15.563  20.736  1.00  0.00     0.293 HD
ENDBRANCH   8  26
TORSDOF 6
ENDMDL
MODEL 8
REMARK VINA RESULT:    -3.686      2.702      7.241
REMARK INTER + INTRA:          -4.512
REMARK INTER:                  -4.740
REMARK INTRA:                   0.228
REMARK UNBOUND:                 0.036
REMARK SMILES COc1cc(-c2oc3cc(O)cc(O)c3c(=O)c2O)ccc1O
REMARK SMILES IDX 6 1 18 2 16 3 17 4 15 5 13 6 12 7 10 8 9 9 8 10 7 11 5 12
REMARK SMILES IDX 3 13 22 14 4 15 21 16 20 17 2 18 1 19 23 20 19 22 14 24
REMARK SMILES IDX 11 26
REMARK H PARENT 23 21 19 23 14 25 11 27
REMARK Flexibility Score: inf
ROOT
ATOM      1  C   UNL     1      27.283  18.323  13.859  1.00  0.00     0.180 A 
ATOM      2  C   UNL     1      26.704  17.047  13.750  1.00  0.00     0.208 A 
ATOM      3  C   UNL     1      26.315  16.582  12.484  1.00  0.00     0.238 A 
ATOM      4  O   UNL     1      25.748  15.461  12.399  1.00  0.00    -0.285 OA
ATOM      5  C   UNL     1      26.523  17.391  11.341  1.00  0.00     0.111 A 
ATOM      6  C   UNL     1      26.205  17.004  10.005  1.00  0.00     0.134 A 
ATOM      7  C   UNL     1      26.333  17.935   8.966  1.00  0.00     0.093 A 
ATOM      8  C   UNL     1      26.830  19.218   9.208  1.00  0.00     0.123 A 
ATOM      9  C   UNL     1      27.201  19.585  10.499  1.00  0.00     0.094 A 
ATOM     10  C   UNL     1      27.050  18.691  11.561  1.00  0.00     0.146 A 
ATOM     11  O   UNL     1      27.405  19.084  12.778  1.00  0.00    -0.452 OA
ENDROOT
BRANCH   1  12
ATOM     12  C   UNL     1      27.741  18.873  15.155  1.00  0.00     0.025 A 
ATOM     13  C   UNL     1      28.636  18.492  17.400  1.00  0.00     0.161 A 
ATOM     14  C   UNL     1      28.567  19.874  17.653  1.00  0.00     0.157 A 
ATOM     15  C   UNL     1      28.215  18.000  16.149  1.00  0.00     0.062 A 
ATOM     16  C   UNL     1      28.077  20.741  16.671  1.00  0.00     0.051 A 
ATOM     17  C   UNL     1      27.661  20.247  15.434  1.00  0.00     0.016 A 
BRANCH  13  18
ATOM     18  O   UNL     1      29.125  17.644  18.406  1.00  0.00    -0.493 OA
ATOM     19  C   UNL     1      28.922  16.235  18.445  1.00  0.00     0.278 C 
ENDBRANCH  13  18
BRANCH  14  20
ATOM     20  O   UNL     1      28.975  20.405  18.876  1.00  0.00    -0.504 OA
ATOM     21  H   UNL     1      29.101  21.401  19.017  1.00  0.00     0.293 HD
ENDBRANCH  14  20
ENDBRANCH   1  12
BRANCH   2  22
ATOM     22  O   UNL     1      26.488  16.274  14.893  1.00  0.00    -0.502 OA
ATOM     23  H   UNL     1      26.292  16.684  15.799  1.00  0.00     0.293 HD
ENDBRANCH   2  22
BRANCH   6  24
ATOM     24  O   UNL     1      25.787  15.719   9.643  1.00  0.00    -0.507 OA
ATOM     25  H   UNL     1      25.016  15.226  10.063  1.00  0.00     0.293 HD
ENDBRANCH   6  24
BRANCH   8  26
ATOM     26  O   UNL     1      26.969  20.134   8.166  1.00  0.00    -0.508 OA
ATOM     27  H   UNL     1      27.655  20.001   7.432  1.00  0.00     0.293 HD
ENDBRANCH   8  26
TORSDOF 6
ENDMDL
