MODEL 1
REMARK VINA RESULT:    -4.956      0.000      0.000
REMARK INTER + INTRA:          -5.519
REMARK INTER:                  -5.246
REMARK INTRA:                  -0.273
REMARK UNBOUND:                -0.273
REMARK SMILES CC1=CC[C@@H]2[C@H]3[C@@H](C(C)C)CC[C@]2(C)[C@@H]13
REMARK SMILES IDX 1 1 2 2 3 3 4 4 5 5 6 6 15 7 13 8 12 9 11 10 7 11 14 12 8 13
REMARK SMILES IDX 9 14 10 15
REMARK H PARENT
REMARK Flexibility Score: inf
ROOT
ATOM      1  C   UNL     1      27.681   7.747  37.124  1.00  0.00     0.039 C 
ATOM      2  C   UNL     1      29.127   8.053  36.866  1.00  0.00    -0.073 C 
ATOM      3  C   UNL     1      29.932   8.528  37.850  1.00  0.00    -0.027 C 
ATOM      4  C   UNL     1      31.406   8.798  37.533  1.00  0.00     0.031 C 
ATOM      5  C   UNL     1      31.708   8.487  36.032  1.00  0.00     0.003 C 
ATOM      6  C   UNL     1      30.579   9.135  35.185  1.00  0.00     0.004 C 
ATOM      7  C   UNL     1      29.756   7.860  35.482  1.00  0.00     0.024 C 
ATOM      8  C   UNL     1      31.110   7.123  35.601  1.00  0.00    -0.022 C 
ATOM      9  C   UNL     1      31.605   6.733  34.174  1.00  0.00     0.008 C 
ATOM     10  C   UNL     1      31.826   7.969  33.262  1.00  0.00     0.005 C 
ATOM     11  C   UNL     1      30.929   9.180  33.665  1.00  0.00    -0.005 C 
ATOM     12  C   UNL     1      31.211   5.920  36.569  1.00  0.00     0.012 C 
ENDROOT
BRANCH  11  13
ATOM     13  C   UNL     1      31.529  10.540  33.194  1.00  0.00    -0.014 C 
ATOM     14  C   UNL     1      33.064  10.533  33.271  1.00  0.00     0.007 C 
ATOM     15  C   UNL     1      31.079  10.964  31.784  1.00  0.00     0.007 C 
ENDBRANCH  11  13
TORSDOF 1
ENDMDL
MODEL 2
REMARK VINA RESULT:    -4.949      1.585      4.972
REMARK INTER + INTRA:          -5.512
REMARK INTER:                  -5.295
REMARK INTRA:                  -0.217
REMARK UNBOUND:                -0.273
REMARK SMILES CC1=CC[C@@H]2[C@H]3[C@@H](C(C)C)CC[C@]2(C)[C@@H]13
REMARK SMILES IDX 1 1 2 2 3 3 4 4 5 5 6 6 15 7 13 8 12 9 11 10 7 11 14 12 8 13
REMARK SMILES IDX 9 14 10 15
REMARK H PARENT
REMARK Flexibility Score: inf
ROOT
ATOM      1  C   UNL     1      32.415  12.295  31.233  1.00  0.00     0.039 C 
ATOM      2  C   UNL     1      31.399  11.371  31.836  1.00  0.00    -0.073 C 
ATOM      3  C   UNL     1      30.079  11.687  31.850  1.00  0.00    -0.027 C 
ATOM      4  C   UNL     1      29.086  10.692  32.458  1.00  0.00     0.031 C 
ATOM      5  C   UNL     1      29.838   9.440  33.012  1.00  0.00     0.003 C 
ATOM      6  C   UNL     1      31.056   9.951  33.830  1.00  0.00     0.004 C 
ATOM      7  C   UNL     1      31.804  10.040  32.479  1.00  0.00     0.024 C 
ATOM      8  C   UNL     1      30.876   8.902  31.994  1.00  0.00    -0.022 C 
ATOM      9  C   UNL     1      31.455   7.534  32.472  1.00  0.00     0.008 C 
ATOM     10  C   UNL     1      31.547   7.434  34.018  1.00  0.00     0.005 C 
ATOM     11  C   UNL     1      31.699   8.828  34.701  1.00  0.00    -0.005 C 
ATOM     12  C   UNL     1      30.498   8.848  30.495  1.00  0.00     0.012 C 
ENDROOT
BRANCH  11  13
ATOM     13  C   UNL     1      31.206   8.816  36.181  1.00  0.00    -0.014 C 
ATOM     14  C   UNL     1      31.207   7.392  36.761  1.00  0.00     0.007 C 
ATOM     15  C   UNL     1      31.996   9.757  37.107  1.00  0.00     0.007 C 
ENDBRANCH  11  13
TORSDOF 1
ENDMDL
MODEL 3
REMARK VINA RESULT:    -4.881      1.267      4.479
REMARK INTER + INTRA:          -5.439
REMARK INTER:                  -5.022
REMARK INTRA:                  -0.417
REMARK UNBOUND:                -0.273
REMARK SMILES CC1=CC[C@@H]2[C@H]3[C@@H](C(C)C)CC[C@]2(C)[C@@H]13
REMARK SMILES IDX 1 1 2 2 3 3 4 4 5 5 6 6 15 7 13 8 12 9 11 10 7 11 14 12 8 13
REMARK SMILES IDX 9 14 10 15
REMARK H PARENT
REMARK Flexibility Score: inf
ROOT
ATOM      1  C   UNL     1      33.107  10.834  32.979  1.00  0.00     0.039 C 
ATOM      2  C   UNL     1      31.908  10.225  33.644  1.00  0.00    -0.073 C 
ATOM      3  C   UNL     1      30.662  10.723  33.440  1.00  0.00    -0.027 C 
ATOM      4  C   UNL     1      29.473  10.044  34.127  1.00  0.00     0.031 C 
ATOM      5  C   UNL     1      29.962   8.855  35.014  1.00  0.00     0.003 C 
ATOM      6  C   UNL     1      31.178   9.357  35.839  1.00  0.00     0.004 C 
ATOM      7  C   UNL     1      32.035   9.030  34.595  1.00  0.00     0.024 C 
ATOM      8  C   UNL     1      30.974   7.957  34.257  1.00  0.00    -0.022 C 
ATOM      9  C   UNL     1      31.279   6.664  35.076  1.00  0.00     0.008 C 
ATOM     10  C   UNL     1      31.230   6.904  36.608  1.00  0.00     0.005 C 
ATOM     11  C   UNL     1      31.555   8.379  36.995  1.00  0.00    -0.005 C 
ATOM     12  C   UNL     1      30.713   7.621  32.770  1.00  0.00     0.012 C 
ENDROOT
BRANCH  11  13
ATOM     13  C   UNL     1      30.950   8.773  38.378  1.00  0.00    -0.014 C 
ATOM     14  C   UNL     1      30.713  10.288  38.476  1.00  0.00     0.007 C 
ATOM     15  C   UNL     1      29.656   8.018  38.730  1.00  0.00     0.007 C 
ENDBRANCH  11  13
TORSDOF 1
ENDMDL
MODEL 4
REMARK VINA RESULT:    -4.860      6.675     10.066
REMARK INTER + INTRA:          -5.418
REMARK INTER:                  -5.126
REMARK INTRA:                  -0.292
REMARK UNBOUND:                -0.273
REMARK SMILES CC1=CC[C@@H]2[C@H]3[C@@H](C(C)C)CC[C@]2(C)[C@@H]13
REMARK SMILES IDX 1 1 2 2 3 3 4 4 5 5 6 6 15 7 13 8 12 9 11 10 7 11 14 12 8 13
REMARK SMILES IDX 9 14 10 15
REMARK H PARENT
REMARK Flexibility Score: inf
ROOT
ATOM      1  C   UNL     1      31.661  11.351  24.457  1.00  0.00     0.039 C 
ATOM      2  C   UNL     1      30.589  10.449  24.993  1.00  0.00    -0.073 C 
ATOM      3  C   UNL     1      29.341  10.916  25.255  1.00  0.00    -0.027 C 
ATOM      4  C   UNL     1      28.282   9.941  25.778  1.00  0.00     0.031 C 
ATOM      5  C   UNL     1      28.892   8.513  25.952  1.00  0.00     0.003 C 
ATOM      6  C   UNL     1      30.255   8.674  26.679  1.00  0.00     0.004 C 
ATOM      7  C   UNL     1      30.855   8.968  25.285  1.00  0.00     0.024 C 
ATOM      8  C   UNL     1      29.718   8.092  24.710  1.00  0.00    -0.022 C 
ATOM      9  C   UNL     1      30.132   6.590  24.811  1.00  0.00     0.008 C 
ATOM     10  C   UNL     1      30.376   6.137  26.276  1.00  0.00     0.005 C 
ATOM     11  C   UNL     1      30.811   7.313  27.203  1.00  0.00    -0.005 C 
ATOM     12  C   UNL     1      29.175   8.421  23.300  1.00  0.00     0.012 C 
ENDROOT
BRANCH  11  13
ATOM     13  C   UNL     1      30.487   7.033  28.702  1.00  0.00    -0.014 C 
ATOM     14  C   UNL     1      31.630   6.269  29.390  1.00  0.00     0.007 C 
ATOM     15  C   UNL     1      30.141   8.295  29.512  1.00  0.00     0.007 C 
ENDBRANCH  11  13
TORSDOF 1
ENDMDL
MODEL 5
REMARK VINA RESULT:    -4.827      1.585      2.996
REMARK INTER + INTRA:          -5.383
REMARK INTER:                  -5.123
REMARK INTRA:                  -0.260
REMARK UNBOUND:                -0.273
REMARK SMILES CC1=CC[C@@H]2[C@H]3[C@@H](C(C)C)CC[C@]2(C)[C@@H]13
REMARK SMILES IDX 1 1 2 2 3 3 4 4 5 5 6 6 15 7 13 8 12 9 11 10 7 11 14 12 8 13
REMARK SMILES IDX 9 14 10 15
REMARK H PARENT
REMARK Flexibility Score: inf
ROOT
ATOM      1  C   UNL     1      30.974   5.979  37.094  1.00  0.00     0.039 C 
ATOM      2  C   UNL     1      30.416   7.024  36.173  1.00  0.00    -0.073 C 
ATOM      3  C   UNL     1      29.124   7.430  36.270  1.00  0.00    -0.027 C 
ATOM      4  C   UNL     1      28.617   8.518  35.319  1.00  0.00     0.031 C 
ATOM      5  C   UNL     1      29.750   8.954  34.335  1.00  0.00     0.003 C 
ATOM      6  C   UNL     1      30.413   7.661  33.786  1.00  0.00     0.004 C 
ATOM      7  C   UNL     1      31.268   7.668  35.074  1.00  0.00     0.024 C 
ATOM      8  C   UNL     1      31.086   9.203  35.079  1.00  0.00    -0.022 C 
ATOM      9  C   UNL     1      32.137   9.844  34.120  1.00  0.00     0.008 C 
ATOM     10  C   UNL     1      31.978   9.359  32.654  1.00  0.00     0.005 C 
ATOM     11  C   UNL     1      31.333   7.943  32.557  1.00  0.00    -0.005 C 
ATOM     12  C   UNL     1      31.062   9.938  36.440  1.00  0.00     0.012 C 
ENDROOT
BRANCH  11  13
ATOM     13  C   UNL     1      30.639   7.704  31.180  1.00  0.00    -0.014 C 
ATOM     14  C   UNL     1      30.425   9.025  30.424  1.00  0.00     0.007 C 
ATOM     15  C   UNL     1      31.377   6.699  30.278  1.00  0.00     0.007 C 
ENDBRANCH  11  13
TORSDOF 1
ENDMDL
MODEL 6
REMARK VINA RESULT:    -4.812      1.338      1.997
REMARK INTER + INTRA:          -5.366
REMARK INTER:                  -5.097
REMARK INTRA:                  -0.269
REMARK UNBOUND:                -0.273
REMARK SMILES CC1=CC[C@@H]2[C@H]3[C@@H](C(C)C)CC[C@]2(C)[C@@H]13
REMARK SMILES IDX 1 1 2 2 3 3 4 4 5 5 6 6 15 7 13 8 12 9 11 10 7 11 14 12 8 13
REMARK SMILES IDX 9 14 10 15
REMARK H PARENT
REMARK Flexibility Score: inf
ROOT
ATOM      1  C   UNL     1      27.744  10.296  37.310  1.00  0.00     0.039 C 
ATOM      2  C   UNL     1      29.177   9.887  37.137  1.00  0.00    -0.073 C 
ATOM      3  C   UNL     1      30.186  10.601  37.700  1.00  0.00    -0.027 C 
ATOM      4  C   UNL     1      31.628  10.121  37.508  1.00  0.00     0.031 C 
ATOM      5  C   UNL     1      31.662   8.839  36.615  1.00  0.00     0.003 C 
ATOM      6  C   UNL     1      30.739   9.097  35.393  1.00  0.00     0.004 C 
ATOM      7  C   UNL     1      29.570   8.661  36.306  1.00  0.00     0.024 C 
ATOM      8  C   UNL     1      30.604   7.801  37.068  1.00  0.00    -0.022 C 
ATOM      9  C   UNL     1      30.801   6.451  36.310  1.00  0.00     0.008 C 
ATOM     10  C   UNL     1      31.334   6.651  34.866  1.00  0.00     0.005 C 
ATOM     11  C   UNL     1      30.937   8.035  34.267  1.00  0.00    -0.005 C 
ATOM     12  C   UNL     1      30.389   7.559  38.581  1.00  0.00     0.012 C 
ENDROOT
BRANCH  11  13
ATOM     13  C   UNL     1      31.909   8.488  33.134  1.00  0.00    -0.014 C 
ATOM     14  C   UNL     1      31.275   8.307  31.746  1.00  0.00     0.007 C 
ATOM     15  C   UNL     1      32.419   9.931  33.292  1.00  0.00     0.007 C 
ENDBRANCH  11  13
TORSDOF 1
ENDMDL
MODEL 7
REMARK VINA RESULT:    -4.766      1.319      4.782
REMARK INTER + INTRA:          -5.318
REMARK INTER:                  -4.899
REMARK INTRA:                  -0.419
REMARK UNBOUND:                -0.273
REMARK SMILES CC1=CC[C@@H]2[C@H]3[C@@H](C(C)C)CC[C@]2(C)[C@@H]13
REMARK SMILES IDX 1 1 2 2 3 3 4 4 5 5 6 6 15 7 13 8 12 9 11 10 7 11 14 12 8 13
REMARK SMILES IDX 9 14 10 15
REMARK H PARENT
REMARK Flexibility Score: inf
ROOT
ATOM      1  C   UNL     1      29.075  11.191  31.801  1.00  0.00     0.039 C 
ATOM      2  C   UNL     1      30.017  10.156  32.340  1.00  0.00    -0.073 C 
ATOM      3  C   UNL     1      30.687   9.315  31.510  1.00  0.00    -0.027 C 
ATOM      4  C   UNL     1      31.655   8.294  32.116  1.00  0.00     0.031 C 
ATOM      5  C   UNL     1      31.657   8.402  33.675  1.00  0.00     0.003 C 
ATOM      6  C   UNL     1      30.176   8.470  34.140  1.00  0.00     0.004 C 
ATOM      7  C   UNL     1      30.254   9.986  33.844  1.00  0.00     0.024 C 
ATOM      8  C   UNL     1      31.767   9.876  34.144  1.00  0.00    -0.022 C 
ATOM      9  C   UNL     1      31.987   9.945  35.687  1.00  0.00     0.008 C 
ATOM     10  C   UNL     1      31.275   8.791  36.442  1.00  0.00     0.005 C 
ATOM     11  C   UNL     1      30.027   8.253  35.678  1.00  0.00    -0.005 C 
ATOM     12  C   UNL     1      32.736  10.828  33.404  1.00  0.00     0.012 C 
ENDROOT
BRANCH  11  13
ATOM     13  C   UNL     1      29.677   6.787  36.078  1.00  0.00    -0.014 C 
ATOM     14  C   UNL     1      29.012   6.032  34.916  1.00  0.00     0.007 C 
ATOM     15  C   UNL     1      30.878   5.982  36.605  1.00  0.00     0.007 C 
ENDBRANCH  11  13
TORSDOF 1
ENDMDL
MODEL 8
REMARK VINA RESULT:    -4.692     11.411     13.039
REMARK INTER + INTRA:          -5.239
REMARK INTER:                  -4.985
REMARK INTRA:                  -0.255
REMARK UNBOUND:                -0.273
REMARK SMILES CC1=CC[C@@H]2[C@H]3[C@@H](C(C)C)CC[C@]2(C)[C@@H]13
REMARK SMILES IDX 1 1 2 2 3 3 4 4 5 5 6 6 15 7 13 8 12 9 11 10 7 11 14 12 8 13
REMARK SMILES IDX 9 14 10 15
REMARK H PARENT
REMARK Flexibility Score: inf
ROOT
ATOM      1  C   UNL     1      16.193   7.850  30.787  1.00  0.00     0.039 C 
ATOM      2  C   UNL     1      17.075   9.063  30.754  1.00  0.00    -0.073 C 
ATOM      3  C   UNL     1      16.592  10.293  31.069  1.00  0.00    -0.027 C 
ATOM      4  C   UNL     1      17.546  11.491  31.042  1.00  0.00     0.031 C 
ATOM      5  C   UNL     1      18.974  11.041  30.594  1.00  0.00     0.003 C 
ATOM      6  C   UNL     1      18.806  10.128  29.349  1.00  0.00     0.004 C 
ATOM      7  C   UNL     1      18.550   8.976  30.348  1.00  0.00     0.024 C 
ATOM      8  C   UNL     1      19.431   9.764  31.344  1.00  0.00    -0.022 C 
ATOM      9  C   UNL     1      20.933   9.461  31.046  1.00  0.00     0.008 C 
ATOM     10  C   UNL     1      21.353   9.885  29.613  1.00  0.00     0.005 C 
ATOM     11  C   UNL     1      20.158   9.877  28.611  1.00  0.00    -0.005 C 
ATOM     12  C   UNL     1      19.132   9.635  32.856  1.00  0.00     0.012 C 
ENDROOT
BRANCH  11  13
ATOM     13  C   UNL     1      20.401  10.826  27.397  1.00  0.00    -0.014 C 
ATOM     14  C   UNL     1      21.601  11.754  27.642  1.00  0.00     0.007 C 
ATOM     15  C   UNL     1      20.576  10.089  26.057  1.00  0.00     0.007 C 
ENDBRANCH  11  13
TORSDOF 1
ENDMDL
