MODEL 1
REMARK VINA RESULT:    -3.284      0.000      0.000
REMARK INTER + INTRA:          -4.795
REMARK INTER:                  -4.724
REMARK INTRA:                  -0.072
REMARK UNBOUND:                -0.072
REMARK SMILES O=C(CO)[C@H](O)[C@@H](O)[C@H](O)CO
REMARK SMILES IDX 7 1 9 2 11 3 12 4 10 6 5 8 2 9 1 10 3 11 4 12 6 14 8 16
REMARK H PARENT 12 5 10 7 4 13 6 15 8 17
REMARK Flexibility Score: inf
ROOT
ATOM      1  C   UNL     1      -4.416  -0.843   1.376  1.00  0.00     0.181 C 
ENDROOT
BRANCH   1   2
ATOM      2  C   UNL     1      -5.325  -2.107   1.327  1.00  0.00     0.171 C 
BRANCH   2   3
ATOM      3  C   UNL     1      -5.389  -2.773  -0.056  1.00  0.00     0.190 C 
BRANCH   3   4
ATOM      4  O   UNL     1      -5.114  -1.856  -1.081  1.00  0.00    -0.394 OA
ATOM      5  H   UNL     1      -4.159  -1.601  -0.987  1.00  0.00     0.210 HD
ENDBRANCH   3   4
ENDBRANCH   2   3
BRANCH   2   6
ATOM      6  O   UNL     1      -4.857  -3.058   2.252  1.00  0.00    -0.388 OA
ATOM      7  H   UNL     1      -5.595  -3.237   2.890  1.00  0.00     0.211 HD
ENDBRANCH   2   6
ENDBRANCH   1   2
BRANCH   1   8
ATOM      8  C   UNL     1      -4.085  -0.361   2.820  1.00  0.00     0.214 C 
BRANCH   8   9
ATOM      9  C   UNL     1      -2.729   0.309   2.911  1.00  0.00     0.189 C 
ATOM     10  O   UNL     1      -2.460   1.226   2.148  1.00  0.00    -0.294 OA
BRANCH   9  11
ATOM     11  C   UNL     1      -1.730  -0.078   3.969  1.00  0.00     0.234 C 
BRANCH  11  12
ATOM     12  O   UNL     1      -0.440   0.312   3.585  1.00  0.00    -0.388 OA
ATOM     13  H   UNL     1      -0.241   1.156   4.069  1.00  0.00     0.211 HD
ENDBRANCH  11  12
ENDBRANCH   9  11
ENDBRANCH   8   9
BRANCH   8  14
ATOM     14  O   UNL     1      -4.101  -1.458   3.701  1.00  0.00    -0.382 OA
ATOM     15  H   UNL     1      -3.553  -2.173   3.282  1.00  0.00     0.211 HD
ENDBRANCH   8  14
ENDBRANCH   1   8
BRANCH   1  16
ATOM     16  O   UNL     1      -3.223  -1.105   0.676  1.00  0.00    -0.387 OA
ATOM     17  H   UNL     1      -2.756  -0.238   0.548  1.00  0.00     0.211 HD
ENDBRANCH   1  16
TORSDOF 10
ENDMDL
MODEL 2
REMARK VINA RESULT:    -3.169      1.142      4.640
REMARK INTER + INTRA:          -4.630
REMARK INTER:                  -4.339
REMARK INTRA:                  -0.292
REMARK UNBOUND:                -0.072
REMARK SMILES O=C(CO)[C@H](O)[C@@H](O)[C@H](O)CO
REMARK SMILES IDX 7 1 9 2 11 3 12 4 10 6 5 8 2 9 1 10 3 11 4 12 6 14 8 16
REMARK H PARENT 12 5 10 7 4 13 6 15 8 17
REMARK Flexibility Score: inf
ROOT
ATOM      1  C   UNL     1      -3.856   0.049   2.631  1.00  0.00     0.181 C 
ENDROOT
BRANCH   1   2
ATOM      2  C   UNL     1      -2.461  -0.412   3.148  1.00  0.00     0.171 C 
BRANCH   2   3
ATOM      3  C   UNL     1      -1.380   0.678   3.074  1.00  0.00     0.190 C 
BRANCH   3   4
ATOM      4  O   UNL     1      -0.116   0.171   3.411  1.00  0.00    -0.394 OA
ATOM      5  H   UNL     1      -0.097   0.085   4.400  1.00  0.00     0.210 HD
ENDBRANCH   3   4
ENDBRANCH   2   3
BRANCH   2   6
ATOM      6  O   UNL     1      -2.570  -0.833   4.485  1.00  0.00    -0.388 OA
ATOM      7  H   UNL     1      -2.194  -0.112   5.053  1.00  0.00     0.211 HD
ENDBRANCH   2   6
ENDBRANCH   1   2
BRANCH   1   8
ATOM      8  C   UNL     1      -4.367  -0.754   1.397  1.00  0.00     0.214 C 
BRANCH   8   9
ATOM      9  C   UNL     1      -4.858  -2.138   1.770  1.00  0.00     0.189 C 
ATOM     10  O   UNL     1      -4.957  -2.443   2.949  1.00  0.00    -0.294 OA
BRANCH   9  11
ATOM     11  C   UNL     1      -5.299  -3.125   0.721  1.00  0.00     0.234 C 
BRANCH  11  12
ATOM     12  O   UNL     1      -5.198  -2.556  -0.555  1.00  0.00    -0.388 OA
ATOM     13  H   UNL     1      -5.788  -3.086  -1.152  1.00  0.00     0.211 HD
ENDBRANCH  11  12
ENDBRANCH   9  11
ENDBRANCH   8   9
BRANCH   8  14
ATOM     14  O   UNL     1      -3.331  -0.886   0.456  1.00  0.00    -0.382 OA
ATOM     15  H   UNL     1      -3.031   0.032   0.225  1.00  0.00     0.211 HD
ENDBRANCH   8  14
ENDBRANCH   1   8
BRANCH   1  16
ATOM     16  O   UNL     1      -4.790  -0.044   3.680  1.00  0.00    -0.387 OA
ATOM     17  H   UNL     1      -5.689  -0.145   3.270  1.00  0.00     0.211 HD
ENDBRANCH   1  16
TORSDOF 10
ENDMDL
MODEL 3
REMARK VINA RESULT:    -3.083      1.197      4.384
REMARK INTER + INTRA:          -4.506
REMARK INTER:                  -3.582
REMARK INTRA:                  -0.925
REMARK UNBOUND:                -0.072
REMARK SMILES O=C(CO)[C@H](O)[C@@H](O)[C@H](O)CO
REMARK SMILES IDX 7 1 9 2 11 3 12 4 10 6 5 8 2 9 1 10 3 11 4 12 6 14 8 16
REMARK H PARENT 12 5 10 7 4 13 6 15 8 17
REMARK Flexibility Score: inf
ROOT
ATOM      1  C   UNL     1      -3.241  -1.316   2.085  1.00  0.00     0.181 C 
ENDROOT
BRANCH   1   2
ATOM      2  C   UNL     1      -3.176  -0.094   3.050  1.00  0.00     0.171 C 
BRANCH   2   3
ATOM      3  C   UNL     1      -1.746   0.346   3.399  1.00  0.00     0.190 C 
BRANCH   3   4
ATOM      4  O   UNL     1      -0.996   0.619   2.245  1.00  0.00    -0.394 OA
ATOM      5  H   UNL     1      -0.769   1.585   2.274  1.00  0.00     0.210 HD
ENDBRANCH   3   4
ENDBRANCH   2   3
BRANCH   2   6
ATOM      6  O   UNL     1      -3.844   0.999   2.469  1.00  0.00    -0.388 OA
ATOM      7  H   UNL     1      -4.192   1.559   3.210  1.00  0.00     0.211 HD
ENDBRANCH   2   6
ENDBRANCH   1   2
BRANCH   1   8
ATOM      8  C   UNL     1      -4.521  -2.188   2.260  1.00  0.00     0.214 C 
BRANCH   8   9
ATOM      9  C   UNL     1      -5.443  -2.111   1.061  1.00  0.00     0.189 C 
ATOM     10  O   UNL     1      -6.223  -1.176   0.962  1.00  0.00    -0.294 OA
BRANCH   9  11
ATOM     11  C   UNL     1      -5.370  -3.122  -0.053  1.00  0.00     0.234 C 
BRANCH  11  12
ATOM     12  O   UNL     1      -4.627  -2.612  -1.125  1.00  0.00    -0.388 OA
ATOM     13  H   UNL     1      -3.695  -2.934  -1.007  1.00  0.00     0.211 HD
ENDBRANCH  11  12
ENDBRANCH   9  11
ENDBRANCH   8   9
BRANCH   8  14
ATOM     14  O   UNL     1      -5.231  -1.765   3.398  1.00  0.00    -0.382 OA
ATOM     15  H   UNL     1      -5.199  -0.772   3.405  1.00  0.00     0.211 HD
ENDBRANCH   8  14
ENDBRANCH   1   8
BRANCH   1  16
ATOM     16  O   UNL     1      -3.155  -0.859   0.756  1.00  0.00    -0.387 OA
ATOM     17  H   UNL     1      -4.082  -0.735   0.423  1.00  0.00     0.211 HD
ENDBRANCH   1  16
TORSDOF 10
ENDMDL
MODEL 4
REMARK VINA RESULT:    -2.988      1.065      4.527
REMARK INTER + INTRA:          -4.370
REMARK INTER:                  -4.189
REMARK INTRA:                  -0.181
REMARK UNBOUND:                -0.072
REMARK SMILES O=C(CO)[C@H](O)[C@@H](O)[C@H](O)CO
REMARK SMILES IDX 7 1 9 2 11 3 12 4 10 6 5 8 2 9 1 10 3 11 4 12 6 14 8 16
REMARK H PARENT 12 5 10 7 4 13 6 15 8 17
REMARK Flexibility Score: inf
ROOT
ATOM      1  C   UNL     1      -4.435  -0.523   2.678  1.00  0.00     0.181 C 
ENDROOT
BRANCH   1   2
ATOM      2  C   UNL     1      -3.113   0.185   2.257  1.00  0.00     0.171 C 
BRANCH   2   3
ATOM      3  C   UNL     1      -2.060   0.249   3.375  1.00  0.00     0.190 C 
BRANCH   3   4
ATOM      4  O   UNL     1      -0.769   0.422   2.855  1.00  0.00    -0.394 OA
ATOM      5  H   UNL     1      -0.825   1.157   2.190  1.00  0.00     0.210 HD
ENDBRANCH   3   4
ENDBRANCH   2   3
BRANCH   2   6
ATOM      6  O   UNL     1      -2.548  -0.489   1.159  1.00  0.00    -0.388 OA
ATOM      7  H   UNL     1      -2.059   0.186   0.619  1.00  0.00     0.211 HD
ENDBRANCH   2   6
ENDBRANCH   1   2
BRANCH   1   8
ATOM      8  C   UNL     1      -4.570  -1.978   2.135  1.00  0.00     0.214 C 
BRANCH   8   9
ATOM      9  C   UNL     1      -5.553  -2.078   0.986  1.00  0.00     0.189 C 
ATOM     10  O   UNL     1      -6.453  -1.256   0.891  1.00  0.00    -0.294 OA
BRANCH   9  11
ATOM     11  C   UNL     1      -5.405  -3.125  -0.086  1.00  0.00     0.234 C 
BRANCH  11  12
ATOM     12  O   UNL     1      -4.596  -2.645  -1.125  1.00  0.00    -0.388 OA
ATOM     13  H   UNL     1      -4.307  -1.732  -0.864  1.00  0.00     0.211 HD
ENDBRANCH  11  12
ENDBRANCH   9  11
ENDBRANCH   8   9
BRANCH   8  14
ATOM     14  O   UNL     1      -5.001  -2.830   3.167  1.00  0.00    -0.382 OA
ATOM     15  H   UNL     1      -5.491  -2.266   3.822  1.00  0.00     0.211 HD
ENDBRANCH   8  14
ENDBRANCH   1   8
BRANCH   1  16
ATOM     16  O   UNL     1      -4.529  -0.528   4.082  1.00  0.00    -0.387 OA
ATOM     17  H   UNL     1      -4.355  -1.457   4.389  1.00  0.00     0.211 HD
ENDBRANCH   1  16
TORSDOF 10
ENDMDL
MODEL 5
REMARK VINA RESULT:    -2.833      1.217      4.634
REMARK INTER + INTRA:          -4.147
REMARK INTER:                  -3.970
REMARK INTRA:                  -0.177
REMARK UNBOUND:                -0.072
REMARK SMILES O=C(CO)[C@H](O)[C@@H](O)[C@H](O)CO
REMARK SMILES IDX 7 1 9 2 11 3 12 4 10 6 5 8 2 9 1 10 3 11 4 12 6 14 8 16
REMARK H PARENT 12 5 10 7 4 13 6 15 8 17
REMARK Flexibility Score: inf
ROOT
ATOM      1  C   UNL     1      -3.695  -0.127   2.960  1.00  0.00     0.181 C 
ENDROOT
BRANCH   1   2
ATOM      2  C   UNL     1      -2.300  -0.017   3.645  1.00  0.00     0.171 C 
BRANCH   2   3
ATOM      3  C   UNL     1      -1.158   0.330   2.677  1.00  0.00     0.190 C 
BRANCH   3   4
ATOM      4  O   UNL     1       0.097   0.092   3.256  1.00  0.00    -0.394 OA
ATOM      5  H   UNL     1       0.122   0.606   4.105  1.00  0.00     0.210 HD
ENDBRANCH   3   4
ENDBRANCH   2   3
BRANCH   2   6
ATOM      6  O   UNL     1      -2.344   0.970   4.645  1.00  0.00    -0.388 OA
ATOM      7  H   UNL     1      -3.213   0.876   5.116  1.00  0.00     0.211 HD
ENDBRANCH   2   6
ENDBRANCH   1   2
BRANCH   1   8
ATOM      8  C   UNL     1      -4.047  -1.566   2.477  1.00  0.00     0.214 C 
BRANCH   8   9
ATOM      9  C   UNL     1      -4.344  -1.622   0.992  1.00  0.00     0.189 C 
ATOM     10  O   UNL     1      -3.632  -1.005   0.213  1.00  0.00    -0.294 OA
BRANCH   9  11
ATOM     11  C   UNL     1      -5.453  -2.480   0.444  1.00  0.00     0.234 C 
BRANCH  11  12
ATOM     12  O   UNL     1      -5.197  -2.810  -0.893  1.00  0.00    -0.388 OA
ATOM     13  H   UNL     1      -4.423  -2.258  -1.181  1.00  0.00     0.211 HD
ENDBRANCH  11  12
ENDBRANCH   9  11
ENDBRANCH   8   9
BRANCH   8  14
ATOM     14  O   UNL     1      -5.172  -2.038   3.176  1.00  0.00    -0.382 OA
ATOM     15  H   UNL     1      -4.858  -2.771   3.767  1.00  0.00     0.211 HD
ENDBRANCH   8  14
ENDBRANCH   1   8
BRANCH   1  16
ATOM     16  O   UNL     1      -4.684   0.332   3.851  1.00  0.00    -0.387 OA
ATOM     17  H   UNL     1      -5.560   0.250   3.391  1.00  0.00     0.211 HD
ENDBRANCH   1  16
TORSDOF 10
ENDMDL
MODEL 6
REMARK VINA RESULT:    -0.616      1.314      4.654
REMARK INTER + INTRA:          -0.958
REMARK INTER:                  -0.525
REMARK INTRA:                  -0.432
REMARK UNBOUND:                -0.072
REMARK SMILES O=C(CO)[C@H](O)[C@@H](O)[C@H](O)CO
REMARK SMILES IDX 7 1 9 2 11 3 12 4 10 6 5 8 2 9 1 10 3 11 4 12 6 14 8 16
REMARK H PARENT 12 5 10 7 4 13 6 15 8 17
REMARK Flexibility Score: inf
ROOT
ATOM      1  C   UNL     1      -2.682   0.429   3.332  1.00  0.00     0.181 C 
ENDROOT
BRANCH   1   2
ATOM      2  C   UNL     1      -1.164   0.651   3.065  1.00  0.00     0.171 C 
BRANCH   2   3
ATOM      3  C   UNL     1      -0.276  -0.521   3.511  1.00  0.00     0.190 C 
BRANCH   3   4
ATOM      4  O   UNL     1       1.012  -0.427   2.964  1.00  0.00    -0.394 OA
ATOM      5  H   UNL     1       1.408   0.416   3.309  1.00  0.00     0.210 HD
ENDBRANCH   3   4
ENDBRANCH   2   3
BRANCH   2   6
ATOM      6  O   UNL     1      -0.955   0.863   1.690  1.00  0.00    -0.388 OA
ATOM      7  H   UNL     1      -1.690   1.446   1.366  1.00  0.00     0.211 HD
ENDBRANCH   2   6
ENDBRANCH   1   2
BRANCH   1   8
ATOM      8  C   UNL     1      -3.163  -1.027   3.055  1.00  0.00     0.214 C 
BRANCH   8   9
ATOM      9  C   UNL     1      -3.826  -1.170   1.700  1.00  0.00     0.189 C 
ATOM     10  O   UNL     1      -3.237  -0.789   0.699  1.00  0.00    -0.294 OA
BRANCH   9  11
ATOM     11  C   UNL     1      -5.166  -1.840   1.547  1.00  0.00     0.234 C 
BRANCH  11  12
ATOM     12  O   UNL     1      -5.011  -3.115   0.988  1.00  0.00    -0.388 OA
ATOM     13  H   UNL     1      -4.067  -3.184   0.690  1.00  0.00     0.211 HD
ENDBRANCH  11  12
ENDBRANCH   9  11
ENDBRANCH   8   9
BRANCH   8  14
ATOM     14  O   UNL     1      -4.081  -1.420   4.045  1.00  0.00    -0.382 OA
ATOM     15  H   UNL     1      -3.637  -2.123   4.588  1.00  0.00     0.211 HD
ENDBRANCH   8  14
ENDBRANCH   1   8
BRANCH   1  16
ATOM     16  O   UNL     1      -2.972   0.780   4.664  1.00  0.00    -0.387 OA
ATOM     17  H   UNL     1      -3.817   1.303   4.657  1.00  0.00     0.211 HD
ENDBRANCH   1  16
TORSDOF 10
ENDMDL
