MODEL 1
REMARK VINA RESULT:    -4.305      0.000      0.000
REMARK INTER + INTRA:          -6.473
REMARK INTER:                  -6.570
REMARK INTRA:                   0.097
REMARK UNBOUND:                 0.097
REMARK SMILES CC1=CCC[C@@H](C)C(=O)C[C@H](C(C)C)C(=O)C1
REMARK SMILES IDX 8 1 9 2 6 3 7 4 5 5 4 6 3 7 2 8 1 9 10 11 11 12 15 13 16 14
REMARK SMILES IDX 17 15 12 17 13 18 14 19
REMARK H PARENT
REMARK Flexibility Score: 70.00
ROOT
ATOM      1  C   UNL     1     -13.389 -16.806  32.281  1.00  0.00     0.136 C 
ATOM      2  O   UNL     1     -14.250 -17.356  32.954  1.00  0.00    -0.299 OA
ENDROOT
BRANCH   1   3
ATOM      3  C   UNL     1     -13.568 -15.363  31.841  1.00  0.00     0.053 C 
ATOM      4  C   UNL     1     -14.302 -14.521  32.896  1.00  0.00     0.016 C 
BRANCH   3   5
ATOM      5  C   UNL     1     -14.251 -15.273  30.462  1.00  0.00     0.015 C 
BRANCH   5   6
ATOM      6  C   UNL     1     -13.387 -14.595  29.378  1.00  0.00     0.028 C 
BRANCH   6   7
ATOM      7  C   UNL     1     -13.207 -15.495  28.182  1.00  0.00    -0.028 C 
ATOM      8  C   UNL     1     -12.101 -16.236  27.932  1.00  0.00    -0.070 CG0
ATOM      9  C   UNL     1     -12.066 -17.052  26.666  1.00  0.00     0.039 C 
ATOM     10  G   UNL     1     -10.905 -16.287  28.873  1.00  0.00     0.000 G0
ENDBRANCH   6   7
ENDBRANCH   5   6
ENDBRANCH   3   5
ENDBRANCH   1   3
BRANCH   1  11
ATOM     11  C   UNL     1     -12.154 -17.586  31.897  1.00  0.00     0.087 C 
BRANCH  11  12
ATOM     12  C   UNL     1     -12.174 -18.014  30.406  1.00  0.00     0.066 C 
BRANCH  12  13
ATOM     13  C   UNL     1     -10.898 -17.544  29.727  1.00  0.00     0.140 C 
ATOM     14  O   UNL     1      -9.884 -18.224  29.812  1.00  0.00    -0.299 OA
BRANCH  13  15
ATOM     15  C   UNL     1     -10.898 -16.307  28.864  1.00  0.00     0.106 CG0
ATOM     16  G   UNL     1     -12.110 -16.236  27.946  1.00  0.00     0.000 G0
ENDBRANCH  13  15
ENDBRANCH  12  13
BRANCH  12  17
ATOM     17  C   UNL     1     -12.355 -19.557  30.225  1.00  0.00    -0.006 C 
ATOM     18  C   UNL     1     -13.519 -19.871  29.264  1.00  0.00     0.008 C 
ATOM     19  C   UNL     1     -12.612 -20.279  31.562  1.00  0.00     0.008 C 
ENDBRANCH  12  17
ENDBRANCH  11  12
ENDBRANCH   1  11
TORSDOF 1
ENDMDL
MODEL 2
REMARK VINA RESULT:    -4.205      1.833      4.482
REMARK INTER + INTRA:          -6.320
REMARK INTER:                  -7.406
REMARK INTRA:                   1.086
REMARK UNBOUND:                 0.097
REMARK SMILES CC1=CCC[C@@H](C)C(=O)C[C@H](C(C)C)C(=O)C1
REMARK SMILES IDX 8 1 9 2 6 3 7 4 5 5 4 6 3 7 2 8 1 9 10 11 11 12 15 13 16 14
REMARK SMILES IDX 17 15 12 17 13 18 14 19
REMARK H PARENT
REMARK Flexibility Score: 70.00
ROOT
ATOM      1  C   UNL     1     -11.593 -18.871  29.427  1.00  0.00     0.136 C 
ATOM      2  O   UNL     1     -10.548 -18.899  30.063  1.00  0.00    -0.299 OA
ENDROOT
BRANCH   1   3
ATOM      3  C   UNL     1     -12.680 -19.897  29.696  1.00  0.00     0.053 C 
ATOM      4  C   UNL     1     -13.926 -19.665  28.827  1.00  0.00     0.016 C 
BRANCH   3   5
ATOM      5  C   UNL     1     -13.034 -19.966  31.194  1.00  0.00     0.015 C 
BRANCH   5   6
ATOM      6  C   UNL     1     -12.507 -18.773  32.019  1.00  0.00     0.028 C 
BRANCH   6   7
ATOM      7  C   UNL     1     -13.482 -17.622  31.998  1.00  0.00    -0.028 C 
ATOM      8  C   UNL     1     -13.149 -16.333  31.753  1.00  0.00    -0.070 CG0
ATOM      9  C   UNL     1     -14.241 -15.296  31.810  1.00  0.00     0.039 C 
ATOM     10  G   UNL     1     -11.732 -15.890  31.415  1.00  0.00     0.000 G0
ENDBRANCH   6   7
ENDBRANCH   5   6
ENDBRANCH   3   5
ENDBRANCH   1   3
BRANCH   1  11
ATOM     11  C   UNL     1     -11.778 -17.803  28.375  1.00  0.00     0.087 C 
BRANCH  11  12
ATOM     12  C   UNL     1     -12.419 -16.515  28.956  1.00  0.00     0.066 C 
BRANCH  12  13
ATOM     13  C   UNL     1     -11.451 -15.863  29.931  1.00  0.00     0.140 C 
ATOM     14  O   UNL     1     -10.486 -15.247  29.500  1.00  0.00    -0.299 OA
BRANCH  13  15
ATOM     15  C   UNL     1     -11.729 -15.877  31.414  1.00  0.00     0.106 CG0
ATOM     16  G   UNL     1     -13.147 -16.323  31.738  1.00  0.00     0.000 G0
ENDBRANCH  13  15
ENDBRANCH  12  13
BRANCH  12  17
ATOM     17  C   UNL     1     -12.845 -15.501  27.845  1.00  0.00    -0.006 C 
ATOM     18  C   UNL     1     -13.806 -14.434  28.406  1.00  0.00     0.008 C 
ATOM     19  C   UNL     1     -13.523 -16.193  26.647  1.00  0.00     0.008 C 
ENDBRANCH  12  17
ENDBRANCH  11  12
ENDBRANCH   1  11
TORSDOF 1
ENDMDL
MODEL 3
REMARK VINA RESULT:    -4.102      2.027      3.633
REMARK INTER + INTRA:          -6.163
REMARK INTER:                  -6.564
REMARK INTRA:                   0.401
REMARK UNBOUND:                 0.097
REMARK SMILES CC1=CCC[C@@H](C)C(=O)C[C@H](C(C)C)C(=O)C1
REMARK SMILES IDX 8 1 9 2 6 3 7 4 5 5 4 6 3 7 2 8 1 9 10 11 11 12 15 13 16 14
REMARK SMILES IDX 17 15 12 17 13 18 14 19
REMARK H PARENT
REMARK Flexibility Score: 70.00
ROOT
ATOM      1  C   UNL     1     -13.601 -15.844  31.275  1.00  0.00     0.136 C 
ATOM      2  O   UNL     1     -14.137 -14.745  31.229  1.00  0.00    -0.299 OA
ENDROOT
BRANCH   1   3
ATOM      3  C   UNL     1     -13.317 -16.500  32.615  1.00  0.00     0.053 C 
ATOM      4  C   UNL     1     -14.604 -16.801  33.399  1.00  0.00     0.016 C 
BRANCH   3   5
ATOM      5  C   UNL     1     -12.320 -15.672  33.450  1.00  0.00     0.015 C 
BRANCH   5   6
ATOM      6  C   UNL     1     -10.856 -15.790  32.977  1.00  0.00     0.028 C 
BRANCH   6   7
ATOM      7  C   UNL     1     -10.587 -17.143  32.368  1.00  0.00    -0.028 C 
ATOM      8  C   UNL     1     -10.219 -17.351  31.082  1.00  0.00    -0.070 CG0
ATOM      9  C   UNL     1     -10.028 -18.773  30.621  1.00  0.00     0.039 C 
ATOM     10  G   UNL     1      -9.980 -16.220  30.092  1.00  0.00     0.000 G0
ENDBRANCH   6   7
ENDBRANCH   5   6
ENDBRANCH   3   5
ENDBRANCH   1   3
BRANCH   1  11
ATOM     11  C   UNL     1     -13.228 -16.530  29.982  1.00  0.00     0.087 C 
BRANCH  11  12
ATOM     12  C   UNL     1     -12.350 -15.627  29.075  1.00  0.00     0.066 C 
BRANCH  12  13
ATOM     13  C   UNL     1     -10.971 -16.248  28.926  1.00  0.00     0.140 C 
ATOM     14  O   UNL     1     -10.625 -16.697  27.841  1.00  0.00    -0.299 OA
BRANCH  13  15
ATOM     15  C   UNL     1      -9.987 -16.218  30.070  1.00  0.00     0.106 CG0
ATOM     16  G   UNL     1     -10.231 -17.331  31.079  1.00  0.00     0.000 G0
ENDBRANCH  13  15
ENDBRANCH  12  13
BRANCH  12  17
ATOM     17  C   UNL     1     -12.993 -15.378  27.671  1.00  0.00    -0.006 C 
ATOM     18  C   UNL     1     -14.162 -14.377  27.766  1.00  0.00     0.008 C 
ATOM     19  C   UNL     1     -13.508 -16.677  27.022  1.00  0.00     0.008 C 
ENDBRANCH  12  17
ENDBRANCH  11  12
ENDBRANCH   1  11
TORSDOF 1
ENDMDL
MODEL 4
REMARK VINA RESULT:    -3.963      1.626      3.784
REMARK INTER + INTRA:          -5.951
REMARK INTER:                  -6.028
REMARK INTRA:                   0.077
REMARK UNBOUND:                 0.097
REMARK SMILES CC1=CCC[C@@H](C)C(=O)C[C@H](C(C)C)C(=O)C1
REMARK SMILES IDX 8 1 9 2 6 3 7 4 5 5 4 6 3 7 2 8 1 9 10 11 11 12 15 13 16 14
REMARK SMILES IDX 17 15 12 17 13 18 14 19
REMARK H PARENT
REMARK Flexibility Score: 70.00
ROOT
ATOM      1  C   UNL     1     -13.041 -18.828  31.170  1.00  0.00     0.136 C 
ATOM      2  O   UNL     1     -12.972 -19.763  31.956  1.00  0.00    -0.299 OA
ENDROOT
BRANCH   1   3
ATOM      3  C   UNL     1     -12.669 -19.027  29.711  1.00  0.00     0.053 C 
ATOM      4  C   UNL     1     -13.194 -20.360  29.154  1.00  0.00     0.016 C 
BRANCH   3   5
ATOM      5  C   UNL     1     -11.151 -18.875  29.489  1.00  0.00     0.015 C 
BRANCH   5   6
ATOM      6  C   UNL     1     -10.765 -17.679  28.593  1.00  0.00     0.028 C 
BRANCH   6   7
ATOM      7  C   UNL     1     -11.913 -17.271  27.704  1.00  0.00    -0.028 C 
ATOM      8  C   UNL     1     -12.658 -16.154  27.871  1.00  0.00    -0.070 CG0
ATOM      9  C   UNL     1     -13.798 -15.914  26.915  1.00  0.00     0.039 C 
ATOM     10  G   UNL     1     -12.391 -15.131  28.967  1.00  0.00     0.000 G0
ENDBRANCH   6   7
ENDBRANCH   5   6
ENDBRANCH   3   5
ENDBRANCH   1   3
BRANCH   1  11
ATOM     11  C   UNL     1     -13.499 -17.481  31.676  1.00  0.00     0.087 C 
BRANCH  11  12
ATOM     12  C   UNL     1     -12.504 -16.350  31.308  1.00  0.00     0.066 C 
BRANCH  12  13
ATOM     13  C   UNL     1     -13.131 -15.444  30.261  1.00  0.00     0.140 C 
ATOM     14  O   UNL     1     -14.198 -14.894  30.500  1.00  0.00    -0.299 OA
BRANCH  13  15
ATOM     15  C   UNL     1     -12.401 -15.133  28.978  1.00  0.00     0.106 CG0
ATOM     16  G   UNL     1     -12.682 -16.153  27.884  1.00  0.00     0.000 G0
ENDBRANCH  13  15
ENDBRANCH  12  13
BRANCH  12  17
ATOM     17  C   UNL     1     -12.051 -15.517  32.552  1.00  0.00    -0.006 C 
ATOM     18  C   UNL     1     -10.766 -16.099  33.173  1.00  0.00     0.008 C 
ATOM     19  C   UNL     1     -13.138 -15.453  33.643  1.00  0.00     0.008 C 
ENDBRANCH  12  17
ENDBRANCH  11  12
ENDBRANCH   1  11
TORSDOF 1
ENDMDL
MODEL 5
REMARK VINA RESULT:    -3.954      2.214      4.329
REMARK INTER + INTRA:          -5.937
REMARK INTER:                  -6.022
REMARK INTRA:                   0.085
REMARK UNBOUND:                 0.097
REMARK SMILES CC1=CCC[C@@H](C)C(=O)C[C@H](C(C)C)C(=O)C1
REMARK SMILES IDX 8 1 9 2 6 3 7 4 5 5 4 6 3 7 2 8 1 9 10 11 11 12 15 13 16 14
REMARK SMILES IDX 17 15 12 17 13 18 14 19
REMARK H PARENT
REMARK Flexibility Score: 70.00
ROOT
ATOM      1  C   UNL     1     -12.218 -15.872  30.414  1.00  0.00     0.136 C 
ATOM      2  O   UNL     1     -12.970 -16.074  31.358  1.00  0.00    -0.299 OA
ENDROOT
BRANCH   1   3
ATOM      3  C   UNL     1     -10.764 -15.510  30.660  1.00  0.00     0.053 C 
ATOM      4  C   UNL     1      -9.933 -15.530  29.366  1.00  0.00     0.016 C 
BRANCH   3   5
ATOM      5  C   UNL     1     -10.137 -16.398  31.754  1.00  0.00     0.015 C 
BRANCH   5   6
ATOM      6  C   UNL     1      -9.887 -17.855  31.312  1.00  0.00     0.028 C 
BRANCH   6   7
ATOM      7  C   UNL     1     -10.951 -18.779  31.850  1.00  0.00    -0.028 C 
ATOM      8  C   UNL     1     -11.815 -19.487  31.086  1.00  0.00    -0.070 CG0
ATOM      9  C   UNL     1     -12.847 -20.334  31.785  1.00  0.00     0.039 C 
ATOM     10  G   UNL     1     -11.784 -19.474  29.564  1.00  0.00     0.000 G0
ENDBRANCH   6   7
ENDBRANCH   5   6
ENDBRANCH   3   5
ENDBRANCH   1   3
BRANCH   1  11
ATOM     11  C   UNL     1     -12.762 -15.987  29.009  1.00  0.00     0.087 C 
BRANCH  11  12
ATOM     12  C   UNL     1     -12.207 -17.233  28.269  1.00  0.00     0.066 C 
BRANCH  12  13
ATOM     13  C   UNL     1     -12.727 -18.494  28.939  1.00  0.00     0.140 C 
ATOM     14  O   UNL     1     -13.924 -18.748  28.900  1.00  0.00    -0.299 OA
BRANCH  13  15
ATOM     15  C   UNL     1     -11.772 -19.486  29.555  1.00  0.00     0.106 CG0
ATOM     16  G   UNL     1     -11.840 -19.495  31.075  1.00  0.00     0.000 G0
ENDBRANCH  13  15
ENDBRANCH  12  13
BRANCH  12  17
ATOM     17  C   UNL     1     -12.561 -17.234  26.746  1.00  0.00    -0.006 C 
ATOM     18  C   UNL     1     -11.323 -16.910  25.887  1.00  0.00     0.008 C 
ATOM     19  C   UNL     1     -13.676 -16.228  26.401  1.00  0.00     0.008 C 
ENDBRANCH  12  17
ENDBRANCH  11  12
ENDBRANCH   1  11
TORSDOF 1
ENDMDL
MODEL 6
REMARK VINA RESULT:    -3.881      1.964      3.674
REMARK INTER + INTRA:          -5.826
REMARK INTER:                  -6.852
REMARK INTRA:                   1.026
REMARK UNBOUND:                 0.097
REMARK SMILES CC1=CCC[C@@H](C)C(=O)C[C@H](C(C)C)C(=O)C1
REMARK SMILES IDX 8 1 9 2 6 3 7 4 5 5 4 6 3 7 2 8 1 9 10 11 11 12 15 13 16 14
REMARK SMILES IDX 17 15 12 17 13 18 14 19
REMARK H PARENT
REMARK Flexibility Score: 70.00
ROOT
ATOM      1  C   UNL     1     -13.013 -15.176  29.845  1.00  0.00     0.136 C 
ATOM      2  O   UNL     1     -13.942 -15.060  30.633  1.00  0.00    -0.299 OA
ENDROOT
BRANCH   1   3
ATOM      3  C   UNL     1     -13.203 -14.814  28.382  1.00  0.00     0.053 C 
ATOM      4  C   UNL     1     -14.388 -13.860  28.168  1.00  0.00     0.016 C 
BRANCH   3   5
ATOM      5  C   UNL     1     -13.316 -16.073  27.499  1.00  0.00     0.015 C 
BRANCH   5   6
ATOM      6  C   UNL     1     -12.246 -17.144  27.795  1.00  0.00     0.028 C 
BRANCH   6   7
ATOM      7  C   UNL     1     -12.880 -18.451  28.202  1.00  0.00    -0.028 C 
ATOM      8  C   UNL     1     -12.576 -19.138  29.328  1.00  0.00    -0.070 CG0
ATOM      9  C   UNL     1     -13.274 -20.452  29.566  1.00  0.00     0.039 C 
ATOM     10  G   UNL     1     -11.575 -18.640  30.362  1.00  0.00     0.000 G0
ENDBRANCH   6   7
ENDBRANCH   5   6
ENDBRANCH   3   5
ENDBRANCH   1   3
BRANCH   1  11
ATOM     11  C   UNL     1     -11.684 -15.683  30.353  1.00  0.00     0.087 C 
BRANCH  11  12
ATOM     12  C   UNL     1     -11.818 -16.404  31.720  1.00  0.00     0.066 C 
BRANCH  12  13
ATOM     13  C   UNL     1     -12.201 -17.857  31.491  1.00  0.00     0.140 C 
ATOM     14  O   UNL     1     -13.097 -18.356  32.159  1.00  0.00    -0.299 OA
BRANCH  13  15
ATOM     15  C   UNL     1     -11.565 -18.653  30.379  1.00  0.00     0.106 CG0
ATOM     16  G   UNL     1     -12.577 -19.117  29.341  1.00  0.00     0.000 G0
ENDBRANCH  13  15
ENDBRANCH  12  13
BRANCH  12  17
ATOM     17  C   UNL     1     -10.515 -16.309  32.580  1.00  0.00    -0.006 C 
ATOM     18  C   UNL     1      -9.993 -17.710  32.954  1.00  0.00     0.008 C 
ATOM     19  C   UNL     1     -10.724 -15.500  33.875  1.00  0.00     0.008 C 
ENDBRANCH  12  17
ENDBRANCH  11  12
ENDBRANCH   1  11
TORSDOF 1
ENDMDL
MODEL 7
REMARK VINA RESULT:    -3.778      1.990      4.692
REMARK INTER + INTRA:          -5.668
REMARK INTER:                  -6.677
REMARK INTRA:                   1.009
REMARK UNBOUND:                 0.097
REMARK SMILES CC1=CCC[C@@H](C)C(=O)C[C@H](C(C)C)C(=O)C1
REMARK SMILES IDX 8 1 9 2 6 3 7 4 5 5 4 6 3 7 2 8 1 9 10 11 11 12 15 13 16 14
REMARK SMILES IDX 17 15 12 17 13 18 14 19
REMARK H PARENT
REMARK Flexibility Score: 70.00
ROOT
ATOM      1  C   UNL     1     -12.542 -15.475  29.018  1.00  0.00     0.136 C 
ATOM      2  O   UNL     1     -13.343 -14.612  28.685  1.00  0.00    -0.299 OA
ENDROOT
BRANCH   1   3
ATOM      3  C   UNL     1     -11.881 -16.351  27.967  1.00  0.00     0.053 C 
ATOM      4  C   UNL     1     -12.540 -16.200  26.587  1.00  0.00     0.016 C 
BRANCH   3   5
ATOM      5  C   UNL     1     -11.824 -17.825  28.414  1.00  0.00     0.015 C 
BRANCH   5   6
ATOM      6  C   UNL     1     -13.203 -18.436  28.737  1.00  0.00     0.028 C 
BRANCH   6   7
ATOM      7  C   UNL     1     -13.074 -19.614  29.669  1.00  0.00    -0.028 C 
ATOM      8  C   UNL     1     -12.577 -19.551  30.927  1.00  0.00    -0.070 CG0
ATOM      9  C   UNL     1     -12.477 -20.833  31.714  1.00  0.00     0.039 C 
ATOM     10  G   UNL     1     -12.127 -18.252  31.580  1.00  0.00     0.000 G0
ENDBRANCH   6   7
ENDBRANCH   5   6
ENDBRANCH   3   5
ENDBRANCH   1   3
BRANCH   1  11
ATOM     11  C   UNL     1     -12.225 -15.652  30.484  1.00  0.00     0.087 C 
BRANCH  11  12
ATOM     12  C   UNL     1     -13.484 -16.023  31.312  1.00  0.00     0.066 C 
BRANCH  12  13
ATOM     13  C   UNL     1     -13.272 -17.372  31.980  1.00  0.00     0.140 C 
ATOM     14  O   UNL     1     -14.097 -17.783  32.785  1.00  0.00    -0.299 OA
BRANCH  13  15
ATOM     15  C   UNL     1     -12.115 -18.253  31.580  1.00  0.00     0.106 CG0
ATOM     16  G   UNL     1     -12.568 -19.553  30.930  1.00  0.00     0.000 G0
ENDBRANCH  13  15
ENDBRANCH  12  13
BRANCH  12  17
ATOM     17  C   UNL     1     -13.847 -14.935  32.376  1.00  0.00    -0.006 C 
ATOM     18  C   UNL     1     -13.025 -15.124  33.666  1.00  0.00     0.008 C 
ATOM     19  C   UNL     1     -15.344 -14.947  32.740  1.00  0.00     0.008 C 
ENDBRANCH  12  17
ENDBRANCH  11  12
ENDBRANCH   1  11
TORSDOF 1
ENDMDL
MODEL 8
REMARK VINA RESULT:    -3.584      1.672      3.302
REMARK INTER + INTRA:          -5.372
REMARK INTER:                  -5.805
REMARK INTRA:                   0.433
REMARK UNBOUND:                 0.097
REMARK SMILES CC1=CCC[C@@H](C)C(=O)C[C@H](C(C)C)C(=O)C1
REMARK SMILES IDX 8 1 9 2 6 3 7 4 5 5 4 6 3 7 2 8 1 9 10 11 11 12 15 13 16 14
REMARK SMILES IDX 17 15 12 17 13 18 14 19
REMARK H PARENT
REMARK Flexibility Score: 70.00
ROOT
ATOM      1  C   UNL     1     -13.399 -17.688  32.038  1.00  0.00     0.136 C 
ATOM      2  O   UNL     1     -14.175 -17.406  32.941  1.00  0.00    -0.299 OA
ENDROOT
BRANCH   1   3
ATOM      3  C   UNL     1     -13.208 -19.134  31.618  1.00  0.00     0.053 C 
ATOM      4  C   UNL     1     -11.763 -19.614  31.827  1.00  0.00     0.016 C 
BRANCH   3   5
ATOM      5  C   UNL     1     -13.683 -19.370  30.170  1.00  0.00     0.015 C 
BRANCH   5   6
ATOM      6  C   UNL     1     -12.542 -19.400  29.132  1.00  0.00     0.028 C 
BRANCH   6   7
ATOM      7  C   UNL     1     -12.673 -18.267  28.145  1.00  0.00    -0.028 C 
ATOM      8  C   UNL     1     -11.772 -17.267  27.995  1.00  0.00    -0.070 CG0
ATOM      9  C   UNL     1     -12.075 -16.187  26.989  1.00  0.00     0.039 C 
ATOM     10  G   UNL     1     -10.472 -17.193  28.784  1.00  0.00     0.000 G0
ENDBRANCH   6   7
ENDBRANCH   5   6
ENDBRANCH   3   5
ENDBRANCH   1   3
BRANCH   1  11
ATOM     11  C   UNL     1     -12.640 -16.575  31.355  1.00  0.00     0.087 C 
BRANCH  11  12
ATOM     12  C   UNL     1     -11.114 -16.851  31.310  1.00  0.00     0.066 C 
BRANCH  12  13
ATOM     13  C   UNL     1     -10.541 -16.320  30.007  1.00  0.00     0.140 C 
ATOM     14  O   UNL     1     -10.062 -15.194  29.973  1.00  0.00    -0.299 OA
BRANCH  13  15
ATOM     15  C   UNL     1     -10.458 -17.204  28.787  1.00  0.00     0.106 CG0
ATOM     16  G   UNL     1     -11.767 -17.252  28.011  1.00  0.00     0.000 G0
ENDBRANCH  13  15
ENDBRANCH  12  13
BRANCH  12  17
ATOM     17  C   UNL     1     -10.355 -16.239  32.533  1.00  0.00    -0.006 C 
ATOM     18  C   UNL     1      -9.877 -17.341  33.499  1.00  0.00     0.008 C 
ATOM     19  C   UNL     1     -11.222 -15.237  33.320  1.00  0.00     0.008 C 
ENDBRANCH  12  17
ENDBRANCH  11  12
ENDBRANCH   1  11
TORSDOF 1
ENDMDL
MODEL 9
REMARK VINA RESULT:    -3.185      1.597      3.909
REMARK INTER + INTRA:          -4.764
REMARK INTER:                  -6.284
REMARK INTRA:                   1.520
REMARK UNBOUND:                 0.097
REMARK SMILES CC1=CCC[C@@H](C)C(=O)C[C@H](C(C)C)C(=O)C1
REMARK SMILES IDX 8 1 9 2 6 3 7 4 5 5 4 6 3 7 2 8 1 9 10 11 11 12 15 13 16 14
REMARK SMILES IDX 17 15 12 17 13 18 14 19
REMARK H PARENT
REMARK Flexibility Score: 70.00
ROOT
ATOM      1  C   UNL     1     -12.682 -18.944  31.624  1.00  0.00     0.136 C 
ATOM      2  O   UNL     1     -11.539 -18.866  32.056  1.00  0.00    -0.299 OA
ENDROOT
BRANCH   1   3
ATOM      3  C   UNL     1     -13.081 -20.098  30.722  1.00  0.00     0.053 C 
ATOM      4  C   UNL     1     -12.522 -21.442  31.215  1.00  0.00     0.016 C 
BRANCH   3   5
ATOM      5  C   UNL     1     -12.700 -19.825  29.253  1.00  0.00     0.015 C 
BRANCH   5   6
ATOM      6  C   UNL     1     -13.089 -18.418  28.755  1.00  0.00     0.028 C 
BRANCH   6   7
ATOM      7  C   UNL     1     -11.867 -17.573  28.497  1.00  0.00    -0.028 C 
ATOM      8  C   UNL     1     -11.610 -16.385  29.094  1.00  0.00    -0.070 CG0
ATOM      9  C   UNL     1     -10.360 -15.646  28.691  1.00  0.00     0.039 C 
ATOM     10  G   UNL     1     -12.516 -15.773  30.154  1.00  0.00     0.000 G0
ENDBRANCH   6   7
ENDBRANCH   5   6
ENDBRANCH   3   5
ENDBRANCH   1   3
BRANCH   1  11
ATOM     11  C   UNL     1     -13.680 -17.875  32.004  1.00  0.00     0.087 C 
BRANCH  11  12
ATOM     12  C   UNL     1     -12.991 -16.618  32.598  1.00  0.00     0.066 C 
BRANCH  12  13
ATOM     13  C   UNL     1     -12.048 -16.022  31.566  1.00  0.00     0.140 C 
ATOM     14  O   UNL     1     -10.874 -15.835  31.858  1.00  0.00    -0.299 OA
BRANCH  13  15
ATOM     15  C   UNL     1     -12.519 -15.760  30.156  1.00  0.00     0.106 CG0
ATOM     16  G   UNL     1     -11.611 -16.393  29.111  1.00  0.00     0.000 G0
ENDBRANCH  13  15
ENDBRANCH  12  13
BRANCH  12  17
ATOM     17  C   UNL     1     -14.018 -15.545  33.088  1.00  0.00    -0.006 C 
ATOM     18  C   UNL     1     -14.509 -14.670  31.918  1.00  0.00     0.008 C 
ATOM     19  C   UNL     1     -13.431 -14.625  34.177  1.00  0.00     0.008 C 
ENDBRANCH  12  17
ENDBRANCH  11  12
ENDBRANCH   1  11
TORSDOF 1
ENDMDL
