MODEL 1
REMARK VINA RESULT:    -5.268      0.000      0.000
REMARK INTER + INTRA:          -5.422
REMARK INTER:                  -5.422
REMARK INTRA:                   0.000
REMARK UNBOUND:                 0.000
REMARK SMILES O=c1ccc2cc(O)ccc2o1
REMARK SMILES IDX 9 1 10 2 11 3 5 4 4 5 3 6 2 7 1 8 12 9 6 10 7 11 8 12
REMARK H PARENT 8 13
REMARK Flexibility Score: inf
ROOT
ATOM      1  C   UNL     1      13.985 -51.252  -1.033  1.00  0.00     0.050 A 
ATOM      2  C   UNL     1      13.910 -52.034  -2.191  1.00  0.00     0.052 A 
ATOM      3  C   UNL     1      15.038 -52.723  -2.646  1.00  0.00     0.138 A 
ATOM      4  C   UNL     1      16.254 -52.627  -1.933  1.00  0.00     0.021 A 
ATOM      5  C   UNL     1      17.365 -53.327  -2.412  1.00  0.00     0.019 A 
ATOM      6  C   UNL     1      17.243 -54.094  -3.571  1.00  0.00     0.094 A 
ATOM      7  C   UNL     1      16.007 -54.143  -4.225  1.00  0.00     0.336 A 
ATOM      8  O   UNL     1      15.877 -54.830  -5.272  1.00  0.00    -0.246 OA
ATOM      9  O   UNL     1      14.965 -53.467  -3.747  1.00  0.00    -0.423 OA
ATOM     10  C   UNL     1      16.324 -51.841  -0.773  1.00  0.00     0.058 A 
ATOM     11  C   UNL     1      15.191 -51.154  -0.323  1.00  0.00     0.116 A 
ENDROOT
BRANCH  11  12
ATOM     12  O   UNL     1      15.273 -50.378   0.830  1.00  0.00    -0.508 OA
ATOM     13  H   UNL     1      14.483 -49.832   1.159  1.00  0.00     0.293 HD
ENDBRANCH  11  12
TORSDOF 1
ENDMDL
MODEL 2
REMARK VINA RESULT:    -5.119      9.872     10.230
REMARK INTER + INTRA:          -5.269
REMARK INTER:                  -5.269
REMARK INTRA:                   0.000
REMARK UNBOUND:                 0.000
REMARK SMILES O=c1ccc2cc(O)ccc2o1
REMARK SMILES IDX 9 1 10 2 11 3 5 4 4 5 3 6 2 7 1 8 12 9 6 10 7 11 8 12
REMARK H PARENT 8 13
REMARK Flexibility Score: inf
ROOT
ATOM      1  C   UNL     1      18.270 -50.474   6.920  1.00  0.00     0.050 A 
ATOM      2  C   UNL     1      18.080 -51.820   7.251  1.00  0.00     0.052 A 
ATOM      3  C   UNL     1      16.788 -52.320   7.442  1.00  0.00     0.138 A 
ATOM      4  C   UNL     1      15.676 -51.461   7.299  1.00  0.00     0.021 A 
ATOM      5  C   UNL     1      14.396 -51.989   7.496  1.00  0.00     0.019 A 
ATOM      6  C   UNL     1      14.256 -53.337   7.825  1.00  0.00     0.094 A 
ATOM      7  C   UNL     1      15.403 -54.128   7.949  1.00  0.00     0.336 A 
ATOM      8  O   UNL     1      15.296 -55.347   8.246  1.00  0.00    -0.246 OA
ATOM      9  O   UNL     1      16.609 -53.600   7.756  1.00  0.00    -0.423 OA
ATOM     10  C   UNL     1      15.871 -50.112   6.968  1.00  0.00     0.058 A 
ATOM     11  C   UNL     1      17.167 -49.619   6.778  1.00  0.00     0.116 A 
ENDROOT
BRANCH  11  12
ATOM     12  O   UNL     1      17.349 -48.278   6.448  1.00  0.00    -0.508 OA
ATOM     13  H   UNL     1      18.113 -47.735   6.837  1.00  0.00     0.293 HD
ENDBRANCH  11  12
TORSDOF 1
ENDMDL
MODEL 3
REMARK VINA RESULT:    -4.949      9.857      9.900
REMARK INTER + INTRA:          -5.093
REMARK INTER:                  -5.093
REMARK INTRA:                   0.000
REMARK UNBOUND:                 0.000
REMARK SMILES O=c1ccc2cc(O)ccc2o1
REMARK SMILES IDX 9 1 10 2 11 3 5 4 4 5 3 6 2 7 1 8 12 9 6 10 7 11 8 12
REMARK H PARENT 8 13
REMARK Flexibility Score: inf
ROOT
ATOM      1  C   UNL     1      14.582 -48.942   6.786  1.00  0.00     0.050 A 
ATOM      2  C   UNL     1      14.268 -50.277   7.066  1.00  0.00     0.052 A 
ATOM      3  C   UNL     1      15.288 -51.214   7.255  1.00  0.00     0.138 A 
ATOM      4  C   UNL     1      16.638 -50.808   7.161  1.00  0.00     0.021 A 
ATOM      5  C   UNL     1      17.637 -51.767   7.355  1.00  0.00     0.019 A 
ATOM      6  C   UNL     1      17.275 -53.085   7.632  1.00  0.00     0.094 A 
ATOM      7  C   UNL     1      15.918 -53.414   7.711  1.00  0.00     0.336 A 
ATOM      8  O   UNL     1      15.572 -54.598   7.960  1.00  0.00    -0.246 OA
ATOM      9  O   UNL     1      14.987 -52.482   7.523  1.00  0.00    -0.423 OA
ATOM     10  C   UNL     1      16.949 -49.470   6.879  1.00  0.00     0.058 A 
ATOM     11  C   UNL     1      15.922 -48.537   6.692  1.00  0.00     0.116 A 
ENDROOT
BRANCH  11  12
ATOM     12  O   UNL     1      16.242 -47.211   6.413  1.00  0.00    -0.508 OA
ATOM     13  H   UNL     1      16.293 -46.867   5.460  1.00  0.00     0.293 HD
ENDBRANCH  11  12
TORSDOF 1
ENDMDL
MODEL 4
REMARK VINA RESULT:    -4.939      9.542     10.139
REMARK INTER + INTRA:          -5.083
REMARK INTER:                  -5.083
REMARK INTRA:                   0.000
REMARK UNBOUND:                 0.000
REMARK SMILES O=c1ccc2cc(O)ccc2o1
REMARK SMILES IDX 9 1 10 2 11 3 5 4 4 5 3 6 2 7 1 8 12 9 6 10 7 11 8 12
REMARK H PARENT 8 13
REMARK Flexibility Score: inf
ROOT
ATOM      1  C   UNL     1      14.393 -53.064   7.795  1.00  0.00     0.050 A 
ATOM      2  C   UNL     1      14.481 -51.783   7.238  1.00  0.00     0.052 A 
ATOM      3  C   UNL     1      15.731 -51.191   7.034  1.00  0.00     0.138 A 
ATOM      4  C   UNL     1      16.904 -51.890   7.392  1.00  0.00     0.021 A 
ATOM      5  C   UNL     1      18.140 -51.273   7.177  1.00  0.00     0.019 A 
ATOM      6  C   UNL     1      18.178 -49.996   6.619  1.00  0.00     0.094 A 
ATOM      7  C   UNL     1      16.975 -49.363   6.288  1.00  0.00     0.336 A 
ATOM      8  O   UNL     1      16.989 -48.210   5.784  1.00  0.00    -0.246 OA
ATOM      9  O   UNL     1      15.812 -49.974   6.504  1.00  0.00    -0.423 OA
ATOM     10  C   UNL     1      16.812 -53.174   7.951  1.00  0.00     0.058 A 
ATOM     11  C   UNL     1      15.557 -53.761   8.152  1.00  0.00     0.116 A 
ENDROOT
BRANCH  11  12
ATOM     12  O   UNL     1      15.477 -55.035   8.706  1.00  0.00    -0.508 OA
ATOM     13  H   UNL     1      14.709 -55.661   8.489  1.00  0.00     0.293 HD
ENDBRANCH  11  12
TORSDOF 1
ENDMDL
MODEL 5
REMARK VINA RESULT:    -4.880      1.416      4.534
REMARK INTER + INTRA:          -5.022
REMARK INTER:                  -5.022
REMARK INTRA:                   0.000
REMARK UNBOUND:                 0.000
REMARK SMILES O=c1ccc2cc(O)ccc2o1
REMARK SMILES IDX 9 1 10 2 11 3 5 4 4 5 3 6 2 7 1 8 12 9 6 10 7 11 8 12
REMARK H PARENT 8 13
REMARK Flexibility Score: inf
ROOT
ATOM      1  C   UNL     1      15.552 -54.607  -5.466  1.00  0.00     0.050 A 
ATOM      2  C   UNL     1      14.779 -53.958  -4.496  1.00  0.00     0.052 A 
ATOM      3  C   UNL     1      15.376 -53.488  -3.322  1.00  0.00     0.138 A 
ATOM      4  C   UNL     1      16.761 -53.671  -3.118  1.00  0.00     0.021 A 
ATOM      5  C   UNL     1      17.330 -53.192  -1.935  1.00  0.00     0.019 A 
ATOM      6  C   UNL     1      16.520 -52.552  -0.997  1.00  0.00     0.094 A 
ATOM      7  C   UNL     1      15.155 -52.406  -1.266  1.00  0.00     0.336 A 
ATOM      8  O   UNL     1      14.408 -51.831  -0.432  1.00  0.00    -0.246 OA
ATOM      9  O   UNL     1      14.639 -52.872  -2.401  1.00  0.00    -0.423 OA
ATOM     10  C   UNL     1      17.533 -54.323  -4.093  1.00  0.00     0.058 A 
ATOM     11  C   UNL     1      16.928 -54.790  -5.266  1.00  0.00     0.116 A 
ENDROOT
BRANCH  11  12
ATOM     12  O   UNL     1      17.704 -55.434  -6.227  1.00  0.00    -0.508 OA
ATOM     13  H   UNL     1      18.615 -55.817  -6.002  1.00  0.00     0.293 HD
ENDBRANCH  11  12
TORSDOF 1
ENDMDL
MODEL 6
REMARK VINA RESULT:    -4.856      1.368      2.394
REMARK INTER + INTRA:          -4.998
REMARK INTER:                  -4.998
REMARK INTRA:                   0.000
REMARK UNBOUND:                 0.000
REMARK SMILES O=c1ccc2cc(O)ccc2o1
REMARK SMILES IDX 9 1 10 2 11 3 5 4 4 5 3 6 2 7 1 8 12 9 6 10 7 11 8 12
REMARK H PARENT 8 13
REMARK Flexibility Score: inf
ROOT
ATOM      1  C   UNL     1      16.675 -52.439  -0.984  1.00  0.00     0.050 A 
ATOM      2  C   UNL     1      17.372 -53.116  -1.992  1.00  0.00     0.052 A 
ATOM      3  C   UNL     1      16.695 -53.577  -3.125  1.00  0.00     0.138 A 
ATOM      4  C   UNL     1      15.305 -53.358  -3.249  1.00  0.00     0.021 A 
ATOM      5  C   UNL     1      14.655 -53.831  -4.393  1.00  0.00     0.019 A 
ATOM      6  C   UNL     1      15.391 -54.500  -5.370  1.00  0.00     0.094 A 
ATOM      7  C   UNL     1      16.765 -54.681  -5.180  1.00  0.00     0.336 A 
ATOM      8  O   UNL     1      17.446 -55.282  -6.051  1.00  0.00    -0.246 OA
ATOM      9  O   UNL     1      17.359 -54.220  -4.082  1.00  0.00    -0.423 OA
ATOM     10  C   UNL     1      14.610 -52.679  -2.236  1.00  0.00     0.058 A 
ATOM     11  C   UNL     1      15.295 -52.220  -1.105  1.00  0.00     0.116 A 
ENDROOT
BRANCH  11  12
ATOM     12  O   UNL     1      14.595 -51.547  -0.107  1.00  0.00    -0.508 OA
ATOM     13  H   UNL     1      15.076 -51.038   0.627  1.00  0.00     0.293 HD
ENDBRANCH  11  12
TORSDOF 1
ENDMDL
MODEL 7
REMARK VINA RESULT:    -4.732      0.952      4.773
REMARK INTER + INTRA:          -4.870
REMARK INTER:                  -4.870
REMARK INTRA:                   0.000
REMARK UNBOUND:                 0.000
REMARK SMILES O=c1ccc2cc(O)ccc2o1
REMARK SMILES IDX 9 1 10 2 11 3 5 4 4 5 3 6 2 7 1 8 12 9 6 10 7 11 8 12
REMARK H PARENT 8 13
REMARK Flexibility Score: inf
ROOT
ATOM      1  C   UNL     1      17.359 -54.289  -3.708  1.00  0.00     0.050 A 
ATOM      2  C   UNL     1      17.554 -53.454  -2.602  1.00  0.00     0.052 A 
ATOM      3  C   UNL     1      16.490 -52.701  -2.095  1.00  0.00     0.138 A 
ATOM      4  C   UNL     1      15.219 -52.786  -2.703  1.00  0.00     0.021 A 
ATOM      5  C   UNL     1      14.175 -52.021  -2.175  1.00  0.00     0.019 A 
ATOM      6  C   UNL     1      14.417 -51.203  -1.071  1.00  0.00     0.094 A 
ATOM      7  C   UNL     1      15.702 -51.170  -0.520  1.00  0.00     0.336 A 
ATOM      8  O   UNL     1      15.940 -50.438   0.476  1.00  0.00    -0.246 OA
ATOM      9  O   UNL     1      16.678 -51.908  -1.043  1.00  0.00    -0.423 OA
ATOM     10  C   UNL     1      15.028 -53.623  -3.812  1.00  0.00     0.058 A 
ATOM     11  C   UNL     1      16.097 -54.375  -4.314  1.00  0.00     0.116 A 
ENDROOT
BRANCH  11  12
ATOM     12  O   UNL     1      15.895 -55.204  -5.415  1.00  0.00    -0.508 OA
ATOM     13  H   UNL     1      15.538 -54.842  -6.292  1.00  0.00     0.293 HD
ENDBRANCH  11  12
TORSDOF 1
ENDMDL
MODEL 8
REMARK VINA RESULT:    -4.631      9.390     10.094
REMARK INTER + INTRA:          -4.767
REMARK INTER:                  -4.767
REMARK INTRA:                   0.000
REMARK UNBOUND:                 0.000
REMARK SMILES O=c1ccc2cc(O)ccc2o1
REMARK SMILES IDX 9 1 10 2 11 3 5 4 4 5 3 6 2 7 1 8 12 9 6 10 7 11 8 12
REMARK H PARENT 8 13
REMARK Flexibility Score: inf
ROOT
ATOM      1  C   UNL     1      17.798 -51.279   7.640  1.00  0.00     0.050 A 
ATOM      2  C   UNL     1      17.761 -50.014   7.044  1.00  0.00     0.052 A 
ATOM      3  C   UNL     1      16.556 -49.506   6.548  1.00  0.00     0.138 A 
ATOM      4  C   UNL     1      15.377 -50.276   6.649  1.00  0.00     0.021 A 
ATOM      5  C   UNL     1      14.187 -49.743   6.144  1.00  0.00     0.019 A 
ATOM      6  C   UNL     1      14.199 -48.478   5.558  1.00  0.00     0.094 A 
ATOM      7  C   UNL     1      15.405 -47.772   5.492  1.00  0.00     0.336 A 
ATOM      8  O   UNL     1      15.436 -46.629   4.967  1.00  0.00    -0.246 OA
ATOM      9  O   UNL     1      16.524 -48.303   5.981  1.00  0.00    -0.423 OA
ATOM     10  C   UNL     1      15.418 -51.545   7.247  1.00  0.00     0.058 A 
ATOM     11  C   UNL     1      16.628 -52.046   7.743  1.00  0.00     0.116 A 
ENDROOT
BRANCH  11  12
ATOM     12  O   UNL     1      16.657 -53.306   8.335  1.00  0.00    -0.508 OA
ATOM     13  H   UNL     1      17.023 -54.114   7.844  1.00  0.00     0.293 HD
ENDBRANCH  11  12
TORSDOF 1
ENDMDL
MODEL 9
REMARK VINA RESULT:    -4.604      9.159     10.706
REMARK INTER + INTRA:          -4.738
REMARK INTER:                  -4.738
REMARK INTRA:                   0.000
REMARK UNBOUND:                 0.000
REMARK SMILES O=c1ccc2cc(O)ccc2o1
REMARK SMILES IDX 9 1 10 2 11 3 5 4 4 5 3 6 2 7 1 8 12 9 6 10 7 11 8 12
REMARK H PARENT 8 13
REMARK Flexibility Score: inf
ROOT
ATOM      1  C   UNL     1      18.228 -49.814   7.289  1.00  0.00     0.050 A 
ATOM      2  C   UNL     1      17.428 -50.487   8.220  1.00  0.00     0.052 A 
ATOM      3  C   UNL     1      16.058 -50.639   7.989  1.00  0.00     0.138 A 
ATOM      4  C   UNL     1      15.483 -50.111   6.812  1.00  0.00     0.021 A 
ATOM      5  C   UNL     1      14.110 -50.278   6.608  1.00  0.00     0.019 A 
ATOM      6  C   UNL     1      13.354 -50.955   7.564  1.00  0.00     0.094 A 
ATOM      7  C   UNL     1      13.991 -51.452   8.706  1.00  0.00     0.336 A 
ATOM      8  O   UNL     1      13.326 -52.066   9.580  1.00  0.00    -0.246 OA
ATOM      9  O   UNL     1      15.300 -51.279   8.875  1.00  0.00    -0.423 OA
ATOM     10  C   UNL     1      16.287 -49.436   5.881  1.00  0.00     0.058 A 
ATOM     11  C   UNL     1      17.659 -49.288   6.119  1.00  0.00     0.116 A 
ENDROOT
BRANCH  11  12
ATOM     12  O   UNL     1      18.448 -48.618   5.188  1.00  0.00    -0.508 OA
ATOM     13  H   UNL     1      18.338 -48.772   4.192  1.00  0.00     0.293 HD
ENDBRANCH  11  12
TORSDOF 1
ENDMDL
