MODEL 1
REMARK VINA RESULT:    -0.004      0.000      0.000
REMARK INTER + INTRA:          -0.004
REMARK INTER:                  -0.004
REMARK INTRA:                   0.000
REMARK UNBOUND:                 0.000
REMARK SMILES O=c1ccc2cc(O)c(O)cc2o1
REMARK SMILES IDX 4 1 3 2 2 3 1 4 13 5 12 6 11 7 9 8 7 9 6 10 5 11 8 12 10 14
REMARK H PARENT 8 13 10 15
REMARK Flexibility Score: inf
ROOT
ATOM      1  C   UNL     1      21.066  11.905  57.035  1.00  0.00     0.019 A 
ATOM      2  C   UNL     1      20.781  12.764  55.974  1.00  0.00     0.094 A 
ATOM      3  C   UNL     1      20.743  14.143  56.209  1.00  0.00     0.336 A 
ATOM      4  O   UNL     1      20.486  14.934  55.264  1.00  0.00    -0.246 OA
ATOM      5  O   UNL     1      20.976  14.625  57.427  1.00  0.00    -0.423 OA
ATOM      6  C   UNL     1      21.251  13.841  58.467  1.00  0.00     0.142 A 
ATOM      7  C   UNL     1      21.488  14.405  59.724  1.00  0.00     0.098 A 
ATOM      8  C   UNL     1      21.780  13.583  60.823  1.00  0.00     0.161 A 
ATOM      9  C   UNL     1      21.835  12.191  60.663  1.00  0.00     0.158 A 
ATOM     10  C   UNL     1      21.599  11.619  59.403  1.00  0.00     0.062 A 
ATOM     11  C   UNL     1      21.307  12.440  58.305  1.00  0.00     0.022 A 
ENDROOT
BRANCH   9  12
ATOM     12  O   UNL     1      22.125  11.381  61.760  1.00  0.00    -0.504 OA
ATOM     13  H   UNL     1      21.401  10.862  62.242  1.00  0.00     0.293 HD
ENDBRANCH   9  12
BRANCH   8  14
ATOM     14  O   UNL     1      22.015  14.142  62.077  1.00  0.00    -0.504 OA
ATOM     15  H   UNL     1      21.484  14.938  62.411  1.00  0.00     0.293 HD
ENDBRANCH   8  14
TORSDOF 2
ENDMDL
MODEL 2
REMARK VINA RESULT:    -0.003     22.697     25.531
REMARK INTER + INTRA:          -0.003
REMARK INTER:                  -0.003
REMARK INTRA:                   0.000
REMARK UNBOUND:                 0.000
REMARK SMILES O=c1ccc2cc(O)c(O)cc2o1
REMARK SMILES IDX 4 1 3 2 2 3 1 4 13 5 12 6 11 7 9 8 7 9 6 10 5 11 8 12 10 14
REMARK H PARENT 8 13 10 15
REMARK Flexibility Score: inf
ROOT
ATOM      1  C   UNL     1       8.748  28.051  43.968  1.00  0.00     0.019 A 
ATOM      2  C   UNL     1       9.431  27.566  45.082  1.00  0.00     0.094 A 
ATOM      3  C   UNL     1       8.699  27.158  46.203  1.00  0.00     0.336 A 
ATOM      4  O   UNL     1       9.297  26.719  47.219  1.00  0.00    -0.246 OA
ATOM      5  O   UNL     1       7.370  27.232  46.201  1.00  0.00    -0.423 OA
ATOM      6  C   UNL     1       6.679  27.688  45.160  1.00  0.00     0.142 A 
ATOM      7  C   UNL     1       5.283  27.742  45.216  1.00  0.00     0.098 A 
ATOM      8  C   UNL     1       4.550  28.222  44.120  1.00  0.00     0.161 A 
ATOM      9  C   UNL     1       5.217  28.649  42.962  1.00  0.00     0.158 A 
ATOM     10  C   UNL     1       6.618  28.596  42.900  1.00  0.00     0.062 A 
ATOM     11  C   UNL     1       7.351  28.118  43.995  1.00  0.00     0.022 A 
ENDROOT
BRANCH   9  12
ATOM     12  O   UNL     1       4.481  29.124  41.878  1.00  0.00    -0.504 OA
ATOM     13  H   UNL     1       4.847  29.092  40.934  1.00  0.00     0.293 HD
ENDBRANCH   9  12
BRANCH   8  14
ATOM     14  O   UNL     1       3.159  28.278  44.173  1.00  0.00    -0.504 OA
ATOM     15  H   UNL     1       2.631  27.720  44.835  1.00  0.00     0.293 HD
ENDBRANCH   8  14
TORSDOF 2
ENDMDL
MODEL 3
REMARK VINA RESULT:     0.000     20.608     22.508
REMARK INTER + INTRA:           0.000
REMARK INTER:                   0.000
REMARK INTRA:                   0.000
REMARK UNBOUND:                 0.000
REMARK SMILES O=c1ccc2cc(O)c(O)cc2o1
REMARK SMILES IDX 4 1 3 2 2 3 1 4 13 5 12 6 11 7 9 8 7 9 6 10 5 11 8 12 10 14
REMARK H PARENT 8 13 10 15
REMARK Flexibility Score: inf
ROOT
ATOM      1  C   UNL     1       4.427  12.638  47.539  1.00  0.00     0.019 A 
ATOM      2  C   UNL     1       3.818  12.470  48.783  1.00  0.00     0.094 A 
ATOM      3  C   UNL     1       2.739  11.587  48.895  1.00  0.00     0.336 A 
ATOM      4  O   UNL     1       2.175  11.423  50.009  1.00  0.00    -0.246 OA
ATOM      5  O   UNL     1       2.303  10.918  47.831  1.00  0.00    -0.423 OA
ATOM      6  C   UNL     1       2.855  11.048  46.627  1.00  0.00     0.142 A 
ATOM      7  C   UNL     1       2.353  10.318  45.545  1.00  0.00     0.098 A 
ATOM      8  C   UNL     1       2.932  10.452  44.274  1.00  0.00     0.161 A 
ATOM      9  C   UNL     1       4.018  11.320  44.085  1.00  0.00     0.158 A 
ATOM     10  C   UNL     1       4.526  12.054  45.168  1.00  0.00     0.062 A 
ATOM     11  C   UNL     1       3.948  11.921  46.438  1.00  0.00     0.022 A 
ENDROOT
BRANCH   9  12
ATOM     12  O   UNL     1       4.587  11.447  42.820  1.00  0.00    -0.504 OA
ATOM     13  H   UNL     1       4.415  10.765  42.089  1.00  0.00     0.293 HD
ENDBRANCH   9  12
BRANCH   8  14
ATOM     14  O   UNL     1       2.434   9.727  43.194  1.00  0.00    -0.504 OA
ATOM     15  H   UNL     1       2.999   9.034  42.715  1.00  0.00     0.293 HD
ENDBRANCH   8  14
TORSDOF 2
ENDMDL
MODEL 4
REMARK VINA RESULT:     0.000     19.622     20.651
REMARK INTER + INTRA:           0.000
REMARK INTER:                   0.000
REMARK INTRA:                   0.000
REMARK UNBOUND:                 0.000
REMARK SMILES O=c1ccc2cc(O)c(O)cc2o1
REMARK SMILES IDX 4 1 3 2 2 3 1 4 13 5 12 6 11 7 9 8 7 9 6 10 5 11 8 12 10 14
REMARK H PARENT 8 13 10 15
REMARK Flexibility Score: inf
ROOT
ATOM      1  C   UNL     1       5.092  13.268  48.392  1.00  0.00     0.019 A 
ATOM      2  C   UNL     1       4.362  12.911  49.525  1.00  0.00     0.094 A 
ATOM      3  C   UNL     1       3.785  11.637  49.587  1.00  0.00     0.336 A 
ATOM      4  O   UNL     1       3.122  11.296  50.601  1.00  0.00    -0.246 OA
ATOM      5  O   UNL     1       3.935  10.781  48.579  1.00  0.00    -0.423 OA
ATOM      6  C   UNL     1       4.622  11.081  47.480  1.00  0.00     0.142 A 
ATOM      7  C   UNL     1       4.745  10.140  46.453  1.00  0.00     0.098 A 
ATOM      8  C   UNL     1       5.470  10.452  45.293  1.00  0.00     0.161 A 
ATOM      9  C   UNL     1       6.075  11.710  45.160  1.00  0.00     0.158 A 
ATOM     10  C   UNL     1       5.956  12.658  46.188  1.00  0.00     0.062 A 
ATOM     11  C   UNL     1       5.232  12.348  47.347  1.00  0.00     0.022 A 
ENDROOT
BRANCH   9  12
ATOM     12  O   UNL     1       6.794  12.012  44.005  1.00  0.00    -0.504 OA
ATOM     13  H   UNL     1       7.104  11.286  43.368  1.00  0.00     0.293 HD
ENDBRANCH   9  12
BRANCH   8  14
ATOM     14  O   UNL     1       5.594   9.517  44.267  1.00  0.00    -0.504 OA
ATOM     15  H   UNL     1       6.496   9.137  44.002  1.00  0.00     0.293 HD
ENDBRANCH   8  14
TORSDOF 2
ENDMDL
MODEL 5
REMARK VINA RESULT:     0.000     13.383     13.699
REMARK INTER + INTRA:           0.000
REMARK INTER:                   0.000
REMARK INTRA:                   0.000
REMARK UNBOUND:                 0.000
REMARK SMILES O=c1ccc2cc(O)c(O)cc2o1
REMARK SMILES IDX 4 1 3 2 2 3 1 4 13 5 12 6 11 7 9 8 7 9 6 10 5 11 8 12 10 14
REMARK H PARENT 8 13 10 15
REMARK Flexibility Score: inf
ROOT
ATOM      1  C   UNL     1       7.915  16.803  55.278  1.00  0.00     0.019 A 
ATOM      2  C   UNL     1       8.034  17.173  53.939  1.00  0.00     0.094 A 
ATOM      3  C   UNL     1       8.705  18.359  53.620  1.00  0.00     0.336 A 
ATOM      4  O   UNL     1       8.822  18.710  52.417  1.00  0.00    -0.246 OA
ATOM      5  O   UNL     1       9.222  19.119  54.583  1.00  0.00    -0.423 OA
ATOM      6  C   UNL     1       9.130  18.804  55.872  1.00  0.00     0.142 A 
ATOM      7  C   UNL     1       9.693  19.642  56.839  1.00  0.00     0.098 A 
ATOM      8  C   UNL     1       9.599  19.313  58.200  1.00  0.00     0.161 A 
ATOM      9  C   UNL     1       8.941  18.140  58.594  1.00  0.00     0.158 A 
ATOM     10  C   UNL     1       8.375  17.294  57.628  1.00  0.00     0.062 A 
ATOM     11  C   UNL     1       8.467  17.622  56.269  1.00  0.00     0.022 A 
ENDROOT
BRANCH   9  12
ATOM     12  O   UNL     1       8.853  17.821  59.948  1.00  0.00    -0.504 OA
ATOM     13  H   UNL     1       9.658  17.496  60.470  1.00  0.00     0.293 HD
ENDBRANCH   9  12
BRANCH   8  14
ATOM     14  O   UNL     1      10.159  20.147  59.165  1.00  0.00    -0.504 OA
ATOM     15  H   UNL     1      10.819  19.797  59.851  1.00  0.00     0.293 HD
ENDBRANCH   8  14
TORSDOF 2
ENDMDL
MODEL 6
REMARK VINA RESULT:     0.000     11.029     11.965
REMARK INTER + INTRA:           0.000
REMARK INTER:                   0.000
REMARK INTRA:                   0.000
REMARK UNBOUND:                 0.000
REMARK SMILES O=c1ccc2cc(O)c(O)cc2o1
REMARK SMILES IDX 4 1 3 2 2 3 1 4 13 5 12 6 11 7 9 8 7 9 6 10 5 11 8 12 10 14
REMARK H PARENT 8 13 10 15
REMARK Flexibility Score: inf
ROOT
ATOM      1  C   UNL     1       9.606  16.669  56.218  1.00  0.00     0.019 A 
ATOM      2  C   UNL     1       8.743  17.299  55.322  1.00  0.00     0.094 A 
ATOM      3  C   UNL     1       8.785  18.693  55.206  1.00  0.00     0.336 A 
ATOM      4  O   UNL     1       8.013  19.280  54.404  1.00  0.00    -0.246 OA
ATOM      5  O   UNL     1       9.639  19.404  55.939  1.00  0.00    -0.423 OA
ATOM      6  C   UNL     1      10.479  18.843  56.805  1.00  0.00     0.142 A 
ATOM      7  C   UNL     1      11.353  19.642  57.548  1.00  0.00     0.098 A 
ATOM      8  C   UNL     1      12.242  19.055  58.462  1.00  0.00     0.161 A 
ATOM      9  C   UNL     1      12.255  17.663  58.632  1.00  0.00     0.158 A 
ATOM     10  C   UNL     1      11.381  16.856  57.888  1.00  0.00     0.062 A 
ATOM     11  C   UNL     1      10.493  17.442  56.975  1.00  0.00     0.022 A 
ENDROOT
BRANCH   9  12
ATOM     12  O   UNL     1      13.141  17.088  59.542  1.00  0.00    -0.504 OA
ATOM     13  H   UNL     1      14.135  17.034  59.353  1.00  0.00     0.293 HD
ENDBRANCH   9  12
BRANCH   8  14
ATOM     14  O   UNL     1      13.114  19.848  59.204  1.00  0.00    -0.504 OA
ATOM     15  H   UNL     1      13.033  19.926  60.212  1.00  0.00     0.293 HD
ENDBRANCH   8  14
TORSDOF 2
ENDMDL
MODEL 7
REMARK VINA RESULT:     0.000     11.344     11.771
REMARK INTER + INTRA:           0.000
REMARK INTER:                   0.000
REMARK INTRA:                   0.000
REMARK UNBOUND:                 0.000
REMARK SMILES O=c1ccc2cc(O)c(O)cc2o1
REMARK SMILES IDX 4 1 3 2 2 3 1 4 13 5 12 6 11 7 9 8 7 9 6 10 5 11 8 12 10 14
REMARK H PARENT 8 13 10 15
REMARK Flexibility Score: inf
ROOT
ATOM      1  C   UNL     1      10.339  15.770  56.926  1.00  0.00     0.019 A 
ATOM      2  C   UNL     1      10.030  15.413  55.614  1.00  0.00     0.094 A 
ATOM      3  C   UNL     1      10.155  16.372  54.602  1.00  0.00     0.336 A 
ATOM      4  O   UNL     1       9.880  16.069  53.412  1.00  0.00    -0.246 OA
ATOM      5  O   UNL     1      10.564  17.605  54.891  1.00  0.00    -0.423 OA
ATOM      6  C   UNL     1      10.869  17.988  56.128  1.00  0.00     0.142 A 
ATOM      7  C   UNL     1      11.293  19.297  56.370  1.00  0.00     0.098 A 
ATOM      8  C   UNL     1      11.616  19.706  57.674  1.00  0.00     0.161 A 
ATOM      9  C   UNL     1      11.514  18.799  58.739  1.00  0.00     0.158 A 
ATOM     10  C   UNL     1      11.089  17.482  58.501  1.00  0.00     0.062 A 
ATOM     11  C   UNL     1      10.766  17.074  57.200  1.00  0.00     0.022 A 
ENDROOT
BRANCH   9  12
ATOM     12  O   UNL     1      11.837  19.212  60.030  1.00  0.00    -0.504 OA
ATOM     13  H   UNL     1      12.777  19.119  60.397  1.00  0.00     0.293 HD
ENDBRANCH   9  12
BRANCH   8  14
ATOM     14  O   UNL     1      12.039  21.010  57.918  1.00  0.00    -0.504 OA
ATOM     15  H   UNL     1      12.843  21.206  58.504  1.00  0.00     0.293 HD
ENDBRANCH   8  14
TORSDOF 2
ENDMDL
MODEL 8
REMARK VINA RESULT:     0.000     12.329     12.768
REMARK INTER + INTRA:           0.000
REMARK INTER:                   0.000
REMARK INTRA:                   0.000
REMARK UNBOUND:                 0.000
REMARK SMILES O=c1ccc2cc(O)c(O)cc2o1
REMARK SMILES IDX 4 1 3 2 2 3 1 4 13 5 12 6 11 7 9 8 7 9 6 10 5 11 8 12 10 14
REMARK H PARENT 8 13 10 15
REMARK Flexibility Score: inf
ROOT
ATOM      1  C   UNL     1       8.769  14.471  57.041  1.00  0.00     0.019 A 
ATOM      2  C   UNL     1       8.461  14.113  55.729  1.00  0.00     0.094 A 
ATOM      3  C   UNL     1       8.585  15.072  54.717  1.00  0.00     0.336 A 
ATOM      4  O   UNL     1       8.310  14.769  53.527  1.00  0.00    -0.246 OA
ATOM      5  O   UNL     1       8.994  16.305  55.006  1.00  0.00    -0.423 OA
ATOM      6  C   UNL     1       9.299  16.688  56.243  1.00  0.00     0.142 A 
ATOM      7  C   UNL     1       9.723  17.998  56.485  1.00  0.00     0.098 A 
ATOM      8  C   UNL     1      10.046  18.406  57.789  1.00  0.00     0.161 A 
ATOM      9  C   UNL     1       9.944  17.499  58.853  1.00  0.00     0.158 A 
ATOM     10  C   UNL     1       9.520  16.183  58.616  1.00  0.00     0.062 A 
ATOM     11  C   UNL     1       9.197  15.774  57.315  1.00  0.00     0.022 A 
ENDROOT
BRANCH   9  12
ATOM     12  O   UNL     1      10.267  17.912  60.145  1.00  0.00    -0.504 OA
ATOM     13  H   UNL     1      11.207  17.819  60.512  1.00  0.00     0.293 HD
ENDBRANCH   9  12
BRANCH   8  14
ATOM     14  O   UNL     1      10.469  19.711  58.033  1.00  0.00    -0.504 OA
ATOM     15  H   UNL     1       9.884  20.508  57.809  1.00  0.00     0.293 HD
ENDBRANCH   8  14
TORSDOF 2
ENDMDL
MODEL 9
REMARK VINA RESULT:     0.000     10.966     13.504
REMARK INTER + INTRA:           0.000
REMARK INTER:                   0.000
REMARK INTRA:                   0.000
REMARK UNBOUND:                 0.000
REMARK SMILES O=c1ccc2cc(O)c(O)cc2o1
REMARK SMILES IDX 4 1 3 2 2 3 1 4 13 5 12 6 11 7 9 8 7 9 6 10 5 11 8 12 10 14
REMARK H PARENT 8 13 10 15
REMARK Flexibility Score: inf
ROOT
ATOM      1  C   UNL     1      16.446  19.845  51.913  1.00  0.00     0.019 A 
ATOM      2  C   UNL     1      15.541  18.849  52.277  1.00  0.00     0.094 A 
ATOM      3  C   UNL     1      14.361  18.702  51.539  1.00  0.00     0.336 A 
ATOM      4  O   UNL     1      13.531  17.809  51.852  1.00  0.00    -0.246 OA
ATOM      5  O   UNL     1      14.110  19.503  50.506  1.00  0.00    -0.423 OA
ATOM      6  C   UNL     1      14.945  20.465  50.126  1.00  0.00     0.142 A 
ATOM      7  C   UNL     1      14.627  21.275  49.031  1.00  0.00     0.098 A 
ATOM      8  C   UNL     1      15.506  22.292  48.626  1.00  0.00     0.161 A 
ATOM      9  C   UNL     1      16.708  22.498  49.319  1.00  0.00     0.158 A 
ATOM     10  C   UNL     1      17.032  21.687  50.417  1.00  0.00     0.062 A 
ATOM     11  C   UNL     1      16.155  20.672  50.823  1.00  0.00     0.022 A 
ENDROOT
BRANCH   9  12
ATOM     12  O   UNL     1      17.575  23.509  48.910  1.00  0.00    -0.504 OA
ATOM     13  H   UNL     1      18.534  23.313  48.647  1.00  0.00     0.293 HD
ENDBRANCH   9  12
BRANCH   8  14
ATOM     14  O   UNL     1      15.191  23.101  47.536  1.00  0.00    -0.504 OA
ATOM     15  H   UNL     1      14.853  22.709  46.665  1.00  0.00     0.293 HD
ENDBRANCH   8  14
TORSDOF 2
ENDMDL
