MODEL 1
REMARK VINA RESULT:    -4.004      0.000      0.000
REMARK INTER + INTRA:          -8.038
REMARK INTER:                  -7.047
REMARK INTRA:                  -0.991
REMARK UNBOUND:                -0.991
REMARK SMILES CCCCCCCCCCCCCCC(=O)[O-]
REMARK SMILES IDX 9 1 10 2 11 3 12 4 13 5 14 6 15 7 16 8 17 9 8 10 7 11 6 12
REMARK SMILES IDX 5 13 4 14 3 15 2 16 1 17
REMARK H PARENT
REMARK Flexibility Score: inf
ROOT
ATOM      1  C   UNL     1     153.501 133.144 165.910  1.00  0.00     0.000 C 
ENDROOT
BRANCH   1   2
ATOM      2  C   UNL     1     152.386 132.183 165.469  1.00  0.00     0.000 C 
BRANCH   2   3
ATOM      3  C   UNL     1     151.918 132.503 164.045  1.00  0.00     0.000 C 
BRANCH   3   4
ATOM      4  C   UNL     1     150.545 131.875 163.763  1.00  0.00     0.000 C 
BRANCH   4   5
ATOM      5  C   UNL     1     149.512 132.891 163.242  1.00  0.00     0.006 C 
BRANCH   5   6
ATOM      6  C   UNL     1     148.059 132.385 163.286  1.00  0.00     0.053 C 
BRANCH   6   7
ATOM      7  C   UNL     1     147.181 133.057 162.276  1.00  0.00     0.041 C 
ATOM      8  O   UNL     1     147.633 133.355 161.138  1.00  0.00    -0.550 OA
ATOM      9  O   UNL     1     145.870 133.383 162.601  1.00  0.00    -0.550 OA
ENDBRANCH   6   7
ENDBRANCH   5   6
ENDBRANCH   4   5
ENDBRANCH   3   4
ENDBRANCH   2   3
ENDBRANCH   1   2
BRANCH   1  10
ATOM     10  C   UNL     1     154.907 132.527 165.798  1.00  0.00     0.000 C 
BRANCH  10  11
ATOM     11  C   UNL     1     155.611 132.255 167.141  1.00  0.00    -0.000 C 
BRANCH  11  12
ATOM     12  C   UNL     1     157.145 132.319 167.037  1.00  0.00    -0.000 C 
BRANCH  12  13
ATOM     13  C   UNL     1     157.748 133.438 167.902  1.00  0.00    -0.000 C 
BRANCH  13  14
ATOM     14  C   UNL     1     156.724 134.058 168.870  1.00  0.00    -0.000 C 
BRANCH  14  15
ATOM     15  C   UNL     1     156.632 135.585 168.731  1.00  0.00    -0.000 C 
BRANCH  15  16
ATOM     16  C   UNL     1     156.638 136.046 167.265  1.00  0.00    -0.003 C 
ATOM     17  C   UNL     1     155.217 136.189 166.728  1.00  0.00     0.004 C 
ENDBRANCH  15  16
ENDBRANCH  14  15
ENDBRANCH  13  14
ENDBRANCH  12  13
ENDBRANCH  11  12
ENDBRANCH  10  11
ENDBRANCH   1  10
TORSDOF 13
ENDMDL
MODEL 2
REMARK VINA RESULT:    -3.980      3.413      5.841
REMARK INTER + INTRA:          -7.996
REMARK INTER:                  -7.047
REMARK INTRA:                  -0.948
REMARK UNBOUND:                -0.991
REMARK SMILES CCCCCCCCCCCCCCC(=O)[O-]
REMARK SMILES IDX 9 1 10 2 11 3 12 4 13 5 14 6 15 7 16 8 17 9 8 10 7 11 6 12
REMARK SMILES IDX 5 13 4 14 3 15 2 16 1 17
REMARK H PARENT
REMARK Flexibility Score: inf
ROOT
ATOM      1  C   UNL     1     156.568 134.421 168.443  1.00  0.00     0.000 C 
ENDROOT
BRANCH   1   2
ATOM      2  C   UNL     1     157.670 133.465 167.966  1.00  0.00     0.000 C 
BRANCH   2   3
ATOM      3  C   UNL     1     157.085 132.337 167.108  1.00  0.00     0.000 C 
BRANCH   3   4
ATOM      4  C   UNL     1     155.551 132.318 167.194  1.00  0.00     0.000 C 
BRANCH   4   5
ATOM      5  C   UNL     1     154.877 131.939 165.863  1.00  0.00     0.006 C 
BRANCH   5   6
ATOM      6  C   UNL     1     154.370 133.146 165.053  1.00  0.00     0.053 C 
BRANCH   6   7
ATOM      7  C   UNL     1     153.031 132.902 164.426  1.00  0.00     0.041 C 
ATOM      8  O   UNL     1     152.008 133.491 164.864  1.00  0.00    -0.550 OA
ATOM      9  O   UNL     1     152.908 132.000 163.377  1.00  0.00    -0.550 OA
ENDBRANCH   6   7
ENDBRANCH   5   6
ENDBRANCH   4   5
ENDBRANCH   3   4
ENDBRANCH   2   3
ENDBRANCH   1   2
BRANCH   1  10
ATOM     10  C   UNL     1     156.881 135.898 168.141  1.00  0.00     0.000 C 
BRANCH  10  11
ATOM     11  C   UNL     1     156.282 136.440 166.830  1.00  0.00    -0.000 C 
BRANCH  11  12
ATOM     12  C   UNL     1     156.224 137.977 166.787  1.00  0.00    -0.000 C 
BRANCH  12  13
ATOM     13  C   UNL     1     157.365 138.632 167.582  1.00  0.00    -0.000 C 
BRANCH  13  14
ATOM     14  C   UNL     1     158.122 139.697 166.767  1.00  0.00    -0.000 C 
BRANCH  14  15
ATOM     15  C   UNL     1     157.254 140.324 165.666  1.00  0.00    -0.000 C 
BRANCH  15  16
ATOM     16  C   UNL     1     156.535 141.598 166.135  1.00  0.00    -0.003 C 
ATOM     17  C   UNL     1     157.532 142.718 166.418  1.00  0.00     0.004 C 
ENDBRANCH  15  16
ENDBRANCH  14  15
ENDBRANCH  13  14
ENDBRANCH  12  13
ENDBRANCH  11  12
ENDBRANCH  10  11
ENDBRANCH   1  10
TORSDOF 13
ENDMDL
MODEL 3
REMARK VINA RESULT:    -3.949      1.581      2.835
REMARK INTER + INTRA:          -7.941
REMARK INTER:                  -7.186
REMARK INTRA:                  -0.755
REMARK UNBOUND:                -0.991
REMARK SMILES CCCCCCCCCCCCCCC(=O)[O-]
REMARK SMILES IDX 9 1 10 2 11 3 12 4 13 5 14 6 15 7 16 8 17 9 8 10 7 11 6 12
REMARK SMILES IDX 5 13 4 14 3 15 2 16 1 17
REMARK H PARENT
REMARK Flexibility Score: inf
ROOT
ATOM      1  C   UNL     1     150.740 132.879 165.494  1.00  0.00     0.000 C 
ENDROOT
BRANCH   1   2
ATOM      2  C   UNL     1     151.003 132.108 164.192  1.00  0.00     0.000 C 
BRANCH   2   3
ATOM      3  C   UNL     1     150.224 132.722 163.023  1.00  0.00     0.000 C 
BRANCH   3   4
ATOM      4  C   UNL     1     148.711 132.671 163.281  1.00  0.00     0.000 C 
BRANCH   4   5
ATOM      5  C   UNL     1     147.892 133.435 162.225  1.00  0.00     0.006 C 
BRANCH   5   6
ATOM      6  C   UNL     1     146.612 132.705 161.779  1.00  0.00     0.053 C 
BRANCH   6   7
ATOM      7  C   UNL     1     145.784 133.517 160.830  1.00  0.00     0.041 C 
ATOM      8  O   UNL     1     145.727 133.208 159.610  1.00  0.00    -0.550 OA
ATOM      9  O   UNL     1     145.098 134.636 161.287  1.00  0.00    -0.550 OA
ENDBRANCH   6   7
ENDBRANCH   5   6
ENDBRANCH   4   5
ENDBRANCH   3   4
ENDBRANCH   2   3
ENDBRANCH   1   2
BRANCH   1  10
ATOM     10  C   UNL     1     151.995 133.022 166.373  1.00  0.00     0.000 C 
BRANCH  10  11
ATOM     11  C   UNL     1     153.068 133.986 165.831  1.00  0.00    -0.000 C 
BRANCH  11  12
ATOM     12  C   UNL     1     154.367 133.268 165.424  1.00  0.00    -0.000 C 
BRANCH  12  13
ATOM     13  C   UNL     1     154.636 132.012 166.268  1.00  0.00    -0.000 C 
BRANCH  13  14
ATOM     14  C   UNL     1     155.401 132.321 167.568  1.00  0.00    -0.000 C 
BRANCH  14  15
ATOM     15  C   UNL     1     156.366 133.506 167.415  1.00  0.00    -0.000 C 
BRANCH  15  16
ATOM     16  C   UNL     1     157.806 133.149 167.813  1.00  0.00    -0.003 C 
ATOM     17  C   UNL     1     157.868 132.632 169.248  1.00  0.00     0.004 C 
ENDBRANCH  15  16
ENDBRANCH  14  15
ENDBRANCH  13  14
ENDBRANCH  12  13
ENDBRANCH  11  12
ENDBRANCH  10  11
ENDBRANCH   1  10
TORSDOF 13
ENDMDL
MODEL 4
REMARK VINA RESULT:    -3.947      4.395      7.795
REMARK INTER + INTRA:          -7.937
REMARK INTER:                  -6.315
REMARK INTRA:                  -1.622
REMARK UNBOUND:                -0.991
REMARK SMILES CCCCCCCCCCCCCCC(=O)[O-]
REMARK SMILES IDX 9 1 10 2 11 3 12 4 13 5 14 6 15 7 16 8 17 9 8 10 7 11 6 12
REMARK SMILES IDX 5 13 4 14 3 15 2 16 1 17
REMARK H PARENT
REMARK Flexibility Score: inf
ROOT
ATOM      1  C   UNL     1     155.923 132.268 166.756  1.00  0.00     0.000 C 
ENDROOT
BRANCH   1   2
ATOM      2  C   UNL     1     155.535 132.573 168.211  1.00  0.00     0.000 C 
BRANCH   2   3
ATOM      3  C   UNL     1     156.544 133.528 168.859  1.00  0.00     0.000 C 
BRANCH   3   4
ATOM      4  C   UNL     1     157.014 134.595 167.859  1.00  0.00     0.000 C 
BRANCH   4   5
ATOM      5  C   UNL     1     156.300 135.946 168.037  1.00  0.00     0.006 C 
BRANCH   5   6
ATOM      6  C   UNL     1     156.361 136.855 166.796  1.00  0.00     0.053 C 
BRANCH   6   7
ATOM      7  C   UNL     1     156.620 138.290 167.141  1.00  0.00     0.041 C 
ATOM      8  O   UNL     1     157.800 138.723 167.214  1.00  0.00    -0.550 OA
ATOM      9  O   UNL     1     155.557 139.142 167.412  1.00  0.00    -0.550 OA
ENDBRANCH   6   7
ENDBRANCH   5   6
ENDBRANCH   4   5
ENDBRANCH   3   4
ENDBRANCH   2   3
ENDBRANCH   1   2
BRANCH   1  10
ATOM     10  C   UNL     1     154.703 132.056 165.841  1.00  0.00     0.000 C 
BRANCH  10  11
ATOM     11  C   UNL     1     154.406 133.212 164.868  1.00  0.00    -0.000 C 
BRANCH  11  12
ATOM     12  C   UNL     1     153.804 134.444 165.567  1.00  0.00    -0.000 C 
BRANCH  12  13
ATOM     13  C   UNL     1     152.601 134.088 166.456  1.00  0.00    -0.000 C 
BRANCH  13  14
ATOM     14  C   UNL     1     151.280 134.019 165.667  1.00  0.00    -0.000 C 
BRANCH  14  15
ATOM     15  C   UNL     1     150.786 132.578 165.471  1.00  0.00    -0.000 C 
BRANCH  15  16
ATOM     16  C   UNL     1     150.951 132.089 164.024  1.00  0.00    -0.003 C 
ATOM     17  C   UNL     1     150.084 132.903 163.067  1.00  0.00     0.004 C 
ENDBRANCH  15  16
ENDBRANCH  14  15
ENDBRANCH  13  14
ENDBRANCH  12  13
ENDBRANCH  11  12
ENDBRANCH  10  11
ENDBRANCH   1  10
TORSDOF 13
ENDMDL
MODEL 5
REMARK VINA RESULT:    -3.903      5.263      8.232
REMARK INTER + INTRA:          -7.860
REMARK INTER:                  -6.393
REMARK INTRA:                  -1.467
REMARK UNBOUND:                -0.991
REMARK SMILES CCCCCCCCCCCCCCC(=O)[O-]
REMARK SMILES IDX 9 1 10 2 11 3 12 4 13 5 14 6 15 7 16 8 17 9 8 10 7 11 6 12
REMARK SMILES IDX 5 13 4 14 3 15 2 16 1 17
REMARK H PARENT
REMARK Flexibility Score: inf
ROOT
ATOM      1  C   UNL     1     156.605 135.673 168.590  1.00  0.00     0.000 C 
ENDROOT
BRANCH   1   2
ATOM      2  C   UNL     1     156.669 136.147 167.131  1.00  0.00     0.000 C 
BRANCH   2   3
ATOM      3  C   UNL     1     156.310 137.634 167.020  1.00  0.00     0.000 C 
BRANCH   3   4
ATOM      4  C   UNL     1     157.317 138.503 167.787  1.00  0.00     0.000 C 
BRANCH   4   5
ATOM      5  C   UNL     1     158.052 139.512 166.886  1.00  0.00     0.006 C 
BRANCH   5   6
ATOM      6  C   UNL     1     157.186 140.081 165.748  1.00  0.00     0.053 C 
BRANCH   6   7
ATOM      7  C   UNL     1     156.837 141.524 165.951  1.00  0.00     0.041 C 
ATOM      8  O   UNL     1     157.743 142.374 166.161  1.00  0.00    -0.550 OA
ATOM      9  O   UNL     1     155.507 141.926 165.940  1.00  0.00    -0.550 OA
ENDBRANCH   6   7
ENDBRANCH   5   6
ENDBRANCH   4   5
ENDBRANCH   3   4
ENDBRANCH   2   3
ENDBRANCH   1   2
BRANCH   1  10
ATOM     10  C   UNL     1     156.669 134.141 168.729  1.00  0.00     0.000 C 
BRANCH  10  11
ATOM     11  C   UNL     1     157.720 133.447 167.843  1.00  0.00    -0.000 C 
BRANCH  11  12
ATOM     12  C   UNL     1     157.122 132.330 166.968  1.00  0.00    -0.000 C 
BRANCH  12  13
ATOM     13  C   UNL     1     155.591 132.255 167.073  1.00  0.00    -0.000 C 
BRANCH  13  14
ATOM     14  C   UNL     1     154.898 132.308 165.699  1.00  0.00    -0.000 C 
BRANCH  14  15
ATOM     15  C   UNL     1     154.353 133.705 165.367  1.00  0.00    -0.000 C 
BRANCH  15  16
ATOM     16  C   UNL     1     153.004 133.989 166.045  1.00  0.00    -0.003 C 
ATOM     17  C   UNL     1     153.135 135.099 167.084  1.00  0.00     0.004 C 
ENDBRANCH  15  16
ENDBRANCH  14  15
ENDBRANCH  13  14
ENDBRANCH  12  13
ENDBRANCH  11  12
ENDBRANCH  10  11
ENDBRANCH   1  10
TORSDOF 13
ENDMDL
MODEL 6
REMARK VINA RESULT:    -3.878      4.362      9.655
REMARK INTER + INTRA:          -7.816
REMARK INTER:                  -7.144
REMARK INTRA:                  -0.673
REMARK UNBOUND:                -0.991
REMARK SMILES CCCCCCCCCCCCCCC(=O)[O-]
REMARK SMILES IDX 9 1 10 2 11 3 12 4 13 5 14 6 15 7 16 8 17 9 8 10 7 11 6 12
REMARK SMILES IDX 5 13 4 14 3 15 2 16 1 17
REMARK H PARENT
REMARK Flexibility Score: inf
ROOT
ATOM      1  C   UNL     1     150.842 132.597 165.145  1.00  0.00     0.000 C 
ENDROOT
BRANCH   1   2
ATOM      2  C   UNL     1     152.159 131.905 165.526  1.00  0.00     0.000 C 
BRANCH   2   3
ATOM      3  C   UNL     1     153.253 132.201 164.493  1.00  0.00     0.000 C 
BRANCH   3   4
ATOM      4  C   UNL     1     154.379 133.045 165.110  1.00  0.00     0.000 C 
BRANCH   4   5
ATOM      5  C   UNL     1     155.270 132.246 166.078  1.00  0.00     0.006 C 
BRANCH   5   6
ATOM      6  C   UNL     1     155.351 132.846 167.494  1.00  0.00     0.053 C 
BRANCH   6   7
ATOM      7  C   UNL     1     156.736 133.284 167.859  1.00  0.00     0.041 C 
ATOM      8  O   UNL     1     157.511 132.500 168.469  1.00  0.00    -0.550 OA
ATOM      9  O   UNL     1     157.162 134.570 167.554  1.00  0.00    -0.550 OA
ENDBRANCH   6   7
ENDBRANCH   5   6
ENDBRANCH   4   5
ENDBRANCH   3   4
ENDBRANCH   2   3
ENDBRANCH   1   2
BRANCH   1  10
ATOM     10  C   UNL     1     150.288 132.131 163.787  1.00  0.00     0.000 C 
BRANCH  10  11
ATOM     11  C   UNL     1     149.247 133.068 163.147  1.00  0.00    -0.000 C 
BRANCH  11  12
ATOM     12  C   UNL     1     147.852 132.426 163.033  1.00  0.00    -0.000 C 
BRANCH  12  13
ATOM     13  C   UNL     1     146.743 133.318 163.615  1.00  0.00    -0.000 C 
BRANCH  13  14
ATOM     14  C   UNL     1     145.493 133.373 162.718  1.00  0.00    -0.000 C 
BRANCH  14  15
ATOM     15  C   UNL     1     145.077 131.988 162.202  1.00  0.00    -0.000 C 
BRANCH  15  16
ATOM     16  C   UNL     1     145.072 131.907 160.668  1.00  0.00    -0.003 C 
ATOM     17  C   UNL     1     145.761 133.122 160.051  1.00  0.00     0.004 C 
ENDBRANCH  15  16
ENDBRANCH  14  15
ENDBRANCH  13  14
ENDBRANCH  12  13
ENDBRANCH  11  12
ENDBRANCH  10  11
ENDBRANCH   1  10
TORSDOF 13
ENDMDL
MODEL 7
REMARK VINA RESULT:    -3.853      2.255      2.699
REMARK INTER + INTRA:          -7.773
REMARK INTER:                  -6.485
REMARK INTRA:                  -1.288
REMARK UNBOUND:                -0.991
REMARK SMILES CCCCCCCCCCCCCCC(=O)[O-]
REMARK SMILES IDX 9 1 10 2 11 3 12 4 13 5 14 6 15 7 16 8 17 9 8 10 7 11 6 12
REMARK SMILES IDX 5 13 4 14 3 15 2 16 1 17
REMARK H PARENT
REMARK Flexibility Score: inf
ROOT
ATOM      1  C   UNL     1     153.952 133.085 166.179  1.00  0.00     0.000 C 
ENDROOT
BRANCH   1   2
ATOM      2  C   UNL     1     154.287 133.028 164.681  1.00  0.00     0.000 C 
BRANCH   2   3
ATOM      3  C   UNL     1     153.299 132.126 163.931  1.00  0.00     0.000 C 
BRANCH   3   4
ATOM      4  C   UNL     1     152.037 131.875 164.770  1.00  0.00     0.000 C 
BRANCH   4   5
ATOM      5  C   UNL     1     150.737 131.997 163.955  1.00  0.00     0.006 C 
BRANCH   5   6
ATOM      6  C   UNL     1     149.786 133.100 164.455  1.00  0.00     0.053 C 
BRANCH   6   7
ATOM      7  C   UNL     1     150.506 134.210 165.159  1.00  0.00     0.041 C 
ATOM      8  O   UNL     1     151.112 135.095 164.498  1.00  0.00    -0.550 OA
ATOM      9  O   UNL     1     150.533 134.250 166.547  1.00  0.00    -0.550 OA
ENDBRANCH   6   7
ENDBRANCH   5   6
ENDBRANCH   4   5
ENDBRANCH   3   4
ENDBRANCH   2   3
ENDBRANCH   1   2
BRANCH   1  10
ATOM     10  C   UNL     1     154.910 132.244 167.042  1.00  0.00     0.000 C 
BRANCH  10  11
ATOM     11  C   UNL     1     156.372 132.214 166.558  1.00  0.00    -0.000 C 
BRANCH  11  12
ATOM     12  C   UNL     1     157.338 132.917 167.527  1.00  0.00    -0.000 C 
BRANCH  12  13
ATOM     13  C   UNL     1     156.604 133.750 168.591  1.00  0.00    -0.000 C 
BRANCH  13  14
ATOM     14  C   UNL     1     156.881 135.258 168.460  1.00  0.00    -0.000 C 
BRANCH  14  15
ATOM     15  C   UNL     1     156.340 135.844 167.147  1.00  0.00    -0.000 C 
BRANCH  15  16
ATOM     16  C   UNL     1     156.584 137.357 167.031  1.00  0.00    -0.003 C 
ATOM     17  C   UNL     1     157.154 137.922 168.329  1.00  0.00     0.004 C 
ENDBRANCH  15  16
ENDBRANCH  14  15
ENDBRANCH  13  14
ENDBRANCH  12  13
ENDBRANCH  11  12
ENDBRANCH  10  11
ENDBRANCH   1  10
TORSDOF 13
ENDMDL
MODEL 8
REMARK VINA RESULT:    -3.808      1.511      3.085
REMARK INTER + INTRA:          -7.693
REMARK INTER:                  -6.199
REMARK INTRA:                  -1.494
REMARK UNBOUND:                -0.991
REMARK SMILES CCCCCCCCCCCCCCC(=O)[O-]
REMARK SMILES IDX 9 1 10 2 11 3 12 4 13 5 14 6 15 7 16 8 17 9 8 10 7 11 6 12
REMARK SMILES IDX 5 13 4 14 3 15 2 16 1 17
REMARK H PARENT
REMARK Flexibility Score: inf
ROOT
ATOM      1  C   UNL     1     153.273 135.214 166.435  1.00  0.00     0.000 C 
ENDROOT
BRANCH   1   2
ATOM      2  C   UNL     1     153.022 133.950 167.271  1.00  0.00     0.000 C 
BRANCH   2   3
ATOM      3  C   UNL     1     152.277 132.888 166.452  1.00  0.00     0.000 C 
BRANCH   3   4
ATOM      4  C   UNL     1     153.120 132.427 165.253  1.00  0.00     0.000 C 
BRANCH   4   5
ATOM      5  C   UNL     1     152.396 132.598 163.905  1.00  0.00     0.006 C 
BRANCH   5   6
ATOM      6  C   UNL     1     151.040 131.875 163.827  1.00  0.00     0.053 C 
BRANCH   6   7
ATOM      7  C   UNL     1     149.897 132.813 163.580  1.00  0.00     0.041 C 
ATOM      8  O   UNL     1     150.112 134.036 163.371  1.00  0.00    -0.550 OA
ATOM      9  O   UNL     1     148.591 132.340 163.612  1.00  0.00    -0.550 OA
ENDBRANCH   6   7
ENDBRANCH   5   6
ENDBRANCH   4   5
ENDBRANCH   3   4
ENDBRANCH   2   3
ENDBRANCH   1   2
BRANCH   1  10
ATOM     10  C   UNL     1     154.769 135.513 166.232  1.00  0.00     0.000 C 
BRANCH  10  11
ATOM     11  C   UNL     1     155.405 136.425 167.298  1.00  0.00    -0.000 C 
BRANCH  11  12
ATOM     12  C   UNL     1     156.582 135.759 168.032  1.00  0.00    -0.000 C 
BRANCH  12  13
ATOM     13  C   UNL     1     156.124 134.889 169.213  1.00  0.00    -0.000 C 
BRANCH  13  14
ATOM     14  C   UNL     1     156.716 133.468 169.170  1.00  0.00    -0.000 C 
BRANCH  14  15
ATOM     15  C   UNL     1     157.875 133.343 168.170  1.00  0.00    -0.000 C 
BRANCH  15  16
ATOM     16  C   UNL     1     157.688 132.172 167.194  1.00  0.00    -0.003 C 
ATOM     17  C   UNL     1     156.311 132.218 166.537  1.00  0.00     0.004 C 
ENDBRANCH  15  16
ENDBRANCH  14  15
ENDBRANCH  13  14
ENDBRANCH  12  13
ENDBRANCH  11  12
ENDBRANCH  10  11
ENDBRANCH   1  10
TORSDOF 13
ENDMDL
