MODEL 1
REMARK VINA RESULT:    -5.966      0.000      0.000
REMARK INTER + INTRA:          -6.141
REMARK INTER:                  -6.141
REMARK INTRA:                   0.000
REMARK UNBOUND:                 0.000
REMARK SMILES O=c1ccc2ccc(O)cc2o1
REMARK SMILES IDX 6 1 7 2 8 3 10 4 11 5 5 6 4 7 3 8 2 9 1 10 12 11 9 12
REMARK H PARENT 9 13
REMARK Flexibility Score: inf
ROOT
ATOM      1  C   UNL     1      74.340  45.156  -3.349  1.00  0.00     0.016 A 
ATOM      2  C   UNL     1      73.848  45.492  -2.084  1.00  0.00     0.047 A 
ATOM      3  C   UNL     1      73.109  44.561  -1.342  1.00  0.00     0.119 A 
ATOM      4  C   UNL     1      72.860  43.286  -1.868  1.00  0.00     0.094 A 
ATOM      5  C   UNL     1      73.348  42.941  -3.134  1.00  0.00     0.142 A 
ATOM      6  C   UNL     1      74.093  43.881  -3.879  1.00  0.00     0.018 A 
ATOM      7  C   UNL     1      74.568  43.508  -5.140  1.00  0.00     0.019 A 
ATOM      8  C   UNL     1      74.294  42.228  -5.622  1.00  0.00     0.094 A 
ATOM      9  C   UNL     1      73.551  41.349  -4.829  1.00  0.00     0.336 A 
ATOM     10  O   UNL     1      73.293  40.190  -5.246  1.00  0.00    -0.246 OA
ATOM     11  O   UNL     1      73.110  41.729  -3.632  1.00  0.00    -0.423 OA
ENDROOT
BRANCH   3  12
ATOM     12  O   UNL     1      72.628  44.915  -0.084  1.00  0.00    -0.508 OA
ATOM     13  H   UNL     1      71.652  44.796   0.163  1.00  0.00     0.293 HD
ENDBRANCH   3  12
TORSDOF 1
ENDMDL
MODEL 2
REMARK VINA RESULT:    -5.932      2.212      5.353
REMARK INTER + INTRA:          -6.106
REMARK INTER:                  -6.106
REMARK INTRA:                   0.000
REMARK UNBOUND:                 0.000
REMARK SMILES O=c1ccc2ccc(O)cc2o1
REMARK SMILES IDX 6 1 7 2 8 3 10 4 11 5 5 6 4 7 3 8 2 9 1 10 12 11 9 12
REMARK H PARENT 9 13
REMARK Flexibility Score: inf
ROOT
ATOM      1  C   UNL     1      74.348  40.790  -7.541  1.00  0.00     0.016 A 
ATOM      2  C   UNL     1      73.494  39.809  -8.055  1.00  0.00     0.047 A 
ATOM      3  C   UNL     1      72.448  39.301  -7.274  1.00  0.00     0.119 A 
ATOM      4  C   UNL     1      72.254  39.778  -5.969  1.00  0.00     0.094 A 
ATOM      5  C   UNL     1      73.103  40.759  -5.446  1.00  0.00     0.142 A 
ATOM      6  C   UNL     1      74.157  41.269  -6.236  1.00  0.00     0.018 A 
ATOM      7  C   UNL     1      74.988  42.250  -5.687  1.00  0.00     0.019 A 
ATOM      8  C   UNL     1      74.756  42.692  -4.385  1.00  0.00     0.094 A 
ATOM      9  C   UNL     1      73.694  42.142  -3.661  1.00  0.00     0.336 A 
ATOM     10  O   UNL     1      73.468  42.528  -2.484  1.00  0.00    -0.246 OA
ATOM     11  O   UNL     1      72.917  41.210  -4.207  1.00  0.00    -0.423 OA
ENDROOT
BRANCH   3  12
ATOM     12  O   UNL     1      71.609  38.324  -7.804  1.00  0.00    -0.508 OA
ATOM     13  H   UNL     1      70.772  38.024  -7.317  1.00  0.00     0.293 HD
ENDBRANCH   3  12
TORSDOF 1
ENDMDL
MODEL 3
REMARK VINA RESULT:    -5.860      1.464      2.237
REMARK INTER + INTRA:          -6.031
REMARK INTER:                  -6.031
REMARK INTRA:                   0.000
REMARK UNBOUND:                 0.000
REMARK SMILES O=c1ccc2ccc(O)cc2o1
REMARK SMILES IDX 6 1 7 2 8 3 10 4 11 5 5 6 4 7 3 8 2 9 1 10 12 11 9 12
REMARK H PARENT 9 13
REMARK Flexibility Score: inf
ROOT
ATOM      1  C   UNL     1      72.870  43.467  -1.935  1.00  0.00     0.016 A 
ATOM      2  C   UNL     1      73.362  44.745  -1.651  1.00  0.00     0.047 A 
ATOM      3  C   UNL     1      74.222  45.388  -2.550  1.00  0.00     0.119 A 
ATOM      4  C   UNL     1      74.593  44.750  -3.742  1.00  0.00     0.094 A 
ATOM      5  C   UNL     1      74.106  43.471  -4.034  1.00  0.00     0.142 A 
ATOM      6  C   UNL     1      73.238  42.825  -3.126  1.00  0.00     0.018 A 
ATOM      7  C   UNL     1      72.768  41.548  -3.446  1.00  0.00     0.019 A 
ATOM      8  C   UNL     1      73.165  40.953  -4.643  1.00  0.00     0.094 A 
ATOM      9  C   UNL     1      74.026  41.652  -5.495  1.00  0.00     0.336 A 
ATOM     10  O   UNL     1      74.396  41.132  -6.580  1.00  0.00    -0.246 OA
ATOM     11  O   UNL     1      74.460  42.866  -5.167  1.00  0.00    -0.423 OA
ENDROOT
BRANCH   3  12
ATOM     12  O   UNL     1      74.701  46.661  -2.249  1.00  0.00    -0.508 OA
ATOM     13  H   UNL     1      75.673  46.817  -2.006  1.00  0.00     0.293 HD
ENDBRANCH   3  12
TORSDOF 1
ENDMDL
MODEL 4
REMARK VINA RESULT:    -5.795      2.729      4.344
REMARK INTER + INTRA:          -5.964
REMARK INTER:                  -5.964
REMARK INTRA:                   0.000
REMARK UNBOUND:                 0.000
REMARK SMILES O=c1ccc2ccc(O)cc2o1
REMARK SMILES IDX 6 1 7 2 8 3 10 4 11 5 5 6 4 7 3 8 2 9 1 10 12 11 9 12
REMARK H PARENT 9 13
REMARK Flexibility Score: inf
ROOT
ATOM      1  C   UNL     1      71.764  40.629  -4.160  1.00  0.00     0.016 A 
ATOM      2  C   UNL     1      72.651  41.395  -3.397  1.00  0.00     0.047 A 
ATOM      3  C   UNL     1      73.886  41.788  -3.929  1.00  0.00     0.119 A 
ATOM      4  C   UNL     1      74.236  41.413  -5.234  1.00  0.00     0.094 A 
ATOM      5  C   UNL     1      73.355  40.646  -6.005  1.00  0.00     0.142 A 
ATOM      6  C   UNL     1      72.111  40.252  -5.465  1.00  0.00     0.018 A 
ATOM      7  C   UNL     1      71.252  39.487  -6.260  1.00  0.00     0.019 A 
ATOM      8  C   UNL     1      71.644  39.137  -7.551  1.00  0.00     0.094 A 
ATOM      9  C   UNL     1      72.891  39.563  -8.020  1.00  0.00     0.336 A 
ATOM     10  O   UNL     1      73.263  39.258  -9.183  1.00  0.00    -0.246 OA
ATOM     11  O   UNL     1      73.690  40.291  -7.244  1.00  0.00    -0.423 OA
ENDROOT
BRANCH   3  12
ATOM     12  O   UNL     1      74.755  42.550  -3.153  1.00  0.00    -0.508 OA
ATOM     13  H   UNL     1      74.927  42.330  -2.179  1.00  0.00     0.293 HD
ENDBRANCH   3  12
TORSDOF 1
ENDMDL
MODEL 5
REMARK VINA RESULT:    -5.670      3.433      4.650
REMARK INTER + INTRA:          -5.835
REMARK INTER:                  -5.835
REMARK INTRA:                   0.000
REMARK UNBOUND:                 0.000
REMARK SMILES O=c1ccc2ccc(O)cc2o1
REMARK SMILES IDX 6 1 7 2 8 3 10 4 11 5 5 6 4 7 3 8 2 9 1 10 12 11 9 12
REMARK H PARENT 9 13
REMARK Flexibility Score: inf
ROOT
ATOM      1  C   UNL     1      73.792  41.315  -4.974  1.00  0.00     0.016 A 
ATOM      2  C   UNL     1      72.764  41.166  -4.038  1.00  0.00     0.047 A 
ATOM      3  C   UNL     1      71.645  40.378  -4.336  1.00  0.00     0.119 A 
ATOM      4  C   UNL     1      71.553  39.733  -5.578  1.00  0.00     0.094 A 
ATOM      5  C   UNL     1      72.578  39.877  -6.521  1.00  0.00     0.142 A 
ATOM      6  C   UNL     1      73.705  40.672  -6.217  1.00  0.00     0.018 A 
ATOM      7  C   UNL     1      74.712  40.796  -7.178  1.00  0.00     0.019 A 
ATOM      8  C   UNL     1      74.577  40.137  -8.400  1.00  0.00     0.094 A 
ATOM      9  C   UNL     1      73.434  39.366  -8.631  1.00  0.00     0.336 A 
ATOM     10  O   UNL     1      73.293  38.763  -9.727  1.00  0.00    -0.246 OA
ATOM     11  O   UNL     1      72.489  39.264  -7.699  1.00  0.00    -0.423 OA
ENDROOT
BRANCH   3  12
ATOM     12  O   UNL     1      70.630  40.242  -3.391  1.00  0.00    -0.508 OA
ATOM     13  H   UNL     1      70.458  40.956  -2.693  1.00  0.00     0.293 HD
ENDBRANCH   3  12
TORSDOF 1
ENDMDL
MODEL 6
REMARK VINA RESULT:    -5.662      0.820      4.228
REMARK INTER + INTRA:          -5.827
REMARK INTER:                  -5.827
REMARK INTRA:                   0.000
REMARK UNBOUND:                 0.000
REMARK SMILES O=c1ccc2ccc(O)cc2o1
REMARK SMILES IDX 6 1 7 2 8 3 10 4 11 5 5 6 4 7 3 8 2 9 1 10 12 11 9 12
REMARK H PARENT 9 13
REMARK Flexibility Score: inf
ROOT
ATOM      1  C   UNL     1      74.665  43.328  -4.853  1.00  0.00     0.016 A 
ATOM      2  C   UNL     1      74.352  42.046  -5.315  1.00  0.00     0.047 A 
ATOM      3  C   UNL     1      73.436  41.246  -4.620  1.00  0.00     0.119 A 
ATOM      4  C   UNL     1      72.827  41.732  -3.454  1.00  0.00     0.094 A 
ATOM      5  C   UNL     1      73.134  43.014  -2.983  1.00  0.00     0.142 A 
ATOM      6  C   UNL     1      74.058  43.817  -3.687  1.00  0.00     0.018 A 
ATOM      7  C   UNL     1      74.345  45.093  -3.192  1.00  0.00     0.019 A 
ATOM      8  C   UNL     1      73.715  45.533  -2.028  1.00  0.00     0.094 A 
ATOM      9  C   UNL     1      72.810  44.683  -1.384  1.00  0.00     0.336 A 
ATOM     10  O   UNL     1      72.232  45.062  -0.332  1.00  0.00    -0.246 OA
ATOM     11  O   UNL     1      72.555  43.473  -1.875  1.00  0.00    -0.423 OA
ENDROOT
BRANCH   3  12
ATOM     12  O   UNL     1      73.138  39.972  -5.096  1.00  0.00    -0.508 OA
ATOM     13  H   UNL     1      72.185  39.692  -5.300  1.00  0.00     0.293 HD
ENDBRANCH   3  12
TORSDOF 1
ENDMDL
MODEL 7
REMARK VINA RESULT:    -5.645      3.009      6.076
REMARK INTER + INTRA:          -5.810
REMARK INTER:                  -5.810
REMARK INTRA:                   0.000
REMARK UNBOUND:                 0.000
REMARK SMILES O=c1ccc2ccc(O)cc2o1
REMARK SMILES IDX 6 1 7 2 8 3 10 4 11 5 5 6 4 7 3 8 2 9 1 10 12 11 9 12
REMARK H PARENT 9 13
REMARK Flexibility Score: inf
ROOT
ATOM      1  C   UNL     1      71.979  38.983  -7.122  1.00  0.00     0.016 A 
ATOM      2  C   UNL     1      72.955  38.979  -8.123  1.00  0.00     0.047 A 
ATOM      3  C   UNL     1      74.111  39.759  -7.987  1.00  0.00     0.119 A 
ATOM      4  C   UNL     1      74.292  40.548  -6.842  1.00  0.00     0.094 A 
ATOM      5  C   UNL     1      73.320  40.558  -5.835  1.00  0.00     0.142 A 
ATOM      6  C   UNL     1      72.156  39.770  -5.975  1.00  0.00     0.018 A 
ATOM      7  C   UNL     1      71.203  39.800  -4.952  1.00  0.00     0.019 A 
ATOM      8  C   UNL     1      71.427  40.600  -3.832  1.00  0.00     0.094 A 
ATOM      9  C   UNL     1      72.603  41.353  -3.761  1.00  0.00     0.336 A 
ATOM     10  O   UNL     1      72.823  42.082  -2.758  1.00  0.00    -0.246 OA
ATOM     11  O   UNL     1      73.494  41.307  -4.748  1.00  0.00    -0.423 OA
ENDROOT
BRANCH   3  12
ATOM     12  O   UNL     1      75.071  39.743  -8.995  1.00  0.00    -0.508 OA
ATOM     13  H   UNL     1      75.169  38.952  -9.621  1.00  0.00     0.293 HD
ENDBRANCH   3  12
TORSDOF 1
ENDMDL
MODEL 8
REMARK VINA RESULT:    -5.422      1.600      4.759
REMARK INTER + INTRA:          -5.580
REMARK INTER:                  -5.580
REMARK INTRA:                   0.000
REMARK UNBOUND:                 0.000
REMARK SMILES O=c1ccc2ccc(O)cc2o1
REMARK SMILES IDX 6 1 7 2 8 3 10 4 11 5 5 6 4 7 3 8 2 9 1 10 12 11 9 12
REMARK H PARENT 9 13
REMARK Flexibility Score: inf
ROOT
ATOM      1  C   UNL     1      72.813  41.390  -3.599  1.00  0.00     0.016 A 
ATOM      2  C   UNL     1      73.245  40.816  -4.799  1.00  0.00     0.047 A 
ATOM      3  C   UNL     1      74.085  41.531  -5.663  1.00  0.00     0.119 A 
ATOM      4  C   UNL     1      74.496  42.828  -5.325  1.00  0.00     0.094 A 
ATOM      5  C   UNL     1      74.068  43.411  -4.126  1.00  0.00     0.142 A 
ATOM      6  C   UNL     1      73.221  42.687  -3.257  1.00  0.00     0.018 A 
ATOM      7  C   UNL     1      72.810  43.295  -2.067  1.00  0.00     0.019 A 
ATOM      8  C   UNL     1      73.244  44.588  -1.774  1.00  0.00     0.094 A 
ATOM      9  C   UNL     1      74.082  45.244  -2.681  1.00  0.00     0.336 A 
ATOM     10  O   UNL     1      74.485  46.411  -2.435  1.00  0.00    -0.246 OA
ATOM     11  O   UNL     1      74.459  44.643  -3.807  1.00  0.00    -0.423 OA
ENDROOT
BRANCH   3  12
ATOM     12  O   UNL     1      74.505  40.942  -6.853  1.00  0.00    -0.508 OA
ATOM     13  H   UNL     1      74.531  39.936  -6.966  1.00  0.00     0.293 HD
ENDBRANCH   3  12
TORSDOF 1
ENDMDL
MODEL 9
REMARK VINA RESULT:    -5.422      1.887      2.934
REMARK INTER + INTRA:          -5.580
REMARK INTER:                  -5.580
REMARK INTRA:                   0.000
REMARK UNBOUND:                 0.000
REMARK SMILES O=c1ccc2ccc(O)cc2o1
REMARK SMILES IDX 6 1 7 2 8 3 10 4 11 5 5 6 4 7 3 8 2 9 1 10 12 11 9 12
REMARK H PARENT 9 13
REMARK Flexibility Score: inf
ROOT
ATOM      1  C   UNL     1      74.952  42.714  -5.315  1.00  0.00     0.016 A 
ATOM      2  C   UNL     1      74.694  43.110  -3.999  1.00  0.00     0.047 A 
ATOM      3  C   UNL     1      73.707  42.462  -3.245  1.00  0.00     0.119 A 
ATOM      4  C   UNL     1      72.972  41.410  -3.811  1.00  0.00     0.094 A 
ATOM      5  C   UNL     1      73.223  41.008  -5.128  1.00  0.00     0.142 A 
ATOM      6  C   UNL     1      74.219  41.663  -5.885  1.00  0.00     0.018 A 
ATOM      7  C   UNL     1      74.447  41.238  -7.197  1.00  0.00     0.019 A 
ATOM      8  C   UNL     1      73.691  40.188  -7.718  1.00  0.00     0.094 A 
ATOM      9  C   UNL     1      72.721  39.586  -6.910  1.00  0.00     0.336 A 
ATOM     10  O   UNL     1      72.028  38.637  -7.361  1.00  0.00    -0.246 OA
ATOM     11  O   UNL     1      72.524  40.009  -5.664  1.00  0.00    -0.423 OA
ENDROOT
BRANCH   3  12
ATOM     12  O   UNL     1      73.465  42.871  -1.936  1.00  0.00    -0.508 OA
ATOM     13  H   UNL     1      74.146  43.412  -1.416  1.00  0.00     0.293 HD
ENDBRANCH   3  12
TORSDOF 1
ENDMDL
