MODEL 1
REMARK VINA RESULT:    -6.332      0.000      0.000
REMARK INTER + INTRA:         -14.771
REMARK INTER:                 -12.254
REMARK INTRA:                  -2.518
REMARK UNBOUND:                -2.518
REMARK SMILES CCCCCCCCCCCCCCCCCC(=O)[O-]
REMARK SMILES IDX 10 1 11 2 12 3 13 4 14 5 15 6 16 7 17 8 18 9 19 10 20 11
REMARK SMILES IDX 9 12 8 13 7 14 6 15 5 16 4 17 3 18 2 19 1 20
REMARK H PARENT
REMARK Flexibility Score: inf
ROOT
ATOM      1  C   UNL     1     -19.022  -9.139  -0.429  1.00  0.00     0.000 C 
ENDROOT
BRANCH   1   2
ATOM      2  C   UNL     1     -18.271  -9.221   0.909  1.00  0.00     0.000 C 
BRANCH   2   3
ATOM      3  C   UNL     1     -17.505  -7.930   1.249  1.00  0.00     0.000 C 
BRANCH   3   4
ATOM      4  C   UNL     1     -16.029  -7.909   0.809  1.00  0.00     0.000 C 
BRANCH   4   5
ATOM      5  C   UNL     1     -15.465  -9.314   0.541  1.00  0.00     0.000 C 
BRANCH   5   6
ATOM      6  C   UNL     1     -15.267  -9.593  -0.959  1.00  0.00     0.000 C 
BRANCH   6   7
ATOM      7  C   UNL     1     -15.253  -8.307  -1.804  1.00  0.00     0.006 C 
BRANCH   7   8
ATOM      8  C   UNL     1     -16.449  -8.233  -2.762  1.00  0.00     0.053 C 
BRANCH   8   9
ATOM      9  C   UNL     1     -16.050  -8.545  -4.172  1.00  0.00     0.041 C 
ATOM     10  O   UNL     1     -15.158  -9.404  -4.404  1.00  0.00    -0.550 OA
ATOM     11  O   UNL     1     -16.687  -7.912  -5.231  1.00  0.00    -0.550 OA
ENDBRANCH   8   9
ENDBRANCH   7   8
ENDBRANCH   6   7
ENDBRANCH   5   6
ENDBRANCH   4   5
ENDBRANCH   3   4
ENDBRANCH   2   3
ENDBRANCH   1   2
BRANCH   1  12
ATOM     12  C   UNL     1     -18.949 -10.472  -1.183  1.00  0.00     0.000 C 
BRANCH  12  13
ATOM     13  C   UNL     1     -18.687 -11.638  -0.217  1.00  0.00    -0.000 C 
BRANCH  13  14
ATOM     14  C   UNL     1     -18.613 -12.994  -0.936  1.00  0.00    -0.000 C 
BRANCH  14  15
ATOM     15  C   UNL     1     -17.752 -12.941  -2.211  1.00  0.00    -0.000 C 
BRANCH  15  16
ATOM     16  C   UNL     1     -16.930 -14.224  -2.432  1.00  0.00    -0.000 C 
BRANCH  16  17
ATOM     17  C   UNL     1     -16.098 -14.681  -1.221  1.00  0.00    -0.000 C 
BRANCH  17  18
ATOM     18  C   UNL     1     -14.814 -13.856  -1.030  1.00  0.00    -0.000 C 
BRANCH  18  19
ATOM     19  C   UNL     1     -14.717 -13.234   0.372  1.00  0.00    -0.003 C 
ATOM     20  C   UNL     1     -15.679 -13.872   1.373  1.00  0.00     0.004 C 
ENDBRANCH  18  19
ENDBRANCH  17  18
ENDBRANCH  16  17
ENDBRANCH  15  16
ENDBRANCH  14  15
ENDBRANCH  13  14
ENDBRANCH  12  13
ENDBRANCH   1  12
TORSDOF 16
ENDMDL
MODEL 2
REMARK VINA RESULT:    -6.225      0.778      1.463
REMARK INTER + INTRA:         -14.565
REMARK INTER:                 -12.161
REMARK INTRA:                  -2.404
REMARK UNBOUND:                -2.518
REMARK SMILES CCCCCCCCCCCCCCCCCC(=O)[O-]
REMARK SMILES IDX 10 1 11 2 12 3 13 4 14 5 15 6 16 7 17 8 18 9 19 10 20 11
REMARK SMILES IDX 9 12 8 13 7 14 6 15 5 16 4 17 3 18 2 19 1 20
REMARK H PARENT
REMARK Flexibility Score: inf
ROOT
ATOM      1  C   UNL     1     -18.651 -10.881  -1.375  1.00  0.00     0.000 C 
ENDROOT
BRANCH   1   2
ATOM      2  C   UNL     1     -18.977  -9.593  -0.606  1.00  0.00     0.000 C 
BRANCH   2   3
ATOM      3  C   UNL     1     -18.110  -9.406   0.653  1.00  0.00     0.000 C 
BRANCH   3   4
ATOM      4  C   UNL     1     -17.769  -7.945   1.001  1.00  0.00     0.000 C 
BRANCH   4   5
ATOM      5  C   UNL     1     -16.283  -7.610   0.788  1.00  0.00     0.000 C 
BRANCH   5   6
ATOM      6  C   UNL     1     -15.575  -8.624  -0.126  1.00  0.00     0.000 C 
BRANCH   6   7
ATOM      7  C   UNL     1     -15.200  -8.028  -1.495  1.00  0.00     0.006 C 
BRANCH   7   8
ATOM      8  C   UNL     1     -16.384  -8.030  -2.470  1.00  0.00     0.053 C 
BRANCH   8   9
ATOM      9  C   UNL     1     -15.970  -8.459  -3.844  1.00  0.00     0.041 C 
ATOM     10  O   UNL     1     -15.019  -9.271  -3.996  1.00  0.00    -0.550 OA
ATOM     11  O   UNL     1     -16.656  -7.988  -4.956  1.00  0.00    -0.550 OA
ENDBRANCH   8   9
ENDBRANCH   7   8
ENDBRANCH   6   7
ENDBRANCH   5   6
ENDBRANCH   4   5
ENDBRANCH   3   4
ENDBRANCH   2   3
ENDBRANCH   1   2
BRANCH   1  12
ATOM     12  C   UNL     1     -18.959 -12.121  -0.527  1.00  0.00     0.000 C 
BRANCH  12  13
ATOM     13  C   UNL     1     -19.516 -13.258  -1.396  1.00  0.00    -0.000 C 
BRANCH  13  14
ATOM     14  C   UNL     1     -18.902 -13.279  -2.804  1.00  0.00    -0.000 C 
BRANCH  14  15
ATOM     15  C   UNL     1     -17.782 -14.325  -2.946  1.00  0.00    -0.000 C 
BRANCH  15  16
ATOM     16  C   UNL     1     -16.394 -13.693  -3.156  1.00  0.00    -0.000 C 
BRANCH  16  17
ATOM     17  C   UNL     1     -15.533 -13.576  -1.886  1.00  0.00    -0.000 C 
BRANCH  17  18
ATOM     18  C   UNL     1     -16.035 -14.468  -0.738  1.00  0.00    -0.000 C 
BRANCH  18  19
ATOM     19  C   UNL     1     -15.852 -13.812   0.640  1.00  0.00    -0.003 C 
ATOM     20  C   UNL     1     -15.452 -12.340   0.549  1.00  0.00     0.004 C 
ENDBRANCH  18  19
ENDBRANCH  17  18
ENDBRANCH  16  17
ENDBRANCH  15  16
ENDBRANCH  14  15
ENDBRANCH  13  14
ENDBRANCH  12  13
ENDBRANCH   1  12
TORSDOF 16
ENDMDL
MODEL 3
REMARK VINA RESULT:    -6.221      2.380      5.675
REMARK INTER + INTRA:         -14.557
REMARK INTER:                 -11.889
REMARK INTRA:                  -2.669
REMARK UNBOUND:                -2.518
REMARK SMILES CCCCCCCCCCCCCCCCCC(=O)[O-]
REMARK SMILES IDX 10 1 11 2 12 3 13 4 14 5 15 6 16 7 17 8 18 9 19 10 20 11
REMARK SMILES IDX 9 12 8 13 7 14 6 15 5 16 4 17 3 18 2 19 1 20
REMARK H PARENT
REMARK Flexibility Score: inf
ROOT
ATOM      1  C   UNL     1     -18.949  -9.258  -0.636  1.00  0.00     0.000 C 
ENDROOT
BRANCH   1   2
ATOM      2  C   UNL     1     -18.967 -10.614  -1.357  1.00  0.00     0.000 C 
BRANCH   2   3
ATOM      3  C   UNL     1     -18.841 -11.810  -0.396  1.00  0.00     0.000 C 
BRANCH   3   4
ATOM      4  C   UNL     1     -18.883 -13.195  -1.066  1.00  0.00     0.000 C 
BRANCH   4   5
ATOM      5  C   UNL     1     -18.421 -13.166  -2.533  1.00  0.00     0.000 C 
BRANCH   5   6
ATOM      6  C   UNL     1     -17.041 -13.815  -2.728  1.00  0.00     0.000 C 
BRANCH   6   7
ATOM      7  C   UNL     1     -16.524 -14.507  -1.454  1.00  0.00     0.006 C 
BRANCH   7   8
ATOM      8  C   UNL     1     -15.216 -13.885  -0.949  1.00  0.00     0.053 C 
BRANCH   8   9
ATOM      9  C   UNL     1     -15.302 -13.515   0.500  1.00  0.00     0.041 C 
ATOM     10  O   UNL     1     -16.161 -14.057   1.244  1.00  0.00    -0.550 OA
ATOM     11  O   UNL     1     -14.411 -12.594   1.036  1.00  0.00    -0.550 OA
ENDBRANCH   8   9
ENDBRANCH   7   8
ENDBRANCH   6   7
ENDBRANCH   5   6
ENDBRANCH   4   5
ENDBRANCH   3   4
ENDBRANCH   2   3
ENDBRANCH   1   2
BRANCH   1  12
ATOM     12  C   UNL     1     -18.232  -9.363   0.715  1.00  0.00     0.000 C 
BRANCH  12  13
ATOM     13  C   UNL     1     -17.807  -7.976   1.222  1.00  0.00    -0.000 C 
BRANCH  13  14
ATOM     14  C   UNL     1     -16.351  -7.639   0.864  1.00  0.00    -0.000 C 
BRANCH  14  15
ATOM     15  C   UNL     1     -15.519  -8.890   0.527  1.00  0.00    -0.000 C 
BRANCH  15  16
ATOM     16  C   UNL     1     -14.998  -8.889  -0.921  1.00  0.00    -0.000 C 
BRANCH  16  17
ATOM     17  C   UNL     1     -15.285 -10.176  -1.717  1.00  0.00    -0.000 C 
BRANCH  17  18
ATOM     18  C   UNL     1     -15.930  -9.902  -3.086  1.00  0.00    -0.000 C 
BRANCH  18  19
ATOM     19  C   UNL     1     -16.193  -8.407  -3.324  1.00  0.00    -0.003 C 
ATOM     20  C   UNL     1     -16.618  -8.100  -4.760  1.00  0.00     0.004 C 
ENDBRANCH  18  19
ENDBRANCH  17  18
ENDBRANCH  16  17
ENDBRANCH  15  16
ENDBRANCH  14  15
ENDBRANCH  13  14
ENDBRANCH  12  13
ENDBRANCH   1  12
TORSDOF 16
ENDMDL
MODEL 4
REMARK VINA RESULT:    -6.210      2.527      5.771
REMARK INTER + INTRA:         -14.535
REMARK INTER:                 -11.698
REMARK INTRA:                  -2.837
REMARK UNBOUND:                -2.518
REMARK SMILES CCCCCCCCCCCCCCCCCC(=O)[O-]
REMARK SMILES IDX 10 1 11 2 12 3 13 4 14 5 15 6 16 7 17 8 18 9 19 10 20 11
REMARK SMILES IDX 9 12 8 13 7 14 6 15 5 16 4 17 3 18 2 19 1 20
REMARK H PARENT
REMARK Flexibility Score: inf
ROOT
ATOM      1  C   UNL     1     -18.646 -11.195  -0.087  1.00  0.00     0.000 C 
ENDROOT
BRANCH   1   2
ATOM      2  C   UNL     1     -19.011 -12.525  -0.762  1.00  0.00     0.000 C 
BRANCH   2   3
ATOM      3  C   UNL     1     -18.552 -12.602  -2.230  1.00  0.00     0.000 C 
BRANCH   3   4
ATOM      4  C   UNL     1     -18.405 -14.026  -2.796  1.00  0.00     0.000 C 
BRANCH   4   5
ATOM      5  C   UNL     1     -16.948 -14.517  -2.813  1.00  0.00     0.000 C 
BRANCH   5   6
ATOM      6  C   UNL     1     -15.944 -13.394  -2.506  1.00  0.00     0.000 C 
BRANCH   6   7
ATOM      7  C   UNL     1     -15.052 -13.710  -1.292  1.00  0.00     0.006 C 
BRANCH   7   8
ATOM      8  C   UNL     1     -15.872 -14.137  -0.068  1.00  0.00     0.053 C 
BRANCH   8   9
ATOM      9  C   UNL     1     -15.214 -13.722   1.212  1.00  0.00     0.041 C 
ATOM     10  O   UNL     1     -14.291 -12.865   1.202  1.00  0.00    -0.550 OA
ATOM     11  O   UNL     1     -15.643 -14.257   2.419  1.00  0.00    -0.550 OA
ENDBRANCH   8   9
ENDBRANCH   7   8
ENDBRANCH   6   7
ENDBRANCH   5   6
ENDBRANCH   4   5
ENDBRANCH   3   4
ENDBRANCH   2   3
ENDBRANCH   1   2
BRANCH   1  12
ATOM     12  C   UNL     1     -19.069 -10.003  -0.953  1.00  0.00     0.000 C 
BRANCH  12  13
ATOM     13  C   UNL     1     -18.917  -8.682  -0.184  1.00  0.00    -0.000 C 
BRANCH  13  14
ATOM     14  C   UNL     1     -17.856  -8.764   0.924  1.00  0.00    -0.000 C 
BRANCH  14  15
ATOM     15  C   UNL     1     -16.515  -8.136   0.507  1.00  0.00    -0.000 C 
BRANCH  15  16
ATOM     16  C   UNL     1     -15.343  -9.134   0.563  1.00  0.00    -0.000 C 
BRANCH  16  17
ATOM     17  C   UNL     1     -15.233 -10.076  -0.649  1.00  0.00    -0.000 C 
BRANCH  17  18
ATOM     18  C   UNL     1     -14.965  -9.329  -1.967  1.00  0.00    -0.000 C 
BRANCH  18  19
ATOM     19  C   UNL     1     -16.011  -9.647  -3.047  1.00  0.00    -0.003 C 
ATOM     20  C   UNL     1     -16.691  -8.396  -3.603  1.00  0.00     0.004 C 
ENDBRANCH  18  19
ENDBRANCH  17  18
ENDBRANCH  16  17
ENDBRANCH  15  16
ENDBRANCH  14  15
ENDBRANCH  13  14
ENDBRANCH  12  13
ENDBRANCH   1  12
TORSDOF 16
ENDMDL
MODEL 5
REMARK VINA RESULT:    -6.124      0.926      2.051
REMARK INTER + INTRA:         -14.371
REMARK INTER:                 -12.068
REMARK INTRA:                  -2.302
REMARK UNBOUND:                -2.518
REMARK SMILES CCCCCCCCCCCCCCCCCC(=O)[O-]
REMARK SMILES IDX 10 1 11 2 12 3 13 4 14 5 15 6 16 7 17 8 18 9 19 10 20 11
REMARK SMILES IDX 9 12 8 13 7 14 6 15 5 16 4 17 3 18 2 19 1 20
REMARK H PARENT
REMARK Flexibility Score: inf
ROOT
ATOM      1  C   UNL     1     -19.039  -9.332  -0.307  1.00  0.00     0.000 C 
ENDROOT
BRANCH   1   2
ATOM      2  C   UNL     1     -18.301  -9.086   1.017  1.00  0.00     0.000 C 
BRANCH   2   3
ATOM      3  C   UNL     1     -17.844  -7.625   1.190  1.00  0.00     0.000 C 
BRANCH   3   4
ATOM      4  C   UNL     1     -16.366  -7.357   0.850  1.00  0.00     0.000 C 
BRANCH   4   5
ATOM      5  C   UNL     1     -15.568  -8.646   0.592  1.00  0.00     0.000 C 
BRANCH   5   6
ATOM      6  C   UNL     1     -15.058  -8.744  -0.855  1.00  0.00     0.000 C 
BRANCH   6   7
ATOM      7  C   UNL     1     -15.793  -7.785  -1.809  1.00  0.00     0.006 C 
BRANCH   7   8
ATOM      8  C   UNL     1     -16.737  -8.530  -2.762  1.00  0.00     0.053 C 
BRANCH   8   9
ATOM      9  C   UNL     1     -16.169  -8.620  -4.146  1.00  0.00     0.041 C 
ATOM     10  O   UNL     1     -15.214  -9.403  -4.389  1.00  0.00    -0.550 OA
ATOM     11  O   UNL     1     -16.718  -7.864  -5.173  1.00  0.00    -0.550 OA
ENDBRANCH   8   9
ENDBRANCH   7   8
ENDBRANCH   6   7
ENDBRANCH   5   6
ENDBRANCH   4   5
ENDBRANCH   3   4
ENDBRANCH   2   3
ENDBRANCH   1   2
BRANCH   1  12
ATOM     12  C   UNL     1     -18.950 -10.805  -0.721  1.00  0.00     0.000 C 
BRANCH  12  13
ATOM     13  C   UNL     1     -17.614 -11.422  -0.279  1.00  0.00    -0.000 C 
BRANCH  13  14
ATOM     14  C   UNL     1     -17.745 -12.907   0.094  1.00  0.00    -0.000 C 
BRANCH  14  15
ATOM     15  C   UNL     1     -16.382 -13.612   0.203  1.00  0.00    -0.000 C 
BRANCH  15  16
ATOM     16  C   UNL     1     -16.022 -14.419  -1.058  1.00  0.00    -0.000 C 
BRANCH  16  17
ATOM     17  C   UNL     1     -15.656 -13.573  -2.290  1.00  0.00    -0.000 C 
BRANCH  17  18
ATOM     18  C   UNL     1     -16.683 -13.695  -3.428  1.00  0.00    -0.000 C 
BRANCH  18  19
ATOM     19  C   UNL     1     -17.812 -14.684  -3.099  1.00  0.00    -0.003 C 
ATOM     20  C   UNL     1     -19.184 -14.014  -3.021  1.00  0.00     0.004 C 
ENDBRANCH  18  19
ENDBRANCH  17  18
ENDBRANCH  16  17
ENDBRANCH  15  16
ENDBRANCH  14  15
ENDBRANCH  13  14
ENDBRANCH  12  13
ENDBRANCH   1  12
TORSDOF 16
ENDMDL
MODEL 6
REMARK VINA RESULT:    -5.939      0.795      3.966
REMARK INTER + INTRA:         -14.012
REMARK INTER:                 -11.569
REMARK INTRA:                  -2.444
REMARK UNBOUND:                -2.518
REMARK SMILES CCCCCCCCCCCCCCCCCC(=O)[O-]
REMARK SMILES IDX 10 1 11 2 12 3 13 4 14 5 15 6 16 7 17 8 18 9 19 10 20 11
REMARK SMILES IDX 9 12 8 13 7 14 6 15 5 16 4 17 3 18 2 19 1 20
REMARK H PARENT
REMARK Flexibility Score: inf
ROOT
ATOM      1  C   UNL     1     -15.076 -13.936  -1.671  1.00  0.00     0.000 C 
ENDROOT
BRANCH   1   2
ATOM      2  C   UNL     1     -14.563 -13.542  -0.278  1.00  0.00     0.000 C 
BRANCH   2   3
ATOM      3  C   UNL     1     -15.341 -12.365   0.340  1.00  0.00     0.000 C 
BRANCH   3   4
ATOM      4  C   UNL     1     -15.386 -11.088  -0.518  1.00  0.00     0.000 C 
BRANCH   4   5
ATOM      5  C   UNL     1     -14.762  -9.871   0.185  1.00  0.00     0.000 C 
BRANCH   5   6
ATOM      6  C   UNL     1     -15.267  -8.536  -0.388  1.00  0.00     0.000 C 
BRANCH   6   7
ATOM      7  C   UNL     1     -14.937  -8.369  -1.882  1.00  0.00     0.006 C 
BRANCH   7   8
ATOM      8  C   UNL     1     -16.176  -8.006  -2.710  1.00  0.00     0.053 C 
BRANCH   8   9
ATOM      9  C   UNL     1     -16.078  -8.524  -4.112  1.00  0.00     0.041 C 
ATOM     10  O   UNL     1     -16.773  -8.011  -5.029  1.00  0.00    -0.550 OA
ATOM     11  O   UNL     1     -15.192  -9.551  -4.413  1.00  0.00    -0.550 OA
ENDBRANCH   8   9
ENDBRANCH   7   8
ENDBRANCH   6   7
ENDBRANCH   5   6
ENDBRANCH   4   5
ENDBRANCH   3   4
ENDBRANCH   2   3
ENDBRANCH   1   2
BRANCH   1  12
ATOM     12  C   UNL     1     -16.498 -14.504  -1.594  1.00  0.00     0.000 C 
BRANCH  12  13
ATOM     13  C   UNL     1     -17.307 -14.135  -2.847  1.00  0.00    -0.000 C 
BRANCH  13  14
ATOM     14  C   UNL     1     -18.474 -13.185  -2.537  1.00  0.00    -0.000 C 
BRANCH  14  15
ATOM     15  C   UNL     1     -18.894 -13.227  -1.057  1.00  0.00    -0.000 C 
BRANCH  15  16
ATOM     16  C   UNL     1     -19.199 -11.832  -0.481  1.00  0.00    -0.000 C 
BRANCH  16  17
ATOM     17  C   UNL     1     -18.806 -10.653  -1.389  1.00  0.00    -0.000 C 
BRANCH  17  18
ATOM     18  C   UNL     1     -18.918  -9.290  -0.684  1.00  0.00    -0.000 C 
BRANCH  18  19
ATOM     19  C   UNL     1     -18.324  -9.311   0.733  1.00  0.00    -0.003 C 
ATOM     20  C   UNL     1     -18.466  -7.972   1.456  1.00  0.00     0.004 C 
ENDBRANCH  18  19
ENDBRANCH  17  18
ENDBRANCH  16  17
ENDBRANCH  15  16
ENDBRANCH  14  15
ENDBRANCH  13  14
ENDBRANCH  12  13
ENDBRANCH   1  12
TORSDOF 16
ENDMDL
MODEL 7
REMARK VINA RESULT:    -5.910      1.805      5.301
REMARK INTER + INTRA:         -13.955
REMARK INTER:                 -11.653
REMARK INTRA:                  -2.302
REMARK UNBOUND:                -2.518
REMARK SMILES CCCCCCCCCCCCCCCCCC(=O)[O-]
REMARK SMILES IDX 10 1 11 2 12 3 13 4 14 5 15 6 16 7 17 8 18 9 19 10 20 11
REMARK SMILES IDX 9 12 8 13 7 14 6 15 5 16 4 17 3 18 2 19 1 20
REMARK H PARENT
REMARK Flexibility Score: inf
ROOT
ATOM      1  C   UNL     1     -18.561  -9.820  -0.823  1.00  0.00     0.000 C 
ENDROOT
BRANCH   1   2
ATOM      2  C   UNL     1     -19.247 -11.157  -0.510  1.00  0.00     0.000 C 
BRANCH   2   3
ATOM      3  C   UNL     1     -18.267 -12.237  -0.017  1.00  0.00     0.000 C 
BRANCH   3   4
ATOM      4  C   UNL     1     -16.793 -11.796   0.062  1.00  0.00     0.000 C 
BRANCH   4   5
ATOM      5  C   UNL     1     -15.852 -12.927   0.509  1.00  0.00     0.000 C 
BRANCH   5   6
ATOM      6  C   UNL     1     -16.297 -14.304  -0.013  1.00  0.00     0.000 C 
BRANCH   6   7
ATOM      7  C   UNL     1     -15.708 -14.632  -1.397  1.00  0.00     0.006 C 
BRANCH   7   8
ATOM      8  C   UNL     1     -16.799 -14.952  -2.427  1.00  0.00     0.053 C 
BRANCH   8   9
ATOM      9  C   UNL     1     -17.389 -13.706  -3.014  1.00  0.00     0.041 C 
ATOM     10  O   UNL     1     -16.644 -12.744  -3.340  1.00  0.00    -0.550 OA
ATOM     11  O   UNL     1     -18.758 -13.620  -3.231  1.00  0.00    -0.550 OA
ENDBRANCH   8   9
ENDBRANCH   7   8
ENDBRANCH   6   7
ENDBRANCH   5   6
ENDBRANCH   4   5
ENDBRANCH   3   4
ENDBRANCH   2   3
ENDBRANCH   1   2
BRANCH   1  12
ATOM     12  C   UNL     1     -19.159  -8.685   0.018  1.00  0.00     0.000 C 
BRANCH  12  13
ATOM     13  C   UNL     1     -18.267  -8.368   1.228  1.00  0.00    -0.000 C 
BRANCH  13  14
ATOM     14  C   UNL     1     -16.769  -8.482   0.902  1.00  0.00    -0.000 C 
BRANCH  14  15
ATOM     15  C   UNL     1     -16.196  -7.193   0.289  1.00  0.00    -0.000 C 
BRANCH  15  16
ATOM     16  C   UNL     1     -15.708  -7.383  -1.159  1.00  0.00    -0.000 C 
BRANCH  16  17
ATOM     17  C   UNL     1     -15.055  -8.746  -1.451  1.00  0.00    -0.000 C 
BRANCH  17  18
ATOM     18  C   UNL     1     -15.371  -9.272  -2.862  1.00  0.00    -0.000 C 
BRANCH  18  19
ATOM     19  C   UNL     1     -16.675  -8.689  -3.429  1.00  0.00    -0.003 C 
ATOM     20  C   UNL     1     -16.486  -8.024  -4.792  1.00  0.00     0.004 C 
ENDBRANCH  18  19
ENDBRANCH  17  18
ENDBRANCH  16  17
ENDBRANCH  15  16
ENDBRANCH  14  15
ENDBRANCH  13  14
ENDBRANCH  12  13
ENDBRANCH   1  12
TORSDOF 16
ENDMDL
MODEL 8
REMARK VINA RESULT:    -5.892      2.643      6.080
REMARK INTER + INTRA:         -13.921
REMARK INTER:                 -11.657
REMARK INTRA:                  -2.263
REMARK UNBOUND:                -2.518
REMARK SMILES CCCCCCCCCCCCCCCCCC(=O)[O-]
REMARK SMILES IDX 10 1 11 2 12 3 13 4 14 5 15 6 16 7 17 8 18 9 19 10 20 11
REMARK SMILES IDX 9 12 8 13 7 14 6 15 5 16 4 17 3 18 2 19 1 20
REMARK H PARENT
REMARK Flexibility Score: inf
ROOT
ATOM      1  C   UNL     1     -15.095  -8.866  -3.720  1.00  0.00     0.000 C 
ENDROOT
BRANCH   1   2
ATOM      2  C   UNL     1     -15.189 -10.342  -4.134  1.00  0.00     0.000 C 
BRANCH   2   3
ATOM      3  C   UNL     1     -15.978 -11.201  -3.128  1.00  0.00     0.000 C 
BRANCH   3   4
ATOM      4  C   UNL     1     -15.614 -12.697  -3.119  1.00  0.00     0.000 C 
BRANCH   4   5
ATOM      5  C   UNL     1     -16.843 -13.613  -3.243  1.00  0.00     0.000 C 
BRANCH   5   6
ATOM      6  C   UNL     1     -17.065 -14.473  -1.988  1.00  0.00     0.000 C 
BRANCH   6   7
ATOM      7  C   UNL     1     -15.919 -14.344  -0.969  1.00  0.00     0.006 C 
BRANCH   7   8
ATOM      8  C   UNL     1     -16.306 -13.465   0.228  1.00  0.00     0.053 C 
BRANCH   8   9
ATOM      9  C   UNL     1     -15.328 -13.601   1.354  1.00  0.00     0.041 C 
ATOM     10  O   UNL     1     -15.547 -14.412   2.292  1.00  0.00    -0.550 OA
ATOM     11  O   UNL     1     -14.156 -12.854   1.350  1.00  0.00    -0.550 OA
ENDBRANCH   8   9
ENDBRANCH   7   8
ENDBRANCH   6   7
ENDBRANCH   5   6
ENDBRANCH   4   5
ENDBRANCH   3   4
ENDBRANCH   2   3
ENDBRANCH   1   2
BRANCH   1  12
ATOM     12  C   UNL     1     -16.284  -8.465  -2.838  1.00  0.00     0.000 C 
BRANCH  12  13
ATOM     13  C   UNL     1     -15.811  -7.694  -1.595  1.00  0.00    -0.000 C 
BRANCH  13  14
ATOM     14  C   UNL     1     -14.979  -8.566  -0.642  1.00  0.00    -0.000 C 
BRANCH  14  15
ATOM     15  C   UNL     1     -15.819  -9.157   0.504  1.00  0.00    -0.000 C 
BRANCH  15  16
ATOM     16  C   UNL     1     -17.092  -8.341   0.797  1.00  0.00    -0.000 C 
BRANCH  16  17
ATOM     17  C   UNL     1     -18.395  -9.160   0.836  1.00  0.00    -0.000 C 
BRANCH  17  18
ATOM     18  C   UNL     1     -19.066  -9.285  -0.542  1.00  0.00    -0.000 C 
BRANCH  18  19
ATOM     19  C   UNL     1     -18.821 -10.655  -1.194  1.00  0.00    -0.003 C 
ATOM     20  C   UNL     1     -19.312 -11.819  -0.333  1.00  0.00     0.004 C 
ENDBRANCH  18  19
ENDBRANCH  17  18
ENDBRANCH  16  17
ENDBRANCH  15  16
ENDBRANCH  14  15
ENDBRANCH  13  14
ENDBRANCH  12  13
ENDBRANCH   1  12
TORSDOF 16
ENDMDL
MODEL 9
REMARK VINA RESULT:    -5.809      2.248      4.040
REMARK INTER + INTRA:         -13.759
REMARK INTER:                 -11.312
REMARK INTRA:                  -2.448
REMARK UNBOUND:                -2.518
REMARK SMILES CCCCCCCCCCCCCCCCCC(=O)[O-]
REMARK SMILES IDX 10 1 11 2 12 3 13 4 14 5 15 6 16 7 17 8 18 9 19 10 20 11
REMARK SMILES IDX 9 12 8 13 7 14 6 15 5 16 4 17 3 18 2 19 1 20
REMARK H PARENT
REMARK Flexibility Score: inf
ROOT
ATOM      1  C   UNL     1     -15.525  -9.784  -3.234  1.00  0.00     0.000 C 
ENDROOT
BRANCH   1   2
ATOM      2  C   UNL     1     -16.624  -8.723  -3.076  1.00  0.00     0.000 C 
BRANCH   2   3
ATOM      3  C   UNL     1     -16.269  -7.637  -2.044  1.00  0.00     0.000 C 
BRANCH   3   4
ATOM      4  C   UNL     1     -15.156  -8.017  -1.050  1.00  0.00     0.000 C 
BRANCH   4   5
ATOM      5  C   UNL     1     -15.701  -8.524   0.295  1.00  0.00     0.000 C 
BRANCH   5   6
ATOM      6  C   UNL     1     -16.904  -7.703   0.790  1.00  0.00     0.000 C 
BRANCH   6   7
ATOM      7  C   UNL     1     -18.195  -8.536   0.878  1.00  0.00     0.006 C 
BRANCH   7   8
ATOM      8  C   UNL     1     -17.942 -10.024   0.603  1.00  0.00     0.053 C 
BRANCH   8   9
ATOM      9  C   UNL     1     -18.948 -10.590  -0.353  1.00  0.00     0.041 C 
ATOM     10  O   UNL     1     -19.334  -9.913  -1.342  1.00  0.00    -0.550 OA
ATOM     11  O   UNL     1     -19.434 -11.878  -0.169  1.00  0.00    -0.550 OA
ENDBRANCH   8   9
ENDBRANCH   7   8
ENDBRANCH   6   7
ENDBRANCH   5   6
ENDBRANCH   4   5
ENDBRANCH   3   4
ENDBRANCH   2   3
ENDBRANCH   1   2
BRANCH   1  12
ATOM     12  C   UNL     1     -15.999 -11.149  -2.720  1.00  0.00     0.000 C 
BRANCH  12  13
ATOM     13  C   UNL     1     -14.918 -11.818  -1.858  1.00  0.00    -0.000 C 
BRANCH  13  14
ATOM     14  C   UNL     1     -15.347 -11.974  -0.390  1.00  0.00    -0.000 C 
BRANCH  14  15
ATOM     15  C   UNL     1     -15.565 -13.443   0.010  1.00  0.00    -0.000 C 
BRANCH  15  16
ATOM     16  C   UNL     1     -16.804 -14.068  -0.659  1.00  0.00    -0.000 C 
BRANCH  16  17
ATOM     17  C   UNL     1     -16.499 -15.072  -1.785  1.00  0.00    -0.000 C 
BRANCH  17  18
ATOM     18  C   UNL     1     -17.213 -14.728  -3.104  1.00  0.00    -0.000 C 
BRANCH  18  19
ATOM     19  C   UNL     1     -18.322 -13.681  -2.917  1.00  0.00    -0.003 C 
ATOM     20  C   UNL     1     -19.725 -14.285  -2.971  1.00  0.00     0.004 C 
ENDBRANCH  18  19
ENDBRANCH  17  18
ENDBRANCH  16  17
ENDBRANCH  15  16
ENDBRANCH  14  15
ENDBRANCH  13  14
ENDBRANCH  12  13
ENDBRANCH   1  12
TORSDOF 16
ENDMDL
