MODEL 1
REMARK VINA RESULT:     3.871      0.000      0.000
REMARK INTER + INTRA:          11.620
REMARK INTER:                   5.908
REMARK INTRA:                   5.712
REMARK UNBOUND:                 5.712
REMARK SMILES CC1=CCC[C@H](C)C(=O)C[C@H](C(C)C)C(=O)C1
REMARK SMILES IDX 8 1 9 2 6 3 7 4 5 5 4 6 3 7 2 8 1 9 10 11 11 12 15 13 16 14
REMARK SMILES IDX 17 15 12 17 13 18 14 19
REMARK H PARENT
REMARK Flexibility Score: 70.00
ROOT
ATOM      1  C   UNL     1      -2.939   5.052   7.327  1.00  0.00     0.136 C 
ATOM      2  O   UNL     1      -1.973   4.516   7.847  1.00  0.00    -0.299 OA
ENDROOT
BRANCH   1   3
ATOM      3  C   UNL     1      -3.836   4.223   6.425  1.00  0.00     0.053 C 
ATOM      4  C   UNL     1      -3.129   3.896   5.104  1.00  0.00     0.016 C 
BRANCH   3   5
ATOM      5  C   UNL     1      -4.317   2.940   7.129  1.00  0.00     0.015 C 
BRANCH   5   6
ATOM      6  C   UNL     1      -4.439   3.130   8.651  1.00  0.00     0.028 C 
BRANCH   6   7
ATOM      7  C   UNL     1      -5.886   3.213   9.065  1.00  0.00    -0.028 C 
ATOM      8  C   UNL     1      -6.435   4.258   9.728  1.00  0.00    -0.070 CG0
ATOM      9  C   UNL     1      -7.886   4.160  10.125  1.00  0.00     0.039 C 
ATOM     10  G   UNL     1      -5.658   5.521  10.071  1.00  0.00     0.000 G0
ENDBRANCH   6   7
ENDBRANCH   5   6
ENDBRANCH   3   5
ENDBRANCH   1   3
BRANCH   1  11
ATOM     11  C   UNL     1      -3.213   6.509   7.632  1.00  0.00     0.087 C 
BRANCH  11  12
ATOM     12  C   UNL     1      -3.521   6.745   9.137  1.00  0.00     0.066 C 
BRANCH  12  13
ATOM     13  C   UNL     1      -4.195   5.530   9.760  1.00  0.00     0.140 C 
ATOM     14  O   UNL     1      -3.531   4.542  10.039  1.00  0.00    -0.299 OA
BRANCH  13  15
ATOM     15  C   UNL     1      -5.662   5.551  10.115  1.00  0.00     0.106 CG0
ATOM     16  G   UNL     1      -6.373   4.272   9.696  1.00  0.00     0.000 G0
ENDBRANCH  13  15
ENDBRANCH  12  13
BRANCH  12  17
ATOM     17  C   UNL     1      -2.267   7.162   9.970  1.00  0.00    -0.006 C 
ATOM     18  C   UNL     1      -2.058   8.685   9.954  1.00  0.00     0.008 C 
ATOM     19  C   UNL     1      -0.968   6.450   9.549  1.00  0.00     0.008 C 
ENDBRANCH  12  17
ENDBRANCH  11  12
ENDBRANCH   1  11
TORSDOF 1
ENDMDL
MODEL 2
REMARK VINA RESULT:     6.307      1.843      3.845
REMARK INTER + INTRA:          15.338
REMARK INTER:                  12.810
REMARK INTRA:                   2.528
REMARK UNBOUND:                 5.712
REMARK SMILES CC1=CCC[C@H](C)C(=O)C[C@H](C(C)C)C(=O)C1
REMARK SMILES IDX 8 1 9 2 6 3 7 4 5 5 4 6 3 7 2 8 1 9 10 11 11 12 15 13 16 14
REMARK SMILES IDX 17 15 12 17 13 18 14 19
REMARK H PARENT
REMARK Flexibility Score: 70.00
ROOT
ATOM      1  C   UNL     1      -3.093   4.241   5.899  1.00  0.00     0.136 C 
ATOM      2  O   UNL     1      -2.418   4.270   4.881  1.00  0.00    -0.299 OA
ENDROOT
BRANCH   1   3
ATOM      3  C   UNL     1      -3.106   5.463   6.800  1.00  0.00     0.053 C 
ATOM      4  C   UNL     1      -4.288   6.379   6.460  1.00  0.00     0.016 C 
BRANCH   3   5
ATOM      5  C   UNL     1      -3.120   5.069   8.289  1.00  0.00     0.015 C 
BRANCH   5   6
ATOM      6  C   UNL     1      -3.628   6.213   9.184  1.00  0.00     0.028 C 
BRANCH   6   7
ATOM      7  C   UNL     1      -5.065   5.987   9.576  1.00  0.00    -0.028 C 
ATOM      8  C   UNL     1      -5.618   4.772   9.799  1.00  0.00    -0.070 CG0
ATOM      9  C   UNL     1      -7.088   4.711  10.124  1.00  0.00     0.039 C 
ATOM     10  G   UNL     1      -4.817   3.478   9.750  1.00  0.00     0.000 G0
ENDBRANCH   6   7
ENDBRANCH   5   6
ENDBRANCH   3   5
ENDBRANCH   1   3
BRANCH   1  11
ATOM     11  C   UNL     1      -3.907   3.001   6.196  1.00  0.00     0.087 C 
BRANCH  11  12
ATOM     12  C   UNL     1      -3.685   2.486   7.645  1.00  0.00     0.066 C 
BRANCH  12  13
ATOM     13  C   UNL     1      -4.920   2.713   8.507  1.00  0.00     0.140 C 
ATOM     14  O   UNL     1      -5.988   2.210   8.186  1.00  0.00    -0.299 OA
BRANCH  13  15
ATOM     15  C   UNL     1      -4.835   3.486   9.801  1.00  0.00     0.106 CG0
ATOM     16  G   UNL     1      -5.676   4.754   9.769  1.00  0.00     0.000 G0
ENDBRANCH  13  15
ENDBRANCH  12  13
BRANCH  12  17
ATOM     17  C   UNL     1      -3.239   0.990   7.712  1.00  0.00    -0.006 C 
ATOM     18  C   UNL     1      -2.119   0.779   8.743  1.00  0.00     0.008 C 
ATOM     19  C   UNL     1      -2.819   0.399   6.353  1.00  0.00     0.008 C 
ENDBRANCH  12  17
ENDBRANCH  11  12
ENDBRANCH   1  11
TORSDOF 1
ENDMDL
