MODEL 1
REMARK VINA RESULT:    -4.598      0.000      0.000
REMARK INTER + INTRA:          -7.954
REMARK INTER:                  -7.286
REMARK INTRA:                  -0.668
REMARK UNBOUND:                -0.668
REMARK SMILES CCCCCCCCCCCC(=O)[O-]
REMARK SMILES IDX 7 1 8 2 9 3 10 4 11 5 12 6 13 7 14 8 6 9 5 10 4 11 3 12 2 13
REMARK SMILES IDX 1 14
REMARK H PARENT
REMARK Flexibility Score: inf
ROOT
ATOM      1  C   UNL     1     115.107 104.409 113.368  1.00  0.00     0.000 C 
ENDROOT
BRANCH   1   2
ATOM      2  C   UNL     1     114.419 104.466 111.989  1.00  0.00     0.000 C 
BRANCH   2   3
ATOM      3  C   UNL     1     114.492 103.162 111.171  1.00  0.00     0.000 C 
BRANCH   3   4
ATOM      4  C   UNL     1     113.618 102.009 111.704  1.00  0.00     0.006 C 
BRANCH   4   5
ATOM      5  C   UNL     1     112.271 102.453 112.295  1.00  0.00     0.053 C 
BRANCH   5   6
ATOM      6  C   UNL     1     111.135 102.195 111.354  1.00  0.00     0.041 C 
ATOM      7  O   UNL     1     110.403 103.144 110.968  1.00  0.00    -0.550 OA
ATOM      8  O   UNL     1     110.864 100.900 110.930  1.00  0.00    -0.550 OA
ENDBRANCH   5   6
ENDBRANCH   4   5
ENDBRANCH   3   4
ENDBRANCH   2   3
ENDBRANCH   1   2
BRANCH   1   9
ATOM      9  C   UNL     1     115.947 105.651 113.731  1.00  0.00     0.000 C 
BRANCH   9  10
ATOM     10  C   UNL     1     117.319 105.729 113.037  1.00  0.00    -0.000 C 
BRANCH  10  11
ATOM     11  C   UNL     1     117.909 104.343 112.729  1.00  0.00    -0.000 C 
BRANCH  11  12
ATOM     12  C   UNL     1     118.942 103.888 113.775  1.00  0.00    -0.000 C 
BRANCH  12  13
ATOM     13  C   UNL     1     119.561 105.026 114.605  1.00  0.00    -0.003 C 
ATOM     14  C   UNL     1     119.596 104.725 116.102  1.00  0.00     0.004 C 
ENDBRANCH  12  13
ENDBRANCH  11  12
ENDBRANCH  10  11
ENDBRANCH   9  10
ENDBRANCH   1   9
TORSDOF 10
ENDMDL
MODEL 2
REMARK VINA RESULT:    -4.451      0.959      1.684
REMARK INTER + INTRA:          -7.722
REMARK INTER:                  -7.383
REMARK INTRA:                  -0.339
REMARK UNBOUND:                -0.668
REMARK SMILES CCCCCCCCCCCC(=O)[O-]
REMARK SMILES IDX 7 1 8 2 9 3 10 4 11 5 12 6 13 7 14 8 6 9 5 10 4 11 3 12 2 13
REMARK SMILES IDX 1 14
REMARK H PARENT
REMARK Flexibility Score: inf
ROOT
ATOM      1  C   UNL     1     114.703 104.585 113.022  1.00  0.00     0.000 C 
ENDROOT
BRANCH   1   2
ATOM      2  C   UNL     1     114.370 104.334 111.537  1.00  0.00     0.000 C 
BRANCH   2   3
ATOM      3  C   UNL     1     114.097 102.861 111.171  1.00  0.00     0.000 C 
BRANCH   3   4
ATOM      4  C   UNL     1     113.429 102.027 112.283  1.00  0.00     0.006 C 
BRANCH   4   5
ATOM      5  C   UNL     1     111.976 102.422 112.589  1.00  0.00     0.053 C 
BRANCH   5   6
ATOM      6  C   UNL     1     111.075 102.193 111.414  1.00  0.00     0.041 C 
ATOM      7  O   UNL     1     110.985 101.049 110.898  1.00  0.00    -0.550 OA
ATOM      8  O   UNL     1     110.362 103.253 110.869  1.00  0.00    -0.550 OA
ENDBRANCH   5   6
ENDBRANCH   4   5
ENDBRANCH   3   4
ENDBRANCH   2   3
ENDBRANCH   1   2
BRANCH   1   9
ATOM      9  C   UNL     1     116.200 104.794 113.329  1.00  0.00     0.000 C 
BRANCH   9  10
ATOM     10  C   UNL     1     117.163 104.181 112.296  1.00  0.00    -0.000 C 
BRANCH  10  11
ATOM     11  C   UNL     1     118.548 103.866 112.887  1.00  0.00    -0.000 C 
BRANCH  11  12
ATOM     12  C   UNL     1     118.978 104.873 113.969  1.00  0.00    -0.000 C 
BRANCH  12  13
ATOM     13  C   UNL     1     119.780 106.076 113.445  1.00  0.00    -0.003 C 
ATOM     14  C   UNL     1     119.373 106.499 112.034  1.00  0.00     0.004 C 
ENDBRANCH  12  13
ENDBRANCH  11  12
ENDBRANCH  10  11
ENDBRANCH   9  10
ENDBRANCH   1   9
TORSDOF 10
ENDMDL
MODEL 3
REMARK VINA RESULT:    -4.364      4.148      7.791
REMARK INTER + INTRA:          -7.584
REMARK INTER:                  -7.265
REMARK INTRA:                  -0.319
REMARK UNBOUND:                -0.668
REMARK SMILES CCCCCCCCCCCC(=O)[O-]
REMARK SMILES IDX 7 1 8 2 9 3 10 4 11 5 12 6 13 7 14 8 6 9 5 10 4 11 3 12 2 13
REMARK SMILES IDX 1 14
REMARK H PARENT
REMARK Flexibility Score: inf
ROOT
ATOM      1  C   UNL     1     113.009 102.131 111.983  1.00  0.00     0.000 C 
ENDROOT
BRANCH   1   2
ATOM      2  C   UNL     1     114.074 103.060 111.366  1.00  0.00     0.000 C 
BRANCH   2   3
ATOM      3  C   UNL     1     114.687 104.084 112.341  1.00  0.00     0.000 C 
BRANCH   3   4
ATOM      4  C   UNL     1     116.227 104.166 112.317  1.00  0.00     0.006 C 
BRANCH   4   5
ATOM      5  C   UNL     1     116.835 105.038 113.426  1.00  0.00     0.053 C 
BRANCH   5   6
ATOM      6  C   UNL     1     118.330 105.087 113.344  1.00  0.00     0.041 C 
ATOM      7  O   UNL     1     119.028 104.252 113.976  1.00  0.00    -0.550 OA
ATOM      8  O   UNL     1     118.952 106.077 112.594  1.00  0.00    -0.550 OA
ENDBRANCH   5   6
ENDBRANCH   4   5
ENDBRANCH   3   4
ENDBRANCH   2   3
ENDBRANCH   1   2
BRANCH   1   9
ATOM      9  C   UNL     1     111.730 101.952 111.138  1.00  0.00     0.000 C 
BRANCH   9  10
ATOM     10  C   UNL     1     110.521 102.777 111.615  1.00  0.00    -0.000 C 
BRANCH  10  11
ATOM     11  C   UNL     1     110.281 104.031 110.758  1.00  0.00    -0.000 C 
BRANCH  11  12
ATOM     12  C   UNL     1     108.844 104.569 110.877  1.00  0.00    -0.000 C 
BRANCH  12  13
ATOM     13  C   UNL     1     108.742 106.083 111.133  1.00  0.00    -0.003 C 
ATOM     14  C   UNL     1     108.003 106.424 112.426  1.00  0.00     0.004 C 
ENDBRANCH  12  13
ENDBRANCH  11  12
ENDBRANCH  10  11
ENDBRANCH   9  10
ENDBRANCH   1   9
TORSDOF 10
ENDMDL
MODEL 4
REMARK VINA RESULT:    -4.361      3.998      7.212
REMARK INTER + INTRA:          -7.578
REMARK INTER:                  -7.258
REMARK INTRA:                  -0.320
REMARK UNBOUND:                -0.668
REMARK SMILES CCCCCCCCCCCC(=O)[O-]
REMARK SMILES IDX 7 1 8 2 9 3 10 4 11 5 12 6 13 7 14 8 6 9 5 10 4 11 3 12 2 13
REMARK SMILES IDX 1 14
REMARK H PARENT
REMARK Flexibility Score: inf
ROOT
ATOM      1  C   UNL     1     114.619 104.763 111.956  1.00  0.00     0.000 C 
ENDROOT
BRANCH   1   2
ATOM      2  C   UNL     1     115.112 104.855 113.415  1.00  0.00     0.000 C 
BRANCH   2   3
ATOM      3  C   UNL     1     116.546 105.396 113.584  1.00  0.00     0.000 C 
BRANCH   3   4
ATOM      4  C   UNL     1     117.625 104.643 112.778  1.00  0.00     0.006 C 
BRANCH   4   5
ATOM      5  C   UNL     1     118.649 103.887 113.639  1.00  0.00     0.053 C 
BRANCH   5   6
ATOM      6  C   UNL     1     119.393 104.805 114.559  1.00  0.00     0.041 C 
ATOM      7  O   UNL     1     120.067 105.760 114.093  1.00  0.00    -0.550 OA
ATOM      8  O   UNL     1     119.369 104.584 115.931  1.00  0.00    -0.550 OA
ENDBRANCH   5   6
ENDBRANCH   4   5
ENDBRANCH   3   4
ENDBRANCH   2   3
ENDBRANCH   1   2
BRANCH   1   9
ATOM      9  C   UNL     1     115.109 103.525 111.178  1.00  0.00     0.000 C 
BRANCH   9  10
ATOM     10  C   UNL     1     114.063 102.408 111.016  1.00  0.00    -0.000 C 
BRANCH  10  11
ATOM     11  C   UNL     1     113.416 101.999 112.350  1.00  0.00    -0.000 C 
BRANCH  11  12
ATOM     12  C   UNL     1     111.927 102.379 112.432  1.00  0.00    -0.000 C 
BRANCH  12  13
ATOM     13  C   UNL     1     111.139 102.181 111.125  1.00  0.00    -0.003 C 
ATOM     14  C   UNL     1     110.342 100.877 111.098  1.00  0.00     0.004 C 
ENDBRANCH  12  13
ENDBRANCH  11  12
ENDBRANCH  10  11
ENDBRANCH   9  10
ENDBRANCH   1   9
TORSDOF 10
ENDMDL
MODEL 5
REMARK VINA RESULT:    -4.129      2.573      4.198
REMARK INTER + INTRA:          -7.211
REMARK INTER:                  -6.747
REMARK INTRA:                  -0.464
REMARK UNBOUND:                -0.668
REMARK SMILES CCCCCCCCCCCC(=O)[O-]
REMARK SMILES IDX 7 1 8 2 9 3 10 4 11 5 12 6 13 7 14 8 6 9 5 10 4 11 3 12 2 13
REMARK SMILES IDX 1 14
REMARK H PARENT
REMARK Flexibility Score: inf
ROOT
ATOM      1  C   UNL     1     112.405 102.535 112.263  1.00  0.00     0.000 C 
ENDROOT
BRANCH   1   2
ATOM      2  C   UNL     1     111.155 102.069 111.490  1.00  0.00     0.000 C 
BRANCH   2   3
ATOM      3  C   UNL     1     110.459 103.163 110.657  1.00  0.00     0.000 C 
BRANCH   3   4
ATOM      4  C   UNL     1     109.840 104.312 111.479  1.00  0.00     0.006 C 
BRANCH   4   5
ATOM      5  C   UNL     1     108.869 105.206 110.691  1.00  0.00     0.053 C 
BRANCH   5   6
ATOM      6  C   UNL     1     108.439 106.401 111.485  1.00  0.00     0.041 C 
ATOM      7  O   UNL     1     108.547 107.557 111.000  1.00  0.00    -0.550 OA
ATOM      8  O   UNL     1     107.951 106.238 112.776  1.00  0.00    -0.550 OA
ENDBRANCH   5   6
ENDBRANCH   4   5
ENDBRANCH   3   4
ENDBRANCH   2   3
ENDBRANCH   1   2
BRANCH   1   9
ATOM      9  C   UNL     1     113.735 102.411 111.491  1.00  0.00     0.000 C 
BRANCH   9  10
ATOM     10  C   UNL     1     114.704 103.593 111.678  1.00  0.00    -0.000 C 
BRANCH  10  11
ATOM     11  C   UNL     1     114.677 104.165 113.105  1.00  0.00    -0.000 C 
BRANCH  11  12
ATOM     12  C   UNL     1     115.949 104.956 113.454  1.00  0.00    -0.000 C 
BRANCH  12  13
ATOM     13  C   UNL     1     117.215 104.504 112.705  1.00  0.00    -0.003 C 
ATOM     14  C   UNL     1     118.501 104.775 113.483  1.00  0.00     0.004 C 
ENDBRANCH  12  13
ENDBRANCH  11  12
ENDBRANCH  10  11
ENDBRANCH   9  10
ENDBRANCH   1   9
TORSDOF 10
ENDMDL
MODEL 6
REMARK VINA RESULT:    -3.861      4.170      7.857
REMARK INTER + INTRA:          -6.786
REMARK INTER:                  -6.309
REMARK INTRA:                  -0.478
REMARK UNBOUND:                -0.668
REMARK SMILES CCCCCCCCCCCC(=O)[O-]
REMARK SMILES IDX 7 1 8 2 9 3 10 4 11 5 12 6 13 7 14 8 6 9 5 10 4 11 3 12 2 13
REMARK SMILES IDX 1 14
REMARK H PARENT
REMARK Flexibility Score: inf
ROOT
ATOM      1  C   UNL     1     110.777 103.096 111.693  1.00  0.00     0.000 C 
ENDROOT
BRANCH   1   2
ATOM      2  C   UNL     1     111.688 101.965 111.173  1.00  0.00     0.000 C 
BRANCH   2   3
ATOM      3  C   UNL     1     113.102 101.936 111.784  1.00  0.00     0.000 C 
BRANCH   3   4
ATOM      4  C   UNL     1     113.922 103.228 111.592  1.00  0.00     0.006 C 
BRANCH   4   5
ATOM      5  C   UNL     1     114.331 103.922 112.901  1.00  0.00     0.053 C 
BRANCH   5   6
ATOM      6  C   UNL     1     115.738 104.432 112.847  1.00  0.00     0.041 C 
ATOM      7  O   UNL     1     116.535 104.003 111.973  1.00  0.00    -0.550 OA
ATOM      8  O   UNL     1     116.179 105.357 113.786  1.00  0.00    -0.550 OA
ENDBRANCH   5   6
ENDBRANCH   4   5
ENDBRANCH   3   4
ENDBRANCH   2   3
ENDBRANCH   1   2
BRANCH   1   9
ATOM      9  C   UNL     1     110.004 103.866 110.602  1.00  0.00     0.000 C 
BRANCH   9  10
ATOM     10  C   UNL     1     108.802 104.680 111.115  1.00  0.00    -0.000 C 
BRANCH  10  11
ATOM     11  C   UNL     1     108.871 106.162 110.711  1.00  0.00    -0.000 C 
BRANCH  11  12
ATOM     12  C   UNL     1     108.113 107.081 111.686  1.00  0.00    -0.000 C 
BRANCH  12  13
ATOM     13  C   UNL     1     107.528 106.370 112.918  1.00  0.00    -0.003 C 
ATOM     14  C   UNL     1     106.111 106.829 113.259  1.00  0.00     0.004 C 
ENDBRANCH  12  13
ENDBRANCH  11  12
ENDBRANCH  10  11
ENDBRANCH   9  10
ENDBRANCH   1   9
TORSDOF 10
ENDMDL
MODEL 7
REMARK VINA RESULT:    -3.275      4.332      8.027
REMARK INTER + INTRA:          -5.857
REMARK INTER:                  -5.371
REMARK INTRA:                  -0.486
REMARK UNBOUND:                -0.668
REMARK SMILES CCCCCCCCCCCC(=O)[O-]
REMARK SMILES IDX 7 1 8 2 9 3 10 4 11 5 12 6 13 7 14 8 6 9 5 10 4 11 3 12 2 13
REMARK SMILES IDX 1 14
REMARK H PARENT
REMARK Flexibility Score: inf
ROOT
ATOM      1  C   UNL     1     110.165 104.255 111.142  1.00  0.00     0.000 C 
ENDROOT
BRANCH   1   2
ATOM      2  C   UNL     1     110.224 102.757 110.779  1.00  0.00     0.000 C 
BRANCH   2   3
ATOM      3  C   UNL     1     111.558 102.059 111.109  1.00  0.00     0.000 C 
BRANCH   3   4
ATOM      4  C   UNL     1     112.297 102.618 112.342  1.00  0.00     0.006 C 
BRANCH   4   5
ATOM      5  C   UNL     1     113.823 102.441 112.303  1.00  0.00     0.053 C 
BRANCH   5   6
ATOM      6  C   UNL     1     114.512 103.649 111.747  1.00  0.00     0.041 C 
ATOM      7  O   UNL     1     114.491 104.738 112.377  1.00  0.00    -0.550 OA
ATOM      8  O   UNL     1     115.149 103.580 110.514  1.00  0.00    -0.550 OA
ENDBRANCH   5   6
ENDBRANCH   4   5
ENDBRANCH   3   4
ENDBRANCH   2   3
ENDBRANCH   1   2
BRANCH   1   9
ATOM      9  C   UNL     1     108.863 104.975 110.737  1.00  0.00     0.000 C 
BRANCH   9  10
ATOM     10  C   UNL     1     108.948 106.512 110.734  1.00  0.00    -0.000 C 
BRANCH  10  11
ATOM     11  C   UNL     1     107.873 107.169 111.616  1.00  0.00    -0.000 C 
BRANCH  11  12
ATOM     12  C   UNL     1     107.676 106.442 112.958  1.00  0.00    -0.000 C 
BRANCH  12  13
ATOM     13  C   UNL     1     106.236 105.978 113.234  1.00  0.00    -0.003 C 
ATOM     14  C   UNL     1     105.319 107.111 113.695  1.00  0.00     0.004 C 
ENDBRANCH  12  13
ENDBRANCH  11  12
ENDBRANCH  10  11
ENDBRANCH   9  10
ENDBRANCH   1   9
TORSDOF 10
ENDMDL
MODEL 8
REMARK VINA RESULT:    -2.944      4.939      7.208
REMARK INTER + INTRA:          -5.334
REMARK INTER:                  -4.914
REMARK INTRA:                  -0.420
REMARK UNBOUND:                -0.668
REMARK SMILES CCCCCCCCCCCC(=O)[O-]
REMARK SMILES IDX 7 1 8 2 9 3 10 4 11 5 12 6 13 7 14 8 6 9 5 10 4 11 3 12 2 13
REMARK SMILES IDX 1 14
REMARK H PARENT
REMARK Flexibility Score: inf
ROOT
ATOM      1  C   UNL     1     108.978 104.535 110.741  1.00  0.00     0.000 C 
ENDROOT
BRANCH   1   2
ATOM      2  C   UNL     1     108.592 106.028 110.760  1.00  0.00     0.000 C 
BRANCH   2   3
ATOM      3  C   UNL     1     108.353 106.621 112.163  1.00  0.00     0.000 C 
BRANCH   3   4
ATOM      4  C   UNL     1     107.081 106.116 112.875  1.00  0.00     0.006 C 
BRANCH   4   5
ATOM      5  C   UNL     1     106.066 107.218 113.220  1.00  0.00     0.053 C 
BRANCH   5   6
ATOM      6  C   UNL     1     104.938 106.697 114.057  1.00  0.00     0.041 C 
ATOM      7  O   UNL     1     104.091 105.911 113.560  1.00  0.00    -0.550 OA
ATOM      8  O   UNL     1     104.805 107.109 115.377  1.00  0.00    -0.550 OA
ENDBRANCH   5   6
ENDBRANCH   4   5
ENDBRANCH   3   4
ENDBRANCH   2   3
ENDBRANCH   1   2
BRANCH   1   9
ATOM      9  C   UNL     1     110.451 104.237 111.088  1.00  0.00     0.000 C 
BRANCH   9  10
ATOM     10  C   UNL     1     110.804 102.741 111.178  1.00  0.00    -0.000 C 
BRANCH  10  11
ATOM     11  C   UNL     1     111.848 102.440 112.266  1.00  0.00    -0.000 C 
BRANCH  11  12
ATOM     12  C   UNL     1     113.210 102.019 111.686  1.00  0.00    -0.000 C 
BRANCH  12  13
ATOM     13  C   UNL     1     114.176 103.182 111.404  1.00  0.00    -0.003 C 
ATOM     14  C   UNL     1     114.520 103.992 112.653  1.00  0.00     0.004 C 
ENDBRANCH  12  13
ENDBRANCH  11  12
ENDBRANCH  10  11
ENDBRANCH   9  10
ENDBRANCH   1   9
TORSDOF 10
ENDMDL
MODEL 9
REMARK VINA RESULT:    -2.308      5.104      8.878
REMARK INTER + INTRA:          -4.325
REMARK INTER:                  -3.940
REMARK INTRA:                  -0.385
REMARK UNBOUND:                -0.668
REMARK SMILES CCCCCCCCCCCC(=O)[O-]
REMARK SMILES IDX 7 1 8 2 9 3 10 4 11 5 12 6 13 7 14 8 6 9 5 10 4 11 3 12 2 13
REMARK SMILES IDX 1 14
REMARK H PARENT
REMARK Flexibility Score: inf
ROOT
ATOM      1  C   UNL     1     108.560 105.679 110.362  1.00  0.00     0.000 C 
ENDROOT
BRANCH   1   2
ATOM      2  C   UNL     1     108.917 104.326 111.011  1.00  0.00     0.000 C 
BRANCH   2   3
ATOM      3  C   UNL     1     110.363 103.849 110.770  1.00  0.00     0.000 C 
BRANCH   3   4
ATOM      4  C   UNL     1     110.839 102.715 111.700  1.00  0.00     0.006 C 
BRANCH   4   5
ATOM      5  C   UNL     1     112.078 101.958 111.197  1.00  0.00     0.053 C 
BRANCH   5   6
ATOM      6  C   UNL     1     113.325 102.396 111.901  1.00  0.00     0.041 C 
ATOM      7  O   UNL     1     113.824 101.683 112.809  1.00  0.00    -0.550 OA
ATOM      8  O   UNL     1     113.916 103.611 111.575  1.00  0.00    -0.550 OA
ENDBRANCH   5   6
ENDBRANCH   4   5
ENDBRANCH   3   4
ENDBRANCH   2   3
ENDBRANCH   1   2
BRANCH   1   9
ATOM      9  C   UNL     1     108.483 106.871 111.338  1.00  0.00     0.000 C 
BRANCH   9  10
ATOM     10  C   UNL     1     108.105 106.500 112.783  1.00  0.00    -0.000 C 
BRANCH  10  11
ATOM     11  C   UNL     1     106.608 106.189 112.946  1.00  0.00    -0.000 C 
BRANCH  11  12
ATOM     12  C   UNL     1     105.843 107.308 113.676  1.00  0.00    -0.000 C 
BRANCH  12  13
ATOM     13  C   UNL     1     104.525 106.863 114.334  1.00  0.00    -0.003 C 
ATOM     14  C   UNL     1     103.741 105.861 113.488  1.00  0.00     0.004 C 
ENDBRANCH  12  13
ENDBRANCH  11  12
ENDBRANCH  10  11
ENDBRANCH   9  10
ENDBRANCH   1   9
TORSDOF 10
ENDMDL
