MODEL 1
REMARK VINA RESULT:    -2.369      0.000      0.000
REMARK INTER + INTRA:          -4.113
REMARK INTER:                  -3.477
REMARK INTRA:                  -0.635
REMARK UNBOUND:                -0.635
REMARK SMILES O=c1c(O[C@H]2O[C@H](CO)[C@H](O)[C@@H](O)[C@@H]2O)c(-c2ccc(O)c(O)c2)oc2cc(O)cc(O)c12
REMARK SMILES IDX 4 1 3 2 16 3 25 4 2 5 26 6 1 7 33 8 27 9 31 10 28 11 30 12
REMARK SMILES IDX 17 13 18 14 19 15 20 16 24 17 22 18 21 19 23 21 32 23 29 25
REMARK SMILES IDX 5 27 14 28 6 29 12 30 7 31 10 32 15 33 13 35 8 37 9 38 11 40
REMARK H PARENT 21 20 23 22 32 24 29 26 15 34 13 36 9 39 11 41
REMARK Flexibility Score: inf
ROOT
ATOM      1  O   UNL     1      44.514   9.049  21.800  1.00  0.00    -0.454 OA
ENDROOT
BRANCH   1   2
ATOM      2  C   UNL     1      44.846   8.975  20.443  1.00  0.00     0.214 A 
ATOM      3  C   UNL     1      45.958   8.236  20.019  1.00  0.00     0.180 A 
ATOM      4  O   UNL     1      46.240   8.136  18.726  1.00  0.00    -0.452 OA
ATOM      5  C   UNL     1      44.075   9.650  19.489  1.00  0.00     0.239 A 
ATOM      6  C   UNL     1      45.523   8.737  17.782  1.00  0.00     0.146 A 
ATOM      7  O   UNL     1      43.071  10.299  19.882  1.00  0.00    -0.285 OA
ATOM      8  C   UNL     1      44.416   9.563  18.118  1.00  0.00     0.111 A 
ATOM      9  C   UNL     1      45.881   8.541  16.445  1.00  0.00     0.094 A 
ATOM     10  C   UNL     1      43.707  10.214  17.064  1.00  0.00     0.134 A 
ATOM     11  C   UNL     1      45.152   9.144  15.422  1.00  0.00     0.123 A 
ATOM     12  C   UNL     1      44.067   9.968  15.733  1.00  0.00     0.093 A 
BRANCH   3  13
ATOM     13  C   UNL     1      46.844   7.582  20.989  1.00  0.00     0.025 A 
ATOM     14  C   UNL     1      46.870   6.187  21.102  1.00  0.00     0.016 A 
ATOM     15  C   UNL     1      47.696   5.577  22.046  1.00  0.00     0.051 A 
ATOM     16  C   UNL     1      48.542   6.346  22.858  1.00  0.00     0.157 A 
ATOM     17  C   UNL     1      47.686   8.357  21.794  1.00  0.00     0.062 A 
ATOM     18  C   UNL     1      48.547   7.755  22.719  1.00  0.00     0.158 A 
BRANCH  16  19
ATOM     19  O   UNL     1      49.354   5.675  23.775  1.00  0.00    -0.504 OA
ATOM     20  H   UNL     1      49.903   4.860  23.545  1.00  0.00     0.293 HD
ENDBRANCH  16  19
BRANCH  18  21
ATOM     21  O   UNL     1      49.388   8.585  23.463  1.00  0.00    -0.504 OA
ATOM     22  H   UNL     1      49.348   8.676  24.470  1.00  0.00     0.293 HD
ENDBRANCH  18  21
ENDBRANCH   3  13
BRANCH  10  23
ATOM     23  O   UNL     1      42.665  11.124  17.268  1.00  0.00    -0.507 OA
ATOM     24  H   UNL     1      42.091  11.517  16.536  1.00  0.00     0.293 HD
ENDBRANCH  10  23
BRANCH  11  25
ATOM     25  O   UNL     1      45.520   8.924  14.096  1.00  0.00    -0.508 OA
ATOM     26  H   UNL     1      45.337   9.611  13.374  1.00  0.00     0.293 HD
ENDBRANCH  11  25
ENDBRANCH   1   2
BRANCH   1  27
ATOM     27  C   UNL     1      44.806  10.202  22.596  1.00  0.00     0.339 C 
ATOM     28  C   UNL     1      45.928   9.911  23.613  1.00  0.00     0.214 C 
ATOM     29  O   UNL     1      43.630  10.682  23.230  1.00  0.00    -0.332 OA
ATOM     30  C   UNL     1      45.436   8.953  24.715  1.00  0.00     0.180 C 
ATOM     31  C   UNL     1      43.101   9.730  24.139  1.00  0.00     0.179 C 
ATOM     32  C   UNL     1      44.093   9.445  25.293  1.00  0.00     0.177 C 
BRANCH  28  33
ATOM     33  O   UNL     1      46.350  11.125  24.181  1.00  0.00    -0.384 OA
ATOM     34  H   UNL     1      46.211  11.047  25.162  1.00  0.00     0.211 HD
ENDBRANCH  28  33
BRANCH  30  35
ATOM     35  O   UNL     1      45.283   7.664  24.180  1.00  0.00    -0.387 OA
ATOM     36  H   UNL     1      44.520   7.701  23.547  1.00  0.00     0.211 HD
ENDBRANCH  30  35
BRANCH  31  37
ATOM     37  C   UNL     1      41.756  10.244  24.669  1.00  0.00     0.191 C 
BRANCH  37  38
ATOM     38  O   UNL     1      40.835   9.194  24.781  1.00  0.00    -0.394 OA
ATOM     39  H   UNL     1      40.209   9.292  24.017  1.00  0.00     0.210 HD
ENDBRANCH  37  38
ENDBRANCH  31  37
BRANCH  32  40
ATOM     40  O   UNL     1      44.298  10.610  26.055  1.00  0.00    -0.387 OA
ATOM     41  H   UNL     1      43.505  11.189  25.913  1.00  0.00     0.211 HD
ENDBRANCH  32  40
ENDBRANCH   1  27
TORSDOF 12
ENDMDL
MODEL 2
REMARK VINA RESULT:    -1.682      2.175      7.722
REMARK INTER + INTRA:          -3.104
REMARK INTER:                  -3.365
REMARK INTRA:                   0.261
REMARK UNBOUND:                -0.635
REMARK SMILES O=c1c(O[C@H]2O[C@H](CO)[C@H](O)[C@@H](O)[C@@H]2O)c(-c2ccc(O)c(O)c2)oc2cc(O)cc(O)c12
REMARK SMILES IDX 4 1 3 2 16 3 25 4 2 5 26 6 1 7 33 8 27 9 31 10 28 11 30 12
REMARK SMILES IDX 17 13 18 14 19 15 20 16 24 17 22 18 21 19 23 21 32 23 29 25
REMARK SMILES IDX 5 27 14 28 6 29 12 30 7 31 10 32 15 33 13 35 8 37 9 38 11 40
REMARK H PARENT 21 20 23 22 32 24 29 26 15 34 13 36 9 39 11 41
REMARK Flexibility Score: inf
ROOT
ATOM      1  O   UNL     1      47.036   7.607  18.697  1.00  0.00    -0.454 OA
ENDROOT
BRANCH   1   2
ATOM      2  C   UNL     1      46.252   8.278  19.642  1.00  0.00     0.214 A 
ATOM      3  C   UNL     1      45.408   9.327  19.254  1.00  0.00     0.180 A 
ATOM      4  O   UNL     1      44.636   9.928  20.151  1.00  0.00    -0.452 OA
ATOM      5  C   UNL     1      46.309   7.914  20.992  1.00  0.00     0.239 A 
ATOM      6  C   UNL     1      44.636   9.602  21.440  1.00  0.00     0.146 A 
ATOM      7  O   UNL     1      47.061   6.961  21.325  1.00  0.00    -0.285 OA
ATOM      8  C   UNL     1      45.505   8.595  21.939  1.00  0.00     0.111 A 
ATOM      9  C   UNL     1      43.759  10.271  22.298  1.00  0.00     0.094 A 
ATOM     10  C   UNL     1      45.489   8.313  23.339  1.00  0.00     0.134 A 
ATOM     11  C   UNL     1      43.718   9.954  23.654  1.00  0.00     0.123 A 
ATOM     12  C   UNL     1      44.574   8.975  24.166  1.00  0.00     0.093 A 
BRANCH   3  13
ATOM     13  C   UNL     1      45.379   9.798  17.865  1.00  0.00     0.025 A 
ATOM     14  C   UNL     1      44.161   9.980  17.201  1.00  0.00     0.016 A 
ATOM     15  C   UNL     1      44.146  10.403  15.872  1.00  0.00     0.051 A 
ATOM     16  C   UNL     1      45.341  10.695  15.201  1.00  0.00     0.157 A 
ATOM     17  C   UNL     1      46.578  10.089  17.204  1.00  0.00     0.062 A 
ATOM     18  C   UNL     1      46.574  10.550  15.882  1.00  0.00     0.158 A 
BRANCH  16  19
ATOM     19  O   UNL     1      45.258  11.125  13.875  1.00  0.00    -0.504 OA
ATOM     20  H   UNL     1      44.386  11.271  13.387  1.00  0.00     0.293 HD
ENDBRANCH  16  19
BRANCH  18  21
ATOM     21  O   UNL     1      47.803  10.857  15.296  1.00  0.00    -0.504 OA
ATOM     22  H   UNL     1      48.445  11.551  15.657  1.00  0.00     0.293 HD
ENDBRANCH  18  21
ENDBRANCH   3  13
BRANCH  10  23
ATOM     23  O   UNL     1      46.361   7.418  23.967  1.00  0.00    -0.507 OA
ATOM     24  H   UNL     1      46.785   7.565  24.871  1.00  0.00     0.293 HD
ENDBRANCH  10  23
BRANCH  11  25
ATOM     25  O   UNL     1      42.828  10.626  24.488  1.00  0.00    -0.508 OA
ATOM     26  H   UNL     1      42.400  11.503  24.211  1.00  0.00     0.293 HD
ENDBRANCH  11  25
ENDBRANCH   1   2
BRANCH   1  27
ATOM     27  C   UNL     1      46.763   6.259  18.298  1.00  0.00     0.339 C 
ATOM     28  C   UNL     1      47.749   5.785  17.212  1.00  0.00     0.214 C 
ATOM     29  O   UNL     1      45.413   6.127  17.879  1.00  0.00    -0.332 OA
ATOM     30  C   UNL     1      47.488   6.509  15.878  1.00  0.00     0.180 C 
ATOM     31  C   UNL     1      45.143   6.915  16.730  1.00  0.00     0.179 C 
ATOM     32  C   UNL     1      45.988   6.449  15.519  1.00  0.00     0.177 C 
BRANCH  28  33
ATOM     33  O   UNL     1      47.606   4.397  17.045  1.00  0.00    -0.384 OA
ATOM     34  H   UNL     1      47.754   4.207  16.081  1.00  0.00     0.211 HD
ENDBRANCH  28  33
BRANCH  30  35
ATOM     35  O   UNL     1      47.901   7.847  15.983  1.00  0.00    -0.387 OA
ATOM     36  H   UNL     1      47.137   8.358  16.357  1.00  0.00     0.211 HD
ENDBRANCH  30  35
BRANCH  31  37
ATOM     37  C   UNL     1      43.641   6.849  16.424  1.00  0.00     0.191 C 
BRANCH  37  38
ATOM     38  O   UNL     1      43.404   7.077  15.062  1.00  0.00    -0.394 OA
ATOM     39  H   UNL     1      43.813   6.313  14.577  1.00  0.00     0.210 HD
ENDBRANCH  37  38
ENDBRANCH  31  37
BRANCH  32  40
ATOM     40  O   UNL     1      45.635   5.135  15.158  1.00  0.00    -0.387 OA
ATOM     41  H   UNL     1      46.321   4.535  15.552  1.00  0.00     0.211 HD
ENDBRANCH  32  40
ENDBRANCH   1  27
TORSDOF 12
ENDMDL
MODEL 3
REMARK VINA RESULT:    -0.828      1.374      2.234
REMARK INTER + INTRA:          -1.851
REMARK INTER:                  -1.066
REMARK INTRA:                  -0.785
REMARK UNBOUND:                -0.635
REMARK SMILES O=c1c(O[C@H]2O[C@H](CO)[C@H](O)[C@@H](O)[C@@H]2O)c(-c2ccc(O)c(O)c2)oc2cc(O)cc(O)c12
REMARK SMILES IDX 4 1 3 2 16 3 25 4 2 5 26 6 1 7 33 8 27 9 31 10 28 11 30 12
REMARK SMILES IDX 17 13 18 14 19 15 20 16 24 17 22 18 21 19 23 21 32 23 29 25
REMARK SMILES IDX 5 27 14 28 6 29 12 30 7 31 10 32 15 33 13 35 8 37 9 38 11 40
REMARK H PARENT 21 20 23 22 32 24 29 26 15 34 13 36 9 39 11 41
REMARK Flexibility Score: inf
ROOT
ATOM      1  O   UNL     1      45.157   9.428  21.400  1.00  0.00    -0.454 OA
ENDROOT
BRANCH   1   2
ATOM      2  C   UNL     1      45.306   8.775  20.172  1.00  0.00     0.214 A 
ATOM      3  C   UNL     1      46.240   7.742  20.020  1.00  0.00     0.180 A 
ATOM      4  O   UNL     1      46.342   7.100  18.864  1.00  0.00    -0.452 OA
ATOM      5  C   UNL     1      44.525   9.153  19.073  1.00  0.00     0.239 A 
ATOM      6  C   UNL     1      45.607   7.405  17.799  1.00  0.00     0.146 A 
ATOM      7  O   UNL     1      43.680  10.072  19.226  1.00  0.00    -0.285 OA
ATOM      8  C   UNL     1      44.678   8.480  17.836  1.00  0.00     0.111 A 
ATOM      9  C   UNL     1      45.765   6.644  16.637  1.00  0.00     0.094 A 
ATOM     10  C   UNL     1      43.943   8.787  16.651  1.00  0.00     0.134 A 
ATOM     11  C   UNL     1      45.007   6.923  15.502  1.00  0.00     0.123 A 
ATOM     12  C   UNL     1      44.097   7.983  15.515  1.00  0.00     0.093 A 
BRANCH   3  13
ATOM     13  C   UNL     1      47.138   7.369  21.119  1.00  0.00     0.025 A 
ATOM     14  C   UNL     1      47.341   6.023  21.446  1.00  0.00     0.016 A 
ATOM     15  C   UNL     1      48.175   5.681  22.510  1.00  0.00     0.051 A 
ATOM     16  C   UNL     1      48.855   6.671  23.233  1.00  0.00     0.157 A 
ATOM     17  C   UNL     1      47.813   8.365  21.834  1.00  0.00     0.062 A 
ATOM     18  C   UNL     1      48.683   8.031  22.879  1.00  0.00     0.158 A 
BRANCH  16  19
ATOM     19  O   UNL     1      49.685   6.263  24.279  1.00  0.00    -0.504 OA
ATOM     20  H   UNL     1      50.670   6.479  24.329  1.00  0.00     0.293 HD
ENDBRANCH  16  19
BRANCH  18  21
ATOM     21  O   UNL     1      49.353   9.072  23.525  1.00  0.00    -0.504 OA
ATOM     22  H   UNL     1      50.360   9.135  23.604  1.00  0.00     0.293 HD
ENDBRANCH  18  21
ENDBRANCH   3  13
BRANCH  10  23
ATOM     23  O   UNL     1      43.074   9.876  16.529  1.00  0.00    -0.507 OA
ATOM     24  H   UNL     1      42.401   9.996  15.787  1.00  0.00     0.293 HD
ENDBRANCH  10  23
BRANCH  11  25
ATOM     25  O   UNL     1      45.173   6.143  14.359  1.00  0.00    -0.508 OA
ATOM     26  H   UNL     1      45.968   5.524  14.251  1.00  0.00     0.293 HD
ENDBRANCH  11  25
ENDBRANCH   1   2
BRANCH   1  27
ATOM     27  C   UNL     1      44.665   8.757  22.566  1.00  0.00     0.339 C 
ATOM     28  C   UNL     1      43.131   8.866  22.668  1.00  0.00     0.214 C 
ATOM     29  O   UNL     1      45.308   9.248  23.732  1.00  0.00    -0.332 OA
ATOM     30  C   UNL     1      42.702  10.308  22.998  1.00  0.00     0.180 C 
ATOM     31  C   UNL     1      45.023  10.622  23.948  1.00  0.00     0.179 C 
ATOM     32  C   UNL     1      43.511  10.848  24.195  1.00  0.00     0.177 C 
BRANCH  28  33
ATOM     33  O   UNL     1      42.681   7.987  23.669  1.00  0.00    -0.384 OA
ATOM     34  H   UNL     1      42.601   7.091  23.248  1.00  0.00     0.211 HD
ENDBRANCH  28  33
BRANCH  30  35
ATOM     35  O   UNL     1      42.906  11.125  21.874  1.00  0.00    -0.387 OA
ATOM     36  H   UNL     1      43.816  11.512  21.958  1.00  0.00     0.211 HD
ENDBRANCH  30  35
BRANCH  31  37
ATOM     37  C   UNL     1      45.866  11.125  25.126  1.00  0.00     0.191 C 
BRANCH  37  38
ATOM     38  O   UNL     1      45.622  10.355  26.272  1.00  0.00    -0.394 OA
ATOM     39  H   UNL     1      46.271   9.605  26.246  1.00  0.00     0.210 HD
ENDBRANCH  37  38
ENDBRANCH  31  37
BRANCH  32  40
ATOM     40  O   UNL     1      43.110  10.198  25.377  1.00  0.00    -0.387 OA
ATOM     41  H   UNL     1      42.545  10.840  25.879  1.00  0.00     0.211 HD
ENDBRANCH  32  40
ENDBRANCH   1  27
TORSDOF 12
ENDMDL
MODEL 4
REMARK VINA RESULT:    -0.274      1.380      1.968
REMARK INTER + INTRA:          -1.038
REMARK INTER:                  -0.300
REMARK INTRA:                  -0.738
REMARK UNBOUND:                -0.635
REMARK SMILES O=c1c(O[C@H]2O[C@H](CO)[C@H](O)[C@@H](O)[C@@H]2O)c(-c2ccc(O)c(O)c2)oc2cc(O)cc(O)c12
REMARK SMILES IDX 4 1 3 2 16 3 25 4 2 5 26 6 1 7 33 8 27 9 31 10 28 11 30 12
REMARK SMILES IDX 17 13 18 14 19 15 20 16 24 17 22 18 21 19 23 21 32 23 29 25
REMARK SMILES IDX 5 27 14 28 6 29 12 30 7 31 10 32 15 33 13 35 8 37 9 38 11 40
REMARK H PARENT 21 20 23 22 32 24 29 26 15 34 13 36 9 39 11 41
REMARK Flexibility Score: inf
ROOT
ATOM      1  O   UNL     1      45.327   9.360  21.254  1.00  0.00    -0.454 OA
ENDROOT
BRANCH   1   2
ATOM      2  C   UNL     1      45.345   8.718  20.011  1.00  0.00     0.214 A 
ATOM      3  C   UNL     1      46.134   7.579  19.807  1.00  0.00     0.180 A 
ATOM      4  O   UNL     1      46.110   6.952  18.638  1.00  0.00    -0.452 OA
ATOM      5  C   UNL     1      44.578   9.214  18.950  1.00  0.00     0.239 A 
ATOM      6  C   UNL     1      45.380   7.369  17.608  1.00  0.00     0.146 A 
ATOM      7  O   UNL     1      43.863  10.230  19.150  1.00  0.00    -0.285 OA
ATOM      8  C   UNL     1      44.598   8.552  17.698  1.00  0.00     0.111 A 
ATOM      9  C   UNL     1      45.396   6.618  16.429  1.00  0.00     0.094 A 
ATOM     10  C   UNL     1      43.864   8.973  16.548  1.00  0.00     0.134 A 
ATOM     11  C   UNL     1      44.638   7.013  15.329  1.00  0.00     0.123 A 
ATOM     12  C   UNL     1      43.872   8.179  15.394  1.00  0.00     0.093 A 
BRANCH   3  13
ATOM     13  C   UNL     1      47.017   7.073  20.864  1.00  0.00     0.025 A 
ATOM     14  C   UNL     1      47.154   5.697  21.078  1.00  0.00     0.016 A 
ATOM     15  C   UNL     1      47.975   5.228  22.103  1.00  0.00     0.051 A 
ATOM     16  C   UNL     1      48.708   6.121  22.898  1.00  0.00     0.157 A 
ATOM     17  C   UNL     1      47.745   7.973  21.651  1.00  0.00     0.062 A 
ATOM     18  C   UNL     1      48.602   7.512  22.658  1.00  0.00     0.158 A 
BRANCH  16  19
ATOM     19  O   UNL     1      49.521   5.588  23.900  1.00  0.00    -0.504 OA
ATOM     20  H   UNL     1      50.179   6.134  24.436  1.00  0.00     0.293 HD
ENDBRANCH  16  19
BRANCH  18  21
ATOM     21  O   UNL     1      49.327   8.462  23.380  1.00  0.00    -0.504 OA
ATOM     22  H   UNL     1      50.319   8.626  23.264  1.00  0.00     0.293 HD
ENDBRANCH  18  21
ENDBRANCH   3  13
BRANCH  10  23
ATOM     23  O   UNL     1      43.137  10.166  16.477  1.00  0.00    -0.507 OA
ATOM     24  H   UNL     1      42.492  10.491  17.182  1.00  0.00     0.293 HD
ENDBRANCH  10  23
BRANCH  11  25
ATOM     25  O   UNL     1      44.660   6.241  14.169  1.00  0.00    -0.508 OA
ATOM     26  H   UNL     1      44.458   5.248  14.188  1.00  0.00     0.293 HD
ENDBRANCH  11  25
ENDBRANCH   1   2
BRANCH   1  27
ATOM     27  C   UNL     1      44.122   9.526  22.010  1.00  0.00     0.339 C 
ATOM     28  C   UNL     1      44.057  10.922  22.661  1.00  0.00     0.214 C 
ATOM     29  O   UNL     1      43.990   8.489  22.970  1.00  0.00    -0.332 OA
ATOM     30  C   UNL     1      45.094  11.050  23.793  1.00  0.00     0.180 C 
ATOM     31  C   UNL     1      45.036   8.527  23.929  1.00  0.00     0.179 C 
ATOM     32  C   UNL     1      44.999   9.841  24.746  1.00  0.00     0.177 C 
BRANCH  28  33
ATOM     33  O   UNL     1      42.761  11.125  23.166  1.00  0.00    -0.384 OA
ATOM     34  H   UNL     1      42.646  10.492  23.924  1.00  0.00     0.211 HD
ENDBRANCH  28  33
BRANCH  30  35
ATOM     35  O   UNL     1      46.383  11.125  23.240  1.00  0.00    -0.387 OA
ATOM     36  H   UNL     1      46.388  10.541  22.438  1.00  0.00     0.211 HD
ENDBRANCH  30  35
BRANCH  31  37
ATOM     37  C   UNL     1      44.921   7.297  24.838  1.00  0.00     0.191 C 
BRANCH  37  38
ATOM     38  O   UNL     1      45.163   7.646  26.174  1.00  0.00    -0.394 OA
ATOM     39  H   UNL     1      44.304   7.518  26.654  1.00  0.00     0.210 HD
ENDBRANCH  37  38
ENDBRANCH  31  37
BRANCH  32  40
ATOM     40  O   UNL     1      43.809   9.914  25.495  1.00  0.00    -0.387 OA
ATOM     41  H   UNL     1      43.968   9.408  26.334  1.00  0.00     0.211 HD
ENDBRANCH  32  40
ENDBRANCH   1  27
TORSDOF 12
ENDMDL
