MODEL 1
REMARK VINA RESULT:    -5.842      0.000      0.000
REMARK INTER + INTRA:          -5.842
REMARK INTER:                  -5.842
REMARK INTRA:                   0.000
REMARK UNBOUND:                 0.000
REMARK SMILES CC(C)=C1CC[C@@H](C)CC1=O
REMARK SMILES IDX 8 1 7 2 6 3 5 4 4 5 2 6 1 7 3 8 10 9 11 10 9 11
REMARK H PARENT
REMARK Flexibility Score: inf
ROOT
ATOM      1  C   UNL     1     -12.229 -20.687  31.784  1.00  0.00     0.008 C 
ATOM      2  C   UNL     1     -12.895 -19.597  30.935  1.00  0.00    -0.006 C 
ATOM      3  C   UNL     1     -12.564 -19.792  29.447  1.00  0.00     0.008 C 
ATOM      4  C   UNL     1     -13.305 -18.772  28.573  1.00  0.00     0.039 C 
ATOM      5  C   UNL     1     -13.088 -17.338  29.037  1.00  0.00    -0.006 C 
ATOM      6  C   UNL     1     -13.073 -16.300  28.151  1.00  0.00    -0.070 C 
ATOM      7  C   UNL     1     -13.288 -16.528  26.672  1.00  0.00     0.039 C 
ATOM      8  C   UNL     1     -12.802 -14.879  28.593  1.00  0.00     0.039 C 
ATOM      9  C   UNL     1     -13.014 -17.131  30.514  1.00  0.00     0.159 C 
ATOM     10  O   UNL     1     -13.428 -16.068  31.049  1.00  0.00    -0.295 OA
ATOM     11  C   UNL     1     -12.441 -18.204  31.396  1.00  0.00     0.084 C 
ENDROOT
TORSDOF 0
ENDMDL
MODEL 2
REMARK VINA RESULT:    -5.649      2.511      4.070
REMARK INTER + INTRA:          -5.649
REMARK INTER:                  -5.649
REMARK INTRA:                   0.000
REMARK UNBOUND:                 0.000
REMARK SMILES CC(C)=C1CC[C@@H](C)CC1=O
REMARK SMILES IDX 8 1 7 2 6 3 5 4 4 5 2 6 1 7 3 8 10 9 11 10 9 11
REMARK H PARENT
REMARK Flexibility Score: inf
ROOT
ATOM      1  C   UNL     1     -11.021 -17.490  26.016  1.00  0.00     0.008 C 
ATOM      2  C   UNL     1     -11.206 -16.703  27.318  1.00  0.00    -0.006 C 
ATOM      3  C   UNL     1     -10.691 -17.512  28.519  1.00  0.00     0.008 C 
ATOM      4  C   UNL     1     -10.774 -16.700  29.817  1.00  0.00     0.039 C 
ATOM      5  C   UNL     1     -12.162 -16.120  30.056  1.00  0.00    -0.006 C 
ATOM      6  C   UNL     1     -12.650 -15.944  31.318  1.00  0.00    -0.070 C 
ATOM      7  C   UNL     1     -11.827 -16.303  32.534  1.00  0.00     0.039 C 
ATOM      8  C   UNL     1     -14.047 -15.423  31.566  1.00  0.00     0.039 C 
ATOM      9  C   UNL     1     -12.894 -15.652  28.841  1.00  0.00     0.159 C 
ATOM     10  O   UNL     1     -13.691 -14.677  28.891  1.00  0.00    -0.295 OA
ATOM     11  C   UNL     1     -12.685 -16.343  27.523  1.00  0.00     0.084 C 
ENDROOT
TORSDOF 0
ENDMDL
MODEL 3
REMARK VINA RESULT:    -5.649      1.995      3.619
REMARK INTER + INTRA:          -5.649
REMARK INTER:                  -5.649
REMARK INTRA:                   0.000
REMARK UNBOUND:                 0.000
REMARK SMILES CC(C)=C1CC[C@@H](C)CC1=O
REMARK SMILES IDX 8 1 7 2 6 3 5 4 4 5 2 6 1 7 3 8 10 9 11 10 9 11
REMARK H PARENT
REMARK Flexibility Score: inf
ROOT
ATOM      1  C   UNL     1     -14.374 -14.858  33.128  1.00  0.00     0.008 C 
ATOM      2  C   UNL     1     -13.504 -15.751  32.236  1.00  0.00    -0.006 C 
ATOM      3  C   UNL     1     -13.620 -15.325  30.765  1.00  0.00     0.008 C 
ATOM      4  C   UNL     1     -12.678 -16.142  29.871  1.00  0.00     0.039 C 
ATOM      5  C   UNL     1     -12.848 -17.643  30.060  1.00  0.00    -0.006 C 
ATOM      6  C   UNL     1     -12.648 -18.516  29.029  1.00  0.00    -0.070 C 
ATOM      7  C   UNL     1     -12.230 -18.029  27.660  1.00  0.00     0.039 C 
ATOM      8  C   UNL     1     -12.870 -20.002  29.190  1.00  0.00     0.039 C 
ATOM      9  C   UNL     1     -13.129 -18.101  31.454  1.00  0.00     0.159 C 
ATOM     10  O   UNL     1     -12.718 -19.216  31.872  1.00  0.00    -0.295 OA
ATOM     11  C   UNL     1     -13.911 -17.224  32.390  1.00  0.00     0.084 C 
ENDROOT
TORSDOF 0
ENDMDL
MODEL 4
REMARK VINA RESULT:    -5.605      1.828      4.061
REMARK INTER + INTRA:          -5.605
REMARK INTER:                  -5.605
REMARK INTRA:                   0.000
REMARK UNBOUND:                 0.000
REMARK SMILES CC(C)=C1CC[C@@H](C)CC1=O
REMARK SMILES IDX 8 1 7 2 6 3 5 4 4 5 2 6 1 7 3 8 10 9 11 10 9 11
REMARK H PARENT
REMARK Flexibility Score: inf
ROOT
ATOM      1  C   UNL     1     -11.013 -17.274  26.137  1.00  0.00     0.008 C 
ATOM      2  C   UNL     1     -12.030 -17.175  27.279  1.00  0.00    -0.006 C 
ATOM      3  C   UNL     1     -11.880 -15.839  28.024  1.00  0.00     0.008 C 
ATOM      4  C   UNL     1     -12.956 -15.678  29.105  1.00  0.00     0.039 C 
ATOM      5  C   UNL     1     -13.018 -16.870  30.050  1.00  0.00    -0.006 C 
ATOM      6  C   UNL     1     -13.373 -16.720  31.360  1.00  0.00    -0.070 C 
ATOM      7  C   UNL     1     -13.738 -15.365  31.922  1.00  0.00     0.039 C 
ATOM      8  C   UNL     1     -13.382 -17.887  32.321  1.00  0.00     0.039 C 
ATOM      9  C   UNL     1     -12.783 -18.210  29.432  1.00  0.00     0.159 C 
ATOM     10  O   UNL     1     -13.353 -19.243  29.872  1.00  0.00    -0.295 OA
ATOM     11  C   UNL     1     -11.854 -18.344  28.259  1.00  0.00     0.084 C 
ENDROOT
TORSDOF 0
ENDMDL
MODEL 5
REMARK VINA RESULT:    -5.462      1.688      2.515
REMARK INTER + INTRA:          -5.462
REMARK INTER:                  -5.462
REMARK INTRA:                   0.000
REMARK UNBOUND:                 0.000
REMARK SMILES CC(C)=C1CC[C@@H](C)CC1=O
REMARK SMILES IDX 8 1 7 2 6 3 5 4 4 5 2 6 1 7 3 8 10 9 11 10 9 11
REMARK H PARENT
REMARK Flexibility Score: inf
ROOT
ATOM      1  C   UNL     1     -11.897 -19.643  31.797  1.00  0.00     0.008 C 
ATOM      2  C   UNL     1     -11.858 -18.483  30.795  1.00  0.00    -0.006 C 
ATOM      3  C   UNL     1     -12.864 -17.392  31.189  1.00  0.00     0.008 C 
ATOM      4  C   UNL     1     -12.766 -16.178  30.256  1.00  0.00     0.039 C 
ATOM      5  C   UNL     1     -12.868 -16.562  28.786  1.00  0.00    -0.006 C 
ATOM      6  C   UNL     1     -13.429 -15.720  27.869  1.00  0.00    -0.070 C 
ATOM      7  C   UNL     1     -13.957 -14.363  28.272  1.00  0.00     0.039 C 
ATOM      8  C   UNL     1     -13.586 -16.114  26.418  1.00  0.00     0.039 C 
ATOM      9  C   UNL     1     -12.217 -17.850  28.398  1.00  0.00     0.159 C 
ATOM     10  O   UNL     1     -11.702 -18.007  27.259  1.00  0.00    -0.295 OA
ATOM     11  C   UNL     1     -12.161 -18.989  29.376  1.00  0.00     0.084 C 
ENDROOT
TORSDOF 0
ENDMDL
MODEL 6
REMARK VINA RESULT:    -5.453      2.412      4.089
REMARK INTER + INTRA:          -5.453
REMARK INTER:                  -5.453
REMARK INTRA:                   0.000
REMARK UNBOUND:                 0.000
REMARK SMILES CC(C)=C1CC[C@@H](C)CC1=O
REMARK SMILES IDX 8 1 7 2 6 3 5 4 4 5 2 6 1 7 3 8 10 9 11 10 9 11
REMARK H PARENT
REMARK Flexibility Score: inf
ROOT
ATOM      1  C   UNL     1     -11.177 -17.250  26.004  1.00  0.00     0.008 C 
ATOM      2  C   UNL     1     -11.634 -17.432  27.456  1.00  0.00    -0.006 C 
ATOM      3  C   UNL     1     -12.664 -16.358  27.839  1.00  0.00     0.008 C 
ATOM      4  C   UNL     1     -13.208 -16.586  29.254  1.00  0.00     0.039 C 
ATOM      5  C   UNL     1     -12.102 -16.729  30.290  1.00  0.00    -0.006 C 
ATOM      6  C   UNL     1     -12.276 -16.310  31.578  1.00  0.00    -0.070 C 
ATOM      7  C   UNL     1     -13.582 -15.702  32.034  1.00  0.00     0.039 C 
ATOM      8  C   UNL     1     -11.165 -16.394  32.600  1.00  0.00     0.039 C 
ATOM      9  C   UNL     1     -10.875 -17.454  29.842  1.00  0.00     0.159 C 
ATOM     10  O   UNL     1     -10.195 -18.148  30.645  1.00  0.00    -0.295 OA
ATOM     11  C   UNL     1     -10.432 -17.369  28.410  1.00  0.00     0.084 C 
ENDROOT
TORSDOF 0
ENDMDL
MODEL 7
REMARK VINA RESULT:    -5.401      1.638      4.213
REMARK INTER + INTRA:          -5.401
REMARK INTER:                  -5.401
REMARK INTRA:                   0.000
REMARK UNBOUND:                 0.000
REMARK SMILES CC(C)=C1CC[C@@H](C)CC1=O
REMARK SMILES IDX 8 1 7 2 6 3 5 4 4 5 2 6 1 7 3 8 10 9 11 10 9 11
REMARK H PARENT
REMARK Flexibility Score: inf
ROOT
ATOM      1  C   UNL     1     -13.536 -16.327  26.524  1.00  0.00     0.008 C 
ATOM      2  C   UNL     1     -12.727 -17.237  27.455  1.00  0.00    -0.006 C 
ATOM      3  C   UNL     1     -13.651 -18.220  28.190  1.00  0.00     0.008 C 
ATOM      4  C   UNL     1     -12.849 -19.205  29.049  1.00  0.00     0.039 C 
ATOM      5  C   UNL     1     -11.877 -18.504  29.988  1.00  0.00    -0.006 C 
ATOM      6  C   UNL     1     -11.560 -19.034  31.206  1.00  0.00    -0.070 C 
ATOM      7  C   UNL     1     -12.147 -20.349  31.666  1.00  0.00     0.039 C 
ATOM      8  C   UNL     1     -10.641 -18.319  32.170  1.00  0.00     0.039 C 
ATOM      9  C   UNL     1     -11.213 -17.280  29.450  1.00  0.00     0.159 C 
ATOM     10  O   UNL     1     -10.043 -16.964  29.795  1.00  0.00    -0.295 OA
ATOM     11  C   UNL     1     -11.937 -16.399  28.472  1.00  0.00     0.084 C 
ENDROOT
TORSDOF 0
ENDMDL
MODEL 8
REMARK VINA RESULT:    -5.305      1.618      2.496
REMARK INTER + INTRA:          -5.305
REMARK INTER:                  -5.305
REMARK INTRA:                   0.000
REMARK UNBOUND:                 0.000
REMARK SMILES CC(C)=C1CC[C@@H](C)CC1=O
REMARK SMILES IDX 8 1 7 2 6 3 5 4 4 5 2 6 1 7 3 8 10 9 11 10 9 11
REMARK H PARENT
REMARK Flexibility Score: inf
ROOT
ATOM      1  C   UNL     1     -12.142 -20.868  31.606  1.00  0.00     0.008 C 
ATOM      2  C   UNL     1     -12.091 -19.347  31.417  1.00  0.00    -0.006 C 
ATOM      3  C   UNL     1     -13.344 -18.685  32.009  1.00  0.00     0.008 C 
ATOM      4  C   UNL     1     -13.263 -17.156  31.920  1.00  0.00     0.039 C 
ATOM      5  C   UNL     1     -12.955 -16.668  30.511  1.00  0.00    -0.006 C 
ATOM      6  C   UNL     1     -13.438 -15.477  30.050  1.00  0.00    -0.070 C 
ATOM      7  C   UNL     1     -14.286 -14.584  30.926  1.00  0.00     0.039 C 
ATOM      8  C   UNL     1     -13.186 -15.010  28.634  1.00  0.00     0.039 C 
ATOM      9  C   UNL     1     -12.006 -17.508  29.719  1.00  0.00     0.159 C 
ATOM     10  O   UNL     1     -11.226 -16.995  28.874  1.00  0.00    -0.295 OA
ATOM     11  C   UNL     1     -11.964 -18.995  29.927  1.00  0.00     0.084 C 
ENDROOT
TORSDOF 0
ENDMDL
MODEL 9
REMARK VINA RESULT:    -5.190      2.241      3.714
REMARK INTER + INTRA:          -5.190
REMARK INTER:                  -5.190
REMARK INTRA:                   0.000
REMARK UNBOUND:                 0.000
REMARK SMILES CC(C)=C1CC[C@@H](C)CC1=O
REMARK SMILES IDX 8 1 7 2 6 3 5 4 4 5 2 6 1 7 3 8 10 9 11 10 9 11
REMARK H PARENT
REMARK Flexibility Score: inf
ROOT
ATOM      1  C   UNL     1     -14.000 -20.393  28.606  1.00  0.00     0.008 C 
ATOM      2  C   UNL     1     -12.727 -19.818  29.239  1.00  0.00    -0.006 C 
ATOM      3  C   UNL     1     -12.876 -19.723  30.765  1.00  0.00     0.008 C 
ATOM      4  C   UNL     1     -11.576 -19.246  31.425  1.00  0.00     0.039 C 
ATOM      5  C   UNL     1     -11.047 -17.958  30.809  1.00  0.00    -0.006 C 
ATOM      6  C   UNL     1     -10.358 -17.045  31.554  1.00  0.00    -0.070 C 
ATOM      7  C   UNL     1     -10.077 -17.282  33.020  1.00  0.00     0.039 C 
ATOM      8  C   UNL     1      -9.878 -15.737  30.967  1.00  0.00     0.039 C 
ATOM      9  C   UNL     1     -11.224 -17.817  29.332  1.00  0.00     0.159 C 
ATOM     10  O   UNL     1     -10.387 -17.191  28.629  1.00  0.00    -0.295 OA
ATOM     11  C   UNL     1     -12.415 -18.432  28.655  1.00  0.00     0.084 C 
ENDROOT
TORSDOF 0
ENDMDL
