MODEL 1
REMARK VINA RESULT:    -4.878      0.000      0.000
REMARK INTER + INTRA:          -6.617
REMARK INTER:                  -6.304
REMARK INTRA:                  -0.313
REMARK UNBOUND:                -0.313
REMARK SMILES CO[C@]1(CO)O[C@H](CO)[C@@H](O)[C@@H]1O
REMARK SMILES IDX 3 1 12 2 10 3 7 4 6 5 2 6 1 7 4 8 5 9 13 11 11 13 8 15 9 16
REMARK H PARENT 5 10 13 12 11 14 9 17
REMARK Flexibility Score: inf
ROOT
ATOM      1  C   UNL     1     234.250 240.475 241.020  1.00  0.00     0.221 C 
ATOM      2  C   UNL     1     233.325 241.711 241.034  1.00  0.00     0.207 C 
ATOM      3  C   UNL     1     232.999 241.853 242.492  1.00  0.00     0.180 C 
ATOM      4  C   UNL     1     234.273 241.343 243.149  1.00  0.00     0.179 C 
ATOM      5  O   UNL     1     234.906 240.432 242.274  1.00  0.00    -0.337 OA
ENDROOT
BRANCH   1   6
ATOM      6  O   UNL     1     233.481 239.271 240.933  1.00  0.00    -0.349 OA
ATOM      7  C   UNL     1     233.838 238.407 239.870  1.00  0.00     0.198 C 
ENDBRANCH   1   6
BRANCH   1   8
ATOM      8  C   UNL     1     235.360 240.611 239.939  1.00  0.00     0.224 C 
BRANCH   8   9
ATOM      9  O   UNL     1     236.625 240.646 240.544  1.00  0.00    -0.391 OA
ATOM     10  H   UNL     1     236.882 239.700 240.699  1.00  0.00     0.210 HD
ENDBRANCH   8   9
ENDBRANCH   1   8
BRANCH   2  11
ATOM     11  O   UNL     1     232.149 241.529 240.288  1.00  0.00    -0.385 OA
ATOM     12  H   UNL     1     232.147 240.584 239.986  1.00  0.00     0.211 HD
ENDBRANCH   2  11
BRANCH   3  13
ATOM     13  O   UNL     1     232.756 243.191 242.840  1.00  0.00    -0.387 OA
ATOM     14  H   UNL     1     232.827 243.716 242.001  1.00  0.00     0.211 HD
ENDBRANCH   3  13
BRANCH   4  15
ATOM     15  C   UNL     1     233.991 240.667 244.496  1.00  0.00     0.191 C 
BRANCH  15  16
ATOM     16  O   UNL     1     233.803 241.631 245.497  1.00  0.00    -0.394 OA
ATOM     17  H   UNL     1     233.249 241.205 246.202  1.00  0.00     0.210 HD
ENDBRANCH  15  16
ENDBRANCH   4  15
TORSDOF 7
ENDMDL
MODEL 2
REMARK VINA RESULT:    -4.834      2.584      3.766
REMARK INTER + INTRA:          -6.561
REMARK INTER:                  -6.153
REMARK INTRA:                  -0.407
REMARK UNBOUND:                -0.313
REMARK SMILES CO[C@]1(CO)O[C@H](CO)[C@@H](O)[C@@H]1O
REMARK SMILES IDX 3 1 12 2 10 3 7 4 6 5 2 6 1 7 4 8 5 9 13 11 11 13 8 15 9 16
REMARK H PARENT 5 10 13 12 11 14 9 17
REMARK Flexibility Score: inf
ROOT
ATOM      1  C   UNL     1     233.846 238.579 238.722  1.00  0.00     0.221 C 
ATOM      2  C   UNL     1     232.523 239.211 239.205  1.00  0.00     0.207 C 
ATOM      3  C   UNL     1     232.988 240.150 240.280  1.00  0.00     0.180 C 
ATOM      4  C   UNL     1     234.357 240.564 239.762  1.00  0.00     0.179 C 
ATOM      5  O   UNL     1     234.868 239.534 238.943  1.00  0.00    -0.337 OA
ENDROOT
BRANCH   1   6
ATOM      6  O   UNL     1     234.185 237.443 239.524  1.00  0.00    -0.349 OA
ATOM      7  C   UNL     1     235.535 237.025 239.432  1.00  0.00     0.198 C 
ENDBRANCH   1   6
BRANCH   1   8
ATOM      8  C   UNL     1     233.815 238.302 237.192  1.00  0.00     0.224 C 
BRANCH   8   9
ATOM      9  O   UNL     1     232.492 238.299 236.726  1.00  0.00    -0.391 OA
ATOM     10  H   UNL     1     231.915 238.319 237.534  1.00  0.00     0.210 HD
ENDBRANCH   8   9
ENDBRANCH   1   8
BRANCH   2  11
ATOM     11  O   UNL     1     231.624 238.271 239.735  1.00  0.00    -0.385 OA
ATOM     12  H   UNL     1     231.117 237.897 238.969  1.00  0.00     0.211 HD
ENDBRANCH   2  11
BRANCH   3  13
ATOM     13  O   UNL     1     232.138 241.261 240.399  1.00  0.00    -0.387 OA
ATOM     14  H   UNL     1     231.435 241.151 239.709  1.00  0.00     0.211 HD
ENDBRANCH   3  13
BRANCH   4  15
ATOM     15  C   UNL     1     235.336 240.859 240.907  1.00  0.00     0.191 C 
BRANCH  15  16
ATOM     16  O   UNL     1     236.653 240.600 240.502  1.00  0.00    -0.394 OA
ATOM     17  H   UNL     1     237.245 240.992 241.195  1.00  0.00     0.210 HD
ENDBRANCH  15  16
ENDBRANCH   4  15
TORSDOF 7
ENDMDL
MODEL 3
REMARK VINA RESULT:    -4.829      1.909      4.156
REMARK INTER + INTRA:          -6.553
REMARK INTER:                  -6.076
REMARK INTRA:                  -0.477
REMARK UNBOUND:                -0.313
REMARK SMILES CO[C@]1(CO)O[C@H](CO)[C@@H](O)[C@@H]1O
REMARK SMILES IDX 3 1 12 2 10 3 7 4 6 5 2 6 1 7 4 8 5 9 13 11 11 13 8 15 9 16
REMARK H PARENT 5 10 13 12 11 14 9 17
REMARK Flexibility Score: inf
ROOT
ATOM      1  C   UNL     1     232.872 240.043 240.864  1.00  0.00     0.221 C 
ATOM      2  C   UNL     1     232.492 240.222 239.378  1.00  0.00     0.207 C 
ATOM      3  C   UNL     1     233.834 240.338 238.715  1.00  0.00     0.180 C 
ATOM      4  C   UNL     1     234.698 239.451 239.599  1.00  0.00     0.179 C 
ATOM      5  O   UNL     1     234.141 239.417 240.896  1.00  0.00    -0.337 OA
ENDROOT
BRANCH   1   6
ATOM      6  O   UNL     1     233.040 241.316 241.498  1.00  0.00    -0.349 OA
ATOM      7  C   UNL     1     233.565 241.266 242.812  1.00  0.00     0.198 C 
ENDBRANCH   1   6
BRANCH   1   8
ATOM      8  C   UNL     1     231.883 239.088 241.589  1.00  0.00     0.224 C 
BRANCH   8   9
ATOM      9  O   UNL     1     230.773 238.825 240.771  1.00  0.00    -0.391 OA
ATOM     10  H   UNL     1     230.108 238.366 241.348  1.00  0.00     0.210 HD
ENDBRANCH   8   9
ENDBRANCH   1   8
BRANCH   2  11
ATOM     11  O   UNL     1     231.730 241.377 239.138  1.00  0.00    -0.385 OA
ATOM     12  H   UNL     1     231.448 241.722 240.025  1.00  0.00     0.211 HD
ENDBRANCH   2  11
BRANCH   3  13
ATOM     13  O   UNL     1     233.803 239.856 237.397  1.00  0.00    -0.387 OA
ATOM     14  H   UNL     1     234.737 239.615 237.165  1.00  0.00     0.211 HD
ENDBRANCH   3  13
BRANCH   4  15
ATOM     15  C   UNL     1     236.148 239.946 239.662  1.00  0.00     0.191 C 
BRANCH  15  16
ATOM     16  O   UNL     1     236.243 241.076 240.487  1.00  0.00    -0.394 OA
ATOM     17  H   UNL     1     235.313 241.350 240.701  1.00  0.00     0.210 HD
ENDBRANCH  15  16
ENDBRANCH   4  15
TORSDOF 7
ENDMDL
MODEL 4
REMARK VINA RESULT:    -4.597      2.641      3.223
REMARK INTER + INTRA:          -6.253
REMARK INTER:                  -5.827
REMARK INTRA:                  -0.426
REMARK UNBOUND:                -0.313
REMARK SMILES CO[C@]1(CO)O[C@H](CO)[C@@H](O)[C@@H]1O
REMARK SMILES IDX 3 1 12 2 10 3 7 4 6 5 2 6 1 7 4 8 5 9 13 11 11 13 8 15 9 16
REMARK H PARENT 5 10 13 12 11 14 9 17
REMARK Flexibility Score: inf
ROOT
ATOM      1  C   UNL     1     234.820 239.282 239.482  1.00  0.00     0.221 C 
ATOM      2  C   UNL     1     233.974 240.292 238.677  1.00  0.00     0.207 C 
ATOM      3  C   UNL     1     232.637 240.203 239.352  1.00  0.00     0.180 C 
ATOM      4  C   UNL     1     233.032 239.897 240.789  1.00  0.00     0.179 C 
ATOM      5  O   UNL     1     234.281 239.238 240.790  1.00  0.00    -0.337 OA
ENDROOT
BRANCH   1   6
ATOM      6  O   UNL     1     234.673 237.962 238.947  1.00  0.00    -0.349 OA
ATOM      7  C   UNL     1     235.069 236.916 239.815  1.00  0.00     0.198 C 
ENDBRANCH   1   6
BRANCH   1   8
ATOM      8  C   UNL     1     236.292 239.762 239.621  1.00  0.00     0.224 C 
BRANCH   8   9
ATOM      9  O   UNL     1     236.353 240.923 240.406  1.00  0.00    -0.391 OA
ATOM     10  H   UNL     1     235.559 240.895 241.002  1.00  0.00     0.210 HD
ENDBRANCH   8   9
ENDBRANCH   1   8
BRANCH   2  11
ATOM     11  O   UNL     1     233.857 239.955 237.319  1.00  0.00    -0.385 OA
ATOM     12  H   UNL     1     234.017 238.978 237.253  1.00  0.00     0.211 HD
ENDBRANCH   2  11
BRANCH   3  13
ATOM     13  O   UNL     1     231.934 241.415 239.272  1.00  0.00    -0.387 OA
ATOM     14  H   UNL     1     231.664 241.520 238.323  1.00  0.00     0.211 HD
ENDBRANCH   3  13
BRANCH   4  15
ATOM     15  C   UNL     1     231.981 239.033 241.500  1.00  0.00     0.191 C 
BRANCH  15  16
ATOM     16  O   UNL     1     230.768 239.065 240.799  1.00  0.00    -0.394 OA
ATOM     17  H   UNL     1     230.863 239.760 240.097  1.00  0.00     0.210 HD
ENDBRANCH  15  16
ENDBRANCH   4  15
TORSDOF 7
ENDMDL
MODEL 5
REMARK VINA RESULT:    -4.592      2.435      3.906
REMARK INTER + INTRA:          -6.247
REMARK INTER:                  -5.792
REMARK INTRA:                  -0.455
REMARK UNBOUND:                -0.313
REMARK SMILES CO[C@]1(CO)O[C@H](CO)[C@@H](O)[C@@H]1O
REMARK SMILES IDX 3 1 12 2 10 3 7 4 6 5 2 6 1 7 4 8 5 9 13 11 11 13 8 15 9 16
REMARK H PARENT 5 10 13 12 11 14 9 17
REMARK Flexibility Score: inf
ROOT
ATOM      1  C   UNL     1     233.779 239.249 238.669  1.00  0.00     0.221 C 
ATOM      2  C   UNL     1     232.690 238.447 239.415  1.00  0.00     0.207 C 
ATOM      3  C   UNL     1     232.225 239.426 240.454  1.00  0.00     0.180 C 
ATOM      4  C   UNL     1     232.409 240.755 239.737  1.00  0.00     0.179 C 
ATOM      5  O   UNL     1     233.433 240.617 238.774  1.00  0.00    -0.337 OA
ENDROOT
BRANCH   1   6
ATOM      6  O   UNL     1     235.045 239.108 239.323  1.00  0.00    -0.349 OA
ATOM      7  C   UNL     1     235.968 240.152 239.074  1.00  0.00     0.198 C 
ENDBRANCH   1   6
BRANCH   1   8
ATOM      8  C   UNL     1     233.794 238.905 237.153  1.00  0.00     0.224 C 
BRANCH   8   9
ATOM      9  O   UNL     1     232.566 238.348 236.768  1.00  0.00    -0.391 OA
ATOM     10  H   UNL     1     232.782 237.616 236.133  1.00  0.00     0.210 HD
ENDBRANCH   8   9
ENDBRANCH   1   8
BRANCH   2  11
ATOM     11  O   UNL     1     233.182 237.284 240.028  1.00  0.00    -0.385 OA
ATOM     12  H   UNL     1     232.880 237.310 240.973  1.00  0.00     0.211 HD
ENDBRANCH   2  11
BRANCH   3  13
ATOM     13  O   UNL     1     230.878 239.221 240.793  1.00  0.00    -0.387 OA
ATOM     14  H   UNL     1     230.865 238.485 241.458  1.00  0.00     0.211 HD
ENDBRANCH   3  13
BRANCH   4  15
ATOM     15  C   UNL     1     232.754 241.888 240.712  1.00  0.00     0.191 C 
BRANCH  15  16
ATOM     16  O   UNL     1     232.301 241.577 242.002  1.00  0.00    -0.394 OA
ATOM     17  H   UNL     1     231.898 240.671 241.951  1.00  0.00     0.210 HD
ENDBRANCH  15  16
ENDBRANCH   4  15
TORSDOF 7
ENDMDL
MODEL 6
REMARK VINA RESULT:    -4.553      1.433      2.978
REMARK INTER + INTRA:          -6.196
REMARK INTER:                  -5.827
REMARK INTRA:                  -0.369
REMARK UNBOUND:                -0.313
REMARK SMILES CO[C@]1(CO)O[C@H](CO)[C@@H](O)[C@@H]1O
REMARK SMILES IDX 3 1 12 2 10 3 7 4 6 5 2 6 1 7 4 8 5 9 13 11 11 13 8 15 9 16
REMARK H PARENT 5 10 13 12 11 14 9 17
REMARK Flexibility Score: inf
ROOT
ATOM      1  C   UNL     1     234.025 239.839 240.257  1.00  0.00     0.221 C 
ATOM      2  C   UNL     1     235.189 239.971 241.263  1.00  0.00     0.207 C 
ATOM      3  C   UNL     1     234.796 241.185 242.053  1.00  0.00     0.180 C 
ATOM      4  C   UNL     1     233.277 241.094 242.032  1.00  0.00     0.179 C 
ATOM      5  O   UNL     1     232.877 240.390 240.875  1.00  0.00    -0.337 OA
ENDROOT
BRANCH   1   6
ATOM      6  O   UNL     1     234.272 240.637 239.093  1.00  0.00    -0.349 OA
ATOM      7  C   UNL     1     234.234 239.933 237.865  1.00  0.00     0.198 C 
ENDBRANCH   1   6
BRANCH   1   8
ATOM      8  C   UNL     1     233.702 238.348 239.959  1.00  0.00     0.224 C 
BRANCH   8   9
ATOM      9  O   UNL     1     232.377 238.057 240.318  1.00  0.00    -0.391 OA
ATOM     10  H   UNL     1     232.098 238.774 240.946  1.00  0.00     0.210 HD
ENDBRANCH   8   9
ENDBRANCH   1   8
BRANCH   2  11
ATOM     11  O   UNL     1     236.433 240.175 240.644  1.00  0.00    -0.385 OA
ATOM     12  H   UNL     1     236.729 239.293 240.299  1.00  0.00     0.211 HD
ENDBRANCH   2  11
BRANCH   3  13
ATOM     13  O   UNL     1     235.284 241.128 243.368  1.00  0.00    -0.387 OA
ATOM     14  H   UNL     1     236.181 241.551 243.352  1.00  0.00     0.211 HD
ENDBRANCH   3  13
BRANCH   4  15
ATOM     15  C   UNL     1     232.620 242.480 242.057  1.00  0.00     0.191 C 
BRANCH  15  16
ATOM     16  O   UNL     1     232.885 243.124 243.274  1.00  0.00    -0.394 OA
ATOM     17  H   UNL     1     233.066 244.076 243.058  1.00  0.00     0.210 HD
ENDBRANCH  15  16
ENDBRANCH   4  15
TORSDOF 7
ENDMDL
MODEL 7
REMARK VINA RESULT:    -4.498      1.551      4.220
REMARK INTER + INTRA:          -6.126
REMARK INTER:                  -5.610
REMARK INTRA:                  -0.516
REMARK UNBOUND:                -0.313
REMARK SMILES CO[C@]1(CO)O[C@H](CO)[C@@H](O)[C@@H]1O
REMARK SMILES IDX 3 1 12 2 10 3 7 4 6 5 2 6 1 7 4 8 5 9 13 11 11 13 8 15 9 16
REMARK H PARENT 5 10 13 12 11 14 9 17
REMARK Flexibility Score: inf
ROOT
ATOM      1  C   UNL     1     233.394 240.912 241.302  1.00  0.00     0.221 C 
ATOM      2  C   UNL     1     234.897 240.996 241.647  1.00  0.00     0.207 C 
ATOM      3  C   UNL     1     235.519 240.142 240.581  1.00  0.00     0.180 C 
ATOM      4  C   UNL     1     234.578 240.370 239.408  1.00  0.00     0.179 C 
ATOM      5  O   UNL     1     233.299 240.703 239.905  1.00  0.00    -0.337 OA
ENDROOT
BRANCH   1   6
ATOM      6  O   UNL     1     232.798 239.764 241.917  1.00  0.00    -0.349 OA
ATOM      7  C   UNL     1     231.771 239.146 241.164  1.00  0.00     0.198 C 
ENDBRANCH   1   6
BRANCH   1   8
ATOM      8  C   UNL     1     232.669 242.254 241.604  1.00  0.00     0.224 C 
BRANCH   8   9
ATOM      9  O   UNL     1     232.792 242.578 242.963  1.00  0.00    -0.391 OA
ATOM     10  H   UNL     1     233.638 242.159 243.271  1.00  0.00     0.210 HD
ENDBRANCH   8   9
ENDBRANCH   1   8
BRANCH   2  11
ATOM     11  O   UNL     1     235.200 240.484 242.919  1.00  0.00    -0.385 OA
ATOM     12  H   UNL     1     234.561 240.900 243.554  1.00  0.00     0.211 HD
ENDBRANCH   2  11
BRANCH   3  13
ATOM     13  O   UNL     1     236.821 240.568 240.271  1.00  0.00    -0.387 OA
ATOM     14  H   UNL     1     236.814 240.810 239.309  1.00  0.00     0.211 HD
ENDBRANCH   3  13
BRANCH   4  15
ATOM     15  C   UNL     1     234.484 239.136 238.501  1.00  0.00     0.191 C 
BRANCH  15  16
ATOM     16  O   UNL     1     235.552 238.263 238.753  1.00  0.00    -0.394 OA
ATOM     17  H   UNL     1     236.383 238.756 238.524  1.00  0.00     0.210 HD
ENDBRANCH  15  16
ENDBRANCH   4  15
TORSDOF 7
ENDMDL
MODEL 8
REMARK VINA RESULT:    -4.354      2.273      3.766
REMARK INTER + INTRA:          -5.940
REMARK INTER:                  -5.354
REMARK INTRA:                  -0.587
REMARK UNBOUND:                -0.313
REMARK SMILES CO[C@]1(CO)O[C@H](CO)[C@@H](O)[C@@H]1O
REMARK SMILES IDX 3 1 12 2 10 3 7 4 6 5 2 6 1 7 4 8 5 9 13 11 11 13 8 15 9 16
REMARK H PARENT 5 10 13 12 11 14 9 17
REMARK Flexibility Score: inf
ROOT
ATOM      1  C   UNL     1     235.771 238.696 239.954  1.00  0.00     0.221 C 
ATOM      2  C   UNL     1     235.638 240.015 240.747  1.00  0.00     0.207 C 
ATOM      3  C   UNL     1     234.203 240.389 240.509  1.00  0.00     0.180 C 
ATOM      4  C   UNL     1     233.539 239.026 240.394  1.00  0.00     0.179 C 
ATOM      5  O   UNL     1     234.492 238.088 239.940  1.00  0.00    -0.337 OA
ENDROOT
BRANCH   1   6
ATOM      6  O   UNL     1     236.100 238.961 238.586  1.00  0.00    -0.349 OA
ATOM      7  C   UNL     1     235.851 237.892 237.692  1.00  0.00     0.198 C 
ENDBRANCH   1   6
BRANCH   1   8
ATOM      8  C   UNL     1     236.731 237.703 240.667  1.00  0.00     0.224 C 
BRANCH   8   9
ATOM      9  O   UNL     1     237.589 238.395 241.535  1.00  0.00    -0.391 OA
ATOM     10  H   UNL     1     238.346 238.714 240.977  1.00  0.00     0.210 HD
ENDBRANCH   8   9
ENDBRANCH   1   8
BRANCH   2  11
ATOM     11  O   UNL     1     236.489 241.029 240.279  1.00  0.00    -0.385 OA
ATOM     12  H   UNL     1     235.995 241.509 239.565  1.00  0.00     0.211 HD
ENDBRANCH   2  11
BRANCH   3  13
ATOM     13  O   UNL     1     233.673 241.117 241.586  1.00  0.00    -0.387 OA
ATOM     14  H   UNL     1     233.630 242.063 241.291  1.00  0.00     0.211 HD
ENDBRANCH   3  13
BRANCH   4  15
ATOM     15  C   UNL     1     232.336 239.054 239.442  1.00  0.00     0.191 C 
BRANCH  15  16
ATOM     16  O   UNL     1     231.588 240.224 239.634  1.00  0.00    -0.394 OA
ATOM     17  H   UNL     1     230.642 239.991 239.445  1.00  0.00     0.210 HD
ENDBRANCH  15  16
ENDBRANCH   4  15
TORSDOF 7
ENDMDL
MODEL 9
REMARK VINA RESULT:    -4.339      9.401     11.088
REMARK INTER + INTRA:          -5.920
REMARK INTER:                  -5.378
REMARK INTRA:                  -0.542
REMARK UNBOUND:                -0.313
REMARK SMILES CO[C@]1(CO)O[C@H](CO)[C@@H](O)[C@@H]1O
REMARK SMILES IDX 3 1 12 2 10 3 7 4 6 5 2 6 1 7 4 8 5 9 13 11 11 13 8 15 9 16
REMARK H PARENT 5 10 13 12 11 14 9 17
REMARK Flexibility Score: inf
ROOT
ATOM      1  C   UNL     1     235.759 238.902 230.591  1.00  0.00     0.221 C 
ATOM      2  C   UNL     1     234.248 238.941 230.270  1.00  0.00     0.207 C 
ATOM      3  C   UNL     1     233.628 238.670 231.610  1.00  0.00     0.180 C 
ATOM      4  C   UNL     1     234.636 239.306 232.556  1.00  0.00     0.179 C 
ATOM      5  O   UNL     1     235.907 239.300 231.941  1.00  0.00    -0.337 OA
ENDROOT
BRANCH   1   6
ATOM      6  O   UNL     1     236.255 237.561 230.515  1.00  0.00    -0.349 OA
ATOM      7  C   UNL     1     237.322 237.368 229.604  1.00  0.00     0.198 C 
ENDBRANCH   1   6
BRANCH   1   8
ATOM      8  C   UNL     1     236.546 239.931 229.731  1.00  0.00     0.224 C 
BRANCH   8   9
ATOM      9  O   UNL     1     235.706 240.495 228.759  1.00  0.00    -0.391 OA
ATOM     10  H   UNL     1     235.552 241.435 229.040  1.00  0.00     0.210 HD
ENDBRANCH   8   9
ENDBRANCH   1   8
BRANCH   2  11
ATOM     11  O   UNL     1     233.855 237.961 229.345  1.00  0.00    -0.385 OA
ATOM     12  H   UNL     1     234.666 237.714 228.829  1.00  0.00     0.211 HD
ENDBRANCH   2  11
BRANCH   3  13
ATOM     13  O   UNL     1     232.371 239.282 231.731  1.00  0.00    -0.387 OA
ATOM     14  H   UNL     1     231.772 238.824 231.087  1.00  0.00     0.211 HD
ENDBRANCH   3  13
BRANCH   4  15
ATOM     15  C   UNL     1     234.700 238.571 233.901  1.00  0.00     0.191 C 
BRANCH  15  16
ATOM     16  O   UNL     1     233.429 238.520 234.491  1.00  0.00    -0.394 OA
ATOM     17  H   UNL     1     233.035 239.427 234.395  1.00  0.00     0.210 HD
ENDBRANCH  15  16
ENDBRANCH   4  15
TORSDOF 7
ENDMDL
