MODEL 1
REMARK VINA RESULT:    -4.860      0.000      0.000
REMARK INTER + INTRA:          -5.444
REMARK INTER:                  -5.144
REMARK INTRA:                  -0.299
REMARK UNBOUND:                -0.299
REMARK SMILES C=C1CC[C@H](C(C)C)[C@H]2C=C(C)CC[C@@H]12
REMARK SMILES IDX 12 1 11 2 10 3 9 4 15 5 14 6 13 7 2 8 1 9 3 10 4 11 5 12
REMARK SMILES IDX 6 13 7 14 8 15
REMARK H PARENT
REMARK Flexibility Score: inf
ROOT
ATOM      1  C   UNL     1     135.624 130.954 131.879  1.00  0.00     0.039 C 
ATOM      2  C   UNL     1     135.460 132.238 132.644  1.00  0.00    -0.077 C 
ATOM      3  C   UNL     1     135.423 132.198 133.993  1.00  0.00    -0.024 C 
ATOM      4  C   UNL     1     135.299 133.435 134.876  1.00  0.00     0.022 C 
ATOM      5  C   UNL     1     134.700 134.646 134.090  1.00  0.00     0.022 C 
ATOM      6  C   UNL     1     135.443 134.763 132.742  1.00  0.00     0.013 C 
ATOM      7  C   UNL     1     135.235 133.519 131.876  1.00  0.00     0.031 C 
ATOM      8  C   UNL     1     133.171 134.582 133.998  1.00  0.00    -0.074 C 
ATOM      9  C   UNL     1     132.483 135.136 132.981  1.00  0.00     0.008 C 
ATOM     10  C   UNL     1     132.394 134.179 135.231  1.00  0.00     0.031 C 
ATOM     11  C   UNL     1     133.003 132.959 135.912  1.00  0.00     0.009 C 
ATOM     12  C   UNL     1     134.523 133.084 136.183  1.00  0.00    -0.001 C 
ENDROOT
BRANCH  12  13
ATOM     13  C   UNL     1     134.963 133.898 137.455  1.00  0.00    -0.014 C 
ATOM     14  C   UNL     1     134.096 133.724 138.711  1.00  0.00     0.007 C 
ATOM     15  C   UNL     1     136.446 133.692 137.805  1.00  0.00     0.007 C 
ENDBRANCH  12  13
TORSDOF 1
ENDMDL
MODEL 2
REMARK VINA RESULT:    -4.853      5.657      7.326
REMARK INTER + INTRA:          -5.436
REMARK INTER:                  -5.140
REMARK INTRA:                  -0.296
REMARK UNBOUND:                -0.299
REMARK SMILES C=C1CC[C@H](C(C)C)[C@H]2C=C(C)CC[C@@H]12
REMARK SMILES IDX 12 1 11 2 10 3 9 4 15 5 14 6 13 7 2 8 1 9 3 10 4 11 5 12
REMARK SMILES IDX 6 13 7 14 8 15
REMARK H PARENT
REMARK Flexibility Score: inf
ROOT
ATOM      1  C   UNL     1     137.015 141.627 131.879  1.00  0.00     0.039 C 
ATOM      2  C   UNL     1     137.175 140.348 132.653  1.00  0.00    -0.077 C 
ATOM      3  C   UNL     1     137.226 140.399 134.001  1.00  0.00    -0.024 C 
ATOM      4  C   UNL     1     137.348 139.168 134.893  1.00  0.00     0.022 C 
ATOM      5  C   UNL     1     137.928 137.945 134.112  1.00  0.00     0.022 C 
ATOM      6  C   UNL     1     137.171 137.824 132.772  1.00  0.00     0.013 C 
ATOM      7  C   UNL     1     137.381 139.058 131.893  1.00  0.00     0.031 C 
ATOM      8  C   UNL     1     139.457 137.995 134.004  1.00  0.00    -0.074 C 
ATOM      9  C   UNL     1     140.129 137.426 132.984  1.00  0.00     0.008 C 
ATOM     10  C   UNL     1     140.250 138.402 135.225  1.00  0.00     0.031 C 
ATOM     11  C   UNL     1     139.659 139.632 135.901  1.00  0.00     0.009 C 
ATOM     12  C   UNL     1     138.141 139.524 136.189  1.00  0.00    -0.001 C 
ENDROOT
BRANCH  12  13
ATOM     13  C   UNL     1     137.707 138.725 137.473  1.00  0.00    -0.014 C 
ATOM     14  C   UNL     1     138.650 138.811 138.682  1.00  0.00     0.007 C 
ATOM     15  C   UNL     1     136.265 139.038 137.905  1.00  0.00     0.007 C 
ENDBRANCH  12  13
TORSDOF 1
ENDMDL
MODEL 3
REMARK VINA RESULT:    -4.843      3.849      5.180
REMARK INTER + INTRA:          -5.425
REMARK INTER:                  -5.136
REMARK INTRA:                  -0.289
REMARK UNBOUND:                -0.299
REMARK SMILES C=C1CC[C@H](C(C)C)[C@H]2C=C(C)CC[C@@H]12
REMARK SMILES IDX 12 1 11 2 10 3 9 4 15 5 14 6 13 7 2 8 1 9 3 10 4 11 5 12
REMARK SMILES IDX 6 13 7 14 8 15
REMARK H PARENT
REMARK Flexibility Score: inf
ROOT
ATOM      1  C   UNL     1     141.626 135.648 131.875  1.00  0.00     0.039 C 
ATOM      2  C   UNL     1     140.349 135.472 132.648  1.00  0.00    -0.077 C 
ATOM      3  C   UNL     1     140.395 135.457 133.997  1.00  0.00    -0.024 C 
ATOM      4  C   UNL     1     139.164 135.324 134.887  1.00  0.00     0.022 C 
ATOM      5  C   UNL     1     137.961 134.690 134.116  1.00  0.00     0.022 C 
ATOM      6  C   UNL     1     137.825 135.409 132.757  1.00  0.00     0.013 C 
ATOM      7  C   UNL     1     139.069 135.211 131.889  1.00  0.00     0.031 C 
ATOM      8  C   UNL     1     138.054 133.161 134.048  1.00  0.00    -0.074 C 
ATOM      9  C   UNL     1     137.509 132.447 133.044  1.00  0.00     0.008 C 
ATOM     10  C   UNL     1     138.477 132.411 135.291  1.00  0.00     0.031 C 
ATOM     11  C   UNL     1     139.687 133.054 135.957  1.00  0.00     0.009 C 
ATOM     12  C   UNL     1     139.535 134.575 136.204  1.00  0.00    -0.001 C 
ENDROOT
BRANCH  12  13
ATOM     13  C   UNL     1     138.718 135.020 137.473  1.00  0.00    -0.014 C 
ATOM     14  C   UNL     1     138.716 134.046 138.661  1.00  0.00     0.007 C 
ATOM     15  C   UNL     1     139.091 136.433 137.951  1.00  0.00     0.007 C 
ENDBRANCH  12  13
TORSDOF 1
ENDMDL
MODEL 4
REMARK VINA RESULT:    -4.839      3.908      5.181
REMARK INTER + INTRA:          -5.422
REMARK INTER:                  -5.135
REMARK INTRA:                  -0.287
REMARK UNBOUND:                -0.299
REMARK SMILES C=C1CC[C@H](C(C)C)[C@H]2C=C(C)CC[C@@H]12
REMARK SMILES IDX 12 1 11 2 10 3 9 4 15 5 14 6 13 7 2 8 1 9 3 10 4 11 5 12
REMARK SMILES IDX 6 13 7 14 8 15
REMARK H PARENT
REMARK Flexibility Score: inf
ROOT
ATOM      1  C   UNL     1     131.042 136.921 131.880  1.00  0.00     0.039 C 
ATOM      2  C   UNL     1     132.318 137.141 132.644  1.00  0.00    -0.077 C 
ATOM      3  C   UNL     1     132.281 137.153 133.993  1.00  0.00    -0.024 C 
ATOM      4  C   UNL     1     133.514 137.328 134.874  1.00  0.00     0.022 C 
ATOM      5  C   UNL     1     134.688 138.004 134.095  1.00  0.00     0.022 C 
ATOM      6  C   UNL     1     134.839 137.291 132.734  1.00  0.00     0.013 C 
ATOM      7  C   UNL     1     133.582 137.447 131.875  1.00  0.00     0.031 C 
ATOM      8  C   UNL     1     134.541 139.529 134.029  1.00  0.00    -0.074 C 
ATOM      9  C   UNL     1     135.054 140.262 133.021  1.00  0.00     0.008 C 
ATOM     10  C   UNL     1     134.102 140.263 135.276  1.00  0.00     0.031 C 
ATOM     11  C   UNL     1     132.920 139.577 135.950  1.00  0.00     0.009 C 
ATOM     12  C   UNL     1     133.127 138.062 136.195  1.00  0.00    -0.001 C 
ENDROOT
BRANCH  12  13
ATOM     13  C   UNL     1     133.968 137.646 137.457  1.00  0.00    -0.014 C 
ATOM     14  C   UNL     1     133.963 138.629 138.637  1.00  0.00     0.007 C 
ATOM     15  C   UNL     1     133.633 136.229 137.950  1.00  0.00     0.007 C 
ENDBRANCH  12  13
TORSDOF 1
ENDMDL
MODEL 5
REMARK VINA RESULT:    -4.773      1.848      4.300
REMARK INTER + INTRA:          -5.352
REMARK INTER:                  -5.037
REMARK INTRA:                  -0.315
REMARK UNBOUND:                -0.299
REMARK SMILES C=C1CC[C@H](C(C)C)[C@H]2C=C(C)CC[C@@H]12
REMARK SMILES IDX 12 1 11 2 10 3 9 4 15 5 14 6 13 7 2 8 1 9 3 10 4 11 5 12
REMARK SMILES IDX 6 13 7 14 8 15
REMARK H PARENT
REMARK Flexibility Score: inf
ROOT
ATOM      1  C   UNL     1     132.965 135.260 138.510  1.00  0.00     0.039 C 
ATOM      2  C   UNL     1     133.584 134.401 137.443  1.00  0.00    -0.077 C 
ATOM      3  C   UNL     1     134.928 134.273 137.402  1.00  0.00    -0.024 C 
ATOM      4  C   UNL     1     135.667 133.400 136.393  1.00  0.00     0.022 C 
ATOM      5  C   UNL     1     134.792 133.113 135.130  1.00  0.00     0.022 C 
ATOM      6  C   UNL     1     133.388 132.680 135.603  1.00  0.00     0.013 C 
ATOM      7  C   UNL     1     132.691 133.794 136.387  1.00  0.00     0.031 C 
ATOM      8  C   UNL     1     134.823 134.269 134.124  1.00  0.00    -0.074 C 
ATOM      9  C   UNL     1     133.802 134.524 133.282  1.00  0.00     0.008 C 
ATOM     10  C   UNL     1     136.150 134.937 133.839  1.00  0.00     0.031 C 
ATOM     11  C   UNL     1     136.920 135.237 135.118  1.00  0.00     0.009 C 
ATOM     12  C   UNL     1     137.060 134.022 136.068  1.00  0.00    -0.001 C 
ENDROOT
BRANCH  12  13
ATOM     13  C   UNL     1     138.192 132.980 135.742  1.00  0.00    -0.014 C 
ATOM     14  C   UNL     1     139.633 133.420 136.040  1.00  0.00     0.007 C 
ATOM     15  C   UNL     1     137.923 131.600 136.364  1.00  0.00     0.007 C 
ENDBRANCH  12  13
TORSDOF 1
ENDMDL
MODEL 6
REMARK VINA RESULT:    -4.744      3.968      5.938
REMARK INTER + INTRA:          -5.321
REMARK INTER:                  -5.005
REMARK INTRA:                  -0.316
REMARK UNBOUND:                -0.299
REMARK SMILES C=C1CC[C@H](C(C)C)[C@H]2C=C(C)CC[C@@H]12
REMARK SMILES IDX 12 1 11 2 10 3 9 4 15 5 14 6 13 7 2 8 1 9 3 10 4 11 5 12
REMARK SMILES IDX 6 13 7 14 8 15
REMARK H PARENT
REMARK Flexibility Score: inf
ROOT
ATOM      1  C   UNL     1     137.232 133.004 138.703  1.00  0.00     0.039 C 
ATOM      2  C   UNL     1     138.093 133.585 137.615  1.00  0.00    -0.077 C 
ATOM      3  C   UNL     1     138.243 134.925 137.544  1.00  0.00    -0.024 C 
ATOM      4  C   UNL     1     139.120 135.626 136.512  1.00  0.00     0.022 C 
ATOM      5  C   UNL     1     139.382 134.719 135.267  1.00  0.00     0.022 C 
ATOM      6  C   UNL     1     139.795 133.318 135.767  1.00  0.00     0.013 C 
ATOM      7  C   UNL     1     138.676 132.658 136.575  1.00  0.00     0.031 C 
ATOM      8  C   UNL     1     138.218 134.748 134.270  1.00  0.00    -0.074 C 
ATOM      9  C   UNL     1     137.939 133.714 133.453  1.00  0.00     0.008 C 
ATOM     10  C   UNL     1     137.571 136.079 133.960  1.00  0.00     0.031 C 
ATOM     11  C   UNL     1     137.295 136.883 135.225  1.00  0.00     0.009 C 
ATOM     12  C   UNL     1     138.520 137.022 136.162  1.00  0.00    -0.001 C 
ENDROOT
BRANCH  12  13
ATOM     13  C   UNL     1     139.578 138.129 135.802  1.00  0.00    -0.014 C 
ATOM     14  C   UNL     1     139.160 139.584 136.059  1.00  0.00     0.007 C 
ATOM     15  C   UNL     1     140.955 137.857 136.431  1.00  0.00     0.007 C 
ENDBRANCH  12  13
TORSDOF 1
ENDMDL
MODEL 7
REMARK VINA RESULT:    -4.736      5.197      6.931
REMARK INTER + INTRA:          -5.313
REMARK INTER:                  -4.995
REMARK INTRA:                  -0.318
REMARK UNBOUND:                -0.299
REMARK SMILES C=C1CC[C@H](C(C)C)[C@H]2C=C(C)CC[C@@H]12
REMARK SMILES IDX 12 1 11 2 10 3 9 4 15 5 14 6 13 7 2 8 1 9 3 10 4 11 5 12
REMARK SMILES IDX 6 13 7 14 8 15
REMARK H PARENT
REMARK Flexibility Score: inf
ROOT
ATOM      1  C   UNL     1     139.702 137.191 138.486  1.00  0.00     0.039 C 
ATOM      2  C   UNL     1     139.101 138.079 137.433  1.00  0.00    -0.077 C 
ATOM      3  C   UNL     1     137.759 138.219 137.381  1.00  0.00    -0.024 C 
ATOM      4  C   UNL     1     137.037 139.120 136.385  1.00  0.00     0.022 C 
ATOM      5  C   UNL     1     137.928 139.429 135.138  1.00  0.00     0.022 C 
ATOM      6  C   UNL     1     139.330 139.840 135.635  1.00  0.00     0.013 C 
ATOM      7  C   UNL     1     140.010 138.703 136.401  1.00  0.00     0.031 C 
ATOM      8  C   UNL     1     137.898 138.296 134.105  1.00  0.00    -0.074 C 
ATOM      9  C   UNL     1     138.926 138.052 133.269  1.00  0.00     0.008 C 
ATOM     10  C   UNL     1     136.570 137.646 133.791  1.00  0.00     0.031 C 
ATOM     11  C   UNL     1     135.784 137.323 135.055  1.00  0.00     0.009 C 
ATOM     12  C   UNL     1     135.643 138.517 136.031  1.00  0.00    -0.001 C 
ENDROOT
BRANCH  12  13
ATOM     13  C   UNL     1     134.522 139.575 135.716  1.00  0.00    -0.014 C 
ATOM     14  C   UNL     1     133.073 139.127 135.955  1.00  0.00     0.007 C 
ATOM     15  C   UNL     1     134.776 140.927 136.403  1.00  0.00     0.007 C 
ENDBRANCH  12  13
TORSDOF 1
ENDMDL
MODEL 8
REMARK VINA RESULT:    -4.701      3.114      4.821
REMARK INTER + INTRA:          -5.275
REMARK INTER:                  -4.955
REMARK INTRA:                  -0.320
REMARK UNBOUND:                -0.299
REMARK SMILES C=C1CC[C@H](C(C)C)[C@H]2C=C(C)CC[C@@H]12
REMARK SMILES IDX 12 1 11 2 10 3 9 4 15 5 14 6 13 7 2 8 1 9 3 10 4 11 5 12
REMARK SMILES IDX 6 13 7 14 8 15
REMARK H PARENT
REMARK Flexibility Score: inf
ROOT
ATOM      1  C   UNL     1     134.146 133.767 133.283  1.00  0.00     0.039 C 
ATOM      2  C   UNL     1     133.564 134.496 134.463  1.00  0.00    -0.077 C 
ATOM      3  C   UNL     1     133.953 135.765 134.707  1.00  0.00    -0.024 C 
ATOM      4  C   UNL     1     133.405 136.616 135.847  1.00  0.00     0.022 C 
ATOM      5  C   UNL     1     132.781 135.734 136.976  1.00  0.00     0.022 C 
ATOM      6  C   UNL     1     131.859 134.686 136.318  1.00  0.00     0.013 C 
ATOM      7  C   UNL     1     132.641 133.748 135.397  1.00  0.00     0.031 C 
ATOM      8  C   UNL     1     133.842 135.173 137.931  1.00  0.00    -0.074 C 
ATOM      9  C   UNL     1     133.673 134.017 138.601  1.00  0.00     0.008 C 
ATOM     10  C   UNL     1     134.956 136.090 138.384  1.00  0.00     0.031 C 
ATOM     11  C   UNL     1     135.553 136.874 137.222  1.00  0.00     0.009 C 
ATOM     12  C   UNL     1     134.501 137.605 136.351  1.00  0.00    -0.001 C 
ENDROOT
BRANCH  12  13
ATOM     13  C   UNL     1     133.959 138.983 136.882  1.00  0.00    -0.014 C 
ATOM     14  C   UNL     1     134.991 140.110 137.037  1.00  0.00     0.007 C 
ATOM     15  C   UNL     1     132.744 139.487 136.085  1.00  0.00     0.007 C 
ENDBRANCH  12  13
TORSDOF 1
ENDMDL
