MODEL 1
REMARK VINA RESULT:    -3.525      0.000      0.000
REMARK INTER + INTRA:          -5.259
REMARK INTER:                  -4.762
REMARK INTRA:                  -0.498
REMARK UNBOUND:                -0.498
REMARK SMILES CCCCCCC=CC(=O)[O-]
REMARK SMILES IDX 5 1 6 2 7 3 8 4 9 5 10 6 11 7 4 8 3 9 2 10 1 11
REMARK H PARENT
REMARK Flexibility Score: inf
ROOT
ATOM      1  C   UNL     1      -2.732  -7.462   3.669  1.00  0.00     0.004 C 
ENDROOT
BRANCH   1   2
ATOM      2  C   UNL     1      -1.877  -8.122   4.762  1.00  0.00     0.027 C 
BRANCH   2   3
ATOM      3  C   UNL     1      -2.735  -8.686   5.862  1.00  0.00    -0.025 C 
ATOM      4  C   UNL     1      -2.358  -8.880   7.137  1.00  0.00     0.020 C 
BRANCH   4   5
ATOM      5  C   UNL     1      -1.043  -8.552   7.727  1.00  0.00     0.064 C 
ATOM      6  O   UNL     1      -0.068  -9.314   7.501  1.00  0.00    -0.545 OA
ATOM      7  O   UNL     1      -0.850  -7.442   8.540  1.00  0.00    -0.545 OA
ENDBRANCH   4   5
ENDBRANCH   2   3
ENDBRANCH   1   2
BRANCH   1   8
ATOM      8  C   UNL     1      -4.144  -8.066   3.570  1.00  0.00     0.000 C 
BRANCH   8   9
ATOM      9  C   UNL     1      -5.270  -7.047   3.303  1.00  0.00    -0.000 C 
BRANCH   9  10
ATOM     10  C   UNL     1      -6.605  -7.357   4.003  1.00  0.00    -0.003 C 
ATOM     11  C   UNL     1      -6.450  -8.317   5.182  1.00  0.00     0.004 C 
ENDBRANCH   9  10
ENDBRANCH   8   9
ENDBRANCH   1   8
TORSDOF 6
ENDMDL
MODEL 2
REMARK VINA RESULT:    -3.495      1.512      2.485
REMARK INTER + INTRA:          -5.219
REMARK INTER:                  -4.813
REMARK INTRA:                  -0.406
REMARK UNBOUND:                -0.498
REMARK SMILES CCCCCCC=CC(=O)[O-]
REMARK SMILES IDX 5 1 6 2 7 3 8 4 9 5 10 6 11 7 4 8 3 9 2 10 1 11
REMARK H PARENT
REMARK Flexibility Score: inf
ROOT
ATOM      1  C   UNL     1      -3.001  -8.973   5.631  1.00  0.00     0.004 C 
ENDROOT
BRANCH   1   2
ATOM      2  C   UNL     1      -2.518  -8.762   7.075  1.00  0.00     0.027 C 
BRANCH   2   3
ATOM      3  C   UNL     1      -1.023  -8.601   7.133  1.00  0.00    -0.025 C 
ATOM      4  C   UNL     1      -0.357  -7.670   7.835  1.00  0.00     0.020 C 
BRANCH   4   5
ATOM      5  C   UNL     1      -0.946  -6.638   8.716  1.00  0.00     0.064 C 
ATOM      6  O   UNL     1      -0.955  -5.441   8.328  1.00  0.00    -0.545 OA
ATOM      7  O   UNL     1      -1.474  -6.942   9.964  1.00  0.00    -0.545 OA
ENDBRANCH   4   5
ENDBRANCH   2   3
ENDBRANCH   1   2
BRANCH   1   8
ATOM      8  C   UNL     1      -2.226  -8.119   4.612  1.00  0.00     0.000 C 
BRANCH   8   9
ATOM      9  C   UNL     1      -3.052  -7.644   3.399  1.00  0.00    -0.000 C 
BRANCH   9  10
ATOM     10  C   UNL     1      -4.517  -8.115   3.387  1.00  0.00    -0.003 C 
ATOM     11  C   UNL     1      -5.514  -6.957   3.407  1.00  0.00     0.004 C 
ENDBRANCH   9  10
ENDBRANCH   8   9
ENDBRANCH   1   8
TORSDOF 6
ENDMDL
MODEL 3
REMARK VINA RESULT:    -3.431     14.532     15.744
REMARK INTER + INTRA:          -5.132
REMARK INTER:                  -4.510
REMARK INTRA:                  -0.622
REMARK UNBOUND:                -0.498
REMARK SMILES CCCCCCC=CC(=O)[O-]
REMARK SMILES IDX 5 1 6 2 7 3 8 4 9 5 10 6 11 7 4 8 3 9 2 10 1 11
REMARK H PARENT
REMARK Flexibility Score: inf
ROOT
ATOM      1  C   UNL     1      -9.088   4.547   5.175  1.00  0.00     0.004 C 
ENDROOT
BRANCH   1   2
ATOM      2  C   UNL     1      -9.729   5.033   6.485  1.00  0.00     0.027 C 
BRANCH   2   3
ATOM      3  C   UNL     1     -10.051   6.502   6.424  1.00  0.00    -0.025 C 
ATOM      4  C   UNL     1      -9.320   7.493   6.960  1.00  0.00     0.020 C 
BRANCH   4   5
ATOM      5  C   UNL     1      -8.041   7.352   7.687  1.00  0.00     0.064 C 
ATOM      6  O   UNL     1      -8.060   7.283   8.943  1.00  0.00    -0.545 OA
ATOM      7  O   UNL     1      -6.816   7.313   7.032  1.00  0.00    -0.545 OA
ENDBRANCH   4   5
ENDBRANCH   2   3
ENDBRANCH   1   2
BRANCH   1   8
ATOM      8  C   UNL     1     -10.125   4.254   4.077  1.00  0.00     0.000 C 
BRANCH   8   9
ATOM      9  C   UNL     1      -9.758   4.788   2.677  1.00  0.00    -0.000 C 
BRANCH   9  10
ATOM     10  C   UNL     1     -10.109   6.266   2.433  1.00  0.00    -0.003 C 
ATOM     11  C   UNL     1      -8.919   7.202   2.637  1.00  0.00     0.004 C 
ENDBRANCH   9  10
ENDBRANCH   8   9
ENDBRANCH   1   8
TORSDOF 6
ENDMDL
MODEL 4
REMARK VINA RESULT:    -3.406     15.781     17.523
REMARK INTER + INTRA:          -5.098
REMARK INTER:                  -4.665
REMARK INTRA:                  -0.434
REMARK UNBOUND:                -0.498
REMARK SMILES CCCCCCC=CC(=O)[O-]
REMARK SMILES IDX 5 1 6 2 7 3 8 4 9 5 10 6 11 7 4 8 3 9 2 10 1 11
REMARK H PARENT
REMARK Flexibility Score: inf
ROOT
ATOM      1  C   UNL     1       7.569  -5.408  -8.311  1.00  0.00     0.004 C 
ENDROOT
BRANCH   1   2
ATOM      2  C   UNL     1       6.939  -5.278  -9.707  1.00  0.00     0.027 C 
BRANCH   2   3
ATOM      3  C   UNL     1       6.034  -4.079  -9.790  1.00  0.00    -0.025 C 
ATOM      4  C   UNL     1       4.706  -4.078  -9.587  1.00  0.00     0.020 C 
BRANCH   4   5
ATOM      5  C   UNL     1       3.870  -5.237  -9.210  1.00  0.00     0.064 C 
ATOM      6  O   UNL     1       3.044  -5.688 -10.046  1.00  0.00    -0.545 OA
ATOM      7  O   UNL     1       3.949  -5.834  -7.958  1.00  0.00    -0.545 OA
ENDBRANCH   4   5
ENDBRANCH   2   3
ENDBRANCH   1   2
BRANCH   1   8
ATOM      8  C   UNL     1       8.622  -6.527  -8.235  1.00  0.00     0.000 C 
BRANCH   8   9
ATOM      9  C   UNL     1       8.226  -7.733  -7.358  1.00  0.00    -0.000 C 
BRANCH   9  10
ATOM     10  C   UNL     1       6.785  -7.700  -6.820  1.00  0.00    -0.003 C 
ATOM     11  C   UNL     1       6.713  -7.350  -5.334  1.00  0.00     0.004 C 
ENDBRANCH   9  10
ENDBRANCH   8   9
ENDBRANCH   1   8
TORSDOF 6
ENDMDL
MODEL 5
REMARK VINA RESULT:    -3.365     15.313     17.063
REMARK INTER + INTRA:          -5.043
REMARK INTER:                  -4.520
REMARK INTRA:                  -0.523
REMARK UNBOUND:                -0.498
REMARK SMILES CCCCCCC=CC(=O)[O-]
REMARK SMILES IDX 5 1 6 2 7 3 8 4 9 5 10 6 11 7 4 8 3 9 2 10 1 11
REMARK H PARENT
REMARK Flexibility Score: inf
ROOT
ATOM      1  C   UNL     1       6.391  -4.324  -9.534  1.00  0.00     0.004 C 
ENDROOT
BRANCH   1   2
ATOM      2  C   UNL     1       4.863  -4.411  -9.394  1.00  0.00     0.027 C 
BRANCH   2   3
ATOM      3  C   UNL     1       4.461  -5.510  -8.449  1.00  0.00    -0.025 C 
ATOM      4  C   UNL     1       3.210  -5.785  -8.045  1.00  0.00     0.020 C 
BRANCH   4   5
ATOM      5  C   UNL     1       1.975  -5.092  -8.465  1.00  0.00     0.064 C 
ATOM      6  O   UNL     1       1.678  -3.996  -7.922  1.00  0.00    -0.545 OA
ATOM      7  O   UNL     1       1.119  -5.617  -9.425  1.00  0.00    -0.545 OA
ENDBRANCH   4   5
ENDBRANCH   2   3
ENDBRANCH   1   2
BRANCH   1   8
ATOM      8  C   UNL     1       7.083  -5.688  -9.366  1.00  0.00     0.000 C 
BRANCH   8   9
ATOM      9  C   UNL     1       8.021  -5.796  -8.146  1.00  0.00    -0.000 C 
BRANCH   9  10
ATOM     10  C   UNL     1       7.875  -7.091  -7.327  1.00  0.00    -0.003 C 
ATOM     11  C   UNL     1       6.943  -6.933  -6.125  1.00  0.00     0.004 C 
ENDBRANCH   9  10
ENDBRANCH   8   9
ENDBRANCH   1   8
TORSDOF 6
ENDMDL
MODEL 6
REMARK VINA RESULT:    -3.353      1.316      2.127
REMARK INTER + INTRA:          -5.027
REMARK INTER:                  -4.665
REMARK INTRA:                  -0.362
REMARK UNBOUND:                -0.498
REMARK SMILES CCCCCCC=CC(=O)[O-]
REMARK SMILES IDX 5 1 6 2 7 3 8 4 9 5 10 6 11 7 4 8 3 9 2 10 1 11
REMARK H PARENT
REMARK Flexibility Score: inf
ROOT
ATOM      1  C   UNL     1      -3.087  -7.928   3.167  1.00  0.00     0.004 C 
ENDROOT
BRANCH   1   2
ATOM      2  C   UNL     1      -2.221  -8.033   4.433  1.00  0.00     0.027 C 
BRANCH   2   3
ATOM      3  C   UNL     1      -2.932  -8.788   5.522  1.00  0.00    -0.025 C 
ATOM      4  C   UNL     1      -2.490  -8.966   6.777  1.00  0.00     0.020 C 
BRANCH   4   5
ATOM      5  C   UNL     1      -1.238  -8.434   7.356  1.00  0.00     0.064 C 
ATOM      6  O   UNL     1      -1.221  -7.251   7.783  1.00  0.00    -0.545 OA
ATOM      7  O   UNL     1      -0.074  -9.188   7.426  1.00  0.00    -0.545 OA
ENDBRANCH   4   5
ENDBRANCH   2   3
ENDBRANCH   1   2
BRANCH   1   8
ATOM      8  C   UNL     1      -4.269  -6.956   3.333  1.00  0.00     0.000 C 
BRANCH   8   9
ATOM      9  C   UNL     1      -5.591  -7.427   2.695  1.00  0.00    -0.000 C 
BRANCH   9  10
ATOM     10  C   UNL     1      -5.432  -8.278   1.423  1.00  0.00    -0.003 C 
ATOM     11  C   UNL     1      -5.515  -7.452   0.139  1.00  0.00     0.004 C 
ENDBRANCH   9  10
ENDBRANCH   8   9
ENDBRANCH   1   8
TORSDOF 6
ENDMDL
MODEL 7
REMARK VINA RESULT:    -3.329      3.584      5.804
REMARK INTER + INTRA:          -4.995
REMARK INTER:                  -4.774
REMARK INTRA:                  -0.220
REMARK UNBOUND:                -0.498
REMARK SMILES CCCCCCC=CC(=O)[O-]
REMARK SMILES IDX 5 1 6 2 7 3 8 4 9 5 10 6 11 7 4 8 3 9 2 10 1 11
REMARK H PARENT
REMARK Flexibility Score: inf
ROOT
ATOM      1  C   UNL     1      -2.173  -8.169   4.863  1.00  0.00     0.004 C 
ENDROOT
BRANCH   1   2
ATOM      2  C   UNL     1      -3.522  -8.365   4.153  1.00  0.00     0.027 C 
BRANCH   2   3
ATOM      3  C   UNL     1      -3.910  -7.142   3.368  1.00  0.00    -0.025 C 
ATOM      4  C   UNL     1      -5.150  -6.825   2.961  1.00  0.00     0.020 C 
BRANCH   4   5
ATOM      5  C   UNL     1      -6.388  -7.589   3.227  1.00  0.00     0.064 C 
ATOM      6  O   UNL     1      -6.734  -8.486   2.416  1.00  0.00    -0.545 OA
ATOM      7  O   UNL     1      -7.192  -7.338   4.331  1.00  0.00    -0.545 OA
ENDBRANCH   4   5
ENDBRANCH   2   3
ENDBRANCH   1   2
BRANCH   1   8
ATOM      8  C   UNL     1      -2.187  -8.669   6.318  1.00  0.00     0.000 C 
BRANCH   8   9
ATOM      9  C   UNL     1      -0.980  -8.227   7.170  1.00  0.00    -0.000 C 
BRANCH   9  10
ATOM     10  C   UNL     1      -1.328  -7.347   8.383  1.00  0.00    -0.003 C 
ATOM     11  C   UNL     1      -0.328  -6.211   8.600  1.00  0.00     0.004 C 
ENDBRANCH   9  10
ENDBRANCH   8   9
ENDBRANCH   1   8
TORSDOF 6
ENDMDL
MODEL 8
REMARK VINA RESULT:    -3.323     15.139     16.543
REMARK INTER + INTRA:          -4.986
REMARK INTER:                  -4.581
REMARK INTRA:                  -0.405
REMARK UNBOUND:                -0.498
REMARK SMILES CCCCCCC=CC(=O)[O-]
REMARK SMILES IDX 5 1 6 2 7 3 8 4 9 5 10 6 11 7 4 8 3 9 2 10 1 11
REMARK H PARENT
REMARK Flexibility Score: inf
ROOT
ATOM      1  C   UNL     1       6.793  -5.617  -9.335  1.00  0.00     0.004 C 
ENDROOT
BRANCH   1   2
ATOM      2  C   UNL     1       7.842  -5.547  -8.213  1.00  0.00     0.027 C 
BRANCH   2   3
ATOM      3  C   UNL     1       8.272  -6.922  -7.780  1.00  0.00    -0.025 C 
ATOM      4  C   UNL     1       7.688  -7.667  -6.827  1.00  0.00     0.020 C 
BRANCH   4   5
ATOM      5  C   UNL     1       6.491  -7.309  -6.036  1.00  0.00     0.064 C 
ATOM      6  O   UNL     1       6.642  -6.915  -4.850  1.00  0.00    -0.545 OA
ATOM      7  O   UNL     1       5.205  -7.410  -6.549  1.00  0.00    -0.545 OA
ENDBRANCH   4   5
ENDBRANCH   2   3
ENDBRANCH   1   2
BRANCH   1   8
ATOM      8  C   UNL     1       6.343  -4.226  -9.817  1.00  0.00     0.000 C 
BRANCH   8   9
ATOM      9  C   UNL     1       4.820  -3.989  -9.787  1.00  0.00    -0.000 C 
BRANCH   9  10
ATOM     10  C   UNL     1       4.054  -4.815  -8.738  1.00  0.00    -0.003 C 
ATOM     11  C   UNL     1       2.635  -4.302  -8.497  1.00  0.00     0.004 C 
ENDBRANCH   9  10
ENDBRANCH   8   9
ENDBRANCH   1   8
TORSDOF 6
ENDMDL
MODEL 9
REMARK VINA RESULT:    -3.233     14.666     16.430
REMARK INTER + INTRA:          -4.865
REMARK INTER:                  -4.527
REMARK INTRA:                  -0.339
REMARK UNBOUND:                -0.498
REMARK SMILES CCCCCCC=CC(=O)[O-]
REMARK SMILES IDX 5 1 6 2 7 3 8 4 9 5 10 6 11 7 4 8 3 9 2 10 1 11
REMARK H PARENT
REMARK Flexibility Score: inf
ROOT
ATOM      1  C   UNL     1       3.348  -4.693 -10.125  1.00  0.00     0.004 C 
ENDROOT
BRANCH   1   2
ATOM      2  C   UNL     1       2.116  -4.876  -9.224  1.00  0.00     0.027 C 
BRANCH   2   3
ATOM      3  C   UNL     1       2.045  -3.805  -8.170  1.00  0.00    -0.025 C 
ATOM      4  C   UNL     1       1.067  -3.654  -7.262  1.00  0.00     0.020 C 
BRANCH   4   5
ATOM      5  C   UNL     1      -0.117  -4.522  -7.089  1.00  0.00     0.064 C 
ATOM      6  O   UNL     1      -0.066  -5.461  -6.253  1.00  0.00    -0.545 OA
ATOM      7  O   UNL     1      -1.279  -4.348  -7.831  1.00  0.00    -0.545 OA
ENDBRANCH   4   5
ENDBRANCH   2   3
ENDBRANCH   1   2
BRANCH   1   8
ATOM      8  C   UNL     1       4.510  -3.984  -9.408  1.00  0.00     0.000 C 
BRANCH   8   9
ATOM      9  C   UNL     1       5.917  -4.391  -9.891  1.00  0.00    -0.000 C 
BRANCH   9  10
ATOM     10  C   UNL     1       6.454  -5.704  -9.295  1.00  0.00    -0.003 C 
ATOM     11  C   UNL     1       7.602  -5.485  -8.310  1.00  0.00     0.004 C 
ENDBRANCH   9  10
ENDBRANCH   8   9
ENDBRANCH   1   8
TORSDOF 6
ENDMDL
