MODEL 1
REMARK VINA RESULT:    -4.099      0.000      0.000
REMARK INTER + INTRA:          -5.692
REMARK INTER:                  -5.536
REMARK INTRA:                  -0.156
REMARK UNBOUND:                -0.156
REMARK SMILES CCCCCCCC(=O)[O-]
REMARK SMILES IDX 5 1 6 2 7 3 8 4 9 5 10 6 4 7 3 8 2 9 1 10
REMARK H PARENT
REMARK Flexibility Score: inf
ROOT
ATOM      1  C   UNL     1     150.441 164.123 140.181  1.00  0.00     0.000 C 
ENDROOT
BRANCH   1   2
ATOM      2  C   UNL     1     150.006 163.494 138.851  1.00  0.00     0.006 C 
BRANCH   2   3
ATOM      3  C   UNL     1     151.007 163.816 137.738  1.00  0.00     0.053 C 
BRANCH   3   4
ATOM      4  C   UNL     1     151.912 162.650 137.494  1.00  0.00     0.041 C 
ATOM      5  O   UNL     1     151.715 161.558 138.090  1.00  0.00    -0.550 OA
ATOM      6  O   UNL     1     152.945 162.753 136.570  1.00  0.00    -0.550 OA
ENDBRANCH   3   4
ENDBRANCH   2   3
ENDBRANCH   1   2
BRANCH   1   7
ATOM      7  C   UNL     1     149.328 164.011 141.234  1.00  0.00     0.000 C 
BRANCH   7   8
ATOM      8  C   UNL     1     149.882 163.682 142.636  1.00  0.00    -0.000 C 
BRANCH   8   9
ATOM      9  C   UNL     1     148.799 163.262 143.643  1.00  0.00    -0.003 C 
ATOM     10  C   UNL     1     147.515 164.079 143.516  1.00  0.00     0.004 C 
ENDBRANCH   8   9
ENDBRANCH   7   8
ENDBRANCH   1   7
TORSDOF 6
ENDMDL
MODEL 2
REMARK VINA RESULT:    -4.097     22.686     23.404
REMARK INTER + INTRA:          -5.690
REMARK INTER:                  -5.543
REMARK INTRA:                  -0.148
REMARK UNBOUND:                -0.156
REMARK SMILES CCCCCCCC(=O)[O-]
REMARK SMILES IDX 5 1 6 2 7 3 8 4 9 5 10 6 4 7 3 8 2 9 1 10
REMARK H PARENT
REMARK Flexibility Score: inf
ROOT
ATOM      1  C   UNL     1     158.796 145.849 152.027  1.00  0.00     0.000 C 
ENDROOT
BRANCH   1   2
ATOM      2  C   UNL     1     159.901 144.855 151.647  1.00  0.00     0.006 C 
BRANCH   2   3
ATOM      3  C   UNL     1     159.480 143.999 150.449  1.00  0.00     0.053 C 
BRANCH   3   4
ATOM      4  C   UNL     1     159.922 144.636 149.169  1.00  0.00     0.041 C 
ATOM      5  O   UNL     1     160.277 143.921 148.194  1.00  0.00    -0.550 OA
ATOM      6  O   UNL     1     159.894 146.018 149.035  1.00  0.00    -0.550 OA
ENDBRANCH   3   4
ENDBRANCH   2   3
ENDBRANCH   1   2
BRANCH   1   7
ATOM      7  C   UNL     1     158.782 146.105 153.542  1.00  0.00     0.000 C 
BRANCH   7   8
ATOM      8  C   UNL     1     160.135 145.764 154.204  1.00  0.00    -0.000 C 
BRANCH   8   9
ATOM      9  C   UNL     1     160.621 146.833 155.196  1.00  0.00    -0.003 C 
ATOM     10  C   UNL     1     160.089 148.229 154.880  1.00  0.00     0.004 C 
ENDBRANCH   8   9
ENDBRANCH   7   8
ENDBRANCH   1   7
TORSDOF 6
ENDMDL
MODEL 3
REMARK VINA RESULT:    -2.594     15.217     16.089
REMARK INTER + INTRA:          -3.660
REMARK INTER:                  -3.280
REMARK INTRA:                  -0.380
REMARK UNBOUND:                -0.156
REMARK SMILES CCCCCCCC(=O)[O-]
REMARK SMILES IDX 5 1 6 2 7 3 8 4 9 5 10 6 4 7 3 8 2 9 1 10
REMARK H PARENT
REMARK Flexibility Score: inf
ROOT
ATOM      1  C   UNL     1     147.071 148.882 142.913  1.00  0.00     0.000 C 
ENDROOT
BRANCH   1   2
ATOM      2  C   UNL     1     146.673 149.872 141.811  1.00  0.00     0.006 C 
BRANCH   2   3
ATOM      3  C   UNL     1     145.395 149.417 141.099  1.00  0.00     0.053 C 
BRANCH   3   4
ATOM      4  C   UNL     1     144.389 150.524 141.071  1.00  0.00     0.041 C 
ATOM      5  O   UNL     1     144.285 151.261 140.055  1.00  0.00    -0.550 OA
ATOM      6  O   UNL     1     143.532 150.712 142.148  1.00  0.00    -0.550 OA
ENDBRANCH   3   4
ENDBRANCH   2   3
ENDBRANCH   1   2
BRANCH   1   7
ATOM      7  C   UNL     1     145.913 147.928 143.241  1.00  0.00     0.000 C 
BRANCH   7   8
ATOM      8  C   UNL     1     146.390 146.470 143.416  1.00  0.00    -0.000 C 
BRANCH   8   9
ATOM      9  C   UNL     1     147.870 146.259 143.058  1.00  0.00    -0.003 C 
ATOM     10  C   UNL     1     148.089 145.119 142.066  1.00  0.00     0.004 C 
ENDBRANCH   8   9
ENDBRANCH   7   8
ENDBRANCH   1   7
TORSDOF 6
ENDMDL
MODEL 4
REMARK VINA RESULT:    -2.545     15.006     16.249
REMARK INTER + INTRA:          -3.593
REMARK INTER:                  -3.264
REMARK INTRA:                  -0.329
REMARK UNBOUND:                -0.156
REMARK SMILES CCCCCCCC(=O)[O-]
REMARK SMILES IDX 5 1 6 2 7 3 8 4 9 5 10 6 4 7 3 8 2 9 1 10
REMARK H PARENT
REMARK Flexibility Score: inf
ROOT
ATOM      1  C   UNL     1     146.476 149.790 142.971  1.00  0.00     0.000 C 
ENDROOT
BRANCH   1   2
ATOM      2  C   UNL     1     144.984 149.972 143.276  1.00  0.00     0.006 C 
BRANCH   2   3
ATOM      3  C   UNL     1     144.641 149.446 144.673  1.00  0.00     0.053 C 
BRANCH   3   4
ATOM      4  C   UNL     1     144.432 150.583 145.623  1.00  0.00     0.041 C 
ATOM      5  O   UNL     1     143.901 151.653 145.224  1.00  0.00    -0.550 OA
ATOM      6  O   UNL     1     144.778 150.443 146.961  1.00  0.00    -0.550 OA
ENDBRANCH   3   4
ENDBRANCH   2   3
ENDBRANCH   1   2
BRANCH   1   7
ATOM      7  C   UNL     1     146.684 149.202 141.567  1.00  0.00     0.000 C 
BRANCH   7   8
ATOM      8  C   UNL     1     146.824 147.665 141.593  1.00  0.00    -0.000 C 
BRANCH   8   9
ATOM      9  C   UNL     1     147.368 147.119 142.923  1.00  0.00    -0.003 C 
ATOM     10  C   UNL     1     148.393 146.002 142.737  1.00  0.00     0.004 C 
ENDBRANCH   8   9
ENDBRANCH   7   8
ENDBRANCH   1   7
TORSDOF 6
ENDMDL
MODEL 5
REMARK VINA RESULT:    -2.484     14.960     15.600
REMARK INTER + INTRA:          -3.511
REMARK INTER:                  -2.912
REMARK INTRA:                  -0.599
REMARK UNBOUND:                -0.156
REMARK SMILES CCCCCCCC(=O)[O-]
REMARK SMILES IDX 5 1 6 2 7 3 8 4 9 5 10 6 4 7 3 8 2 9 1 10
REMARK H PARENT
REMARK Flexibility Score: inf
ROOT
ATOM      1  C   UNL     1     146.628 148.021 140.480  1.00  0.00     0.000 C 
ENDROOT
BRANCH   1   2
ATOM      2  C   UNL     1     145.276 147.604 139.889  1.00  0.00     0.006 C 
BRANCH   2   3
ATOM      3  C   UNL     1     144.143 148.474 140.444  1.00  0.00     0.053 C 
BRANCH   3   4
ATOM      4  C   UNL     1     144.132 149.811 139.771  1.00  0.00     0.041 C 
ATOM      5  O   UNL     1     143.892 149.898 138.538  1.00  0.00    -0.550 OA
ATOM      6  O   UNL     1     144.337 150.965 140.516  1.00  0.00    -0.550 OA
ENDBRANCH   3   4
ENDBRANCH   2   3
ENDBRANCH   1   2
BRANCH   1   7
ATOM      7  C   UNL     1     146.955 147.205 141.739  1.00  0.00     0.000 C 
BRANCH   7   8
ATOM      8  C   UNL     1     147.390 148.102 142.919  1.00  0.00    -0.000 C 
BRANCH   8   9
ATOM      9  C   UNL     1     146.880 149.548 142.814  1.00  0.00    -0.003 C 
ATOM     10  C   UNL     1     145.606 149.793 143.620  1.00  0.00     0.004 C 
ENDBRANCH   8   9
ENDBRANCH   7   8
ENDBRANCH   1   7
TORSDOF 6
ENDMDL
MODEL 6
REMARK VINA RESULT:    -2.480     14.836     16.199
REMARK INTER + INTRA:          -3.505
REMARK INTER:                  -3.319
REMARK INTRA:                  -0.187
REMARK UNBOUND:                -0.156
REMARK SMILES CCCCCCCC(=O)[O-]
REMARK SMILES IDX 5 1 6 2 7 3 8 4 9 5 10 6 4 7 3 8 2 9 1 10
REMARK H PARENT
REMARK Flexibility Score: inf
ROOT
ATOM      1  C   UNL     1     145.047 149.221 143.984  1.00  0.00     0.000 C 
ENDROOT
BRANCH   1   2
ATOM      2  C   UNL     1     144.409 150.364 144.782  1.00  0.00     0.006 C 
BRANCH   2   3
ATOM      3  C   UNL     1     144.423 150.060 146.283  1.00  0.00     0.053 C 
BRANCH   3   4
ATOM      4  C   UNL     1     144.839 151.271 147.058  1.00  0.00     0.041 C 
ATOM      5  O   UNL     1     145.727 151.182 147.946  1.00  0.00    -0.550 OA
ATOM      6  O   UNL     1     144.279 152.509 146.765  1.00  0.00    -0.550 OA
ENDBRANCH   3   4
ENDBRANCH   2   3
ENDBRANCH   1   2
BRANCH   1   7
ATOM      7  C   UNL     1     146.095 149.756 142.996  1.00  0.00     0.000 C 
BRANCH   7   8
ATOM      8  C   UNL     1     147.296 148.799 142.843  1.00  0.00    -0.000 C 
BRANCH   8   9
ATOM      9  C   UNL     1     146.891 147.330 142.636  1.00  0.00    -0.003 C 
ATOM     10  C   UNL     1     148.008 146.347 142.981  1.00  0.00     0.004 C 
ENDBRANCH   8   9
ENDBRANCH   7   8
ENDBRANCH   1   7
TORSDOF 6
ENDMDL
MODEL 7
REMARK VINA RESULT:    -2.472     16.282     17.736
REMARK INTER + INTRA:          -3.495
REMARK INTER:                  -3.018
REMARK INTRA:                  -0.477
REMARK UNBOUND:                -0.156
REMARK SMILES CCCCCCCC(=O)[O-]
REMARK SMILES IDX 5 1 6 2 7 3 8 4 9 5 10 6 4 7 3 8 2 9 1 10
REMARK H PARENT
REMARK Flexibility Score: inf
ROOT
ATOM      1  C   UNL     1     146.613 154.701 152.732  1.00  0.00     0.000 C 
ENDROOT
BRANCH   1   2
ATOM      2  C   UNL     1     146.823 153.920 154.036  1.00  0.00     0.006 C 
BRANCH   2   3
ATOM      3  C   UNL     1     145.513 153.286 154.513  1.00  0.00     0.053 C 
BRANCH   3   4
ATOM      4  C   UNL     1     145.680 151.810 154.690  1.00  0.00     0.041 C 
ATOM      5  O   UNL     1     144.991 151.007 154.008  1.00  0.00    -0.550 OA
ATOM      6  O   UNL     1     146.633 151.319 155.574  1.00  0.00    -0.550 OA
ENDBRANCH   3   4
ENDBRANCH   2   3
ENDBRANCH   1   2
BRANCH   1   7
ATOM      7  C   UNL     1     145.229 155.366 152.705  1.00  0.00     0.000 C 
BRANCH   7   8
ATOM      8  C   UNL     1     145.322 156.906 152.654  1.00  0.00    -0.000 C 
BRANCH   8   9
ATOM      9  C   UNL     1     145.447 157.562 154.039  1.00  0.00    -0.003 C 
ATOM     10  C   UNL     1     144.543 156.919 155.089  1.00  0.00     0.004 C 
ENDBRANCH   8   9
ENDBRANCH   7   8
ENDBRANCH   1   7
TORSDOF 6
ENDMDL
MODEL 8
REMARK VINA RESULT:    -2.436     15.389     16.182
REMARK INTER + INTRA:          -3.446
REMARK INTER:                  -3.003
REMARK INTRA:                  -0.443
REMARK UNBOUND:                -0.156
REMARK SMILES CCCCCCCC(=O)[O-]
REMARK SMILES IDX 5 1 6 2 7 3 8 4 9 5 10 6 4 7 3 8 2 9 1 10
REMARK H PARENT
REMARK Flexibility Score: inf
ROOT
ATOM      1  C   UNL     1     146.849 149.272 143.018  1.00  0.00     0.000 C 
ENDROOT
BRANCH   1   2
ATOM      2  C   UNL     1     146.453 147.791 143.030  1.00  0.00     0.006 C 
BRANCH   2   3
ATOM      3  C   UNL     1     147.692 146.890 143.011  1.00  0.00     0.053 C 
BRANCH   3   4
ATOM      4  C   UNL     1     147.658 145.978 141.826  1.00  0.00     0.041 C 
ATOM      5  O   UNL     1     147.292 146.411 140.702  1.00  0.00    -0.550 OA
ATOM      6  O   UNL     1     148.079 144.660 141.952  1.00  0.00    -0.550 OA
ENDBRANCH   3   4
ENDBRANCH   2   3
ENDBRANCH   1   2
BRANCH   1   7
ATOM      7  C   UNL     1     146.651 149.886 141.624  1.00  0.00     0.000 C 
BRANCH   7   8
ATOM      8  C   UNL     1     145.356 149.388 140.947  1.00  0.00    -0.000 C 
BRANCH   8   9
ATOM      9  C   UNL     1     144.283 150.479 140.795  1.00  0.00    -0.003 C 
ATOM     10  C   UNL     1     143.452 150.682 142.061  1.00  0.00     0.004 C 
ENDBRANCH   8   9
ENDBRANCH   7   8
ENDBRANCH   1   7
TORSDOF 6
ENDMDL
