MODEL 1
REMARK VINA RESULT:    -3.519      0.000      0.000
REMARK INTER + INTRA:          -8.354
REMARK INTER:                  -6.194
REMARK INTRA:                  -2.160
REMARK UNBOUND:                -2.160
REMARK SMILES CCCCCCCCCCCCCCC(=O)[O-]
REMARK SMILES IDX 9 1 10 2 11 3 12 4 13 5 14 6 15 7 16 8 17 9 8 10 7 11 6 12
REMARK SMILES IDX 5 13 4 14 3 15 2 16 1 17
REMARK H PARENT
REMARK Flexibility Score: inf
ROOT
ATOM      1  C   UNL     1     155.224 152.504 157.840  1.00  0.00     0.000 C 
ENDROOT
BRANCH   1   2
ATOM      2  C   UNL     1     154.620 153.470 156.800  1.00  0.00     0.000 C 
BRANCH   2   3
ATOM      3  C   UNL     1     154.682 154.960 157.178  1.00  0.00     0.000 C 
BRANCH   3   4
ATOM      4  C   UNL     1     154.915 155.186 158.682  1.00  0.00     0.000 C 
BRANCH   4   5
ATOM      5  C   UNL     1     155.280 156.643 159.010  1.00  0.00     0.006 C 
BRANCH   5   6
ATOM      6  C   UNL     1     156.647 157.053 158.446  1.00  0.00     0.053 C 
BRANCH   6   7
ATOM      7  C   UNL     1     157.746 156.557 159.330  1.00  0.00     0.041 C 
ATOM      8  O   UNL     1     157.755 156.850 160.555  1.00  0.00    -0.550 OA
ATOM      9  O   UNL     1     158.735 155.729 158.815  1.00  0.00    -0.550 OA
ENDBRANCH   6   7
ENDBRANCH   5   6
ENDBRANCH   4   5
ENDBRANCH   3   4
ENDBRANCH   2   3
ENDBRANCH   1   2
BRANCH   1  10
ATOM     10  C   UNL     1     154.625 151.083 157.837  1.00  0.00     0.000 C 
BRANCH  10  11
ATOM     11  C   UNL     1     153.277 150.946 158.573  1.00  0.00    -0.000 C 
BRANCH  11  12
ATOM     12  C   UNL     1     153.095 151.883 159.785  1.00  0.00    -0.000 C 
BRANCH  12  13
ATOM     13  C   UNL     1     151.831 152.762 159.751  1.00  0.00    -0.000 C 
BRANCH  13  14
ATOM     14  C   UNL     1     151.195 152.843 158.354  1.00  0.00    -0.000 C 
BRANCH  14  15
ATOM     15  C   UNL     1     151.088 154.285 157.831  1.00  0.00    -0.000 C 
BRANCH  15  16
ATOM     16  C   UNL     1     151.248 155.357 158.930  1.00  0.00    -0.003 C 
ATOM     17  C   UNL     1     151.410 156.763 158.352  1.00  0.00     0.004 C 
ENDBRANCH  15  16
ENDBRANCH  14  15
ENDBRANCH  13  14
ENDBRANCH  12  13
ENDBRANCH  11  12
ENDBRANCH  10  11
ENDBRANCH   1  10
TORSDOF 13
ENDMDL
MODEL 2
REMARK VINA RESULT:    -3.271      1.063      2.475
REMARK INTER + INTRA:          -7.918
REMARK INTER:                  -5.828
REMARK INTRA:                  -2.090
REMARK UNBOUND:                -2.160
REMARK SMILES CCCCCCCCCCCCCCC(=O)[O-]
REMARK SMILES IDX 9 1 10 2 11 3 12 4 13 5 14 6 15 7 16 8 17 9 8 10 7 11 6 12
REMARK SMILES IDX 5 13 4 14 3 15 2 16 1 17
REMARK H PARENT
REMARK Flexibility Score: inf
ROOT
ATOM      1  C   UNL     1     153.312 150.890 158.384  1.00  0.00     0.000 C 
ENDROOT
BRANCH   1   2
ATOM      2  C   UNL     1     154.700 151.077 157.737  1.00  0.00     0.000 C 
BRANCH   2   3
ATOM      3  C   UNL     1     155.268 152.505 157.810  1.00  0.00     0.000 C 
BRANCH   3   4
ATOM      4  C   UNL     1     154.593 153.469 156.819  1.00  0.00     0.000 C 
BRANCH   4   5
ATOM      5  C   UNL     1     154.858 154.945 157.158  1.00  0.00     0.006 C 
BRANCH   5   6
ATOM      6  C   UNL     1     155.307 155.147 158.612  1.00  0.00     0.053 C 
BRANCH   6   7
ATOM      7  C   UNL     1     156.444 156.116 158.676  1.00  0.00     0.041 C 
ATOM      8  O   UNL     1     157.594 155.723 159.008  1.00  0.00    -0.550 OA
ATOM      9  O   UNL     1     156.248 157.445 158.321  1.00  0.00    -0.550 OA
ENDBRANCH   6   7
ENDBRANCH   5   6
ENDBRANCH   4   5
ENDBRANCH   3   4
ENDBRANCH   2   3
ENDBRANCH   1   2
BRANCH   1  10
ATOM     10  C   UNL     1     153.118 151.606 159.735  1.00  0.00     0.000 C 
BRANCH  10  11
ATOM     11  C   UNL     1     152.015 152.683 159.747  1.00  0.00    -0.000 C 
BRANCH  11  12
ATOM     12  C   UNL     1     151.203 152.803 158.441  1.00  0.00    -0.000 C 
BRANCH  12  13
ATOM     13  C   UNL     1     151.102 154.225 157.859  1.00  0.00    -0.000 C 
BRANCH  13  14
ATOM     14  C   UNL     1     151.579 155.309 158.838  1.00  0.00    -0.000 C 
BRANCH  14  15
ATOM     15  C   UNL     1     151.282 156.734 158.341  1.00  0.00    -0.000 C 
BRANCH  15  16
ATOM     16  C   UNL     1     151.054 156.824 156.817  1.00  0.00    -0.003 C 
ATOM     17  C   UNL     1     152.283 157.347 156.075  1.00  0.00     0.004 C 
ENDBRANCH  15  16
ENDBRANCH  14  15
ENDBRANCH  13  14
ENDBRANCH  12  13
ENDBRANCH  11  12
ENDBRANCH  10  11
ENDBRANCH   1  10
TORSDOF 13
ENDMDL
MODEL 3
REMARK VINA RESULT:    -3.222      3.724      5.664
REMARK INTER + INTRA:          -7.831
REMARK INTER:                  -6.253
REMARK INTRA:                  -1.578
REMARK UNBOUND:                -2.160
REMARK SMILES CCCCCCCCCCCCCCC(=O)[O-]
REMARK SMILES IDX 9 1 10 2 11 3 12 4 13 5 14 6 15 7 16 8 17 9 8 10 7 11 6 12
REMARK SMILES IDX 5 13 4 14 3 15 2 16 1 17
REMARK H PARENT
REMARK Flexibility Score: inf
ROOT
ATOM      1  C   UNL     1     153.136 151.300 159.679  1.00  0.00     0.000 C 
ENDROOT
BRANCH   1   2
ATOM      2  C   UNL     1     152.186 152.461 160.041  1.00  0.00     0.000 C 
BRANCH   2   3
ATOM      3  C   UNL     1     151.233 152.901 158.916  1.00  0.00     0.000 C 
BRANCH   3   4
ATOM      4  C   UNL     1     151.391 154.386 158.545  1.00  0.00     0.000 C 
BRANCH   4   5
ATOM      5  C   UNL     1     151.249 154.635 157.035  1.00  0.00     0.006 C 
BRANCH   5   6
ATOM      6  C   UNL     1     149.914 154.127 156.474  1.00  0.00     0.053 C 
BRANCH   6   7
ATOM      7  C   UNL     1     149.712 154.624 155.079  1.00  0.00     0.041 C 
ATOM      8  O   UNL     1     150.555 155.398 154.553  1.00  0.00    -0.550 OA
ATOM      9  O   UNL     1     148.618 154.194 154.337  1.00  0.00    -0.550 OA
ENDBRANCH   6   7
ENDBRANCH   5   6
ENDBRANCH   4   5
ENDBRANCH   3   4
ENDBRANCH   2   3
ENDBRANCH   1   2
BRANCH   1  10
ATOM     10  C   UNL     1     153.271 151.012 158.171  1.00  0.00     0.000 C 
BRANCH  10  11
ATOM     11  C   UNL     1     154.617 151.434 157.548  1.00  0.00    -0.000 C 
BRANCH  11  12
ATOM     12  C   UNL     1     154.708 152.915 157.128  1.00  0.00    -0.000 C 
BRANCH  12  13
ATOM     13  C   UNL     1     155.160 153.885 158.235  1.00  0.00    -0.000 C 
BRANCH  13  14
ATOM     14  C   UNL     1     155.069 155.361 157.812  1.00  0.00    -0.000 C 
BRANCH  14  15
ATOM     15  C   UNL     1     154.415 156.248 158.885  1.00  0.00    -0.000 C 
BRANCH  15  16
ATOM     16  C   UNL     1     155.221 157.523 159.210  1.00  0.00    -0.003 C 
ATOM     17  C   UNL     1     154.403 158.542 160.004  1.00  0.00     0.004 C 
ENDBRANCH  15  16
ENDBRANCH  14  15
ENDBRANCH  13  14
ENDBRANCH  12  13
ENDBRANCH  11  12
ENDBRANCH  10  11
ENDBRANCH   1  10
TORSDOF 13
ENDMDL
MODEL 4
REMARK VINA RESULT:    -3.174      1.476      2.262
REMARK INTER + INTRA:          -7.746
REMARK INTER:                  -6.159
REMARK INTRA:                  -1.587
REMARK UNBOUND:                -2.160
REMARK SMILES CCCCCCCCCCCCCCC(=O)[O-]
REMARK SMILES IDX 9 1 10 2 11 3 12 4 13 5 14 6 15 7 16 8 17 9 8 10 7 11 6 12
REMARK SMILES IDX 5 13 4 14 3 15 2 16 1 17
REMARK H PARENT
REMARK Flexibility Score: inf
ROOT
ATOM      1  C   UNL     1     154.503 151.160 157.844  1.00  0.00     0.000 C 
ENDROOT
BRANCH   1   2
ATOM      2  C   UNL     1     155.170 152.551 157.843  1.00  0.00     0.000 C 
BRANCH   2   3
ATOM      3  C   UNL     1     154.629 153.534 156.790  1.00  0.00     0.000 C 
BRANCH   3   4
ATOM      4  C   UNL     1     154.775 155.006 157.215  1.00  0.00     0.000 C 
BRANCH   4   5
ATOM      5  C   UNL     1     155.195 155.156 158.686  1.00  0.00     0.006 C 
BRANCH   5   6
ATOM      6  C   UNL     1     156.582 155.796 158.843  1.00  0.00     0.053 C 
BRANCH   6   7
ATOM      7  C   UNL     1     156.454 157.269 159.066  1.00  0.00     0.041 C 
ATOM      8  O   UNL     1     156.261 158.043 158.092  1.00  0.00    -0.550 OA
ATOM      9  O   UNL     1     156.496 157.784 160.356  1.00  0.00    -0.550 OA
ENDBRANCH   6   7
ENDBRANCH   5   6
ENDBRANCH   4   5
ENDBRANCH   3   4
ENDBRANCH   2   3
ENDBRANCH   1   2
BRANCH   1  10
ATOM     10  C   UNL     1     153.304 151.010 158.802  1.00  0.00     0.000 C 
BRANCH  10  11
ATOM     11  C   UNL     1     153.164 152.136 159.845  1.00  0.00    -0.000 C 
BRANCH  11  12
ATOM     12  C   UNL     1     151.772 152.797 159.913  1.00  0.00    -0.000 C 
BRANCH  12  13
ATOM     13  C   UNL     1     151.593 154.043 159.025  1.00  0.00    -0.000 C 
BRANCH  13  14
ATOM     14  C   UNL     1     151.143 153.701 157.596  1.00  0.00    -0.000 C 
BRANCH  14  15
ATOM     15  C   UNL     1     149.666 153.278 157.522  1.00  0.00    -0.000 C 
BRANCH  15  16
ATOM     16  C   UNL     1     149.099 153.257 156.086  1.00  0.00    -0.003 C 
ATOM     17  C   UNL     1     149.560 154.458 155.261  1.00  0.00     0.004 C 
ENDBRANCH  15  16
ENDBRANCH  14  15
ENDBRANCH  13  14
ENDBRANCH  12  13
ENDBRANCH  11  12
ENDBRANCH  10  11
ENDBRANCH   1  10
TORSDOF 13
ENDMDL
MODEL 5
REMARK VINA RESULT:    -3.131      2.945      3.812
REMARK INTER + INTRA:          -7.670
REMARK INTER:                  -5.686
REMARK INTRA:                  -1.984
REMARK UNBOUND:                -2.160
REMARK SMILES CCCCCCCCCCCCCCC(=O)[O-]
REMARK SMILES IDX 9 1 10 2 11 3 12 4 13 5 14 6 15 7 16 8 17 9 8 10 7 11 6 12
REMARK SMILES IDX 5 13 4 14 3 15 2 16 1 17
REMARK H PARENT
REMARK Flexibility Score: inf
ROOT
ATOM      1  C   UNL     1     153.455 151.397 157.886  1.00  0.00     0.000 C 
ENDROOT
BRANCH   1   2
ATOM      2  C   UNL     1     154.734 152.131 157.433  1.00  0.00     0.000 C 
BRANCH   2   3
ATOM      3  C   UNL     1     155.172 153.298 158.336  1.00  0.00     0.000 C 
BRANCH   3   4
ATOM      4  C   UNL     1     155.012 154.670 157.659  1.00  0.00     0.000 C 
BRANCH   4   5
ATOM      5  C   UNL     1     154.488 154.560 156.219  1.00  0.00     0.006 C 
BRANCH   5   6
ATOM      6  C   UNL     1     155.025 155.673 155.307  1.00  0.00     0.053 C 
BRANCH   6   7
ATOM      7  C   UNL     1     153.991 156.065 154.300  1.00  0.00     0.041 C 
ATOM      8  O   UNL     1     152.767 155.921 154.559  1.00  0.00    -0.550 OA
ATOM      9  O   UNL     1     154.376 156.640 153.095  1.00  0.00    -0.550 OA
ENDBRANCH   6   7
ENDBRANCH   5   6
ENDBRANCH   4   5
ENDBRANCH   3   4
ENDBRANCH   2   3
ENDBRANCH   1   2
BRANCH   1  10
ATOM     10  C   UNL     1     153.011 151.689 159.333  1.00  0.00     0.000 C 
BRANCH  10  11
ATOM     11  C   UNL     1     151.895 152.744 159.469  1.00  0.00    -0.000 C 
BRANCH  11  12
ATOM     12  C   UNL     1     150.979 152.891 158.237  1.00  0.00    -0.000 C 
BRANCH  12  13
ATOM     13  C   UNL     1     151.079 154.240 157.501  1.00  0.00    -0.000 C 
BRANCH  13  14
ATOM     14  C   UNL     1     151.037 155.446 158.452  1.00  0.00    -0.000 C 
BRANCH  14  15
ATOM     15  C   UNL     1     151.902 156.621 157.964  1.00  0.00    -0.000 C 
BRANCH  15  16
ATOM     16  C   UNL     1     152.639 157.362 159.100  1.00  0.00    -0.003 C 
ATOM     17  C   UNL     1     153.924 158.034 158.617  1.00  0.00     0.004 C 
ENDBRANCH  15  16
ENDBRANCH  14  15
ENDBRANCH  13  14
ENDBRANCH  12  13
ENDBRANCH  11  12
ENDBRANCH  10  11
ENDBRANCH   1  10
TORSDOF 13
ENDMDL
MODEL 6
REMARK VINA RESULT:    -3.130      2.558      4.566
REMARK INTER + INTRA:          -7.669
REMARK INTER:                  -5.819
REMARK INTRA:                  -1.850
REMARK UNBOUND:                -2.160
REMARK SMILES CCCCCCCCCCCCCCC(=O)[O-]
REMARK SMILES IDX 9 1 10 2 11 3 12 4 13 5 14 6 15 7 16 8 17 9 8 10 7 11 6 12
REMARK SMILES IDX 5 13 4 14 3 15 2 16 1 17
REMARK H PARENT
REMARK Flexibility Score: inf
ROOT
ATOM      1  C   UNL     1     152.884 151.472 159.705  1.00  0.00     0.000 C 
ENDROOT
BRANCH   1   2
ATOM      2  C   UNL     1     151.907 152.660 159.579  1.00  0.00     0.000 C 
BRANCH   2   3
ATOM      3  C   UNL     1     151.308 152.868 158.177  1.00  0.00     0.000 C 
BRANCH   3   4
ATOM      4  C   UNL     1     150.812 154.306 157.945  1.00  0.00     0.000 C 
BRANCH   4   5
ATOM      5  C   UNL     1     151.158 155.244 159.113  1.00  0.00     0.006 C 
BRANCH   5   6
ATOM      6  C   UNL     1     151.649 156.620 158.642  1.00  0.00     0.053 C 
BRANCH   6   7
ATOM      7  C   UNL     1     151.476 157.635 159.727  1.00  0.00     0.041 C 
ATOM      8  O   UNL     1     150.492 157.565 160.509  1.00  0.00    -0.550 OA
ATOM      9  O   UNL     1     152.429 158.630 159.908  1.00  0.00    -0.550 OA
ENDBRANCH   6   7
ENDBRANCH   5   6
ENDBRANCH   4   5
ENDBRANCH   3   4
ENDBRANCH   2   3
ENDBRANCH   1   2
BRANCH   1  10
ATOM     10  C   UNL     1     153.382 150.891 158.366  1.00  0.00     0.000 C 
BRANCH  10  11
ATOM     11  C   UNL     1     154.827 151.273 157.991  1.00  0.00    -0.000 C 
BRANCH  11  12
ATOM     12  C   UNL     1     154.979 152.623 157.260  1.00  0.00    -0.000 C 
BRANCH  12  13
ATOM     13  C   UNL     1     155.128 153.852 158.176  1.00  0.00    -0.000 C 
BRANCH  13  14
ATOM     14  C   UNL     1     154.902 155.181 157.437  1.00  0.00    -0.000 C 
BRANCH  14  15
ATOM     15  C   UNL     1     154.620 154.988 155.938  1.00  0.00    -0.000 C 
BRANCH  15  16
ATOM     16  C   UNL     1     153.308 155.648 155.464  1.00  0.00    -0.003 C 
ATOM     17  C   UNL     1     153.297 155.906 153.957  1.00  0.00     0.004 C 
ENDBRANCH  15  16
ENDBRANCH  14  15
ENDBRANCH  13  14
ENDBRANCH  12  13
ENDBRANCH  11  12
ENDBRANCH  10  11
ENDBRANCH   1  10
TORSDOF 13
ENDMDL
MODEL 7
REMARK VINA RESULT:    -3.114      1.407      2.447
REMARK INTER + INTRA:          -7.640
REMARK INTER:                  -5.484
REMARK INTRA:                  -2.156
REMARK UNBOUND:                -2.160
REMARK SMILES CCCCCCCCCCCCCCC(=O)[O-]
REMARK SMILES IDX 9 1 10 2 11 3 12 4 13 5 14 6 15 7 16 8 17 9 8 10 7 11 6 12
REMARK SMILES IDX 5 13 4 14 3 15 2 16 1 17
REMARK H PARENT
REMARK Flexibility Score: inf
ROOT
ATOM      1  C   UNL     1     153.504 155.412 156.440  1.00  0.00     0.000 C 
ENDROOT
BRANCH   1   2
ATOM      2  C   UNL     1     153.910 156.787 157.011  1.00  0.00     0.000 C 
BRANCH   2   3
ATOM      3  C   UNL     1     153.630 156.981 158.511  1.00  0.00     0.000 C 
BRANCH   3   4
ATOM      4  C   UNL     1     154.914 157.101 159.350  1.00  0.00     0.000 C 
BRANCH   4   5
ATOM      5  C   UNL     1     156.180 157.181 158.482  1.00  0.00     0.006 C 
BRANCH   5   6
ATOM      6  C   UNL     1     157.162 156.034 158.761  1.00  0.00     0.053 C 
BRANCH   6   7
ATOM      7  C   UNL     1     158.569 156.539 158.752  1.00  0.00     0.041 C 
ATOM      8  O   UNL     1     159.523 155.763 159.026  1.00  0.00    -0.550 OA
ATOM      9  O   UNL     1     158.835 157.854 158.391  1.00  0.00    -0.550 OA
ENDBRANCH   6   7
ENDBRANCH   5   6
ENDBRANCH   4   5
ENDBRANCH   3   4
ENDBRANCH   2   3
ENDBRANCH   1   2
BRANCH   1  10
ATOM     10  C   UNL     1     154.635 154.366 156.389  1.00  0.00     0.000 C 
BRANCH  10  11
ATOM     11  C   UNL     1     154.428 153.142 157.302  1.00  0.00    -0.000 C 
BRANCH  11  12
ATOM     12  C   UNL     1     154.518 153.430 158.814  1.00  0.00    -0.000 C 
BRANCH  12  13
ATOM     13  C   UNL     1     153.462 152.720 159.683  1.00  0.00    -0.000 C 
BRANCH  13  14
ATOM     14  C   UNL     1     152.062 152.728 159.049  1.00  0.00    -0.000 C 
BRANCH  14  15
ATOM     15  C   UNL     1     151.371 154.098 159.148  1.00  0.00    -0.000 C 
BRANCH  15  16
ATOM     16  C   UNL     1     150.409 154.394 157.978  1.00  0.00    -0.003 C 
ATOM     17  C   UNL     1     150.068 153.140 157.174  1.00  0.00     0.004 C 
ENDBRANCH  15  16
ENDBRANCH  14  15
ENDBRANCH  13  14
ENDBRANCH  12  13
ENDBRANCH  11  12
ENDBRANCH  10  11
ENDBRANCH   1  10
TORSDOF 13
ENDMDL
MODEL 8
REMARK VINA RESULT:    -3.092      3.943      6.033
REMARK INTER + INTRA:          -7.602
REMARK INTER:                  -6.066
REMARK INTRA:                  -1.537
REMARK UNBOUND:                -2.160
REMARK SMILES CCCCCCCCCCCCCCC(=O)[O-]
REMARK SMILES IDX 9 1 10 2 11 3 12 4 13 5 14 6 15 7 16 8 17 9 8 10 7 11 6 12
REMARK SMILES IDX 5 13 4 14 3 15 2 16 1 17
REMARK H PARENT
REMARK Flexibility Score: inf
ROOT
ATOM      1  C   UNL     1     151.604 152.961 158.982  1.00  0.00     0.000 C 
ENDROOT
BRANCH   1   2
ATOM      2  C   UNL     1     151.824 154.481 159.122  1.00  0.00     0.000 C 
BRANCH   2   3
ATOM      3  C   UNL     1     151.367 155.321 157.916  1.00  0.00     0.000 C 
BRANCH   3   4
ATOM      4  C   UNL     1     150.086 156.126 158.198  1.00  0.00     0.000 C 
BRANCH   4   5
ATOM      5  C   UNL     1     149.073 156.045 157.045  1.00  0.00     0.006 C 
BRANCH   5   6
ATOM      6  C   UNL     1     148.192 154.789 157.117  1.00  0.00     0.053 C 
BRANCH   6   7
ATOM      7  C   UNL     1     148.676 153.757 156.150  1.00  0.00     0.041 C 
ATOM      8  O   UNL     1     149.037 152.622 156.562  1.00  0.00    -0.550 OA
ATOM      9  O   UNL     1     148.682 154.027 154.787  1.00  0.00    -0.550 OA
ENDBRANCH   6   7
ENDBRANCH   5   6
ENDBRANCH   4   5
ENDBRANCH   3   4
ENDBRANCH   2   3
ENDBRANCH   1   2
BRANCH   1  10
ATOM     10  C   UNL     1     152.580 152.083 159.791  1.00  0.00     0.000 C 
BRANCH  10  11
ATOM     11  C   UNL     1     153.157 150.878 159.022  1.00  0.00    -0.000 C 
BRANCH  11  12
ATOM     12  C   UNL     1     153.667 151.191 157.601  1.00  0.00    -0.000 C 
BRANCH  12  13
ATOM     13  C   UNL     1     155.028 151.910 157.535  1.00  0.00    -0.000 C 
BRANCH  13  14
ATOM     14  C   UNL     1     154.899 153.406 157.206  1.00  0.00    -0.000 C 
BRANCH  14  15
ATOM     15  C   UNL     1     155.499 154.309 158.298  1.00  0.00    -0.000 C 
BRANCH  15  16
ATOM     16  C   UNL     1     155.075 155.788 158.181  1.00  0.00    -0.003 C 
ATOM     17  C   UNL     1     155.993 156.721 158.971  1.00  0.00     0.004 C 
ENDBRANCH  15  16
ENDBRANCH  14  15
ENDBRANCH  13  14
ENDBRANCH  12  13
ENDBRANCH  11  12
ENDBRANCH  10  11
ENDBRANCH   1  10
TORSDOF 13
ENDMDL
MODEL 9
REMARK VINA RESULT:    -3.089      8.098     10.725
REMARK INTER + INTRA:          -7.596
REMARK INTER:                  -5.047
REMARK INTRA:                  -2.549
REMARK UNBOUND:                -2.160
REMARK SMILES CCCCCCCCCCCCCCC(=O)[O-]
REMARK SMILES IDX 9 1 10 2 11 3 12 4 13 5 14 6 15 7 16 8 17 9 8 10 7 11 6 12
REMARK SMILES IDX 5 13 4 14 3 15 2 16 1 17
REMARK H PARENT
REMARK Flexibility Score: inf
ROOT
ATOM      1  C   UNL     1     163.757 153.179 152.880  1.00  0.00     0.000 C 
ENDROOT
BRANCH   1   2
ATOM      2  C   UNL     1     162.650 153.789 153.766  1.00  0.00     0.000 C 
BRANCH   2   3
ATOM      3  C   UNL     1     162.948 155.198 154.306  1.00  0.00     0.000 C 
BRANCH   3   4
ATOM      4  C   UNL     1     162.613 155.350 155.800  1.00  0.00     0.000 C 
BRANCH   4   5
ATOM      5  C   UNL     1     161.978 154.082 156.393  1.00  0.00     0.006 C 
BRANCH   5   6
ATOM      6  C   UNL     1     162.332 153.879 157.873  1.00  0.00     0.053 C 
BRANCH   6   7
ATOM      7  C   UNL     1     161.780 154.995 158.700  1.00  0.00     0.041 C 
ATOM      8  O   UNL     1     162.550 155.713 159.391  1.00  0.00    -0.550 OA
ATOM      9  O   UNL     1     160.420 155.277 158.670  1.00  0.00    -0.550 OA
ENDBRANCH   6   7
ENDBRANCH   5   6
ENDBRANCH   4   5
ENDBRANCH   3   4
ENDBRANCH   2   3
ENDBRANCH   1   2
BRANCH   1  10
ATOM     10  C   UNL     1     164.596 152.074 153.551  1.00  0.00     0.000 C 
BRANCH  10  11
ATOM     11  C   UNL     1     163.846 151.243 154.612  1.00  0.00    -0.000 C 
BRANCH  11  12
ATOM     12  C   UNL     1     164.394 151.367 156.048  1.00  0.00    -0.000 C 
BRANCH  12  13
ATOM     13  C   UNL     1     165.827 151.920 156.159  1.00  0.00    -0.000 C 
BRANCH  13  14
ATOM     14  C   UNL     1     165.881 153.322 156.787  1.00  0.00    -0.000 C 
BRANCH  14  15
ATOM     15  C   UNL     1     166.307 154.408 155.784  1.00  0.00    -0.000 C 
BRANCH  15  16
ATOM     16  C   UNL     1     166.298 155.834 156.373  1.00  0.00    -0.003 C 
ATOM     17  C   UNL     1     165.713 155.877 157.784  1.00  0.00     0.004 C 
ENDBRANCH  15  16
ENDBRANCH  14  15
ENDBRANCH  13  14
ENDBRANCH  12  13
ENDBRANCH  11  12
ENDBRANCH  10  11
ENDBRANCH   1  10
TORSDOF 13
ENDMDL
