MODEL 1
REMARK VINA RESULT:    -4.749      0.000      0.000
REMARK INTER + INTRA:          -6.252
REMARK INTER:                  -6.138
REMARK INTRA:                  -0.114
REMARK UNBOUND:                -0.114
REMARK SMILES C=CC(=O)CCCCC
REMARK SMILES IDX 6 1 7 2 8 3 9 4 5 5 3 6 4 7 2 8 1 9
REMARK H PARENT
REMARK Flexibility Score: inf
ROOT
ATOM      1  C   UNL     1      15.379  26.109  54.045  1.00  0.00     0.008 C 
ENDROOT
BRANCH   1   2
ATOM      2  C   UNL     1      14.766  25.505  52.773  1.00  0.00     0.000 C 
BRANCH   2   3
ATOM      3  C   UNL     1      13.338  26.007  52.511  1.00  0.00    -0.003 C 
ATOM      4  C   UNL     1      12.476  24.914  51.887  1.00  0.00     0.004 C 
ENDBRANCH   2   3
ENDBRANCH   1   2
BRANCH   1   5
ATOM      5  C   UNL     1      16.910  26.000  54.072  1.00  0.00     0.080 C 
BRANCH   5   6
ATOM      6  C   UNL     1      17.357  25.042  55.144  1.00  0.00     0.155 C 
ATOM      7  O   UNL     1      16.620  24.056  55.416  1.00  0.00    -0.295 OA
BRANCH   6   8
ATOM      8  C   UNL     1      18.636  25.184  55.874  1.00  0.00     0.039 C 
ATOM      9  C   UNL     1      18.730  25.314  57.197  1.00  0.00     0.012 C 
ENDBRANCH   6   8
ENDBRANCH   5   6
ENDBRANCH   1   5
TORSDOF 5
ENDMDL
MODEL 2
REMARK VINA RESULT:    -3.969      8.277      8.626
REMARK INTER + INTRA:          -5.244
REMARK INTER:                  -5.160
REMARK INTRA:                  -0.084
REMARK UNBOUND:                -0.114
REMARK SMILES C=CC(=O)CCCCC
REMARK SMILES IDX 6 1 7 2 8 3 9 4 5 5 3 6 4 7 2 8 1 9
REMARK H PARENT
REMARK Flexibility Score: inf
ROOT
ATOM      1  C   UNL     1      12.178  19.078  58.155  1.00  0.00     0.008 C 
ENDROOT
BRANCH   1   2
ATOM      2  C   UNL     1      11.309  18.381  59.213  1.00  0.00     0.000 C 
BRANCH   2   3
ATOM      3  C   UNL     1       9.806  18.559  58.951  1.00  0.00    -0.003 C 
ATOM      4  C   UNL     1       9.003  18.416  60.241  1.00  0.00     0.004 C 
ENDBRANCH   2   3
ENDBRANCH   1   2
BRANCH   1   5
ATOM      5  C   UNL     1      13.680  18.859  58.387  1.00  0.00     0.080 C 
BRANCH   5   6
ATOM      6  C   UNL     1      14.428  18.874  57.080  1.00  0.00     0.155 C 
ATOM      7  O   UNL     1      13.948  18.238  56.104  1.00  0.00    -0.295 OA
BRANCH   6   8
ATOM      8  C   UNL     1      15.684  19.628  56.876  1.00  0.00     0.039 C 
ATOM      9  C   UNL     1      16.784  19.112  56.329  1.00  0.00     0.012 C 
ENDBRANCH   6   8
ENDBRANCH   5   6
ENDBRANCH   1   5
TORSDOF 5
ENDMDL
MODEL 3
REMARK VINA RESULT:    -3.870      7.107      8.329
REMARK INTER + INTRA:          -5.116
REMARK INTER:                  -4.619
REMARK INTRA:                  -0.497
REMARK UNBOUND:                -0.114
REMARK SMILES C=CC(=O)CCCCC
REMARK SMILES IDX 6 1 7 2 8 3 9 4 5 5 3 6 4 7 2 8 1 9
REMARK H PARENT
REMARK Flexibility Score: inf
ROOT
ATOM      1  C   UNL     1      14.339  18.943  57.804  1.00  0.00     0.008 C 
ENDROOT
BRANCH   1   2
ATOM      2  C   UNL     1      15.459  19.945  57.485  1.00  0.00     0.000 C 
BRANCH   2   3
ATOM      3  C   UNL     1      16.538  19.350  56.568  1.00  0.00    -0.003 C 
ATOM      4  C   UNL     1      16.499  19.993  55.184  1.00  0.00     0.004 C 
ENDBRANCH   2   3
ENDBRANCH   1   2
BRANCH   1   5
ATOM      5  C   UNL     1      12.958  19.440  57.353  1.00  0.00     0.080 C 
BRANCH   5   6
ATOM      6  C   UNL     1      12.429  18.592  56.226  1.00  0.00     0.155 C 
ATOM      7  O   UNL     1      11.240  18.181  56.288  1.00  0.00    -0.295 OA
BRANCH   6   8
ATOM      8  C   UNL     1      13.230  18.245  55.032  1.00  0.00     0.039 C 
ATOM      9  C   UNL     1      13.493  16.997  54.647  1.00  0.00     0.012 C 
ENDBRANCH   6   8
ENDBRANCH   5   6
ENDBRANCH   1   5
TORSDOF 5
ENDMDL
MODEL 4
REMARK VINA RESULT:    -3.847      7.262      8.429
REMARK INTER + INTRA:          -5.085
REMARK INTER:                  -4.891
REMARK INTRA:                  -0.194
REMARK UNBOUND:                -0.114
REMARK SMILES C=CC(=O)CCCCC
REMARK SMILES IDX 6 1 7 2 8 3 9 4 5 5 3 6 4 7 2 8 1 9
REMARK H PARENT
REMARK Flexibility Score: inf
ROOT
ATOM      1  C   UNL     1      14.194  18.932  57.205  1.00  0.00     0.008 C 
ENDROOT
BRANCH   1   2
ATOM      2  C   UNL     1      15.511  19.714  57.322  1.00  0.00     0.000 C 
BRANCH   2   3
ATOM      3  C   UNL     1      16.588  19.203  56.352  1.00  0.00    -0.003 C 
ATOM      4  C   UNL     1      16.610  20.030  55.070  1.00  0.00     0.004 C 
ENDBRANCH   2   3
ENDBRANCH   1   2
BRANCH   1   5
ATOM      5  C   UNL     1      13.423  18.874  58.532  1.00  0.00     0.080 C 
BRANCH   5   6
ATOM      6  C   UNL     1      11.938  18.943  58.288  1.00  0.00     0.155 C 
ATOM      7  O   UNL     1      11.184  18.178  58.946  1.00  0.00    -0.295 OA
BRANCH   6   8
ATOM      8  C   UNL     1      11.319  19.890  57.335  1.00  0.00     0.039 C 
ATOM      9  C   UNL     1      10.885  21.105  57.667  1.00  0.00     0.012 C 
ENDBRANCH   6   8
ENDBRANCH   5   6
ENDBRANCH   1   5
TORSDOF 5
ENDMDL
MODEL 5
REMARK VINA RESULT:    -3.839      9.297     10.190
REMARK INTER + INTRA:          -5.076
REMARK INTER:                  -4.703
REMARK INTRA:                  -0.373
REMARK UNBOUND:                -0.114
REMARK SMILES C=CC(=O)CCCCC
REMARK SMILES IDX 6 1 7 2 8 3 9 4 5 5 3 6 4 7 2 8 1 9
REMARK H PARENT
REMARK Flexibility Score: inf
ROOT
ATOM      1  C   UNL     1       9.286  18.522  58.790  1.00  0.00     0.008 C 
ENDROOT
BRANCH   1   2
ATOM      2  C   UNL     1       8.794  18.291  60.227  1.00  0.00     0.000 C 
BRANCH   2   3
ATOM      3  C   UNL     1       8.473  19.603  60.958  1.00  0.00    -0.003 C 
ATOM      4  C   UNL     1       9.560  19.948  61.971  1.00  0.00     0.004 C 
ENDBRANCH   2   3
ENDBRANCH   1   2
BRANCH   1   5
ATOM      5  C   UNL     1      10.817  18.570  58.690  1.00  0.00     0.080 C 
BRANCH   5   6
ATOM      6  C   UNL     1      11.256  19.684  57.776  1.00  0.00     0.155 C 
ATOM      7  O   UNL     1      12.090  19.424  56.868  1.00  0.00    -0.295 OA
BRANCH   6   8
ATOM      8  C   UNL     1      10.730  21.063  57.873  1.00  0.00     0.039 C 
ATOM      9  C   UNL     1      10.030  21.664  56.911  1.00  0.00     0.012 C 
ENDBRANCH   6   8
ENDBRANCH   5   6
ENDBRANCH   1   5
TORSDOF 5
ENDMDL
MODEL 6
REMARK VINA RESULT:    -3.805      8.041      8.972
REMARK INTER + INTRA:          -5.032
REMARK INTER:                  -4.896
REMARK INTRA:                  -0.137
REMARK UNBOUND:                -0.114
REMARK SMILES C=CC(=O)CCCCC
REMARK SMILES IDX 6 1 7 2 8 3 9 4 5 5 3 6 4 7 2 8 1 9
REMARK H PARENT
REMARK Flexibility Score: inf
ROOT
ATOM      1  C   UNL     1      13.941  18.916  57.822  1.00  0.00     0.008 C 
ENDROOT
BRANCH   1   2
ATOM      2  C   UNL     1      14.643  18.876  56.456  1.00  0.00     0.000 C 
BRANCH   2   3
ATOM      3  C   UNL     1      16.100  19.356  56.527  1.00  0.00    -0.003 C 
ATOM      4  C   UNL     1      16.520  20.033  55.226  1.00  0.00     0.004 C 
ENDBRANCH   2   3
ENDBRANCH   1   2
BRANCH   1   5
ATOM      5  C   UNL     1      12.588  19.640  57.771  1.00  0.00     0.080 C 
BRANCH   5   6
ATOM      6  C   UNL     1      11.456  18.668  57.975  1.00  0.00     0.155 C 
ATOM      7  O   UNL     1      10.956  18.105  56.965  1.00  0.00    -0.295 OA
BRANCH   6   8
ATOM      8  C   UNL     1      10.925  18.316  59.310  1.00  0.00     0.039 C 
ATOM      9  C   UNL     1       9.656  18.494  59.679  1.00  0.00     0.012 C 
ENDBRANCH   6   8
ENDBRANCH   5   6
ENDBRANCH   1   5
TORSDOF 5
ENDMDL
MODEL 7
REMARK VINA RESULT:    -3.790      8.792      9.275
REMARK INTER + INTRA:          -5.012
REMARK INTER:                  -4.854
REMARK INTRA:                  -0.157
REMARK UNBOUND:                -0.114
REMARK SMILES C=CC(=O)CCCCC
REMARK SMILES IDX 6 1 7 2 8 3 9 4 5 5 3 6 4 7 2 8 1 9
REMARK H PARENT
REMARK Flexibility Score: inf
ROOT
ATOM      1  C   UNL     1      11.033  18.496  57.877  1.00  0.00     0.008 C 
ENDROOT
BRANCH   1   2
ATOM      2  C   UNL     1      10.693  18.404  59.372  1.00  0.00     0.000 C 
BRANCH   2   3
ATOM      3  C   UNL     1       9.179  18.378  59.631  1.00  0.00    -0.003 C 
ATOM      4  C   UNL     1       8.804  19.298  60.790  1.00  0.00     0.004 C 
ENDBRANCH   2   3
ENDBRANCH   1   2
BRANCH   1   5
ATOM      5  C   UNL     1      12.052  19.604  57.571  1.00  0.00     0.080 C 
BRANCH   5   6
ATOM      6  C   UNL     1      13.455  19.057  57.590  1.00  0.00     0.155 C 
ATOM      7  O   UNL     1      13.982  18.792  58.703  1.00  0.00    -0.295 OA
BRANCH   6   8
ATOM      8  C   UNL     1      14.233  18.785  56.362  1.00  0.00     0.039 C 
ATOM      9  C   UNL     1      13.896  17.870  55.453  1.00  0.00     0.012 C 
ENDBRANCH   6   8
ENDBRANCH   5   6
ENDBRANCH   1   5
TORSDOF 5
ENDMDL
MODEL 8
REMARK VINA RESULT:    -3.779      9.812     10.767
REMARK INTER + INTRA:          -4.998
REMARK INTER:                  -4.615
REMARK INTRA:                  -0.383
REMARK UNBOUND:                -0.114
REMARK SMILES C=CC(=O)CCCCC
REMARK SMILES IDX 6 1 7 2 8 3 9 4 5 5 3 6 4 7 2 8 1 9
REMARK H PARENT
REMARK Flexibility Score: inf
ROOT
ATOM      1  C   UNL     1      10.880  18.296  57.875  1.00  0.00     0.008 C 
ENDROOT
BRANCH   1   2
ATOM      2  C   UNL     1      11.988  19.360  57.878  1.00  0.00     0.000 C 
BRANCH   2   3
ATOM      3  C   UNL     1      13.304  18.838  58.474  1.00  0.00    -0.003 C 
ATOM      4  C   UNL     1      13.058  18.099  59.786  1.00  0.00     0.004 C 
ENDBRANCH   2   3
ENDBRANCH   1   2
BRANCH   1   5
ATOM      5  C   UNL     1       9.477  18.906  57.738  1.00  0.00     0.080 C 
BRANCH   5   6
ATOM      6  C   UNL     1       8.617  18.532  58.917  1.00  0.00     0.155 C 
ATOM      7  O   UNL     1       7.436  18.150  58.703  1.00  0.00    -0.295 OA
BRANCH   6   8
ATOM      8  C   UNL     1       9.104  18.562  60.313  1.00  0.00     0.039 C 
ATOM      9  C   UNL     1       8.967  19.606  61.129  1.00  0.00     0.012 C 
ENDBRANCH   6   8
ENDBRANCH   5   6
ENDBRANCH   1   5
TORSDOF 5
ENDMDL
MODEL 9
REMARK VINA RESULT:    -3.747      7.052      7.464
REMARK INTER + INTRA:          -4.957
REMARK INTER:                  -4.778
REMARK INTRA:                  -0.179
REMARK UNBOUND:                -0.114
REMARK SMILES C=CC(=O)CCCCC
REMARK SMILES IDX 6 1 7 2 8 3 9 4 5 5 3 6 4 7 2 8 1 9
REMARK H PARENT
REMARK Flexibility Score: inf
ROOT
ATOM      1  C   UNL     1      13.948  17.380  55.338  1.00  0.00     0.008 C 
ENDROOT
BRANCH   1   2
ATOM      2  C   UNL     1      13.293  17.129  53.971  1.00  0.00     0.000 C 
BRANCH   2   3
ATOM      3  C   UNL     1      13.567  18.262  52.970  1.00  0.00    -0.003 C 
ATOM      4  C   UNL     1      13.082  17.890  51.572  1.00  0.00     0.004 C 
ENDBRANCH   2   3
ENDBRANCH   1   2
BRANCH   1   5
ATOM      5  C   UNL     1      13.814  18.838  55.798  1.00  0.00     0.080 C 
BRANCH   5   6
ATOM      6  C   UNL     1      14.523  19.049  57.110  1.00  0.00     0.155 C 
ATOM      7  O   UNL     1      13.905  18.788  58.177  1.00  0.00    -0.295 OA
BRANCH   6   8
ATOM      8  C   UNL     1      15.922  19.518  57.207  1.00  0.00     0.039 C 
ATOM      9  C   UNL     1      16.892  19.152  56.368  1.00  0.00     0.012 C 
ENDBRANCH   6   8
ENDBRANCH   5   6
ENDBRANCH   1   5
TORSDOF 5
ENDMDL
