MODEL 1
REMARK VINA RESULT:    -5.538      0.000      0.000
REMARK INTER + INTRA:         -18.380
REMARK INTER:                 -13.955
REMARK INTRA:                  -4.424
REMARK UNBOUND:                -4.424
REMARK SMILES CCCCCCCCCCCCCCCCCCCCCCCCCCCC(=O)[O-]
REMARK SMILES IDX 15 1 16 2 17 3 18 4 19 5 20 6 21 7 22 8 23 9 24 10 25 11
REMARK SMILES IDX 26 12 27 13 28 14 29 15 30 16 14 17 13 18 12 19 11 20 10 21
REMARK SMILES IDX 9 22 8 23 7 24 6 25 5 26 4 27 3 28 2 29 1 30
REMARK H PARENT
REMARK Flexibility Score: inf
ROOT
ATOM      1  C   UNL     1     123.779 178.115 120.809  1.00  0.00     0.000 C 
ENDROOT
BRANCH   1   2
ATOM      2  C   UNL     1     124.022 177.490 119.427  1.00  0.00     0.000 C 
BRANCH   2   3
ATOM      3  C   UNL     1     125.326 176.675 119.366  1.00  0.00     0.000 C 
BRANCH   3   4
ATOM      4  C   UNL     1     126.513 177.501 118.845  1.00  0.00     0.000 C 
BRANCH   4   5
ATOM      5  C   UNL     1     127.858 177.044 119.435  1.00  0.00     0.000 C 
BRANCH   5   6
ATOM      6  C   UNL     1     128.501 178.097 120.351  1.00  0.00     0.000 C 
BRANCH   6   7
ATOM      7  C   UNL     1     128.333 177.769 121.845  1.00  0.00     0.000 C 
BRANCH   7   8
ATOM      8  C   UNL     1     127.099 178.454 122.463  1.00  0.00     0.000 C 
BRANCH   8   9
ATOM      9  C   UNL     1     126.760 177.998 123.898  1.00  0.00     0.000 C 
BRANCH   9  10
ATOM     10  C   UNL     1     127.173 176.553 124.250  1.00  0.00     0.000 C 
BRANCH  10  11
ATOM     11  C   UNL     1     126.100 175.482 123.983  1.00  0.00     0.000 C 
BRANCH  11  12
ATOM     12  C   UNL     1     126.677 174.206 123.354  1.00  0.00     0.006 C 
BRANCH  12  13
ATOM     13  C   UNL     1     126.822 174.360 121.835  1.00  0.00     0.053 C 
BRANCH  13  14
ATOM     14  C   UNL     1     128.074 173.702 121.340  1.00  0.00     0.041 C 
ATOM     15  O   UNL     1     129.167 174.330 121.339  1.00  0.00    -0.550 OA
ATOM     16  O   UNL     1     128.044 172.376 120.923  1.00  0.00    -0.550 OA
ENDBRANCH  13  14
ENDBRANCH  12  13
ENDBRANCH  11  12
ENDBRANCH  10  11
ENDBRANCH   9  10
ENDBRANCH   8   9
ENDBRANCH   7   8
ENDBRANCH   6   7
ENDBRANCH   5   6
ENDBRANCH   4   5
ENDBRANCH   3   4
ENDBRANCH   2   3
ENDBRANCH   1   2
BRANCH   1  17
ATOM     17  C   UNL     1     123.697 177.063 121.930  1.00  0.00     0.000 C 
BRANCH  17  18
ATOM     18  C   UNL     1     122.893 177.555 123.144  1.00  0.00     0.000 C 
BRANCH  18  19
ATOM     19  C   UNL     1     122.486 176.409 124.087  1.00  0.00     0.000 C 
BRANCH  19  20
ATOM     20  C   UNL     1     122.877 176.681 125.549  1.00  0.00     0.000 C 
BRANCH  20  21
ATOM     21  C   UNL     1     123.489 178.079 125.746  1.00  0.00     0.000 C 
BRANCH  21  22
ATOM     22  C   UNL     1     122.908 178.814 126.963  1.00  0.00    -0.000 C 
BRANCH  22  23
ATOM     23  C   UNL     1     121.381 178.656 127.075  1.00  0.00    -0.000 C 
BRANCH  23  24
ATOM     24  C   UNL     1     120.613 179.649 126.177  1.00  0.00    -0.000 C 
BRANCH  24  25
ATOM     25  C   UNL     1     119.937 178.998 124.956  1.00  0.00    -0.000 C 
BRANCH  25  26
ATOM     26  C   UNL     1     119.234 177.656 125.231  1.00  0.00    -0.000 C 
BRANCH  26  27
ATOM     27  C   UNL     1     117.959 177.749 126.092  1.00  0.00    -0.000 C 
BRANCH  27  28
ATOM     28  C   UNL     1     116.826 178.530 125.403  1.00  0.00    -0.000 C 
BRANCH  28  29
ATOM     29  C   UNL     1     115.538 178.558 126.240  1.00  0.00    -0.003 C 
ATOM     30  C   UNL     1     114.410 179.341 125.568  1.00  0.00     0.004 C 
ENDBRANCH  28  29
ENDBRANCH  27  28
ENDBRANCH  26  27
ENDBRANCH  25  26
ENDBRANCH  24  25
ENDBRANCH  23  24
ENDBRANCH  22  23
ENDBRANCH  21  22
ENDBRANCH  20  21
ENDBRANCH  19  20
ENDBRANCH  18  19
ENDBRANCH  17  18
ENDBRANCH   1  17
TORSDOF 26
ENDMDL
MODEL 2
REMARK VINA RESULT:    -5.491      4.215      9.364
REMARK INTER + INTRA:         -18.263
REMARK INTER:                 -13.760
REMARK INTRA:                  -4.502
REMARK UNBOUND:                -4.424
REMARK SMILES CCCCCCCCCCCCCCCCCCCCCCCCCCCC(=O)[O-]
REMARK SMILES IDX 15 1 16 2 17 3 18 4 19 5 20 6 21 7 22 8 23 9 24 10 25 11
REMARK SMILES IDX 26 12 27 13 28 14 29 15 30 16 14 17 13 18 12 19 11 20 10 21
REMARK SMILES IDX 9 22 8 23 7 24 6 25 5 26 4 27 3 28 2 29 1 30
REMARK H PARENT
REMARK Flexibility Score: inf
ROOT
ATOM      1  C   UNL     1     119.956 179.527 125.189  1.00  0.00     0.000 C 
ENDROOT
BRANCH   1   2
ATOM      2  C   UNL     1     121.166 179.621 126.131  1.00  0.00     0.000 C 
BRANCH   2   3
ATOM      3  C   UNL     1     120.942 178.878 127.460  1.00  0.00     0.000 C 
BRANCH   3   4
ATOM      4  C   UNL     1     122.024 177.822 127.735  1.00  0.00     0.000 C 
BRANCH   4   5
ATOM      5  C   UNL     1     121.734 176.989 128.995  1.00  0.00     0.000 C 
BRANCH   5   6
ATOM      6  C   UNL     1     121.647 175.482 128.712  1.00  0.00     0.000 C 
BRANCH   6   7
ATOM      7  C   UNL     1     121.304 175.171 127.245  1.00  0.00     0.000 C 
BRANCH   7   8
ATOM      8  C   UNL     1     120.085 174.238 127.109  1.00  0.00     0.000 C 
BRANCH   8   9
ATOM      9  C   UNL     1     118.971 174.764 126.180  1.00  0.00     0.000 C 
BRANCH   9  10
ATOM     10  C   UNL     1     118.780 176.296 126.172  1.00  0.00     0.000 C 
BRANCH  10  11
ATOM     11  C   UNL     1     117.969 176.860 127.352  1.00  0.00     0.000 C 
BRANCH  11  12
ATOM     12  C   UNL     1     116.705 177.606 126.901  1.00  0.00     0.006 C 
BRANCH  12  13
ATOM     13  C   UNL     1     116.643 177.706 125.371  1.00  0.00     0.053 C 
BRANCH  13  14
ATOM     14  C   UNL     1     115.678 178.766 124.936  1.00  0.00     0.041 C 
ATOM     15  O   UNL     1     114.857 179.258 125.757  1.00  0.00    -0.550 OA
ATOM     16  O   UNL     1     115.717 179.248 123.632  1.00  0.00    -0.550 OA
ENDBRANCH  13  14
ENDBRANCH  12  13
ENDBRANCH  11  12
ENDBRANCH  10  11
ENDBRANCH   9  10
ENDBRANCH   8   9
ENDBRANCH   7   8
ENDBRANCH   6   7
ENDBRANCH   5   6
ENDBRANCH   4   5
ENDBRANCH   3   4
ENDBRANCH   2   3
ENDBRANCH   1   2
BRANCH   1  17
ATOM     17  C   UNL     1     120.259 178.722 123.912  1.00  0.00     0.000 C 
BRANCH  17  18
ATOM     18  C   UNL     1     121.711 178.223 123.860  1.00  0.00     0.000 C 
BRANCH  18  19
ATOM     19  C   UNL     1     121.812 176.689 123.905  1.00  0.00     0.000 C 
BRANCH  19  20
ATOM     20  C   UNL     1     123.182 176.201 124.402  1.00  0.00     0.000 C 
BRANCH  20  21
ATOM     21  C   UNL     1     124.157 177.360 124.677  1.00  0.00     0.000 C 
BRANCH  21  22
ATOM     22  C   UNL     1     125.615 176.996 124.358  1.00  0.00    -0.000 C 
BRANCH  22  23
ATOM     23  C   UNL     1     126.173 177.787 123.161  1.00  0.00    -0.000 C 
BRANCH  23  24
ATOM     24  C   UNL     1     127.275 177.017 122.403  1.00  0.00    -0.000 C 
BRANCH  24  25
ATOM     25  C   UNL     1     127.734 177.699 121.100  1.00  0.00    -0.000 C 
BRANCH  25  26
ATOM     26  C   UNL     1     127.203 177.063 119.802  1.00  0.00    -0.000 C 
BRANCH  26  27
ATOM     27  C   UNL     1     126.692 178.061 118.745  1.00  0.00    -0.000 C 
BRANCH  27  28
ATOM     28  C   UNL     1     125.269 178.569 119.038  1.00  0.00    -0.000 C 
BRANCH  28  29
ATOM     29  C   UNL     1     124.319 177.441 119.466  1.00  0.00    -0.003 C 
ATOM     30  C   UNL     1     123.565 177.758 120.758  1.00  0.00     0.004 C 
ENDBRANCH  28  29
ENDBRANCH  27  28
ENDBRANCH  26  27
ENDBRANCH  25  26
ENDBRANCH  24  25
ENDBRANCH  23  24
ENDBRANCH  22  23
ENDBRANCH  21  22
ENDBRANCH  20  21
ENDBRANCH  19  20
ENDBRANCH  18  19
ENDBRANCH  17  18
ENDBRANCH   1  17
TORSDOF 26
ENDMDL
MODEL 3
REMARK VINA RESULT:    -5.467      1.485      3.611
REMARK INTER + INTRA:         -18.201
REMARK INTER:                 -13.535
REMARK INTRA:                  -4.667
REMARK UNBOUND:                -4.424
REMARK SMILES CCCCCCCCCCCCCCCCCCCCCCCCCCCC(=O)[O-]
REMARK SMILES IDX 15 1 16 2 17 3 18 4 19 5 20 6 21 7 22 8 23 9 24 10 25 11
REMARK SMILES IDX 26 12 27 13 28 14 29 15 30 16 14 17 13 18 12 19 11 20 10 21
REMARK SMILES IDX 9 22 8 23 7 24 6 25 5 26 4 27 3 28 2 29 1 30
REMARK H PARENT
REMARK Flexibility Score: inf
ROOT
ATOM      1  C   UNL     1     123.006 176.241 124.782  1.00  0.00     0.000 C 
ENDROOT
BRANCH   1   2
ATOM      2  C   UNL     1     124.053 177.365 124.731  1.00  0.00     0.000 C 
BRANCH   2   3
ATOM      3  C   UNL     1     125.356 176.931 124.037  1.00  0.00     0.000 C 
BRANCH   3   4
ATOM      4  C   UNL     1     125.533 177.582 122.655  1.00  0.00     0.000 C 
BRANCH   4   5
ATOM      5  C   UNL     1     124.663 176.920 121.573  1.00  0.00     0.000 C 
BRANCH   5   6
ATOM      6  C   UNL     1     123.846 177.934 120.757  1.00  0.00     0.000 C 
BRANCH   6   7
ATOM      7  C   UNL     1     124.053 177.781 119.240  1.00  0.00     0.000 C 
BRANCH   7   8
ATOM      8  C   UNL     1     125.239 176.859 118.897  1.00  0.00     0.000 C 
BRANCH   8   9
ATOM      9  C   UNL     1     126.510 177.593 118.420  1.00  0.00     0.000 C 
BRANCH   9  10
ATOM     10  C   UNL     1     127.839 176.852 118.675  1.00  0.00     0.000 C 
BRANCH  10  11
ATOM     11  C   UNL     1     128.156 176.565 120.154  1.00  0.00     0.000 C 
BRANCH  11  12
ATOM     12  C   UNL     1     128.376 175.071 120.435  1.00  0.00     0.006 C 
BRANCH  12  13
ATOM     13  C   UNL     1     127.574 174.619 121.662  1.00  0.00     0.053 C 
BRANCH  13  14
ATOM     14  C   UNL     1     128.479 174.290 122.810  1.00  0.00     0.041 C 
ATOM     15  O   UNL     1     129.384 173.422 122.680  1.00  0.00    -0.550 OA
ATOM     16  O   UNL     1     128.353 174.977 124.012  1.00  0.00    -0.550 OA
ENDBRANCH  13  14
ENDBRANCH  12  13
ENDBRANCH  11  12
ENDBRANCH  10  11
ENDBRANCH   9  10
ENDBRANCH   8   9
ENDBRANCH   7   8
ENDBRANCH   6   7
ENDBRANCH   5   6
ENDBRANCH   4   5
ENDBRANCH   3   4
ENDBRANCH   2   3
ENDBRANCH   1   2
BRANCH   1  17
ATOM     17  C   UNL     1     121.710 176.603 124.034  1.00  0.00     0.000 C 
BRANCH  17  18
ATOM     18  C   UNL     1     121.615 178.101 123.709  1.00  0.00     0.000 C 
BRANCH  18  19
ATOM     19  C   UNL     1     120.305 178.733 124.212  1.00  0.00     0.000 C 
BRANCH  19  20
ATOM     20  C   UNL     1     120.546 179.856 125.235  1.00  0.00     0.000 C 
BRANCH  20  21
ATOM     21  C   UNL     1     120.522 179.346 126.687  1.00  0.00     0.000 C 
BRANCH  21  22
ATOM     22  C   UNL     1     121.925 179.023 127.224  1.00  0.00    -0.000 C 
BRANCH  22  23
ATOM     23  C   UNL     1     121.971 177.688 127.990  1.00  0.00    -0.000 C 
BRANCH  23  24
ATOM     24  C   UNL     1     120.816 177.545 129.003  1.00  0.00    -0.000 C 
BRANCH  24  25
ATOM     25  C   UNL     1     119.851 176.385 128.694  1.00  0.00    -0.000 C 
BRANCH  25  26
ATOM     26  C   UNL     1     120.020 175.741 127.305  1.00  0.00    -0.000 C 
BRANCH  26  27
ATOM     27  C   UNL     1     118.859 175.987 126.322  1.00  0.00    -0.000 C 
BRANCH  27  28
ATOM     28  C   UNL     1     117.852 177.033 126.833  1.00  0.00    -0.000 C 
BRANCH  28  29
ATOM     29  C   UNL     1     117.075 177.706 125.692  1.00  0.00    -0.003 C 
ATOM     30  C   UNL     1     115.838 178.460 126.181  1.00  0.00     0.004 C 
ENDBRANCH  28  29
ENDBRANCH  27  28
ENDBRANCH  26  27
ENDBRANCH  25  26
ENDBRANCH  24  25
ENDBRANCH  23  24
ENDBRANCH  22  23
ENDBRANCH  21  22
ENDBRANCH  20  21
ENDBRANCH  19  20
ENDBRANCH  18  19
ENDBRANCH  17  18
ENDBRANCH   1  17
TORSDOF 26
ENDMDL
MODEL 4
REMARK VINA RESULT:    -5.448      2.277      4.222
REMARK INTER + INTRA:         -18.154
REMARK INTER:                 -13.304
REMARK INTRA:                  -4.850
REMARK UNBOUND:                -4.424
REMARK SMILES CCCCCCCCCCCCCCCCCCCCCCCCCCCC(=O)[O-]
REMARK SMILES IDX 15 1 16 2 17 3 18 4 19 5 20 6 21 7 22 8 23 9 24 10 25 11
REMARK SMILES IDX 26 12 27 13 28 14 29 15 30 16 14 17 13 18 12 19 11 20 10 21
REMARK SMILES IDX 9 22 8 23 7 24 6 25 5 26 4 27 3 28 2 29 1 30
REMARK H PARENT
REMARK Flexibility Score: inf
ROOT
ATOM      1  C   UNL     1     123.833 177.698 121.880  1.00  0.00     0.000 C 
ENDROOT
BRANCH   1   2
ATOM      2  C   UNL     1     125.233 177.064 121.898  1.00  0.00     0.000 C 
BRANCH   2   3
ATOM      3  C   UNL     1     126.350 178.084 121.618  1.00  0.00     0.000 C 
BRANCH   3   4
ATOM      4  C   UNL     1     127.099 178.501 122.894  1.00  0.00     0.000 C 
BRANCH   4   5
ATOM      5  C   UNL     1     128.234 177.529 123.260  1.00  0.00     0.000 C 
BRANCH   5   6
ATOM      6  C   UNL     1     127.949 176.729 124.540  1.00  0.00     0.000 C 
BRANCH   6   7
ATOM      7  C   UNL     1     128.215 175.223 124.373  1.00  0.00     0.000 C 
BRANCH   7   8
ATOM      8  C   UNL     1     126.930 174.427 124.076  1.00  0.00     0.000 C 
BRANCH   8   9
ATOM      9  C   UNL     1     126.862 173.815 122.661  1.00  0.00     0.000 C 
BRANCH   9  10
ATOM     10  C   UNL     1     128.101 174.057 121.773  1.00  0.00     0.000 C 
BRANCH  10  11
ATOM     11  C   UNL     1     127.839 174.867 120.491  1.00  0.00     0.000 C 
BRANCH  11  12
ATOM     12  C   UNL     1     129.038 175.735 120.082  1.00  0.00     0.006 C 
BRANCH  12  13
ATOM     13  C   UNL     1     128.927 176.168 118.614  1.00  0.00     0.053 C 
BRANCH  13  14
ATOM     14  C   UNL     1     128.077 177.394 118.473  1.00  0.00     0.041 C 
ATOM     15  O   UNL     1     126.888 177.302 118.064  1.00  0.00    -0.550 OA
ATOM     16  O   UNL     1     128.583 178.635 118.840  1.00  0.00    -0.550 OA
ENDBRANCH  13  14
ENDBRANCH  12  13
ENDBRANCH  11  12
ENDBRANCH  10  11
ENDBRANCH   9  10
ENDBRANCH   8   9
ENDBRANCH   7   8
ENDBRANCH   6   7
ENDBRANCH   5   6
ENDBRANCH   4   5
ENDBRANCH   3   4
ENDBRANCH   2   3
ENDBRANCH   1   2
BRANCH   1  17
ATOM     17  C   UNL     1     123.002 177.337 123.124  1.00  0.00     0.000 C 
BRANCH  17  18
ATOM     18  C   UNL     1     123.848 176.694 124.233  1.00  0.00     0.000 C 
BRANCH  18  19
ATOM     19  C   UNL     1     124.261 177.700 125.321  1.00  0.00     0.000 C 
BRANCH  19  20
ATOM     20  C   UNL     1     123.303 177.696 126.524  1.00  0.00     0.000 C 
BRANCH  20  21
ATOM     21  C   UNL     1     122.874 179.115 126.940  1.00  0.00     0.000 C 
BRANCH  21  22
ATOM     22  C   UNL     1     121.351 179.250 127.098  1.00  0.00    -0.000 C 
BRANCH  22  23
ATOM     23  C   UNL     1     120.778 178.285 128.151  1.00  0.00    -0.000 C 
BRANCH  23  24
ATOM     24  C   UNL     1     119.652 177.391 127.587  1.00  0.00    -0.000 C 
BRANCH  24  25
ATOM     25  C   UNL     1     119.431 177.544 126.070  1.00  0.00    -0.000 C 
BRANCH  25  26
ATOM     26  C   UNL     1     120.015 176.412 125.204  1.00  0.00    -0.000 C 
BRANCH  26  27
ATOM     27  C   UNL     1     120.430 175.144 125.974  1.00  0.00    -0.000 C 
BRANCH  27  28
ATOM     28  C   UNL     1     121.274 174.176 125.125  1.00  0.00    -0.000 C 
BRANCH  28  29
ATOM     29  C   UNL     1     122.487 173.628 125.892  1.00  0.00    -0.003 C 
ATOM     30  C   UNL     1     122.170 173.309 127.354  1.00  0.00     0.004 C 
ENDBRANCH  28  29
ENDBRANCH  27  28
ENDBRANCH  26  27
ENDBRANCH  25  26
ENDBRANCH  24  25
ENDBRANCH  23  24
ENDBRANCH  22  23
ENDBRANCH  21  22
ENDBRANCH  20  21
ENDBRANCH  19  20
ENDBRANCH  18  19
ENDBRANCH  17  18
ENDBRANCH   1  17
TORSDOF 26
ENDMDL
MODEL 5
REMARK VINA RESULT:    -5.443      3.106      8.489
REMARK INTER + INTRA:         -18.142
REMARK INTER:                 -13.636
REMARK INTRA:                  -4.506
REMARK UNBOUND:                -4.424
REMARK SMILES CCCCCCCCCCCCCCCCCCCCCCCCCCCC(=O)[O-]
REMARK SMILES IDX 15 1 16 2 17 3 18 4 19 5 20 6 21 7 22 8 23 9 24 10 25 11
REMARK SMILES IDX 26 12 27 13 28 14 29 15 30 16 14 17 13 18 12 19 11 20 10 21
REMARK SMILES IDX 9 22 8 23 7 24 6 25 5 26 4 27 3 28 2 29 1 30
REMARK H PARENT
REMARK Flexibility Score: inf
ROOT
ATOM      1  C   UNL     1     122.614 176.898 123.406  1.00  0.00     0.000 C 
ENDROOT
BRANCH   1   2
ATOM      2  C   UNL     1     123.767 176.649 124.391  1.00  0.00     0.000 C 
BRANCH   2   3
ATOM      3  C   UNL     1     123.900 177.764 125.443  1.00  0.00     0.000 C 
BRANCH   3   4
ATOM      4  C   UNL     1     122.778 177.717 126.494  1.00  0.00     0.000 C 
BRANCH   4   5
ATOM      5  C   UNL     1     122.195 179.108 126.799  1.00  0.00     0.000 C 
BRANCH   5   6
ATOM      6  C   UNL     1     120.679 179.188 126.561  1.00  0.00     0.000 C 
BRANCH   6   7
ATOM      7  C   UNL     1     120.312 179.191 125.067  1.00  0.00     0.000 C 
BRANCH   7   8
ATOM      8  C   UNL     1     119.347 178.048 124.695  1.00  0.00     0.000 C 
BRANCH   8   9
ATOM      9  C   UNL     1     118.569 177.448 125.884  1.00  0.00     0.000 C 
BRANCH   9  10
ATOM     10  C   UNL     1     118.657 175.914 126.028  1.00  0.00     0.000 C 
BRANCH  10  11
ATOM     11  C   UNL     1     120.036 175.374 126.448  1.00  0.00     0.000 C 
BRANCH  11  12
ATOM     12  C   UNL     1     120.754 174.631 125.312  1.00  0.00     0.006 C 
BRANCH  12  13
ATOM     13  C   UNL     1     121.108 173.198 125.730  1.00  0.00     0.053 C 
BRANCH  13  14
ATOM     14  C   UNL     1     119.887 172.439 126.149  1.00  0.00     0.041 C 
ATOM     15  O   UNL     1     119.001 172.138 125.304  1.00  0.00    -0.550 OA
ATOM     16  O   UNL     1     119.748 172.020 127.467  1.00  0.00    -0.550 OA
ENDBRANCH  13  14
ENDBRANCH  12  13
ENDBRANCH  11  12
ENDBRANCH  10  11
ENDBRANCH   9  10
ENDBRANCH   8   9
ENDBRANCH   7   8
ENDBRANCH   6   7
ENDBRANCH   5   6
ENDBRANCH   4   5
ENDBRANCH   3   4
ENDBRANCH   2   3
ENDBRANCH   1   2
BRANCH   1  17
ATOM     17  C   UNL     1     122.980 177.915 122.309  1.00  0.00     0.000 C 
BRANCH  17  18
ATOM     18  C   UNL     1     124.162 177.451 121.445  1.00  0.00     0.000 C 
BRANCH  18  19
ATOM     19  C   UNL     1     123.813 177.388 119.948  1.00  0.00     0.000 C 
BRANCH  19  20
ATOM     20  C   UNL     1     125.052 177.199 119.059  1.00  0.00     0.000 C 
BRANCH  20  21
ATOM     21  C   UNL     1     126.233 178.086 119.496  1.00  0.00     0.000 C 
BRANCH  21  22
ATOM     22  C   UNL     1     127.518 177.281 119.744  1.00  0.00    -0.000 C 
BRANCH  22  23
ATOM     23  C   UNL     1     128.324 177.809 120.944  1.00  0.00    -0.000 C 
BRANCH  23  24
ATOM     24  C   UNL     1     127.421 178.352 122.073  1.00  0.00    -0.000 C 
BRANCH  24  25
ATOM     25  C   UNL     1     128.007 178.173 123.486  1.00  0.00    -0.000 C 
BRANCH  25  26
ATOM     26  C   UNL     1     127.399 177.021 124.308  1.00  0.00    -0.000 C 
BRANCH  26  27
ATOM     27  C   UNL     1     128.238 175.728 124.346  1.00  0.00    -0.000 C 
BRANCH  27  28
ATOM     28  C   UNL     1     127.479 174.505 123.801  1.00  0.00    -0.000 C 
BRANCH  28  29
ATOM     29  C   UNL     1     126.538 174.866 122.642  1.00  0.00    -0.003 C 
ATOM     30  C   UNL     1     126.833 174.073 121.368  1.00  0.00     0.004 C 
ENDBRANCH  28  29
ENDBRANCH  27  28
ENDBRANCH  26  27
ENDBRANCH  25  26
ENDBRANCH  24  25
ENDBRANCH  23  24
ENDBRANCH  22  23
ENDBRANCH  21  22
ENDBRANCH  20  21
ENDBRANCH  19  20
ENDBRANCH  18  19
ENDBRANCH  17  18
ENDBRANCH   1  17
TORSDOF 26
ENDMDL
MODEL 6
REMARK VINA RESULT:    -5.426      4.171      9.400
REMARK INTER + INTRA:         -18.097
REMARK INTER:                 -13.678
REMARK INTRA:                  -4.419
REMARK UNBOUND:                -4.424
REMARK SMILES CCCCCCCCCCCCCCCCCCCCCCCCCCCC(=O)[O-]
REMARK SMILES IDX 15 1 16 2 17 3 18 4 19 5 20 6 21 7 22 8 23 9 24 10 25 11
REMARK SMILES IDX 26 12 27 13 28 14 29 15 30 16 14 17 13 18 12 19 11 20 10 21
REMARK SMILES IDX 9 22 8 23 7 24 6 25 5 26 4 27 3 28 2 29 1 30
REMARK H PARENT
REMARK Flexibility Score: inf
ROOT
ATOM      1  C   UNL     1     121.581 176.842 123.909  1.00  0.00     0.000 C 
ENDROOT
BRANCH   1   2
ATOM      2  C   UNL     1     121.586 178.379 123.894  1.00  0.00     0.000 C 
BRANCH   2   3
ATOM      3  C   UNL     1     120.236 178.980 124.323  1.00  0.00     0.000 C 
BRANCH   3   4
ATOM      4  C   UNL     1     120.346 179.818 125.607  1.00  0.00     0.000 C 
BRANCH   4   5
ATOM      5  C   UNL     1     121.329 179.216 126.626  1.00  0.00     0.000 C 
BRANCH   5   6
ATOM      6  C   UNL     1     120.719 179.058 128.027  1.00  0.00     0.000 C 
BRANCH   6   7
ATOM      7  C   UNL     1     121.027 177.690 128.659  1.00  0.00     0.000 C 
BRANCH   7   8
ATOM      8  C   UNL     1     121.642 176.700 127.651  1.00  0.00     0.000 C 
BRANCH   8   9
ATOM      9  C   UNL     1     120.703 175.557 127.215  1.00  0.00     0.000 C 
BRANCH   9  10
ATOM     10  C   UNL     1     119.194 175.842 127.368  1.00  0.00     0.000 C 
BRANCH  10  11
ATOM     11  C   UNL     1     118.494 176.358 126.098  1.00  0.00     0.000 C 
BRANCH  11  12
ATOM     12  C   UNL     1     117.492 177.485 126.389  1.00  0.00     0.006 C 
BRANCH  12  13
ATOM     13  C   UNL     1     116.776 177.927 125.106  1.00  0.00     0.053 C 
BRANCH  13  14
ATOM     14  C   UNL     1     115.759 178.990 125.392  1.00  0.00     0.041 C 
ATOM     15  O   UNL     1     115.373 179.766 124.476  1.00  0.00    -0.550 OA
ATOM     16  O   UNL     1     115.200 179.093 126.660  1.00  0.00    -0.550 OA
ENDBRANCH  13  14
ENDBRANCH  12  13
ENDBRANCH  11  12
ENDBRANCH  10  11
ENDBRANCH   9  10
ENDBRANCH   8   9
ENDBRANCH   7   8
ENDBRANCH   6   7
ENDBRANCH   5   6
ENDBRANCH   4   5
ENDBRANCH   3   4
ENDBRANCH   2   3
ENDBRANCH   1   2
BRANCH   1  17
ATOM     17  C   UNL     1     122.976 176.247 124.172  1.00  0.00     0.000 C 
BRANCH  17  18
ATOM     18  C   UNL     1     123.913 177.232 124.887  1.00  0.00     0.000 C 
BRANCH  18  19
ATOM     19  C   UNL     1     125.271 177.377 124.179  1.00  0.00     0.000 C 
BRANCH  19  20
ATOM     20  C   UNL     1     125.822 176.033 123.678  1.00  0.00     0.000 C 
BRANCH  20  21
ATOM     21  C   UNL     1     126.098 176.036 122.163  1.00  0.00     0.000 C 
BRANCH  21  22
ATOM     22  C   UNL     1     126.727 174.722 121.673  1.00  0.00    -0.000 C 
BRANCH  22  23
ATOM     23  C   UNL     1     128.128 174.927 121.070  1.00  0.00    -0.000 C 
BRANCH  23  24
ATOM     24  C   UNL     1     128.324 176.345 120.492  1.00  0.00    -0.000 C 
BRANCH  24  25
ATOM     25  C   UNL     1     128.319 176.401 118.953  1.00  0.00    -0.000 C 
BRANCH  25  26
ATOM     26  C   UNL     1     127.114 177.127 118.326  1.00  0.00    -0.000 C 
BRANCH  26  27
ATOM     27  C   UNL     1     126.520 178.266 119.176  1.00  0.00    -0.000 C 
BRANCH  27  28
ATOM     28  C   UNL     1     125.040 178.543 118.859  1.00  0.00    -0.000 C 
BRANCH  28  29
ATOM     29  C   UNL     1     124.100 177.499 119.482  1.00  0.00    -0.003 C 
ATOM     30  C   UNL     1     123.581 177.915 120.858  1.00  0.00     0.004 C 
ENDBRANCH  28  29
ENDBRANCH  27  28
ENDBRANCH  26  27
ENDBRANCH  25  26
ENDBRANCH  24  25
ENDBRANCH  23  24
ENDBRANCH  22  23
ENDBRANCH  21  22
ENDBRANCH  20  21
ENDBRANCH  19  20
ENDBRANCH  18  19
ENDBRANCH  17  18
ENDBRANCH   1  17
TORSDOF 26
ENDMDL
MODEL 7
REMARK VINA RESULT:    -5.402      3.264      8.870
REMARK INTER + INTRA:         -18.037
REMARK INTER:                 -13.024
REMARK INTRA:                  -5.013
REMARK UNBOUND:                -4.424
REMARK SMILES CCCCCCCCCCCCCCCCCCCCCCCCCCCC(=O)[O-]
REMARK SMILES IDX 15 1 16 2 17 3 18 4 19 5 20 6 21 7 22 8 23 9 24 10 25 11
REMARK SMILES IDX 26 12 27 13 28 14 29 15 30 16 14 17 13 18 12 19 11 20 10 21
REMARK SMILES IDX 9 22 8 23 7 24 6 25 5 26 4 27 3 28 2 29 1 30
REMARK H PARENT
REMARK Flexibility Score: inf
ROOT
ATOM      1  C   UNL     1     122.817 177.029 122.730  1.00  0.00     0.000 C 
ENDROOT
BRANCH   1   2
ATOM      2  C   UNL     1     123.502 177.078 124.105  1.00  0.00     0.000 C 
BRANCH   2   3
ATOM      3  C   UNL     1     122.885 176.090 125.111  1.00  0.00     0.000 C 
BRANCH   3   4
ATOM      4  C   UNL     1     121.517 175.560 124.651  1.00  0.00     0.000 C 
BRANCH   4   5
ATOM      5  C   UNL     1     121.144 174.225 125.320  1.00  0.00     0.000 C 
BRANCH   5   6
ATOM      6  C   UNL     1     119.804 174.283 126.069  1.00  0.00     0.000 C 
BRANCH   6   7
ATOM      7  C   UNL     1     119.815 175.292 127.230  1.00  0.00     0.000 C 
BRANCH   7   8
ATOM      8  C   UNL     1     120.846 174.931 128.316  1.00  0.00     0.000 C 
BRANCH   8   9
ATOM      9  C   UNL     1     121.810 176.074 128.697  1.00  0.00     0.000 C 
BRANCH   9  10
ATOM     10  C   UNL     1     121.293 177.501 128.412  1.00  0.00     0.000 C 
BRANCH  10  11
ATOM     11  C   UNL     1     122.355 178.491 127.902  1.00  0.00     0.000 C 
BRANCH  11  12
ATOM     12  C   UNL     1     121.892 179.272 126.663  1.00  0.00     0.006 C 
BRANCH  12  13
ATOM     13  C   UNL     1     120.365 179.229 126.526  1.00  0.00     0.053 C 
BRANCH  13  14
ATOM     14  C   UNL     1     119.957 178.832 125.140  1.00  0.00     0.041 C 
ATOM     15  O   UNL     1     120.560 179.302 124.138  1.00  0.00    -0.550 OA
ATOM     16  O   UNL     1     118.938 177.905 124.955  1.00  0.00    -0.550 OA
ENDBRANCH  13  14
ENDBRANCH  12  13
ENDBRANCH  11  12
ENDBRANCH  10  11
ENDBRANCH   9  10
ENDBRANCH   8   9
ENDBRANCH   7   8
ENDBRANCH   6   7
ENDBRANCH   5   6
ENDBRANCH   4   5
ENDBRANCH   3   4
ENDBRANCH   2   3
ENDBRANCH   1   2
BRANCH   1  17
ATOM     17  C   UNL     1     123.372 178.081 121.753  1.00  0.00     0.000 C 
BRANCH  17  18
ATOM     18  C   UNL     1     123.759 177.478 120.394  1.00  0.00     0.000 C 
BRANCH  18  19
ATOM     19  C   UNL     1     124.969 178.184 119.756  1.00  0.00     0.000 C 
BRANCH  19  20
ATOM     20  C   UNL     1     125.500 177.443 118.519  1.00  0.00     0.000 C 
BRANCH  20  21
ATOM     21  C   UNL     1     126.958 177.814 118.190  1.00  0.00     0.000 C 
BRANCH  21  22
ATOM     22  C   UNL     1     127.780 178.152 119.444  1.00  0.00    -0.000 C 
BRANCH  22  23
ATOM     23  C   UNL     1     129.074 177.324 119.542  1.00  0.00    -0.000 C 
BRANCH  23  24
ATOM     24  C   UNL     1     128.815 175.805 119.464  1.00  0.00    -0.000 C 
BRANCH  24  25
ATOM     25  C   UNL     1     128.400 175.169 120.804  1.00  0.00    -0.000 C 
BRANCH  25  26
ATOM     26  C   UNL     1     126.890 174.916 120.972  1.00  0.00    -0.000 C 
BRANCH  26  27
ATOM     27  C   UNL     1     126.248 175.572 122.209  1.00  0.00    -0.000 C 
BRANCH  27  28
ATOM     28  C   UNL     1     127.215 175.675 123.403  1.00  0.00    -0.000 C 
BRANCH  28  29
ATOM     29  C   UNL     1     127.220 177.075 124.036  1.00  0.00    -0.003 C 
ATOM     30  C   UNL     1     126.940 178.185 123.023  1.00  0.00     0.004 C 
ENDBRANCH  28  29
ENDBRANCH  27  28
ENDBRANCH  26  27
ENDBRANCH  25  26
ENDBRANCH  24  25
ENDBRANCH  23  24
ENDBRANCH  22  23
ENDBRANCH  21  22
ENDBRANCH  20  21
ENDBRANCH  19  20
ENDBRANCH  18  19
ENDBRANCH  17  18
ENDBRANCH   1  17
TORSDOF 26
ENDMDL
MODEL 8
REMARK VINA RESULT:    -5.399      1.512      3.932
REMARK INTER + INTRA:         -18.031
REMARK INTER:                 -13.504
REMARK INTRA:                  -4.526
REMARK UNBOUND:                -4.424
REMARK SMILES CCCCCCCCCCCCCCCCCCCCCCCCCCCC(=O)[O-]
REMARK SMILES IDX 15 1 16 2 17 3 18 4 19 5 20 6 21 7 22 8 23 9 24 10 25 11
REMARK SMILES IDX 26 12 27 13 28 14 29 15 30 16 14 17 13 18 12 19 11 20 10 21
REMARK SMILES IDX 9 22 8 23 7 24 6 25 5 26 4 27 3 28 2 29 1 30
REMARK H PARENT
REMARK Flexibility Score: inf
ROOT
ATOM      1  C   UNL     1     124.860 176.399 124.079  1.00  0.00     0.000 C 
ENDROOT
BRANCH   1   2
ATOM      2  C   UNL     1     125.986 177.380 123.716  1.00  0.00     0.000 C 
BRANCH   2   3
ATOM      3  C   UNL     1     125.999 177.740 122.220  1.00  0.00     0.000 C 
BRANCH   3   4
ATOM      4  C   UNL     1     125.029 176.877 121.398  1.00  0.00     0.000 C 
BRANCH   4   5
ATOM      5  C   UNL     1     124.267 177.688 120.336  1.00  0.00     0.000 C 
BRANCH   5   6
ATOM      6  C   UNL     1     125.185 178.593 119.499  1.00  0.00     0.000 C 
BRANCH   6   7
ATOM      7  C   UNL     1     125.607 177.944 118.170  1.00  0.00     0.000 C 
BRANCH   7   8
ATOM      8  C   UNL     1     127.005 177.301 118.245  1.00  0.00     0.000 C 
BRANCH   8   9
ATOM      9  C   UNL     1     128.031 178.084 119.091  1.00  0.00     0.000 C 
BRANCH   9  10
ATOM     10  C   UNL     1     128.959 177.224 119.974  1.00  0.00     0.000 C 
BRANCH  10  11
ATOM     11  C   UNL     1     129.310 175.840 119.399  1.00  0.00     0.000 C 
BRANCH  11  12
ATOM     12  C   UNL     1     129.131 174.708 120.422  1.00  0.00     0.006 C 
BRANCH  12  13
ATOM     13  C   UNL     1     127.674 174.619 120.892  1.00  0.00     0.053 C 
BRANCH  13  14
ATOM     14  C   UNL     1     127.594 174.329 122.360  1.00  0.00     0.041 C 
ATOM     15  O   UNL     1     126.751 173.503 122.803  1.00  0.00    -0.550 OA
ATOM     16  O   UNL     1     128.486 174.937 123.237  1.00  0.00    -0.550 OA
ENDBRANCH  13  14
ENDBRANCH  12  13
ENDBRANCH  11  12
ENDBRANCH  10  11
ENDBRANCH   9  10
ENDBRANCH   8   9
ENDBRANCH   7   8
ENDBRANCH   6   7
ENDBRANCH   5   6
ENDBRANCH   4   5
ENDBRANCH   3   4
ENDBRANCH   2   3
ENDBRANCH   1   2
BRANCH   1  17
ATOM     17  C   UNL     1     123.683 177.085 124.796  1.00  0.00     0.000 C 
BRANCH  17  18
ATOM     18  C   UNL     1     122.438 177.205 123.905  1.00  0.00     0.000 C 
BRANCH  18  19
ATOM     19  C   UNL     1     121.484 176.007 124.056  1.00  0.00     0.000 C 
BRANCH  19  20
ATOM     20  C   UNL     1     121.128 175.717 125.523  1.00  0.00     0.000 C 
BRANCH  20  21
ATOM     21  C   UNL     1     119.617 175.518 125.735  1.00  0.00     0.000 C 
BRANCH  21  22
ATOM     22  C   UNL     1     119.155 175.942 127.138  1.00  0.00    -0.000 C 
BRANCH  22  23
ATOM     23  C   UNL     1     118.028 176.990 127.097  1.00  0.00    -0.000 C 
BRANCH  23  24
ATOM     24  C   UNL     1     117.564 177.307 125.660  1.00  0.00    -0.000 C 
BRANCH  24  25
ATOM     25  C   UNL     1     117.852 178.753 125.212  1.00  0.00    -0.000 C 
BRANCH  25  26
ATOM     26  C   UNL     1     119.302 179.029 124.775  1.00  0.00    -0.000 C 
BRANCH  26  27
ATOM     27  C   UNL     1     120.079 180.017 125.667  1.00  0.00    -0.000 C 
BRANCH  27  28
ATOM     28  C   UNL     1     121.248 179.355 126.418  1.00  0.00    -0.000 C 
BRANCH  28  29
ATOM     29  C   UNL     1     120.876 178.967 127.857  1.00  0.00    -0.003 C 
ATOM     30  C   UNL     1     122.037 178.327 128.618  1.00  0.00     0.004 C 
ENDBRANCH  28  29
ENDBRANCH  27  28
ENDBRANCH  26  27
ENDBRANCH  25  26
ENDBRANCH  24  25
ENDBRANCH  23  24
ENDBRANCH  22  23
ENDBRANCH  21  22
ENDBRANCH  20  21
ENDBRANCH  19  20
ENDBRANCH  18  19
ENDBRANCH  17  18
ENDBRANCH   1  17
TORSDOF 26
ENDMDL
MODEL 9
REMARK VINA RESULT:    -5.392      2.681      8.449
REMARK INTER + INTRA:         -18.013
REMARK INTER:                 -13.313
REMARK INTRA:                  -4.700
REMARK UNBOUND:                -4.424
REMARK SMILES CCCCCCCCCCCCCCCCCCCCCCCCCCCC(=O)[O-]
REMARK SMILES IDX 15 1 16 2 17 3 18 4 19 5 20 6 21 7 22 8 23 9 24 10 25 11
REMARK SMILES IDX 26 12 27 13 28 14 29 15 30 16 14 17 13 18 12 19 11 20 10 21
REMARK SMILES IDX 9 22 8 23 7 24 6 25 5 26 4 27 3 28 2 29 1 30
REMARK H PARENT
REMARK Flexibility Score: inf
ROOT
ATOM      1  C   UNL     1     123.126 177.739 122.666  1.00  0.00     0.000 C 
ENDROOT
BRANCH   1   2
ATOM      2  C   UNL     1     122.600 176.585 123.534  1.00  0.00     0.000 C 
BRANCH   2   3
ATOM      3  C   UNL     1     123.323 176.485 124.890  1.00  0.00     0.000 C 
BRANCH   3   4
ATOM      4  C   UNL     1     123.887 177.837 125.356  1.00  0.00     0.000 C 
BRANCH   4   5
ATOM      5  C   UNL     1     123.567 178.135 126.831  1.00  0.00     0.000 C 
BRANCH   5   6
ATOM      6  C   UNL     1     122.626 179.337 127.010  1.00  0.00     0.000 C 
BRANCH   6   7
ATOM      7  C   UNL     1     121.233 178.930 127.521  1.00  0.00     0.000 C 
BRANCH   7   8
ATOM      8  C   UNL     1     120.102 179.403 126.587  1.00  0.00     0.000 C 
BRANCH   8   9
ATOM      9  C   UNL     1     120.290 179.025 125.104  1.00  0.00     0.000 C 
BRANCH   9  10
ATOM     10  C   UNL     1     119.535 177.761 124.640  1.00  0.00     0.000 C 
BRANCH  10  11
ATOM     11  C   UNL     1     118.587 177.145 125.685  1.00  0.00     0.000 C 
BRANCH  11  12
ATOM     12  C   UNL     1     118.918 175.678 125.997  1.00  0.00     0.006 C 
BRANCH  12  13
ATOM     13  C   UNL     1     120.247 175.565 126.755  1.00  0.00     0.053 C 
BRANCH  13  14
ATOM     14  C   UNL     1     120.949 174.283 126.429  1.00  0.00     0.041 C 
ATOM     15  O   UNL     1     120.873 173.790 125.271  1.00  0.00    -0.550 OA
ATOM     16  O   UNL     1     121.729 173.654 127.393  1.00  0.00    -0.550 OA
ENDBRANCH  13  14
ENDBRANCH  12  13
ENDBRANCH  11  12
ENDBRANCH  10  11
ENDBRANCH   9  10
ENDBRANCH   8   9
ENDBRANCH   7   8
ENDBRANCH   6   7
ENDBRANCH   5   6
ENDBRANCH   4   5
ENDBRANCH   3   4
ENDBRANCH   2   3
ENDBRANCH   1   2
BRANCH   1  17
ATOM     17  C   UNL     1     124.224 177.291 121.686  1.00  0.00     0.000 C 
BRANCH  17  18
ATOM     18  C   UNL     1     123.994 177.817 120.261  1.00  0.00     0.000 C 
BRANCH  18  19
ATOM     19  C   UNL     1     124.492 176.840 119.182  1.00  0.00     0.000 C 
BRANCH  19  20
ATOM     20  C   UNL     1     125.384 177.523 118.132  1.00  0.00     0.000 C 
BRANCH  20  21
ATOM     21  C   UNL     1     126.691 178.068 118.734  1.00  0.00     0.000 C 
BRANCH  21  22
ATOM     22  C   UNL     1     127.837 177.045 118.686  1.00  0.00    -0.000 C 
BRANCH  22  23
ATOM     23  C   UNL     1     128.702 177.066 119.958  1.00  0.00    -0.000 C 
BRANCH  23  24
ATOM     24  C   UNL     1     128.634 175.739 120.745  1.00  0.00    -0.000 C 
BRANCH  24  25
ATOM     25  C   UNL     1     127.220 175.134 120.833  1.00  0.00    -0.000 C 
BRANCH  25  26
ATOM     26  C   UNL     1     126.836 174.559 122.209  1.00  0.00    -0.000 C 
BRANCH  26  27
ATOM     27  C   UNL     1     127.645 175.109 123.399  1.00  0.00    -0.000 C 
BRANCH  27  28
ATOM     28  C   UNL     1     126.951 176.290 124.102  1.00  0.00    -0.000 C 
BRANCH  28  29
ATOM     29  C   UNL     1     127.792 177.575 124.059  1.00  0.00    -0.003 C 
ATOM     30  C   UNL     1     127.277 178.586 123.034  1.00  0.00     0.004 C 
ENDBRANCH  28  29
ENDBRANCH  27  28
ENDBRANCH  26  27
ENDBRANCH  25  26
ENDBRANCH  24  25
ENDBRANCH  23  24
ENDBRANCH  22  23
ENDBRANCH  21  22
ENDBRANCH  20  21
ENDBRANCH  19  20
ENDBRANCH  18  19
ENDBRANCH  17  18
ENDBRANCH   1  17
TORSDOF 26
ENDMDL
