MODEL 1
REMARK VINA RESULT:    -8.744      0.000      0.000
REMARK INTER + INTRA:          -9.511
REMARK INTER:                  -9.511
REMARK INTRA:                   0.000
REMARK UNBOUND:                 0.000
REMARK SMILES Cc1cc(O)c2c(c1)C(=O)c1cc(O)cc(O)c1C2=O
REMARK SMILES IDX 1 1 2 2 8 3 7 4 6 5 4 6 3 7 19 8 20 9 18 10 11 11 9 12 10 13
REMARK SMILES IDX 12 14 13 15 15 16 16 17 5 18 17 20 14 22
REMARK H PARENT 5 19 17 21 14 23
REMARK Flexibility Score: inf
ROOT
ATOM      1  C   UNL     1      15.440   3.639 127.278  1.00  0.00     0.044 C 
ATOM      2  C   UNL     1      15.572   4.521 128.486  1.00  0.00    -0.047 A 
ATOM      3  C   UNL     1      15.871   3.964 129.734  1.00  0.00     0.016 A 
ATOM      4  C   UNL     1      16.040   4.785 130.862  1.00  0.00     0.038 A 
ATOM      5  C   UNL     1      15.936   6.188 130.733  1.00  0.00     0.076 A 
ATOM      6  C   UNL     1      15.590   6.744 129.474  1.00  0.00     0.127 A 
ATOM      7  C   UNL     1      15.445   5.908 128.362  1.00  0.00     0.050 A 
ATOM      8  C   UNL     1      16.267   7.028 131.914  1.00  0.00     0.201 C 
ATOM      9  O   UNL     1      16.745   8.182 131.749  1.00  0.00    -0.288 OA
ATOM     10  C   UNL     1      16.213   6.439 133.276  1.00  0.00     0.076 A 
ATOM     11  C   UNL     1      16.317   5.035 133.401  1.00  0.00     0.041 A 
ATOM     12  C   UNL     1      16.324   4.185 132.188  1.00  0.00     0.194 C 
ATOM     13  O   UNL     1      16.544   2.946 132.285  1.00  0.00    -0.289 OA
ATOM     14  C   UNL     1      16.409   4.452 134.677  1.00  0.00     0.059 A 
ATOM     15  C   UNL     1      16.384   5.248 135.824  1.00  0.00     0.120 A 
ATOM     16  C   UNL     1      16.241   6.630 135.706  1.00  0.00     0.093 A 
ATOM     17  C   UNL     1      16.127   7.233 134.450  1.00  0.00     0.131 A 
ENDROOT
BRANCH   6  18
ATOM     18  O   UNL     1      15.348   8.107 129.291  1.00  0.00    -0.507 OA
ATOM     19  H   UNL     1      16.068   8.777 129.060  1.00  0.00     0.293 HD
ENDBRANCH   6  18
BRANCH  17  20
ATOM     20  O   UNL     1      15.895   8.610 134.414  1.00  0.00    -0.507 OA
ATOM     21  H   UNL     1      16.222   9.213 133.673  1.00  0.00     0.293 HD
ENDBRANCH  17  20
BRANCH  15  22
ATOM     22  O   UNL     1      16.487   4.674 137.089  1.00  0.00    -0.508 OA
ATOM     23  H   UNL     1      16.808   5.207 137.889  1.00  0.00     0.293 HD
ENDBRANCH  15  22
TORSDOF 3
ENDMDL
MODEL 2
REMARK VINA RESULT:    -8.661      1.297      1.510
REMARK INTER + INTRA:          -9.421
REMARK INTER:                  -9.421
REMARK INTRA:                   0.000
REMARK UNBOUND:                 0.000
REMARK SMILES Cc1cc(O)c2c(c1)C(=O)c1cc(O)cc(O)c1C2=O
REMARK SMILES IDX 1 1 2 2 8 3 7 4 6 5 4 6 3 7 19 8 20 9 18 10 11 11 9 12 10 13
REMARK SMILES IDX 12 14 13 15 15 16 16 17 5 18 17 20 14 22
REMARK H PARENT 5 19 17 21 14 23
REMARK Flexibility Score: inf
ROOT
ATOM      1  C   UNL     1      15.728   1.415 128.491  1.00  0.00     0.044 C 
ATOM      2  C   UNL     1      15.645   2.588 129.425  1.00  0.00    -0.047 A 
ATOM      3  C   UNL     1      16.280   2.541 130.671  1.00  0.00     0.016 A 
ATOM      4  C   UNL     1      16.245   3.650 131.534  1.00  0.00     0.038 A 
ATOM      5  C   UNL     1      15.588   4.835 131.131  1.00  0.00     0.076 A 
ATOM      6  C   UNL     1      14.909   4.860 129.885  1.00  0.00     0.127 A 
ATOM      7  C   UNL     1      14.974   3.751 129.036  1.00  0.00     0.050 A 
ATOM      8  C   UNL     1      15.700   6.031 132.006  1.00  0.00     0.201 C 
ATOM      9  O   UNL     1      15.667   7.184 131.499  1.00  0.00    -0.288 OA
ATOM     10  C   UNL     1      16.039   5.865 133.442  1.00  0.00     0.076 A 
ATOM     11  C   UNL     1      16.695   4.680 133.841  1.00  0.00     0.041 A 
ATOM     12  C   UNL     1      16.892   3.581 132.866  1.00  0.00     0.194 C 
ATOM     13  O   UNL     1      17.588   2.576 133.178  1.00  0.00    -0.289 OA
ATOM     14  C   UNL     1      17.155   4.545 135.162  1.00  0.00     0.059 A 
ATOM     15  C   UNL     1      16.954   5.570 136.090  1.00  0.00     0.120 A 
ATOM     16  C   UNL     1      16.271   6.725 135.712  1.00  0.00     0.093 A 
ATOM     17  C   UNL     1      15.786   6.875 134.409  1.00  0.00     0.131 A 
ENDROOT
BRANCH   6  18
ATOM     18  O   UNL     1      14.135   5.946 129.469  1.00  0.00    -0.507 OA
ATOM     19  H   UNL     1      13.384   5.873 128.797  1.00  0.00     0.293 HD
ENDBRANCH   6  18
BRANCH  17  20
ATOM     20  O   UNL     1      15.033   8.017 134.128  1.00  0.00    -0.507 OA
ATOM     21  H   UNL     1      14.597   8.587 134.839  1.00  0.00     0.293 HD
ENDBRANCH  17  20
BRANCH  15  22
ATOM     22  O   UNL     1      17.419   5.445 137.398  1.00  0.00    -0.508 OA
ATOM     23  H   UNL     1      17.883   6.212 137.871  1.00  0.00     0.293 HD
ENDBRANCH  15  22
TORSDOF 3
ENDMDL
MODEL 3
REMARK VINA RESULT:    -8.402      1.387      5.508
REMARK INTER + INTRA:          -9.139
REMARK INTER:                  -9.139
REMARK INTRA:                   0.000
REMARK UNBOUND:                 0.000
REMARK SMILES Cc1cc(O)c2c(c1)C(=O)c1cc(O)cc(O)c1C2=O
REMARK SMILES IDX 1 1 2 2 8 3 7 4 6 5 4 6 3 7 19 8 20 9 18 10 11 11 9 12 10 13
REMARK SMILES IDX 12 14 13 15 15 16 16 17 5 18 17 20 14 22
REMARK H PARENT 5 19 17 21 14 23
REMARK Flexibility Score: inf
ROOT
ATOM      1  C   UNL     1      16.828   4.700 136.885  1.00  0.00     0.044 C 
ATOM      2  C   UNL     1      16.533   5.243 135.517  1.00  0.00    -0.047 A 
ATOM      3  C   UNL     1      16.508   4.387 134.410  1.00  0.00     0.016 A 
ATOM      4  C   UNL     1      16.190   4.878 133.133  1.00  0.00     0.038 A 
ATOM      5  C   UNL     1      15.863   6.243 132.964  1.00  0.00     0.076 A 
ATOM      6  C   UNL     1      15.934   7.114 134.082  1.00  0.00     0.127 A 
ATOM      7  C   UNL     1      16.234   6.599 135.347  1.00  0.00     0.050 A 
ATOM      8  C   UNL     1      15.389   6.691 131.629  1.00  0.00     0.201 C 
ATOM      9  O   UNL     1      14.580   7.653 131.541  1.00  0.00    -0.288 OA
ATOM     10  C   UNL     1      15.717   5.890 130.422  1.00  0.00     0.076 A 
ATOM     11  C   UNL     1      16.043   4.526 130.595  1.00  0.00     0.041 A 
ATOM     12  C   UNL     1      16.197   3.971 131.960  1.00  0.00     0.194 C 
ATOM     13  O   UNL     1      16.361   2.730 132.123  1.00  0.00    -0.289 OA
ATOM     14  C   UNL     1      16.225   3.703 129.470  1.00  0.00     0.059 A 
ATOM     15  C   UNL     1      16.100   4.226 128.181  1.00  0.00     0.120 A 
ATOM     16  C   UNL     1      15.819   5.581 128.006  1.00  0.00     0.093 A 
ATOM     17  C   UNL     1      15.653   6.425 129.109  1.00  0.00     0.131 A 
ENDROOT
BRANCH   6  18
ATOM     18  O   UNL     1      15.747   8.494 133.977  1.00  0.00    -0.507 OA
ATOM     19  H   UNL     1      14.839   8.932 133.901  1.00  0.00     0.293 HD
ENDBRANCH   6  18
BRANCH  17  20
ATOM     20  O   UNL     1      15.465   7.786 128.856  1.00  0.00    -0.507 OA
ATOM     21  H   UNL     1      16.179   8.485 129.001  1.00  0.00     0.293 HD
ENDBRANCH  17  20
BRANCH  15  22
ATOM     22  O   UNL     1      16.267   3.411 127.064  1.00  0.00    -0.508 OA
ATOM     23  H   UNL     1      16.929   2.643 127.062  1.00  0.00     0.293 HD
ENDBRANCH  15  22
TORSDOF 3
ENDMDL
MODEL 4
REMARK VINA RESULT:    -8.082      1.290      3.582
REMARK INTER + INTRA:          -8.791
REMARK INTER:                  -8.791
REMARK INTRA:                   0.000
REMARK UNBOUND:                 0.000
REMARK SMILES Cc1cc(O)c2c(c1)C(=O)c1cc(O)cc(O)c1C2=O
REMARK SMILES IDX 1 1 2 2 8 3 7 4 6 5 4 6 3 7 19 8 20 9 18 10 11 11 9 12 10 13
REMARK SMILES IDX 12 14 13 15 15 16 16 17 5 18 17 20 14 22
REMARK H PARENT 5 19 17 21 14 23
REMARK Flexibility Score: inf
ROOT
ATOM      1  C   UNL     1      15.877   4.086 125.689  1.00  0.00     0.044 C 
ATOM      2  C   UNL     1      15.891   4.051 127.190  1.00  0.00    -0.047 A 
ATOM      3  C   UNL     1      15.724   5.231 127.923  1.00  0.00     0.016 A 
ATOM      4  C   UNL     1      15.692   5.203 129.328  1.00  0.00     0.038 A 
ATOM      5  C   UNL     1      15.800   3.970 130.009  1.00  0.00     0.076 A 
ATOM      6  C   UNL     1      16.013   2.782 129.262  1.00  0.00     0.127 A 
ATOM      7  C   UNL     1      16.023   2.833 127.864  1.00  0.00     0.050 A 
ATOM      8  C   UNL     1      15.612   3.964 131.484  1.00  0.00     0.201 C 
ATOM      9  O   UNL     1      15.135   2.946 132.051  1.00  0.00    -0.288 OA
ATOM     10  C   UNL     1      15.807   5.218 132.257  1.00  0.00     0.076 A 
ATOM     11  C   UNL     1      15.698   6.448 131.572  1.00  0.00     0.041 A 
ATOM     12  C   UNL     1      15.547   6.462 130.097  1.00  0.00     0.194 C 
ATOM     13  O   UNL     1      15.321   7.547 129.495  1.00  0.00    -0.289 OA
ATOM     14  C   UNL     1      15.739   7.655 132.291  1.00  0.00     0.059 A 
ATOM     15  C   UNL     1      15.902   7.648 133.678  1.00  0.00     0.120 A 
ATOM     16  C   UNL     1      16.050   6.437 134.354  1.00  0.00     0.093 A 
ATOM     17  C   UNL     1      16.033   5.224 133.658  1.00  0.00     0.131 A 
ENDROOT
BRANCH   6  18
ATOM     18  O   UNL     1      16.252   1.545 129.863  1.00  0.00    -0.507 OA
ATOM     19  H   UNL     1      16.382   1.422 130.858  1.00  0.00     0.293 HD
ENDBRANCH   6  18
BRANCH  17  20
ATOM     20  O   UNL     1      16.279   4.059 134.389  1.00  0.00    -0.507 OA
ATOM     21  H   UNL     1      16.163   3.129 134.013  1.00  0.00     0.293 HD
ENDBRANCH  17  20
BRANCH  15  22
ATOM     22  O   UNL     1      15.930   8.842 134.396  1.00  0.00    -0.508 OA
ATOM     23  H   UNL     1      16.701   9.495 134.309  1.00  0.00     0.293 HD
ENDBRANCH  15  22
TORSDOF 3
ENDMDL
MODEL 5
REMARK VINA RESULT:    -7.863      2.104      6.094
REMARK INTER + INTRA:          -8.553
REMARK INTER:                  -8.553
REMARK INTRA:                   0.000
REMARK UNBOUND:                 0.000
REMARK SMILES Cc1cc(O)c2c(c1)C(=O)c1cc(O)cc(O)c1C2=O
REMARK SMILES IDX 1 1 2 2 8 3 7 4 6 5 4 6 3 7 19 8 20 9 18 10 11 11 9 12 10 13
REMARK SMILES IDX 12 14 13 15 15 16 16 17 5 18 17 20 14 22
REMARK H PARENT 5 19 17 21 14 23
REMARK Flexibility Score: inf
ROOT
ATOM      1  C   UNL     1      17.873   4.352 135.313  1.00  0.00     0.044 C 
ATOM      2  C   UNL     1      17.194   4.259 133.977  1.00  0.00    -0.047 A 
ATOM      3  C   UNL     1      16.596   5.389 133.410  1.00  0.00     0.016 A 
ATOM      4  C   UNL     1      15.997   5.322 132.141  1.00  0.00     0.038 A 
ATOM      5  C   UNL     1      16.021   4.110 131.415  1.00  0.00     0.076 A 
ATOM      6  C   UNL     1      16.589   2.955 132.014  1.00  0.00     0.127 A 
ATOM      7  C   UNL     1      17.196   3.052 133.270  1.00  0.00     0.050 A 
ATOM      8  C   UNL     1      15.510   4.118 130.019  1.00  0.00     0.201 C 
ATOM      9  O   UNL     1      15.994   3.323 129.170  1.00  0.00    -0.288 OA
ATOM     10  C   UNL     1      14.571   5.183 129.584  1.00  0.00     0.076 A 
ATOM     11  C   UNL     1      14.550   6.393 130.312  1.00  0.00     0.041 A 
ATOM     12  C   UNL     1      15.337   6.516 131.562  1.00  0.00     0.194 C 
ATOM     13  O   UNL     1      15.425   7.631 132.146  1.00  0.00    -0.289 OA
ATOM     14  C   UNL     1      13.778   7.473 129.851  1.00  0.00     0.059 A 
ATOM     15  C   UNL     1      13.019   7.355 128.685  1.00  0.00     0.120 A 
ATOM     16  C   UNL     1      13.005   6.149 127.985  1.00  0.00     0.093 A 
ATOM     17  C   UNL     1      13.748   5.053 128.434  1.00  0.00     0.131 A 
ENDROOT
BRANCH   6  18
ATOM     18  O   UNL     1      16.543   1.695 131.416  1.00  0.00    -0.507 OA
ATOM     19  H   UNL     1      16.387   1.549 130.428  1.00  0.00     0.293 HD
ENDBRANCH   6  18
BRANCH  17  20
ATOM     20  O   UNL     1      13.614   3.852 127.733  1.00  0.00    -0.507 OA
ATOM     21  H   UNL     1      13.400   3.801 126.747  1.00  0.00     0.293 HD
ENDBRANCH  17  20
BRANCH  15  22
ATOM     22  O   UNL     1      12.262   8.428 128.218  1.00  0.00    -0.508 OA
ATOM     23  H   UNL     1      11.729   8.367 127.358  1.00  0.00     0.293 HD
ENDBRANCH  15  22
TORSDOF 3
ENDMDL
MODEL 6
REMARK VINA RESULT:    -7.586      3.118      6.554
REMARK INTER + INTRA:          -8.252
REMARK INTER:                  -8.252
REMARK INTRA:                   0.000
REMARK UNBOUND:                 0.000
REMARK SMILES Cc1cc(O)c2c(c1)C(=O)c1cc(O)cc(O)c1C2=O
REMARK SMILES IDX 1 1 2 2 8 3 7 4 6 5 4 6 3 7 19 8 20 9 18 10 11 11 9 12 10 13
REMARK SMILES IDX 12 14 13 15 15 16 16 17 5 18 17 20 14 22
REMARK H PARENT 5 19 17 21 14 23
REMARK Flexibility Score: inf
ROOT
ATOM      1  C   UNL     1      16.044  10.278 131.478  1.00  0.00     0.044 C 
ATOM      2  C   UNL     1      15.748   8.875 131.032  1.00  0.00    -0.047 A 
ATOM      3  C   UNL     1      14.620   8.609 130.249  1.00  0.00     0.016 A 
ATOM      4  C   UNL     1      14.358   7.306 129.790  1.00  0.00     0.038 A 
ATOM      5  C   UNL     1      15.255   6.258 130.098  1.00  0.00     0.076 A 
ATOM      6  C   UNL     1      16.373   6.526 130.931  1.00  0.00     0.127 A 
ATOM      7  C   UNL     1      16.623   7.834 131.359  1.00  0.00     0.050 A 
ATOM      8  C   UNL     1      15.023   4.930 129.473  1.00  0.00     0.201 C 
ATOM      9  O   UNL     1      16.000   4.175 129.225  1.00  0.00    -0.288 OA
ATOM     10  C   UNL     1      13.670   4.577 128.972  1.00  0.00     0.076 A 
ATOM     11  C   UNL     1      12.777   5.628 128.665  1.00  0.00     0.041 A 
ATOM     12  C   UNL     1      13.144   7.027 128.987  1.00  0.00     0.194 C 
ATOM     13  O   UNL     1      12.410   7.978 128.601  1.00  0.00    -0.289 OA
ATOM     14  C   UNL     1      11.541   5.341 128.060  1.00  0.00     0.059 A 
ATOM     15  C   UNL     1      11.182   4.022 127.772  1.00  0.00     0.120 A 
ATOM     16  C   UNL     1      12.044   2.978 128.110  1.00  0.00     0.093 A 
ATOM     17  C   UNL     1      13.270   3.236 128.731  1.00  0.00     0.131 A 
ENDROOT
BRANCH   6  18
ATOM     18  O   UNL     1      17.235   5.525 131.381  1.00  0.00    -0.507 OA
ATOM     19  H   UNL     1      17.619   5.495 132.316  1.00  0.00     0.293 HD
ENDBRANCH   6  18
BRANCH  17  20
ATOM     20  O   UNL     1      14.038   2.137 129.123  1.00  0.00    -0.507 OA
ATOM     21  H   UNL     1      14.193   1.878 130.087  1.00  0.00     0.293 HD
ENDBRANCH  17  20
BRANCH  15  22
ATOM     22  O   UNL     1       9.963   3.734 127.161  1.00  0.00    -0.508 OA
ATOM     23  H   UNL     1       9.236   3.219 127.645  1.00  0.00     0.293 HD
ENDBRANCH  15  22
TORSDOF 3
ENDMDL
MODEL 7
REMARK VINA RESULT:    -7.372      3.014      4.296
REMARK INTER + INTRA:          -8.018
REMARK INTER:                  -8.018
REMARK INTRA:                   0.000
REMARK UNBOUND:                 0.000
REMARK SMILES Cc1cc(O)c2c(c1)C(=O)c1cc(O)cc(O)c1C2=O
REMARK SMILES IDX 1 1 2 2 8 3 7 4 6 5 4 6 3 7 19 8 20 9 18 10 11 11 9 12 10 13
REMARK SMILES IDX 12 14 13 15 15 16 16 17 5 18 17 20 14 22
REMARK H PARENT 5 19 17 21 14 23
REMARK Flexibility Score: inf
ROOT
ATOM      1  C   UNL     1       9.919   7.761 126.645  1.00  0.00     0.044 C 
ATOM      2  C   UNL     1      11.030   7.629 127.645  1.00  0.00    -0.047 A 
ATOM      3  C   UNL     1      11.600   6.378 127.904  1.00  0.00     0.016 A 
ATOM      4  C   UNL     1      12.670   6.251 128.806  1.00  0.00     0.038 A 
ATOM      5  C   UNL     1      13.197   7.400 129.438  1.00  0.00     0.076 A 
ATOM      6  C   UNL     1      12.587   8.660 129.206  1.00  0.00     0.127 A 
ATOM      7  C   UNL     1      11.535   8.764 128.289  1.00  0.00     0.050 A 
ATOM      8  C   UNL     1      14.421   7.245 130.268  1.00  0.00     0.201 C 
ATOM      9  O   UNL     1      15.235   8.200 130.369  1.00  0.00    -0.288 OA
ATOM     10  C   UNL     1      14.775   5.911 130.817  1.00  0.00     0.076 A 
ATOM     11  C   UNL     1      14.246   4.765 130.182  1.00  0.00     0.041 A 
ATOM     12  C   UNL     1      13.247   4.917 129.098  1.00  0.00     0.194 C 
ATOM     13  O   UNL     1      12.868   3.908 128.442  1.00  0.00    -0.289 OA
ATOM     14  C   UNL     1      14.666   3.486 130.585  1.00  0.00     0.059 A 
ATOM     15  C   UNL     1      15.592   3.337 131.620  1.00  0.00     0.120 A 
ATOM     16  C   UNL     1      16.086   4.464 132.277  1.00  0.00     0.093 A 
ATOM     17  C   UNL     1      15.669   5.746 131.908  1.00  0.00     0.131 A 
ENDROOT
BRANCH   6  18
ATOM     18  O   UNL     1      12.967   9.819 129.884  1.00  0.00    -0.507 OA
ATOM     19  H   UNL     1      12.352  10.606 130.037  1.00  0.00     0.293 HD
ENDBRANCH   6  18
BRANCH  17  20
ATOM     20  O   UNL     1      16.136   6.820 132.670  1.00  0.00    -0.507 OA
ATOM     21  H   UNL     1      15.663   7.711 132.729  1.00  0.00     0.293 HD
ENDBRANCH  17  20
BRANCH  15  22
ATOM     22  O   UNL     1      16.020   2.071 132.013  1.00  0.00    -0.508 OA
ATOM     23  H   UNL     1      16.057   1.803 132.990  1.00  0.00     0.293 HD
ENDBRANCH  15  22
TORSDOF 3
ENDMDL
MODEL 8
REMARK VINA RESULT:    -7.209     11.425     13.151
REMARK INTER + INTRA:          -7.841
REMARK INTER:                  -7.841
REMARK INTRA:                   0.000
REMARK UNBOUND:                 0.000
REMARK SMILES Cc1cc(O)c2c(c1)C(=O)c1cc(O)cc(O)c1C2=O
REMARK SMILES IDX 1 1 2 2 8 3 7 4 6 5 4 6 3 7 19 8 20 9 18 10 11 11 9 12 10 13
REMARK SMILES IDX 12 14 13 15 15 16 16 17 5 18 17 20 14 22
REMARK H PARENT 5 19 17 21 14 23
REMARK Flexibility Score: inf
ROOT
ATOM      1  C   UNL     1      23.637  -8.167 128.287  1.00  0.00     0.044 C 
ATOM      2  C   UNL     1      22.265  -7.580 128.123  1.00  0.00    -0.047 A 
ATOM      3  C   UNL     1      21.492  -7.273 129.248  1.00  0.00     0.016 A 
ATOM      4  C   UNL     1      20.224  -6.683 129.106  1.00  0.00     0.038 A 
ATOM      5  C   UNL     1      19.735  -6.369 127.818  1.00  0.00     0.076 A 
ATOM      6  C   UNL     1      20.505  -6.722 126.679  1.00  0.00     0.127 A 
ATOM      7  C   UNL     1      21.772  -7.291 126.847  1.00  0.00     0.050 A 
ATOM      8  C   UNL     1      18.460  -5.612 127.717  1.00  0.00     0.201 C 
ATOM      9  O   UNL     1      18.267  -4.835 126.745  1.00  0.00    -0.288 OA
ATOM     10  C   UNL     1      17.501  -5.628 128.852  1.00  0.00     0.076 A 
ATOM     11  C   UNL     1      17.994  -5.943 130.138  1.00  0.00     0.041 A 
ATOM     12  C   UNL     1      19.397  -6.391 130.301  1.00  0.00     0.194 C 
ATOM     13  O   UNL     1      19.880  -6.550 131.456  1.00  0.00    -0.289 OA
ATOM     14  C   UNL     1      17.150  -5.834 131.256  1.00  0.00     0.059 A 
ATOM     15  C   UNL     1      15.821  -5.430 131.105  1.00  0.00     0.120 A 
ATOM     16  C   UNL     1      15.319  -5.158 129.833  1.00  0.00     0.093 A 
ATOM     17  C   UNL     1      16.133  -5.278 128.702  1.00  0.00     0.131 A 
ENDROOT
BRANCH   6  18
ATOM     18  O   UNL     1      20.040  -6.558 125.373  1.00  0.00    -0.507 OA
ATOM     19  H   UNL     1      20.416  -5.879 124.726  1.00  0.00     0.293 HD
ENDBRANCH   6  18
BRANCH  17  20
ATOM     20  O   UNL     1      15.538  -5.077 127.455  1.00  0.00    -0.507 OA
ATOM     21  H   UNL     1      14.974  -4.270 127.228  1.00  0.00     0.293 HD
ENDBRANCH  17  20
BRANCH  15  22
ATOM     22  O   UNL     1      14.985  -5.310 132.213  1.00  0.00    -0.508 OA
ATOM     23  H   UNL     1      15.326  -4.952 133.098  1.00  0.00     0.293 HD
ENDBRANCH  15  22
TORSDOF 3
ENDMDL
MODEL 9
REMARK VINA RESULT:    -6.873     11.934     13.849
REMARK INTER + INTRA:          -7.475
REMARK INTER:                  -7.475
REMARK INTRA:                   0.000
REMARK UNBOUND:                 0.000
REMARK SMILES Cc1cc(O)c2c(c1)C(=O)c1cc(O)cc(O)c1C2=O
REMARK SMILES IDX 1 1 2 2 8 3 7 4 6 5 4 6 3 7 19 8 20 9 18 10 11 11 9 12 10 13
REMARK SMILES IDX 12 14 13 15 15 16 16 17 5 18 17 20 14 22
REMARK H PARENT 5 19 17 21 14 23
REMARK Flexibility Score: inf
ROOT
ATOM      1  C   UNL     1      14.694  -5.374 131.894  1.00  0.00     0.044 C 
ATOM      2  C   UNL     1      15.620  -5.668 130.749  1.00  0.00    -0.047 A 
ATOM      3  C   UNL     1      16.950  -6.025 130.994  1.00  0.00     0.016 A 
ATOM      4  C   UNL     1      17.813  -6.345 129.932  1.00  0.00     0.038 A 
ATOM      5  C   UNL     1      17.329  -6.335 128.605  1.00  0.00     0.076 A 
ATOM      6  C   UNL     1      15.991  -5.929 128.359  1.00  0.00     0.127 A 
ATOM      7  C   UNL     1      15.146  -5.634 129.434  1.00  0.00     0.050 A 
ATOM      8  C   UNL     1      18.227  -6.822 127.526  1.00  0.00     0.201 C 
ATOM      9  O   UNL     1      17.739  -7.369 126.502  1.00  0.00    -0.288 OA
ATOM     10  C   UNL     1      19.697  -6.836 127.741  1.00  0.00     0.076 A 
ATOM     11  C   UNL     1      20.178  -6.846 129.070  1.00  0.00     0.041 A 
ATOM     12  C   UNL     1      19.230  -6.691 130.198  1.00  0.00     0.194 C 
ATOM     13  O   UNL     1      19.634  -6.827 131.386  1.00  0.00    -0.289 OA
ATOM     14  C   UNL     1      21.553  -6.998 129.315  1.00  0.00     0.059 A 
ATOM     15  C   UNL     1      22.453  -7.125 128.254  1.00  0.00     0.120 A 
ATOM     16  C   UNL     1      21.987  -7.075 126.940  1.00  0.00     0.093 A 
ATOM     17  C   UNL     1      20.626  -6.904 126.669  1.00  0.00     0.131 A 
ENDROOT
BRANCH   6  18
ATOM     18  O   UNL     1      15.474  -5.774 127.072  1.00  0.00    -0.507 OA
ATOM     19  H   UNL     1      14.632  -5.254 126.865  1.00  0.00     0.293 HD
ENDBRANCH   6  18
BRANCH  17  20
ATOM     20  O   UNL     1      20.246  -6.772 125.332  1.00  0.00    -0.507 OA
ATOM     21  H   UNL     1      20.712  -7.243 124.569  1.00  0.00     0.293 HD
ENDBRANCH  17  20
BRANCH  15  22
ATOM     22  O   UNL     1      23.815  -7.288 128.493  1.00  0.00    -0.508 OA
ATOM     23  H   UNL     1      24.154  -7.842 129.272  1.00  0.00     0.293 HD
ENDBRANCH  15  22
TORSDOF 3
ENDMDL
