MODEL 1
REMARK VINA RESULT:    -2.856      0.000      0.000
REMARK INTER + INTRA:          -7.544
REMARK INTER:                  -5.361
REMARK INTRA:                  -2.183
REMARK UNBOUND:                -2.183
REMARK SMILES O=C([O-])CCCCCCCCCCCCCCC(=O)[O-]
REMARK SMILES IDX 10 1 9 2 8 3 7 4 6 5 5 6 4 7 2 8 1 9 3 10 11 11 12 12 13 13
REMARK SMILES IDX 14 14 15 15 16 16 17 17 18 18 19 19 20 20
REMARK H PARENT
REMARK Flexibility Score: inf
ROOT
ATOM      1  C   UNL     1      -3.458  11.270  11.161  1.00  0.00     0.000 C 
ENDROOT
BRANCH   1   2
ATOM      2  C   UNL     1      -2.785  12.621  11.487  1.00  0.00     0.000 C 
BRANCH   2   3
ATOM      3  C   UNL     1      -2.226  13.348  10.249  1.00  0.00     0.000 C 
BRANCH   3   4
ATOM      4  C   UNL     1      -1.434  14.634  10.553  1.00  0.00     0.000 C 
BRANCH   4   5
ATOM      5  C   UNL     1      -1.188  14.906  12.049  1.00  0.00     0.000 C 
BRANCH   5   6
ATOM      6  C   UNL     1      -0.354  16.172  12.298  1.00  0.00     0.006 C 
BRANCH   6   7
ATOM      7  C   UNL     1      -0.856  16.925  13.533  1.00  0.00     0.053 C 
BRANCH   7   8
ATOM      8  C   UNL     1      -1.944  17.881  13.157  1.00  0.00     0.041 C 
ATOM      9  O   UNL     1      -3.114  17.711  13.587  1.00  0.00    -0.550 OA
ATOM     10  O   UNL     1      -1.674  18.933  12.292  1.00  0.00    -0.550 OA
ENDBRANCH   7   8
ENDBRANCH   6   7
ENDBRANCH   5   6
ENDBRANCH   4   5
ENDBRANCH   3   4
ENDBRANCH   2   3
ENDBRANCH   1   2
BRANCH   1  11
ATOM     11  C   UNL     1      -2.557  10.070  11.501  1.00  0.00     0.000 C 
BRANCH  11  12
ATOM     12  C   UNL     1      -1.752  10.281  12.793  1.00  0.00     0.000 C 
BRANCH  12  13
ATOM     13  C   UNL     1      -0.234  10.156  12.572  1.00  0.00     0.000 C 
BRANCH  13  14
ATOM     14  C   UNL     1       0.486  11.512  12.640  1.00  0.00     0.000 C 
BRANCH  14  15
ATOM     15  C   UNL     1       1.125  11.909  11.300  1.00  0.00     0.000 C 
BRANCH  15  16
ATOM     16  C   UNL     1       0.821  10.864  10.216  1.00  0.00     0.006 C 
BRANCH  16  17
ATOM     17  C   UNL     1       0.729  11.489   8.817  1.00  0.00     0.053 C 
BRANCH  17  18
ATOM     18  C   UNL     1      -0.495  11.033   8.083  1.00  0.00     0.041 C 
ATOM     19  O   UNL     1      -1.061  11.799   7.260  1.00  0.00    -0.550 OA
ATOM     20  O   UNL     1      -0.990   9.751   8.283  1.00  0.00    -0.550 OA
ENDBRANCH  17  18
ENDBRANCH  16  17
ENDBRANCH  15  16
ENDBRANCH  14  15
ENDBRANCH  13  14
ENDBRANCH  12  13
ENDBRANCH  11  12
ENDBRANCH   1  11
TORSDOF 15
ENDMDL
MODEL 2
REMARK VINA RESULT:    -2.819      2.473      6.519
REMARK INTER + INTRA:          -7.475
REMARK INTER:                  -5.930
REMARK INTRA:                  -1.545
REMARK UNBOUND:                -2.183
REMARK SMILES O=C([O-])CCCCCCCCCCCCCCC(=O)[O-]
REMARK SMILES IDX 10 1 9 2 8 3 7 4 6 5 5 6 4 7 2 8 1 9 3 10 11 11 12 12 13 13
REMARK SMILES IDX 14 14 15 15 16 16 17 17 18 18 19 19 20 20
REMARK H PARENT
REMARK Flexibility Score: inf
ROOT
ATOM      1  C   UNL     1      -0.668  12.289   9.591  1.00  0.00     0.000 C 
ENDROOT
BRANCH   1   2
ATOM      2  C   UNL     1      -0.908  11.549   8.258  1.00  0.00     0.000 C 
BRANCH   2   3
ATOM      3  C   UNL     1      -0.783  10.017   8.370  1.00  0.00     0.000 C 
BRANCH   3   4
ATOM      4  C   UNL     1      -0.674   9.477   9.808  1.00  0.00     0.000 C 
BRANCH   4   5
ATOM      5  C   UNL     1      -1.973   8.875  10.376  1.00  0.00     0.000 C 
BRANCH   5   6
ATOM      6  C   UNL     1      -2.417   9.539  11.687  1.00  0.00     0.006 C 
BRANCH   6   7
ATOM      7  C   UNL     1      -3.664  10.402  11.469  1.00  0.00     0.053 C 
BRANCH   7   8
ATOM      8  C   UNL     1      -4.134  10.981  12.767  1.00  0.00     0.041 C 
ATOM      9  O   UNL     1      -4.074  12.223  12.965  1.00  0.00    -0.550 OA
ATOM     10  O   UNL     1      -4.592  10.144  13.775  1.00  0.00    -0.550 OA
ENDBRANCH   7   8
ENDBRANCH   6   7
ENDBRANCH   5   6
ENDBRANCH   4   5
ENDBRANCH   3   4
ENDBRANCH   2   3
ENDBRANCH   1   2
BRANCH   1  11
ATOM     11  C   UNL     1      -1.886  13.122  10.027  1.00  0.00     0.000 C 
BRANCH  11  12
ATOM     12  C   UNL     1      -1.574  14.054  11.209  1.00  0.00     0.000 C 
BRANCH  12  13
ATOM     13  C   UNL     1      -1.031  15.421  10.756  1.00  0.00     0.000 C 
BRANCH  13  14
ATOM     14  C   UNL     1       0.431  15.644  11.174  1.00  0.00     0.000 C 
BRANCH  14  15
ATOM     15  C   UNL     1       0.583  15.889  12.683  1.00  0.00     0.000 C 
BRANCH  15  16
ATOM     16  C   UNL     1       0.243  17.344  13.041  1.00  0.00     0.006 C 
BRANCH  16  17
ATOM     17  C   UNL     1      -0.903  17.440  14.056  1.00  0.00     0.053 C 
BRANCH  17  18
ATOM     18  C   UNL     1      -2.179  17.891  13.415  1.00  0.00     0.041 C 
ATOM     19  O   UNL     1      -2.158  18.454  12.290  1.00  0.00    -0.550 OA
ATOM     20  O   UNL     1      -3.395  17.661  14.047  1.00  0.00    -0.550 OA
ENDBRANCH  17  18
ENDBRANCH  16  17
ENDBRANCH  15  16
ENDBRANCH  14  15
ENDBRANCH  13  14
ENDBRANCH  12  13
ENDBRANCH  11  12
ENDBRANCH   1  11
TORSDOF 15
ENDMDL
MODEL 3
REMARK VINA RESULT:    -2.716     13.477     15.664
REMARK INTER + INTRA:          -7.282
REMARK INTER:                  -5.553
REMARK INTRA:                  -1.728
REMARK UNBOUND:                -2.183
REMARK SMILES O=C([O-])CCCCCCCCCCCCCCC(=O)[O-]
REMARK SMILES IDX 10 1 9 2 8 3 7 4 6 5 5 6 4 7 2 8 1 9 3 10 11 11 12 12 13 13
REMARK SMILES IDX 14 14 15 15 16 16 17 17 18 18 19 19 20 20
REMARK H PARENT
REMARK Flexibility Score: inf
ROOT
ATOM      1  C   UNL     1     -16.737  10.707   8.243  1.00  0.00     0.000 C 
ENDROOT
BRANCH   1   2
ATOM      2  C   UNL     1     -15.878   9.584   8.862  1.00  0.00     0.000 C 
BRANCH   2   3
ATOM      3  C   UNL     1     -16.454   9.017  10.175  1.00  0.00     0.000 C 
BRANCH   3   4
ATOM      4  C   UNL     1     -15.507   9.097  11.387  1.00  0.00     0.000 C 
BRANCH   4   5
ATOM      5  C   UNL     1     -14.771  10.440  11.549  1.00  0.00     0.000 C 
BRANCH   5   6
ATOM      6  C   UNL     1     -15.126  11.163  12.856  1.00  0.00     0.006 C 
BRANCH   6   7
ATOM      7  C   UNL     1     -16.634  11.116  13.116  1.00  0.00     0.053 C 
BRANCH   7   8
ATOM      8  C   UNL     1     -17.326  12.225  12.388  1.00  0.00     0.041 C 
ATOM      9  O   UNL     1     -18.154  11.964  11.476  1.00  0.00    -0.550 OA
ATOM     10  O   UNL     1     -17.019  13.547  12.682  1.00  0.00    -0.550 OA
ENDBRANCH   7   8
ENDBRANCH   6   7
ENDBRANCH   5   6
ENDBRANCH   4   5
ENDBRANCH   3   4
ENDBRANCH   2   3
ENDBRANCH   1   2
BRANCH   1  11
ATOM     11  C   UNL     1     -18.001  10.165   7.552  1.00  0.00     0.000 C 
BRANCH  11  12
ATOM     12  C   UNL     1     -17.685   9.098   6.492  1.00  0.00     0.000 C 
BRANCH  12  13
ATOM     13  C   UNL     1     -17.892   9.611   5.056  1.00  0.00     0.000 C 
BRANCH  13  14
ATOM     14  C   UNL     1     -16.717   9.261   4.129  1.00  0.00     0.000 C 
BRANCH  14  15
ATOM     15  C   UNL     1     -15.353   9.598   4.751  1.00  0.00     0.000 C 
BRANCH  15  16
ATOM     16  C   UNL     1     -15.043  11.097   4.614  1.00  0.00     0.006 C 
BRANCH  16  17
ATOM     17  C   UNL     1     -14.192  11.622   5.778  1.00  0.00     0.053 C 
BRANCH  17  18
ATOM     18  C   UNL     1     -12.893  10.885   5.896  1.00  0.00     0.041 C 
ATOM     19  O   UNL     1     -12.684  10.124   6.877  1.00  0.00    -0.550 OA
ATOM     20  O   UNL     1     -11.927  11.013   4.906  1.00  0.00    -0.550 OA
ENDBRANCH  17  18
ENDBRANCH  16  17
ENDBRANCH  15  16
ENDBRANCH  14  15
ENDBRANCH  13  14
ENDBRANCH  12  13
ENDBRANCH  11  12
ENDBRANCH   1  11
TORSDOF 15
ENDMDL
MODEL 4
REMARK VINA RESULT:    -2.714     13.220     15.566
REMARK INTER + INTRA:          -7.277
REMARK INTER:                  -5.902
REMARK INTRA:                  -1.375
REMARK UNBOUND:                -2.183
REMARK SMILES O=C([O-])CCCCCCCCCCCCCCC(=O)[O-]
REMARK SMILES IDX 10 1 9 2 8 3 7 4 6 5 5 6 4 7 2 8 1 9 3 10 11 11 12 12 13 13
REMARK SMILES IDX 14 14 15 15 16 16 17 17 18 18 19 19 20 20
REMARK H PARENT
REMARK Flexibility Score: inf
ROOT
ATOM      1  C   UNL     1     -11.994  10.731   5.901  1.00  0.00     0.000 C 
ENDROOT
BRANCH   1   2
ATOM      2  C   UNL     1     -12.491   9.511   6.705  1.00  0.00     0.000 C 
BRANCH   2   3
ATOM      3  C   UNL     1     -13.682   9.825   7.632  1.00  0.00     0.000 C 
BRANCH   3   4
ATOM      4  C   UNL     1     -13.837   8.875   8.835  1.00  0.00     0.000 C 
BRANCH   4   5
ATOM      5  C   UNL     1     -13.799   9.562  10.212  1.00  0.00     0.000 C 
BRANCH   5   6
ATOM      6  C   UNL     1     -15.069   9.314  11.040  1.00  0.00     0.006 C 
BRANCH   6   7
ATOM      7  C   UNL     1     -15.785  10.632  11.353  1.00  0.00     0.053 C 
BRANCH   7   8
ATOM      8  C   UNL     1     -15.549  11.031  12.775  1.00  0.00     0.041 C 
ATOM      9  O   UNL     1     -14.398  11.371  13.155  1.00  0.00    -0.550 OA
ATOM     10  O   UNL     1     -16.590  10.980  13.693  1.00  0.00    -0.550 OA
ENDBRANCH   7   8
ENDBRANCH   6   7
ENDBRANCH   5   6
ENDBRANCH   4   5
ENDBRANCH   3   4
ENDBRANCH   2   3
ENDBRANCH   1   2
BRANCH   1  11
ATOM     11  C   UNL     1     -12.437  10.683   4.428  1.00  0.00     0.000 C 
BRANCH  11  12
ATOM     12  C   UNL     1     -12.501   9.250   3.876  1.00  0.00     0.000 C 
BRANCH  12  13
ATOM     13  C   UNL     1     -13.837   8.947   3.173  1.00  0.00     0.000 C 
BRANCH  13  14
ATOM     14  C   UNL     1     -14.977   9.858   3.654  1.00  0.00     0.000 C 
BRANCH  14  15
ATOM     15  C   UNL     1     -16.366   9.272   3.355  1.00  0.00     0.000 C 
BRANCH  15  16
ATOM     16  C   UNL     1     -17.345   9.570   4.502  1.00  0.00     0.006 C 
BRANCH  16  17
ATOM     17  C   UNL     1     -16.628  10.071   5.762  1.00  0.00     0.053 C 
BRANCH  17  18
ATOM     18  C   UNL     1     -17.531  10.064   6.957  1.00  0.00     0.041 C 
ATOM     19  O   UNL     1     -17.152  10.584   8.040  1.00  0.00    -0.550 OA
ATOM     20  O   UNL     1     -18.802   9.512   6.866  1.00  0.00    -0.550 OA
ENDBRANCH  17  18
ENDBRANCH  16  17
ENDBRANCH  15  16
ENDBRANCH  14  15
ENDBRANCH  13  14
ENDBRANCH  12  13
ENDBRANCH  11  12
ENDBRANCH   1  11
TORSDOF 15
ENDMDL
MODEL 5
REMARK VINA RESULT:    -2.714     13.738     16.496
REMARK INTER + INTRA:          -7.277
REMARK INTER:                  -5.993
REMARK INTRA:                  -1.283
REMARK UNBOUND:                -2.183
REMARK SMILES O=C([O-])CCCCCCCCCCCCCCC(=O)[O-]
REMARK SMILES IDX 10 1 9 2 8 3 7 4 6 5 5 6 4 7 2 8 1 9 3 10 11 11 12 12 13 13
REMARK SMILES IDX 14 14 15 15 16 16 17 17 18 18 19 19 20 20
REMARK H PARENT
REMARK Flexibility Score: inf
ROOT
ATOM      1  C   UNL     1     -12.519  10.740   4.332  1.00  0.00     0.000 C 
ENDROOT
BRANCH   1   2
ATOM      2  C   UNL     1     -12.931   9.450   3.592  1.00  0.00     0.000 C 
BRANCH   2   3
ATOM      3  C   UNL     1     -14.457   9.271   3.464  1.00  0.00     0.000 C 
BRANCH   3   4
ATOM      4  C   UNL     1     -15.298  10.418   4.055  1.00  0.00     0.000 C 
BRANCH   4   5
ATOM      5  C   UNL     1     -16.768  10.063   4.345  1.00  0.00     0.000 C 
BRANCH   5   6
ATOM      6  C   UNL     1     -17.490   9.465   3.128  1.00  0.00     0.006 C 
BRANCH   6   7
ATOM      7  C   UNL     1     -18.683  10.334   2.718  1.00  0.00     0.053 C 
BRANCH   7   8
ATOM      8  C   UNL     1     -18.295  11.272   1.618  1.00  0.00     0.041 C 
ATOM      9  O   UNL     1     -17.538  10.882   0.691  1.00  0.00    -0.550 OA
ATOM     10  O   UNL     1     -18.729  12.590   1.644  1.00  0.00    -0.550 OA
ENDBRANCH   7   8
ENDBRANCH   6   7
ENDBRANCH   5   6
ENDBRANCH   4   5
ENDBRANCH   3   4
ENDBRANCH   2   3
ENDBRANCH   1   2
BRANCH   1  11
ATOM     11  C   UNL     1     -12.030  10.464   5.764  1.00  0.00     0.000 C 
BRANCH  11  12
ATOM     12  C   UNL     1     -12.305   9.021   6.216  1.00  0.00     0.000 C 
BRANCH  12  13
ATOM     13  C   UNL     1     -13.108   8.954   7.527  1.00  0.00     0.000 C 
BRANCH  13  14
ATOM     14  C   UNL     1     -14.255   9.976   7.569  1.00  0.00     0.000 C 
BRANCH  14  15
ATOM     15  C   UNL     1     -15.362   9.581   8.558  1.00  0.00     0.000 C 
BRANCH  15  16
ATOM     16  C   UNL     1     -14.797   9.414   9.977  1.00  0.00     0.006 C 
BRANCH  16  17
ATOM     17  C   UNL     1     -15.528  10.292  11.000  1.00  0.00     0.053 C 
BRANCH  17  18
ATOM     18  C   UNL     1     -14.619  10.739  12.104  1.00  0.00     0.041 C 
ATOM     19  O   UNL     1     -13.382  10.513  12.035  1.00  0.00    -0.550 OA
ATOM     20  O   UNL     1     -15.132  11.433  13.191  1.00  0.00    -0.550 OA
ENDBRANCH  17  18
ENDBRANCH  16  17
ENDBRANCH  15  16
ENDBRANCH  14  15
ENDBRANCH  13  14
ENDBRANCH  12  13
ENDBRANCH  11  12
ENDBRANCH   1  11
TORSDOF 15
ENDMDL
MODEL 6
REMARK VINA RESULT:    -2.708     12.774     15.567
REMARK INTER + INTRA:          -7.266
REMARK INTER:                  -6.061
REMARK INTRA:                  -1.204
REMARK UNBOUND:                -2.183
REMARK SMILES O=C([O-])CCCCCCCCCCCCCCC(=O)[O-]
REMARK SMILES IDX 10 1 9 2 8 3 7 4 6 5 5 6 4 7 2 8 1 9 3 10 11 11 12 12 13 13
REMARK SMILES IDX 14 14 15 15 16 16 17 17 18 18 19 19 20 20
REMARK H PARENT
REMARK Flexibility Score: inf
ROOT
ATOM      1  C   UNL     1     -16.025  10.730   5.645  1.00  0.00     0.000 C 
ENDROOT
BRANCH   1   2
ATOM      2  C   UNL     1     -16.406   9.835   4.447  1.00  0.00     0.000 C 
BRANCH   2   3
ATOM      3  C   UNL     1     -15.265   9.646   3.428  1.00  0.00     0.000 C 
BRANCH   3   4
ATOM      4  C   UNL     1     -14.041   8.875   3.959  1.00  0.00     0.000 C 
BRANCH   4   5
ATOM      5  C   UNL     1     -12.682   9.543   3.680  1.00  0.00     0.000 C 
BRANCH   5   6
ATOM      6  C   UNL     1     -11.654   9.297   4.794  1.00  0.00     0.006 C 
BRANCH   6   7
ATOM      7  C   UNL     1     -12.070  10.002   6.089  1.00  0.00     0.053 C 
BRANCH   7   8
ATOM      8  C   UNL     1     -12.071  11.486   5.901  1.00  0.00     0.041 C 
ATOM      9  O   UNL     1     -13.145  12.136   5.996  1.00  0.00    -0.550 OA
ATOM     10  O   UNL     1     -10.894  12.145   5.571  1.00  0.00    -0.550 OA
ENDBRANCH   7   8
ENDBRANCH   6   7
ENDBRANCH   5   6
ENDBRANCH   4   5
ENDBRANCH   3   4
ENDBRANCH   2   3
ENDBRANCH   1   2
BRANCH   1  11
ATOM     11  C   UNL     1     -15.830   9.923   6.941  1.00  0.00     0.000 C 
BRANCH  11  12
ATOM     12  C   UNL     1     -16.945  10.174   7.968  1.00  0.00     0.000 C 
BRANCH  12  13
ATOM     13  C   UNL     1     -16.593   9.636   9.367  1.00  0.00     0.000 C 
BRANCH  13  14
ATOM     14  C   UNL     1     -15.081   9.446   9.563  1.00  0.00     0.000 C 
BRANCH  14  15
ATOM     15  C   UNL     1     -14.587   9.991  10.912  1.00  0.00     0.000 C 
BRANCH  15  16
ATOM     16  C   UNL     1     -15.743  10.091  11.919  1.00  0.00     0.006 C 
BRANCH  16  17
ATOM     17  C   UNL     1     -15.693  11.393  12.731  1.00  0.00     0.053 C 
BRANCH  17  18
ATOM     18  C   UNL     1     -16.993  12.135  12.674  1.00  0.00     0.041 C 
ATOM     19  O   UNL     1     -17.002  13.394  12.645  1.00  0.00    -0.550 OA
ATOM     20  O   UNL     1     -18.192  11.436  12.620  1.00  0.00    -0.550 OA
ENDBRANCH  17  18
ENDBRANCH  16  17
ENDBRANCH  15  16
ENDBRANCH  14  15
ENDBRANCH  13  14
ENDBRANCH  12  13
ENDBRANCH  11  12
ENDBRANCH   1  11
TORSDOF 15
ENDMDL
MODEL 7
REMARK VINA RESULT:    -2.669     16.239     18.826
REMARK INTER + INTRA:          -7.193
REMARK INTER:                  -5.977
REMARK INTRA:                  -1.216
REMARK UNBOUND:                -2.183
REMARK SMILES O=C([O-])CCCCCCCCCCCCCCC(=O)[O-]
REMARK SMILES IDX 10 1 9 2 8 3 7 4 6 5 5 6 4 7 2 8 1 9 3 10 11 11 12 12 13 13
REMARK SMILES IDX 14 14 15 15 16 16 17 17 18 18 19 19 20 20
REMARK H PARENT
REMARK Flexibility Score: inf
ROOT
ATOM      1  C   UNL     1     -17.208  11.527  -1.012  1.00  0.00     0.000 C 
ENDROOT
BRANCH   1   2
ATOM      2  C   UNL     1     -15.950  11.328  -1.884  1.00  0.00     0.000 C 
BRANCH   2   3
ATOM      3  C   UNL     1     -15.625   9.850  -2.174  1.00  0.00     0.000 C 
BRANCH   3   4
ATOM      4  C   UNL     1     -14.131   9.542  -2.389  1.00  0.00     0.000 C 
BRANCH   4   5
ATOM      5  C   UNL     1     -13.252  10.771  -2.689  1.00  0.00     0.000 C 
BRANCH   5   6
ATOM      6  C   UNL     1     -12.610  10.721  -4.083  1.00  0.00     0.006 C 
BRANCH   6   7
ATOM      7  C   UNL     1     -13.664  10.457  -5.163  1.00  0.00     0.053 C 
BRANCH   7   8
ATOM      8  C   UNL     1     -14.434  11.705  -5.459  1.00  0.00     0.041 C 
ATOM      9  O   UNL     1     -13.828  12.777  -5.718  1.00  0.00    -0.550 OA
ATOM     10  O   UNL     1     -15.822  11.695  -5.399  1.00  0.00    -0.550 OA
ENDBRANCH   7   8
ENDBRANCH   6   7
ENDBRANCH   5   6
ENDBRANCH   4   5
ENDBRANCH   3   4
ENDBRANCH   2   3
ENDBRANCH   1   2
BRANCH   1  11
ATOM     11  C   UNL     1     -17.618  10.240  -0.274  1.00  0.00     0.000 C 
BRANCH  11  12
ATOM     12  C   UNL     1     -17.158  10.226   1.192  1.00  0.00     0.000 C 
BRANCH  12  13
ATOM     13  C   UNL     1     -16.365   8.957   1.551  1.00  0.00     0.000 C 
BRANCH  13  14
ATOM     14  C   UNL     1     -15.261   9.224   2.587  1.00  0.00     0.000 C 
BRANCH  14  15
ATOM     15  C   UNL     1     -15.720  10.166   3.709  1.00  0.00     0.000 C 
BRANCH  15  16
ATOM     16  C   UNL     1     -14.689  10.208   4.848  1.00  0.00     0.006 C 
BRANCH  16  17
ATOM     17  C   UNL     1     -13.263  10.438   4.331  1.00  0.00     0.053 C 
BRANCH  17  18
ATOM     18  C   UNL     1     -12.286  10.620   5.452  1.00  0.00     0.041 C 
ATOM     19  O   UNL     1     -11.483  11.590   5.439  1.00  0.00    -0.550 OA
ATOM     20  O   UNL     1     -12.285   9.738   6.524  1.00  0.00    -0.550 OA
ENDBRANCH  17  18
ENDBRANCH  16  17
ENDBRANCH  15  16
ENDBRANCH  14  15
ENDBRANCH  13  14
ENDBRANCH  12  13
ENDBRANCH  11  12
ENDBRANCH   1  11
TORSDOF 15
ENDMDL
MODEL 8
REMARK VINA RESULT:    -2.658      2.302      5.854
REMARK INTER + INTRA:          -7.172
REMARK INTER:                  -4.670
REMARK INTRA:                  -2.502
REMARK UNBOUND:                -2.183
REMARK SMILES O=C([O-])CCCCCCCCCCCCCCC(=O)[O-]
REMARK SMILES IDX 10 1 9 2 8 3 7 4 6 5 5 6 4 7 2 8 1 9 3 10 11 11 12 12 13 13
REMARK SMILES IDX 14 14 15 15 16 16 17 17 18 18 19 19 20 20
REMARK H PARENT
REMARK Flexibility Score: inf
ROOT
ATOM      1  C   UNL     1      -1.422  11.970   8.896  1.00  0.00     0.000 C 
ENDROOT
BRANCH   1   2
ATOM      2  C   UNL     1      -0.108  11.357   8.367  1.00  0.00     0.000 C 
BRANCH   2   3
ATOM      3  C   UNL     1      -0.055   9.820   8.476  1.00  0.00     0.000 C 
BRANCH   3   4
ATOM      4  C   UNL     1      -1.125   9.196   9.393  1.00  0.00     0.000 C 
BRANCH   4   5
ATOM      5  C   UNL     1      -0.648   8.877  10.822  1.00  0.00     0.000 C 
BRANCH   5   6
ATOM      6  C   UNL     1      -1.742   9.086  11.879  1.00  0.00     0.006 C 
BRANCH   6   7
ATOM      7  C   UNL     1      -3.077   9.450  11.221  1.00  0.00     0.053 C 
BRANCH   7   8
ATOM      8  C   UNL     1      -3.755  10.545  11.983  1.00  0.00     0.041 C 
ATOM      9  O   UNL     1      -4.314  11.492  11.370  1.00  0.00    -0.550 OA
ATOM     10  O   UNL     1      -3.725  10.546  13.371  1.00  0.00    -0.550 OA
ENDBRANCH   7   8
ENDBRANCH   6   7
ENDBRANCH   5   6
ENDBRANCH   4   5
ENDBRANCH   3   4
ENDBRANCH   2   3
ENDBRANCH   1   2
BRANCH   1  11
ATOM     11  C   UNL     1      -1.217  12.763  10.199  1.00  0.00     0.000 C 
BRANCH  11  12
ATOM     12  C   UNL     1       0.259  12.836  10.621  1.00  0.00     0.000 C 
BRANCH  12  13
ATOM     13  C   UNL     1       0.498  12.280  12.037  1.00  0.00     0.000 C 
BRANCH  13  14
ATOM     14  C   UNL     1      -0.713  12.482  12.962  1.00  0.00     0.000 C 
BRANCH  14  15
ATOM     15  C   UNL     1      -0.463  13.550  14.037  1.00  0.00     0.000 C 
BRANCH  15  16
ATOM     16  C   UNL     1      -1.205  14.852  13.701  1.00  0.00     0.006 C 
BRANCH  16  17
ATOM     17  C   UNL     1      -0.335  15.823  12.892  1.00  0.00     0.053 C 
BRANCH  17  18
ATOM     18  C   UNL     1      -1.134  16.559  11.860  1.00  0.00     0.041 C 
ATOM     19  O   UNL     1      -1.134  16.169  10.663  1.00  0.00    -0.550 OA
ATOM     20  O   UNL     1      -1.903  17.656  12.227  1.00  0.00    -0.550 OA
ENDBRANCH  17  18
ENDBRANCH  16  17
ENDBRANCH  15  16
ENDBRANCH  14  15
ENDBRANCH  13  14
ENDBRANCH  12  13
ENDBRANCH  11  12
ENDBRANCH   1  11
TORSDOF 15
ENDMDL
MODEL 9
REMARK VINA RESULT:    -2.614      1.389      6.709
REMARK INTER + INTRA:          -7.090
REMARK INTER:                  -4.877
REMARK INTRA:                  -2.213
REMARK UNBOUND:                -2.183
REMARK SMILES O=C([O-])CCCCCCCCCCCCCCC(=O)[O-]
REMARK SMILES IDX 10 1 9 2 8 3 7 4 6 5 5 6 4 7 2 8 1 9 3 10 11 11 12 12 13 13
REMARK SMILES IDX 14 14 15 15 16 16 17 17 18 18 19 19 20 20
REMARK H PARENT
REMARK Flexibility Score: inf
ROOT
ATOM      1  C   UNL     1      -1.739  13.740  10.355  1.00  0.00     0.000 C 
ENDROOT
BRANCH   1   2
ATOM      2  C   UNL     1      -2.637  12.486  10.390  1.00  0.00     0.000 C 
BRANCH   2   3
ATOM      3  C   UNL     1      -2.943  11.985  11.815  1.00  0.00     0.000 C 
BRANCH   3   4
ATOM      4  C   UNL     1      -2.542  10.523  12.090  1.00  0.00     0.000 C 
BRANCH   4   5
ATOM      5  C   UNL     1      -1.032  10.237  12.003  1.00  0.00     0.000 C 
BRANCH   5   6
ATOM      6  C   UNL     1      -0.672   9.265  10.869  1.00  0.00     0.006 C 
BRANCH   6   7
ATOM      7  C   UNL     1       0.111   9.979   9.763  1.00  0.00     0.053 C 
BRANCH   7   8
ATOM      8  C   UNL     1      -0.673   9.987   8.488  1.00  0.00     0.041 C 
ATOM      9  O   UNL     1      -0.693  11.016   7.763  1.00  0.00    -0.550 OA
ATOM     10  O   UNL     1      -1.423   8.876   8.127  1.00  0.00    -0.550 OA
ENDBRANCH   7   8
ENDBRANCH   6   7
ENDBRANCH   5   6
ENDBRANCH   4   5
ENDBRANCH   3   4
ENDBRANCH   2   3
ENDBRANCH   1   2
BRANCH   1  11
ATOM     11  C   UNL     1      -0.241  13.388  10.353  1.00  0.00     0.000 C 
BRANCH  11  12
ATOM     12  C   UNL     1       0.552  14.166  11.415  1.00  0.00     0.000 C 
BRANCH  12  13
ATOM     13  C   UNL     1       0.590  13.441  12.773  1.00  0.00     0.000 C 
BRANCH  13  14
ATOM     14  C   UNL     1       0.099  14.327  13.929  1.00  0.00     0.000 C 
BRANCH  14  15
ATOM     15  C   UNL     1      -1.425  14.516  13.921  1.00  0.00     0.000 C 
BRANCH  15  16
ATOM     16  C   UNL     1      -1.794  16.006  13.991  1.00  0.00     0.006 C 
BRANCH  16  17
ATOM     17  C   UNL     1      -1.561  16.724  12.655  1.00  0.00     0.053 C 
BRANCH  17  18
ATOM     18  C   UNL     1      -1.838  18.193  12.756  1.00  0.00     0.041 C 
ATOM     19  O   UNL     1      -3.016  18.624  12.643  1.00  0.00    -0.550 OA
ATOM     20  O   UNL     1      -0.801  19.082  13.006  1.00  0.00    -0.550 OA
ENDBRANCH  17  18
ENDBRANCH  16  17
ENDBRANCH  15  16
ENDBRANCH  14  15
ENDBRANCH  13  14
ENDBRANCH  12  13
ENDBRANCH  11  12
ENDBRANCH   1  11
TORSDOF 15
ENDMDL
