MODEL 1
REMARK VINA RESULT:    -4.943      0.000      0.000
REMARK INTER + INTRA:         -10.070
REMARK INTER:                  -8.989
REMARK INTRA:                  -1.081
REMARK UNBOUND:                -1.081
REMARK SMILES CCCCCC=CCC=CCCCCCCCC(=O)[O-]
REMARK SMILES IDX 11 1 12 2 13 3 14 4 15 5 16 6 17 7 18 8 19 9 20 10 10 11
REMARK SMILES IDX 9 12 8 13 7 14 6 15 5 16 4 17 3 18 2 19 1 20
REMARK H PARENT
REMARK Flexibility Score: inf
ROOT
ATOM      1  C   UNL     1      12.248  16.024  25.691  1.00  0.00     0.027 C 
ENDROOT
BRANCH   1   2
ATOM      2  C   UNL     1      13.365  16.065  24.641  1.00  0.00     0.004 C 
BRANCH   2   3
ATOM      3  C   UNL     1      13.497  17.455  23.994  1.00  0.00     0.000 C 
BRANCH   3   4
ATOM      4  C   UNL     1      14.892  18.068  24.194  1.00  0.00     0.000 C 
BRANCH   4   5
ATOM      5  C   UNL     1      15.501  17.711  25.558  1.00  0.00     0.000 C 
BRANCH   5   6
ATOM      6  C   UNL     1      17.034  17.693  25.484  1.00  0.00     0.006 C 
BRANCH   6   7
ATOM      7  C   UNL     1      17.628  16.781  26.561  1.00  0.00     0.053 C 
BRANCH   7   8
ATOM      8  C   UNL     1      19.114  16.942  26.625  1.00  0.00     0.041 C 
ATOM      9  O   UNL     1      19.736  16.661  27.683  1.00  0.00    -0.550 OA
ATOM     10  O   UNL     1      19.816  17.360  25.504  1.00  0.00    -0.550 OA
ENDBRANCH   7   8
ENDBRANCH   6   7
ENDBRANCH   5   6
ENDBRANCH   4   5
ENDBRANCH   3   4
ENDBRANCH   2   3
ENDBRANCH   1   2
BRANCH   1  11
ATOM     11  C   UNL     1      12.299  17.234  26.592  1.00  0.00    -0.031 C 
ATOM     12  C   UNL     1      12.588  17.209  27.907  1.00  0.00    -0.027 C 
BRANCH  12  13
ATOM     13  C   UNL     1      12.961  15.971  28.685  1.00  0.00     0.054 C 
BRANCH  13  14
ATOM     14  C   UNL     1      14.437  15.681  28.580  1.00  0.00    -0.027 C 
ATOM     15  C   UNL     1      15.161  15.045  29.520  1.00  0.00    -0.031 C 
BRANCH  15  16
ATOM     16  C   UNL     1      14.591  14.458  30.786  1.00  0.00     0.027 C 
BRANCH  16  17
ATOM     17  C   UNL     1      15.338  13.178  31.175  1.00  0.00     0.004 C 
BRANCH  17  18
ATOM     18  C   UNL     1      14.997  12.029  30.215  1.00  0.00     0.000 C 
BRANCH  18  19
ATOM     19  C   UNL     1      15.666  12.190  28.841  1.00  0.00    -0.003 C 
ATOM     20  C   UNL     1      15.651  10.900  28.023  1.00  0.00     0.004 C 
ENDBRANCH  18  19
ENDBRANCH  17  18
ENDBRANCH  16  17
ENDBRANCH  15  16
ENDBRANCH  13  14
ENDBRANCH  12  13
ENDBRANCH   1  11
TORSDOF 14
ENDMDL
MODEL 2
REMARK VINA RESULT:    -4.878      2.714      6.049
REMARK INTER + INTRA:          -9.952
REMARK INTER:                  -9.078
REMARK INTRA:                  -0.874
REMARK UNBOUND:                -1.081
REMARK SMILES CCCCCC=CCC=CCCCCCCCC(=O)[O-]
REMARK SMILES IDX 11 1 12 2 13 3 14 4 15 5 16 6 17 7 18 8 19 9 20 10 10 11
REMARK SMILES IDX 9 12 8 13 7 14 6 15 5 16 4 17 3 18 2 19 1 20
REMARK H PARENT
REMARK Flexibility Score: inf
ROOT
ATOM      1  C   UNL     1      12.640  15.889  24.599  1.00  0.00     0.027 C 
ENDROOT
BRANCH   1   2
ATOM      2  C   UNL     1      11.997  15.834  25.990  1.00  0.00     0.004 C 
BRANCH   2   3
ATOM      3  C   UNL     1      12.057  17.194  26.707  1.00  0.00     0.000 C 
BRANCH   3   4
ATOM      4  C   UNL     1      12.814  17.123  28.042  1.00  0.00     0.000 C 
BRANCH   4   5
ATOM      5  C   UNL     1      13.075  15.679  28.494  1.00  0.00     0.000 C 
BRANCH   5   6
ATOM      6  C   UNL     1      14.533  15.279  28.233  1.00  0.00     0.006 C 
BRANCH   6   7
ATOM      7  C   UNL     1      15.319  15.172  29.544  1.00  0.00     0.053 C 
BRANCH   7   8
ATOM      8  C   UNL     1      14.832  14.012  30.354  1.00  0.00     0.041 C 
ATOM      9  O   UNL     1      14.261  14.207  31.459  1.00  0.00    -0.550 OA
ATOM     10  O   UNL     1      14.970  12.719  29.870  1.00  0.00    -0.550 OA
ENDBRANCH   7   8
ENDBRANCH   6   7
ENDBRANCH   5   6
ENDBRANCH   4   5
ENDBRANCH   3   4
ENDBRANCH   2   3
ENDBRANCH   1   2
BRANCH   1  11
ATOM     11  C   UNL     1      12.369  17.211  23.923  1.00  0.00    -0.031 C 
ATOM     12  C   UNL     1      13.306  18.125  23.605  1.00  0.00    -0.027 C 
BRANCH  12  13
ATOM     13  C   UNL     1      14.789  17.952  23.823  1.00  0.00     0.054 C 
BRANCH  13  14
ATOM     14  C   UNL     1      15.084  17.442  25.211  1.00  0.00    -0.027 C 
ATOM     15  C   UNL     1      16.296  17.473  25.796  1.00  0.00    -0.031 C 
BRANCH  15  16
ATOM     16  C   UNL     1      17.526  18.090  25.182  1.00  0.00     0.027 C 
BRANCH  16  17
ATOM     17  C   UNL     1      18.629  17.040  25.006  1.00  0.00     0.004 C 
BRANCH  17  18
ATOM     18  C   UNL     1      19.690  17.520  24.005  1.00  0.00     0.000 C 
BRANCH  18  19
ATOM     19  C   UNL     1      19.116  17.735  22.596  1.00  0.00    -0.003 C 
ATOM     20  C   UNL     1      20.096  17.336  21.493  1.00  0.00     0.004 C 
ENDBRANCH  18  19
ENDBRANCH  17  18
ENDBRANCH  16  17
ENDBRANCH  15  16
ENDBRANCH  13  14
ENDBRANCH  12  13
ENDBRANCH   1  11
TORSDOF 14
ENDMDL
MODEL 3
REMARK VINA RESULT:    -4.253      2.155      5.982
REMARK INTER + INTRA:          -8.815
REMARK INTER:                  -7.598
REMARK INTRA:                  -1.217
REMARK UNBOUND:                -1.081
REMARK SMILES CCCCCC=CCC=CCCCCCCCC(=O)[O-]
REMARK SMILES IDX 11 1 12 2 13 3 14 4 15 5 16 6 17 7 18 8 19 9 20 10 10 11
REMARK SMILES IDX 9 12 8 13 7 14 6 15 5 16 4 17 3 18 2 19 1 20
REMARK H PARENT
REMARK Flexibility Score: inf
ROOT
ATOM      1  C   UNL     1      12.757  15.984  27.198  1.00  0.00     0.027 C 
ENDROOT
BRANCH   1   2
ATOM      2  C   UNL     1      13.467  16.227  28.536  1.00  0.00     0.004 C 
BRANCH   2   3
ATOM      3  C   UNL     1      13.392  14.999  29.460  1.00  0.00     0.000 C 
BRANCH   3   4
ATOM      4  C   UNL     1      14.234  15.169  30.734  1.00  0.00     0.000 C 
BRANCH   4   5
ATOM      5  C   UNL     1      14.350  13.869  31.542  1.00  0.00     0.000 C 
BRANCH   5   6
ATOM      6  C   UNL     1      15.512  13.008  31.028  1.00  0.00     0.006 C 
BRANCH   6   7
ATOM      7  C   UNL     1      15.002  11.850  30.165  1.00  0.00     0.053 C 
BRANCH   7   8
ATOM      8  C   UNL     1      15.456  12.011  28.749  1.00  0.00     0.041 C 
ATOM      9  O   UNL     1      15.662  10.997  28.031  1.00  0.00    -0.550 OA
ATOM     10  O   UNL     1      15.611  13.280  28.209  1.00  0.00    -0.550 OA
ENDBRANCH   7   8
ENDBRANCH   6   7
ENDBRANCH   5   6
ENDBRANCH   4   5
ENDBRANCH   3   4
ENDBRANCH   2   3
ENDBRANCH   1   2
BRANCH   1  11
ATOM     11  C   UNL     1      12.295  17.281  26.581  1.00  0.00    -0.031 C 
ATOM     12  C   UNL     1      12.730  17.779  25.408  1.00  0.00    -0.027 C 
BRANCH  12  13
ATOM     13  C   UNL     1      13.713  17.094  24.491  1.00  0.00     0.054 C 
BRANCH  13  14
ATOM     14  C   UNL     1      14.878  17.993  24.164  1.00  0.00    -0.027 C 
ATOM     15  C   UNL     1      15.982  18.122  24.923  1.00  0.00    -0.031 C 
BRANCH  15  16
ATOM     16  C   UNL     1      16.256  17.329  26.175  1.00  0.00     0.027 C 
BRANCH  16  17
ATOM     17  C   UNL     1      17.638  16.669  26.108  1.00  0.00     0.004 C 
BRANCH  17  18
ATOM     18  C   UNL     1      18.471  17.009  27.352  1.00  0.00     0.000 C 
BRANCH  18  19
ATOM     19  C   UNL     1      19.940  17.306  27.014  1.00  0.00    -0.003 C 
ATOM     20  C   UNL     1      20.104  18.016  25.671  1.00  0.00     0.004 C 
ENDBRANCH  18  19
ENDBRANCH  17  18
ENDBRANCH  16  17
ENDBRANCH  15  16
ENDBRANCH  13  14
ENDBRANCH  12  13
ENDBRANCH   1  11
TORSDOF 14
ENDMDL
MODEL 4
REMARK VINA RESULT:    -4.002      2.826      4.137
REMARK INTER + INTRA:          -8.359
REMARK INTER:                  -7.436
REMARK INTRA:                  -0.923
REMARK UNBOUND:                -1.081
REMARK SMILES CCCCCC=CCC=CCCCCCCCC(=O)[O-]
REMARK SMILES IDX 11 1 12 2 13 3 14 4 15 5 16 6 17 7 18 8 19 9 20 10 10 11
REMARK SMILES IDX 9 12 8 13 7 14 6 15 5 16 4 17 3 18 2 19 1 20
REMARK H PARENT
REMARK Flexibility Score: inf
ROOT
ATOM      1  C   UNL     1      17.200  16.031  26.814  1.00  0.00     0.027 C 
ENDROOT
BRANCH   1   2
ATOM      2  C   UNL     1      18.197  16.896  26.033  1.00  0.00     0.004 C 
BRANCH   2   3
ATOM      3  C   UNL     1      17.489  17.844  25.048  1.00  0.00     0.000 C 
BRANCH   3   4
ATOM      4  C   UNL     1      15.963  17.839  25.221  1.00  0.00     0.000 C 
BRANCH   4   5
ATOM      5  C   UNL     1      15.220  18.121  23.907  1.00  0.00     0.000 C 
BRANCH   5   6
ATOM      6  C   UNL     1      13.703  17.993  24.097  1.00  0.00     0.006 C 
BRANCH   6   7
ATOM      7  C   UNL     1      13.362  17.552  25.524  1.00  0.00     0.053 C 
BRANCH   7   8
ATOM      8  C   UNL     1      12.004  16.926  25.569  1.00  0.00     0.041 C 
ATOM      9  O   UNL     1      11.884  15.684  25.742  1.00  0.00    -0.550 OA
ATOM     10  O   UNL     1      10.869  17.718  25.463  1.00  0.00    -0.550 OA
ENDBRANCH   7   8
ENDBRANCH   6   7
ENDBRANCH   5   6
ENDBRANCH   4   5
ENDBRANCH   3   4
ENDBRANCH   2   3
ENDBRANCH   1   2
BRANCH   1  11
ATOM     11  C   UNL     1      16.569  16.808  27.944  1.00  0.00    -0.031 C 
ATOM     12  C   UNL     1      15.367  16.543  28.490  1.00  0.00    -0.027 C 
BRANCH  12  13
ATOM     13  C   UNL     1      14.477  15.390  28.098  1.00  0.00     0.054 C 
BRANCH  13  14
ATOM     14  C   UNL     1      13.495  15.058  29.193  1.00  0.00    -0.027 C 
ATOM     15  C   UNL     1      13.832  14.560  30.398  1.00  0.00    -0.031 C 
BRANCH  15  16
ATOM     16  C   UNL     1      15.247  14.330  30.863  1.00  0.00     0.027 C 
BRANCH  16  17
ATOM     17  C   UNL     1      15.501  12.839  31.108  1.00  0.00     0.004 C 
BRANCH  17  18
ATOM     18  C   UNL     1      14.932  11.988  29.964  1.00  0.00     0.000 C 
BRANCH  18  19
ATOM     19  C   UNL     1      15.703  12.180  28.648  1.00  0.00    -0.003 C 
ATOM     20  C   UNL     1      15.729  10.915  27.790  1.00  0.00     0.004 C 
ENDBRANCH  18  19
ENDBRANCH  17  18
ENDBRANCH  16  17
ENDBRANCH  15  16
ENDBRANCH  13  14
ENDBRANCH  12  13
ENDBRANCH   1  11
TORSDOF 14
ENDMDL
MODEL 5
REMARK VINA RESULT:    -3.904      2.786      5.849
REMARK INTER + INTRA:          -8.181
REMARK INTER:                  -6.491
REMARK INTRA:                  -1.690
REMARK UNBOUND:                -1.081
REMARK SMILES CCCCCC=CCC=CCCCCCCCC(=O)[O-]
REMARK SMILES IDX 11 1 12 2 13 3 14 4 15 5 16 6 17 7 18 8 19 9 20 10 10 11
REMARK SMILES IDX 9 12 8 13 7 14 6 15 5 16 4 17 3 18 2 19 1 20
REMARK H PARENT
REMARK Flexibility Score: inf
ROOT
ATOM      1  C   UNL     1      11.397  16.984  26.493  1.00  0.00     0.027 C 
ENDROOT
BRANCH   1   2
ATOM      2  C   UNL     1      12.255  17.849  27.424  1.00  0.00     0.004 C 
BRANCH   2   3
ATOM      3  C   UNL     1      13.412  17.050  28.049  1.00  0.00     0.000 C 
BRANCH   3   4
ATOM      4  C   UNL     1      13.816  15.836  27.198  1.00  0.00     0.000 C 
BRANCH   4   5
ATOM      5  C   UNL     1      14.848  14.942  27.900  1.00  0.00     0.000 C 
BRANCH   5   6
ATOM      6  C   UNL     1      14.599  14.902  29.414  1.00  0.00     0.006 C 
BRANCH   6   7
ATOM      7  C   UNL     1      14.374  13.467  29.899  1.00  0.00     0.053 C 
BRANCH   7   8
ATOM      8  C   UNL     1      15.053  13.245  31.213  1.00  0.00     0.041 C 
ATOM      9  O   UNL     1      14.671  13.870  32.237  1.00  0.00    -0.550 OA
ATOM     10  O   UNL     1      16.078  12.316  31.317  1.00  0.00    -0.550 OA
ENDBRANCH   7   8
ENDBRANCH   6   7
ENDBRANCH   5   6
ENDBRANCH   4   5
ENDBRANCH   3   4
ENDBRANCH   2   3
ENDBRANCH   1   2
BRANCH   1  11
ATOM     11  C   UNL     1      10.735  17.822  25.425  1.00  0.00    -0.031 C 
ATOM     12  C   UNL     1      11.108  17.864  24.132  1.00  0.00    -0.027 C 
BRANCH  12  13
ATOM     13  C   UNL     1      12.216  17.039  23.526  1.00  0.00     0.054 C 
BRANCH  13  14
ATOM     14  C   UNL     1      13.258  17.913  22.874  1.00  0.00    -0.027 C 
ATOM     15  C   UNL     1      14.494  18.125  23.365  1.00  0.00    -0.031 C 
BRANCH  15  16
ATOM     16  C   UNL     1      15.050  17.461  24.599  1.00  0.00     0.027 C 
BRANCH  16  17
ATOM     17  C   UNL     1      16.500  17.893  24.839  1.00  0.00     0.004 C 
BRANCH  17  18
ATOM     18  C   UNL     1      17.014  17.368  26.188  1.00  0.00     0.000 C 
BRANCH  18  19
ATOM     19  C   UNL     1      18.544  17.222  26.219  1.00  0.00    -0.003 C 
ATOM     20  C   UNL     1      19.073  16.853  27.604  1.00  0.00     0.004 C 
ENDBRANCH  18  19
ENDBRANCH  17  18
ENDBRANCH  16  17
ENDBRANCH  15  16
ENDBRANCH  13  14
ENDBRANCH  12  13
ENDBRANCH   1  11
TORSDOF 14
ENDMDL
MODEL 6
REMARK VINA RESULT:    -3.819      2.734      5.108
REMARK INTER + INTRA:          -8.027
REMARK INTER:                  -7.320
REMARK INTRA:                  -0.706
REMARK UNBOUND:                -1.081
REMARK SMILES CCCCCC=CCC=CCCCCCCCC(=O)[O-]
REMARK SMILES IDX 11 1 12 2 13 3 14 4 15 5 16 6 17 7 18 8 19 9 20 10 10 11
REMARK SMILES IDX 9 12 8 13 7 14 6 15 5 16 4 17 3 18 2 19 1 20
REMARK H PARENT
REMARK Flexibility Score: inf
ROOT
ATOM      1  C   UNL     1      15.779  17.324  24.797  1.00  0.00     0.027 C 
ENDROOT
BRANCH   1   2
ATOM      2  C   UNL     1      14.502  18.125  24.516  1.00  0.00     0.004 C 
BRANCH   2   3
ATOM      3  C   UNL     1      14.138  18.124  23.020  1.00  0.00     0.000 C 
BRANCH   3   4
ATOM      4  C   UNL     1      12.622  18.049  22.784  1.00  0.00     0.000 C 
BRANCH   4   5
ATOM      5  C   UNL     1      11.929  17.043  23.715  1.00  0.00     0.000 C 
BRANCH   5   6
ATOM      6  C   UNL     1      10.668  17.655  24.339  1.00  0.00     0.006 C 
BRANCH   6   7
ATOM      7  C   UNL     1      10.858  17.902  25.838  1.00  0.00     0.053 C 
BRANCH   7   8
ATOM      8  C   UNL     1      11.790  16.889  26.423  1.00  0.00     0.041 C 
ATOM      9  O   UNL     1      11.689  15.675  26.102  1.00  0.00    -0.550 OA
ATOM     10  O   UNL     1      12.798  17.289  27.289  1.00  0.00    -0.550 OA
ENDBRANCH   7   8
ENDBRANCH   6   7
ENDBRANCH   5   6
ENDBRANCH   4   5
ENDBRANCH   3   4
ENDBRANCH   2   3
ENDBRANCH   1   2
BRANCH   1  11
ATOM     11  C   UNL     1      17.013  18.125  24.460  1.00  0.00    -0.031 C 
ATOM     12  C   UNL     1      18.262  17.831  24.866  1.00  0.00    -0.027 C 
BRANCH  12  13
ATOM     13  C   UNL     1      18.642  16.620  25.682  1.00  0.00     0.054 C 
BRANCH  13  14
ATOM     14  C   UNL     1      18.699  16.945  27.154  1.00  0.00    -0.027 C 
ATOM     15  C   UNL     1      17.709  16.695  28.032  1.00  0.00    -0.031 C 
BRANCH  15  16
ATOM     16  C   UNL     1      16.425  15.984  27.692  1.00  0.00     0.027 C 
BRANCH  16  17
ATOM     17  C   UNL     1      15.465  15.998  28.887  1.00  0.00     0.004 C 
BRANCH  17  18
ATOM     18  C   UNL     1      14.524  14.785  28.851  1.00  0.00     0.000 C 
BRANCH  18  19
ATOM     19  C   UNL     1      14.792  13.798  29.999  1.00  0.00    -0.003 C 
ATOM     20  C   UNL     1      14.505  14.400  31.373  1.00  0.00     0.004 C 
ENDBRANCH  18  19
ENDBRANCH  17  18
ENDBRANCH  16  17
ENDBRANCH  15  16
ENDBRANCH  13  14
ENDBRANCH  12  13
ENDBRANCH   1  11
TORSDOF 14
ENDMDL
MODEL 7
REMARK VINA RESULT:    -3.810      2.272      6.432
REMARK INTER + INTRA:          -8.010
REMARK INTER:                  -6.768
REMARK INTRA:                  -1.242
REMARK UNBOUND:                -1.081
REMARK SMILES CCCCCC=CCC=CCCCCCCCC(=O)[O-]
REMARK SMILES IDX 11 1 12 2 13 3 14 4 15 5 16 6 17 7 18 8 19 9 20 10 10 11
REMARK SMILES IDX 9 12 8 13 7 14 6 15 5 16 4 17 3 18 2 19 1 20
REMARK H PARENT
REMARK Flexibility Score: inf
ROOT
ATOM      1  C   UNL     1      13.178  15.587  28.175  1.00  0.00     0.027 C 
ENDROOT
BRANCH   1   2
ATOM      2  C   UNL     1      12.575  15.186  29.527  1.00  0.00     0.004 C 
BRANCH   2   3
ATOM      3  C   UNL     1      13.519  15.509  30.698  1.00  0.00     0.000 C 
BRANCH   3   4
ATOM      4  C   UNL     1      13.966  14.251  31.458  1.00  0.00     0.000 C 
BRANCH   4   5
ATOM      5  C   UNL     1      15.483  14.027  31.387  1.00  0.00     0.000 C 
BRANCH   5   6
ATOM      6  C   UNL     1      15.806  12.551  31.119  1.00  0.00     0.006 C 
BRANCH   6   7
ATOM      7  C   UNL     1      14.867  11.964  30.061  1.00  0.00     0.053 C 
BRANCH   7   8
ATOM      8  C   UNL     1      15.435  12.154  28.691  1.00  0.00     0.041 C 
ATOM      9  O   UNL     1      15.790  11.157  28.009  1.00  0.00    -0.550 OA
ATOM     10  O   UNL     1      15.533  13.428  28.150  1.00  0.00    -0.550 OA
ENDBRANCH   7   8
ENDBRANCH   6   7
ENDBRANCH   5   6
ENDBRANCH   4   5
ENDBRANCH   3   4
ENDBRANCH   2   3
ENDBRANCH   1   2
BRANCH   1  11
ATOM     11  C   UNL     1      13.591  17.039  28.169  1.00  0.00    -0.031 C 
ATOM     12  C   UNL     1      14.696  17.527  27.575  1.00  0.00    -0.027 C 
BRANCH  12  13
ATOM     13  C   UNL     1      15.676  16.709  26.770  1.00  0.00     0.054 C 
BRANCH  13  14
ATOM     14  C   UNL     1      16.249  17.509  25.626  1.00  0.00    -0.027 C 
ATOM     15  C   UNL     1      15.518  18.080  24.650  1.00  0.00    -0.031 C 
BRANCH  15  16
ATOM     16  C   UNL     1      14.012  18.072  24.595  1.00  0.00     0.027 C 
BRANCH  16  17
ATOM     17  C   UNL     1      13.485  16.652  24.362  1.00  0.00     0.004 C 
BRANCH  17  18
ATOM     18  C   UNL     1      11.956  16.648  24.222  1.00  0.00     0.000 C 
BRANCH  18  19
ATOM     19  C   UNL     1      11.330  18.008  24.564  1.00  0.00    -0.003 C 
ATOM     20  C   UNL     1      10.635  18.011  25.926  1.00  0.00     0.004 C 
ENDBRANCH  18  19
ENDBRANCH  17  18
ENDBRANCH  16  17
ENDBRANCH  15  16
ENDBRANCH  13  14
ENDBRANCH  12  13
ENDBRANCH   1  11
TORSDOF 14
ENDMDL
MODEL 8
REMARK VINA RESULT:    -3.224      1.478      2.393
REMARK INTER + INTRA:          -6.944
REMARK INTER:                  -6.173
REMARK INTRA:                  -0.772
REMARK UNBOUND:                -1.081
REMARK SMILES CCCCCC=CCC=CCCCCCCCC(=O)[O-]
REMARK SMILES IDX 11 1 12 2 13 3 14 4 15 5 16 6 17 7 18 8 19 9 20 10 10 11
REMARK SMILES IDX 9 12 8 13 7 14 6 15 5 16 4 17 3 18 2 19 1 20
REMARK H PARENT
REMARK Flexibility Score: inf
ROOT
ATOM      1  C   UNL     1      12.879  18.086  25.025  1.00  0.00     0.027 C 
ENDROOT
BRANCH   1   2
ATOM      2  C   UNL     1      13.876  17.733  23.915  1.00  0.00     0.004 C 
BRANCH   2   3
ATOM      3  C   UNL     1      15.325  18.057  24.317  1.00  0.00     0.000 C 
BRANCH   3   4
ATOM      4  C   UNL     1      16.315  17.861  23.159  1.00  0.00     0.000 C 
BRANCH   4   5
ATOM      5  C   UNL     1      17.769  18.124  23.576  1.00  0.00     0.000 C 
BRANCH   5   6
ATOM      6  C   UNL     1      17.909  18.124  25.104  1.00  0.00     0.006 C 
BRANCH   6   7
ATOM      7  C   UNL     1      18.886  17.039  25.569  1.00  0.00     0.053 C 
BRANCH   7   8
ATOM      8  C   UNL     1      18.628  16.677  26.997  1.00  0.00     0.041 C 
ATOM      9  O   UNL     1      19.588  16.402  27.764  1.00  0.00    -0.550 OA
ATOM     10  O   UNL     1      17.332  16.686  27.493  1.00  0.00    -0.550 OA
ENDBRANCH   7   8
ENDBRANCH   6   7
ENDBRANCH   5   6
ENDBRANCH   4   5
ENDBRANCH   3   4
ENDBRANCH   2   3
ENDBRANCH   1   2
BRANCH   1  11
ATOM     11  C   UNL     1      11.541  17.426  24.790  1.00  0.00    -0.031 C 
ATOM     12  C   UNL     1      11.072  16.363  25.470  1.00  0.00    -0.027 C 
BRANCH  12  13
ATOM     13  C   UNL     1      11.783  15.690  26.617  1.00  0.00     0.054 C 
BRANCH  13  14
ATOM     14  C   UNL     1      13.164  15.237  26.217  1.00  0.00    -0.027 C 
ATOM     15  C   UNL     1      14.285  15.483  26.922  1.00  0.00    -0.031 C 
BRANCH  15  16
ATOM     16  C   UNL     1      14.319  16.184  28.256  1.00  0.00     0.027 C 
BRANCH  16  17
ATOM     17  C   UNL     1      13.923  15.223  29.383  1.00  0.00     0.004 C 
BRANCH  17  18
ATOM     18  C   UNL     1      14.979  14.122  29.563  1.00  0.00     0.000 C 
BRANCH  18  19
ATOM     19  C   UNL     1      14.927  13.480  30.958  1.00  0.00    -0.003 C 
ATOM     20  C   UNL     1      15.748  12.194  31.046  1.00  0.00     0.004 C 
ENDBRANCH  18  19
ENDBRANCH  17  18
ENDBRANCH  16  17
ENDBRANCH  15  16
ENDBRANCH  13  14
ENDBRANCH  12  13
ENDBRANCH   1  11
TORSDOF 14
ENDMDL
