MODEL 1
REMARK VINA RESULT:    -6.005      0.000      0.000
REMARK INTER + INTRA:         -10.788
REMARK INTER:                  -9.515
REMARK INTRA:                  -1.273
REMARK UNBOUND:                -1.273
REMARK SMILES C[C@@H]1O[C@@H](O[C@@H]2[C@H](Oc3cc(O)c4c(c3)O[C@@H](c3ccc(O)cc3)CC4=O)O[C@@H](CO)[C@@H](O)[C@@H]2O)[C@H](O)[C@H](O)[C@H]1O
REMARK SMILES IDX 6 1 34 2 32 3 29 4 28 5 7 6 5 7 4 8 1 9 2 10 40 11 3 12
REMARK SMILES IDX 38 13 36 14 41 15 39 17 37 19 35 21 8 23 9 24 10 25 15 26
REMARK SMILES IDX 11 27 14 28 13 29 16 30 26 31 17 32 27 33 25 34 12 35 18 37
REMARK SMILES IDX 19 38 24 39 20 40 23 41 21 42 22 43 33 45 30 47 31 48
REMARK H PARENT 41 16 39 18 37 20 35 22 12 36 22 44 33 46 31 49
REMARK Flexibility Score: inf
ROOT
ATOM      1  C   UNL     1      -6.677  -7.680 -11.420  1.00  0.00     0.221 C 
ATOM      2  C   UNL     1      -8.195  -7.613 -11.173  1.00  0.00     0.181 C 
ATOM      3  C   UNL     1      -8.546  -6.649 -10.011  1.00  0.00     0.177 C 
ATOM      4  C   UNL     1      -7.444  -5.558  -9.899  1.00  0.00     0.179 C 
ATOM      5  O   UNL     1      -7.004  -5.190 -11.203  1.00  0.00    -0.332 OA
ATOM      6  C   UNL     1      -6.233  -6.241 -11.847  1.00  0.00     0.339 C 
ENDROOT
BRANCH   1   7
ATOM      7  O   UNL     1      -5.915  -7.963 -10.266  1.00  0.00    -0.337 OA
BRANCH   7   8
ATOM      8  C   UNL     1      -5.060  -9.089 -10.313  1.00  0.00     0.282 C 
ATOM      9  C   UNL     1      -4.449 -11.978 -10.838  1.00  0.00     0.041 C 
ATOM     10  C   UNL     1      -5.004 -11.351  -9.546  1.00  0.00     0.150 C 
ATOM     11  C   UNL     1      -3.914 -11.072  -8.477  1.00  0.00     0.174 C 
ATOM     12  O   UNL     1      -5.794 -10.190  -9.794  1.00  0.00    -0.344 OA
ATOM     13  C   UNL     1      -3.023  -9.885  -8.882  1.00  0.00     0.179 C 
ATOM     14  C   UNL     1      -3.861  -8.691  -9.391  1.00  0.00     0.202 C 
BRANCH  11  15
ATOM     15  O   UNL     1      -4.558 -10.774  -7.253  1.00  0.00    -0.388 OA
ATOM     16  H   UNL     1      -4.375 -11.524  -6.626  1.00  0.00     0.211 HD
ENDBRANCH  11  15
BRANCH  13  17
ATOM     17  O   UNL     1      -2.092 -10.291  -9.865  1.00  0.00    -0.387 OA
ATOM     18  H   UNL     1      -1.787  -9.463 -10.310  1.00  0.00     0.211 HD
ENDBRANCH  13  17
BRANCH  14  19
ATOM     19  O   UNL     1      -3.019  -7.791 -10.071  1.00  0.00    -0.385 OA
ATOM     20  H   UNL     1      -2.806  -8.166 -10.966  1.00  0.00     0.211 HD
ENDBRANCH  14  19
ENDBRANCH   7   8
ENDBRANCH   1   7
BRANCH   2  21
ATOM     21  O   UNL     1      -8.744  -8.883 -10.984  1.00  0.00    -0.387 OA
ATOM     22  H   UNL     1      -9.728  -8.801 -11.120  1.00  0.00     0.211 HD
ENDBRANCH   2  21
BRANCH   6  23
ATOM     23  O   UNL     1      -4.839  -6.081 -11.543  1.00  0.00    -0.462 OA
BRANCH  23  24
ATOM     24  C   UNL     1      -4.169  -4.847 -11.629  1.00  0.00     0.130 A 
ATOM     25  C   UNL     1      -4.867  -3.632 -11.585  1.00  0.00     0.093 A 
ATOM     26  C   UNL     1      -2.776  -4.844 -11.675  1.00  0.00     0.094 A 
ATOM     27  C   UNL     1      -4.172  -2.405 -11.530  1.00  0.00     0.133 A 
ATOM     28  C   UNL     1      -2.061  -3.629 -11.564  1.00  0.00     0.138 A 
ATOM     29  C   UNL     1      -2.750  -2.408 -11.537  1.00  0.00     0.102 A 
ATOM     30  O   UNL     1      -0.667  -3.637 -11.459  1.00  0.00    -0.484 OA
ATOM     31  C   UNL     1      -1.918  -1.176 -11.578  1.00  0.00     0.174 C 
ATOM     32  C   UNL     1       0.011  -2.622 -10.712  1.00  0.00     0.211 C 
ATOM     33  O   UNL     1      -2.344  -0.119 -12.122  1.00  0.00    -0.294 OA
ATOM     34  C   UNL     1      -0.532  -1.187 -11.012  1.00  0.00     0.131 C 
BRANCH  27  35
ATOM     35  O   UNL     1      -4.916  -1.225 -11.434  1.00  0.00    -0.507 OA
ATOM     36  H   UNL     1      -5.322  -0.869 -10.566  1.00  0.00     0.293 HD
ENDBRANCH  27  35
BRANCH  32  37
ATOM     37  C   UNL     1       1.506  -2.694 -10.963  1.00  0.00    -0.007 A 
ATOM     38  C   UNL     1       2.128  -1.924 -11.952  1.00  0.00     0.011 A 
ATOM     39  C   UNL     1       2.303  -3.500 -10.139  1.00  0.00     0.011 A 
ATOM     40  C   UNL     1       3.514  -1.983 -12.125  1.00  0.00     0.046 A 
ATOM     41  C   UNL     1       3.674  -3.572 -10.325  1.00  0.00     0.046 A 
ATOM     42  C   UNL     1       4.288  -2.815 -11.326  1.00  0.00     0.115 A 
BRANCH  42  43
ATOM     43  O   UNL     1       5.674  -2.917 -11.523  1.00  0.00    -0.508 OA
ATOM     44  H   UNL     1       6.207  -2.194 -11.985  1.00  0.00     0.293 HD
ENDBRANCH  42  43
ENDBRANCH  32  37
ENDBRANCH  23  24
ENDBRANCH   6  23
BRANCH   3  45
ATOM     45  O   UNL     1      -9.790  -6.046 -10.290  1.00  0.00    -0.387 OA
ATOM     46  H   UNL     1     -10.512  -6.663  -9.971  1.00  0.00     0.211 HD
ENDBRANCH   3  45
BRANCH   4  47
ATOM     47  C   UNL     1      -7.859  -4.337  -9.060  1.00  0.00     0.191 C 
BRANCH  47  48
ATOM     48  O   UNL     1      -8.601  -4.640  -7.882  1.00  0.00    -0.394 OA
ATOM     49  H   UNL     1      -9.356  -4.007  -7.759  1.00  0.00     0.210 HD
ENDBRANCH  47  48
ENDBRANCH   4  47
TORSDOF 14
ENDMDL
MODEL 2
REMARK VINA RESULT:    -5.816      1.663      4.781
REMARK INTER + INTRA:         -10.488
REMARK INTER:                  -8.466
REMARK INTRA:                  -2.022
REMARK UNBOUND:                -1.273
REMARK SMILES C[C@@H]1O[C@@H](O[C@@H]2[C@H](Oc3cc(O)c4c(c3)O[C@@H](c3ccc(O)cc3)CC4=O)O[C@@H](CO)[C@@H](O)[C@@H]2O)[C@H](O)[C@H](O)[C@H]1O
REMARK SMILES IDX 6 1 34 2 32 3 29 4 28 5 7 6 5 7 4 8 1 9 2 10 40 11 3 12
REMARK SMILES IDX 38 13 36 14 41 15 39 17 37 19 35 21 8 23 9 24 10 25 15 26
REMARK SMILES IDX 11 27 14 28 13 29 16 30 26 31 17 32 27 33 25 34 12 35 18 37
REMARK SMILES IDX 19 38 24 39 20 40 23 41 21 42 22 43 33 45 30 47 31 48
REMARK H PARENT 41 16 39 18 37 20 35 22 12 36 22 44 33 46 31 49
REMARK Flexibility Score: inf
ROOT
ATOM      1  C   UNL     1      -5.999  -6.423  -9.462  1.00  0.00     0.221 C 
ATOM      2  C   UNL     1      -6.478  -7.555  -8.536  1.00  0.00     0.181 C 
ATOM      3  C   UNL     1      -6.791  -8.850  -9.329  1.00  0.00     0.177 C 
ATOM      4  C   UNL     1      -5.927  -8.884 -10.620  1.00  0.00     0.179 C 
ATOM      5  O   UNL     1      -4.635  -8.352 -10.343  1.00  0.00    -0.332 OA
ATOM      6  C   UNL     1      -4.664  -6.916 -10.113  1.00  0.00     0.339 C 
ENDROOT
BRANCH   1   7
ATOM      7  O   UNL     1      -6.856  -6.166 -10.554  1.00  0.00    -0.337 OA
BRANCH   7   8
ATOM      8  C   UNL     1      -7.474  -4.895 -10.608  1.00  0.00     0.282 C 
ATOM      9  C   UNL     1      -7.515  -1.912 -10.294  1.00  0.00     0.041 C 
ATOM     10  C   UNL     1      -7.794  -2.978  -9.218  1.00  0.00     0.150 C 
ATOM     11  C   UNL     1      -9.304  -3.257  -9.000  1.00  0.00     0.174 C 
ATOM     12  O   UNL     1      -7.072  -4.187  -9.443  1.00  0.00    -0.344 OA
ATOM     13  C   UNL     1      -9.906  -4.037 -10.183  1.00  0.00     0.179 C 
ATOM     14  C   UNL     1      -9.005  -5.218 -10.603  1.00  0.00     0.202 C 
BRANCH  11  15
ATOM     15  O   UNL     1      -9.450  -4.019  -7.818  1.00  0.00    -0.388 OA
ATOM     16  H   UNL     1     -10.041  -3.509  -7.201  1.00  0.00     0.211 HD
ENDBRANCH  11  15
BRANCH  13  17
ATOM     17  O   UNL     1     -10.125  -3.168 -11.275  1.00  0.00    -0.387 OA
ATOM     18  H   UNL     1      -9.907  -3.689 -12.086  1.00  0.00     0.211 HD
ENDBRANCH  13  17
BRANCH  14  19
ATOM     19  O   UNL     1      -9.397  -5.670 -11.877  1.00  0.00    -0.385 OA
ATOM     20  H   UNL     1     -10.081  -5.048 -12.240  1.00  0.00     0.211 HD
ENDBRANCH  14  19
ENDBRANCH   7   8
ENDBRANCH   1   7
BRANCH   2  21
ATOM     21  O   UNL     1      -7.554  -7.154  -7.743  1.00  0.00    -0.387 OA
ATOM     22  H   UNL     1      -8.163  -7.939  -7.654  1.00  0.00     0.211 HD
ENDBRANCH   2  21
BRANCH   6  23
ATOM     23  O   UNL     1      -4.471  -6.218 -11.353  1.00  0.00    -0.462 OA
BRANCH  23  24
ATOM     24  C   UNL     1      -3.679  -5.061 -11.469  1.00  0.00     0.130 A 
ATOM     25  C   UNL     1      -4.254  -3.785 -11.541  1.00  0.00     0.093 A 
ATOM     26  C   UNL     1      -2.292  -5.194 -11.427  1.00  0.00     0.094 A 
ATOM     27  C   UNL     1      -3.445  -2.629 -11.514  1.00  0.00     0.133 A 
ATOM     28  C   UNL     1      -1.467  -4.049 -11.344  1.00  0.00     0.138 A 
ATOM     29  C   UNL     1      -2.032  -2.768 -11.432  1.00  0.00     0.102 A 
ATOM     30  O   UNL     1      -0.089  -4.183 -11.152  1.00  0.00    -0.484 OA
ATOM     31  C   UNL     1      -1.082  -1.626 -11.494  1.00  0.00     0.174 C 
ATOM     32  C   UNL     1       0.643  -3.190 -10.425  1.00  0.00     0.211 C 
ATOM     33  O   UNL     1      -1.369  -0.571 -12.125  1.00  0.00    -0.294 OA
ATOM     34  C   UNL     1       0.262  -1.733 -10.842  1.00  0.00     0.131 C 
BRANCH  27  35
ATOM     35  O   UNL     1      -4.072  -1.380 -11.535  1.00  0.00    -0.507 OA
ATOM     36  H   UNL     1      -3.577  -0.487 -11.573  1.00  0.00     0.293 HD
ENDBRANCH  27  35
BRANCH  32  37
ATOM     37  C   UNL     1       2.135  -3.421 -10.577  1.00  0.00    -0.007 A 
ATOM     38  C   UNL     1       2.882  -2.792 -11.579  1.00  0.00     0.011 A 
ATOM     39  C   UNL     1       2.804  -4.230  -9.648  1.00  0.00     0.011 A 
ATOM     40  C   UNL     1       4.263  -2.993 -11.661  1.00  0.00     0.046 A 
ATOM     41  C   UNL     1       4.169  -4.444  -9.743  1.00  0.00     0.046 A 
ATOM     42  C   UNL     1       4.907  -3.829 -10.757  1.00  0.00     0.115 A 
BRANCH  42  43
ATOM     43  O   UNL     1       6.286  -4.074 -10.860  1.00  0.00    -0.508 OA
ATOM     44  H   UNL     1       6.660  -4.813 -11.439  1.00  0.00     0.293 HD
ENDBRANCH  42  43
ENDBRANCH  32  37
ENDBRANCH  23  24
ENDBRANCH   6  23
BRANCH   3  45
ATOM     45  O   UNL     1      -6.480  -9.960  -8.515  1.00  0.00    -0.387 OA
ATOM     46  H   UNL     1      -7.017  -9.887  -7.673  1.00  0.00     0.211 HD
ENDBRANCH   3  45
BRANCH   4  47
ATOM     47  C   UNL     1      -5.853 -10.270 -11.285  1.00  0.00     0.191 C 
BRANCH  47  48
ATOM     48  O   UNL     1      -4.723 -11.055 -10.915  1.00  0.00    -0.394 OA
ATOM     49  H   UNL     1      -4.946 -11.682 -10.178  1.00  0.00     0.210 HD
ENDBRANCH  47  48
ENDBRANCH   4  47
TORSDOF 14
ENDMDL
MODEL 3
REMARK VINA RESULT:    -5.191      5.006     10.564
REMARK INTER + INTRA:          -9.498
REMARK INTER:                  -7.898
REMARK INTRA:                  -1.601
REMARK UNBOUND:                -1.273
REMARK SMILES C[C@@H]1O[C@@H](O[C@@H]2[C@H](Oc3cc(O)c4c(c3)O[C@@H](c3ccc(O)cc3)CC4=O)O[C@@H](CO)[C@@H](O)[C@@H]2O)[C@H](O)[C@H](O)[C@H]1O
REMARK SMILES IDX 6 1 34 2 32 3 29 4 28 5 7 6 5 7 4 8 1 9 2 10 40 11 3 12
REMARK SMILES IDX 38 13 36 14 41 15 39 17 37 19 35 21 8 23 9 24 10 25 15 26
REMARK SMILES IDX 11 27 14 28 13 29 16 30 26 31 17 32 27 33 25 34 12 35 18 37
REMARK SMILES IDX 19 38 24 39 20 40 23 41 21 42 22 43 33 45 30 47 31 48
REMARK H PARENT 41 16 39 18 37 20 35 22 12 36 22 44 33 46 31 49
REMARK Flexibility Score: inf
ROOT
ATOM      1  C   UNL     1       6.518  -7.477  -7.940  1.00  0.00     0.221 C 
ATOM      2  C   UNL     1       8.025  -7.788  -7.925  1.00  0.00     0.181 C 
ATOM      3  C   UNL     1       8.503  -8.374  -9.278  1.00  0.00     0.177 C 
ATOM      4  C   UNL     1       7.578  -7.860 -10.417  1.00  0.00     0.179 C 
ATOM      5  O   UNL     1       7.215  -6.507 -10.160  1.00  0.00    -0.332 OA
ATOM      6  C   UNL     1       6.301  -6.381  -9.035  1.00  0.00     0.339 C 
ENDROOT
BRANCH   1   7
ATOM      7  O   UNL     1       5.708  -8.558  -8.349  1.00  0.00    -0.337 OA
BRANCH   7   8
ATOM      8  C   UNL     1       5.302  -9.478  -7.355  1.00  0.00     0.282 C 
ATOM      9  C   UNL     1       5.695 -11.866  -5.583  1.00  0.00     0.041 C 
ATOM     10  C   UNL     1       5.158 -11.840  -7.026  1.00  0.00     0.150 C 
ATOM     11  C   UNL     1       3.609 -11.864  -7.111  1.00  0.00     0.174 C 
ATOM     12  O   UNL     1       5.701 -10.769  -7.795  1.00  0.00    -0.344 OA
ATOM     13  C   UNL     1       3.004 -10.519  -6.672  1.00  0.00     0.179 C 
ATOM     14  C   UNL     1       3.746  -9.325  -7.311  1.00  0.00     0.202 C 
BRANCH  11  15
ATOM     15  O   UNL     1       3.241 -12.125  -8.451  1.00  0.00    -0.388 OA
ATOM     16  H   UNL     1       3.900 -12.769  -8.825  1.00  0.00     0.211 HD
ENDBRANCH  11  15
BRANCH  13  17
ATOM     17  O   UNL     1       3.022 -10.416  -5.262  1.00  0.00    -0.387 OA
ATOM     18  H   UNL     1       2.131 -10.078  -5.002  1.00  0.00     0.211 HD
ENDBRANCH  13  17
BRANCH  14  19
ATOM     19  O   UNL     1       3.405  -8.145  -6.623  1.00  0.00    -0.385 OA
ATOM     20  H   UNL     1       4.172  -7.516  -6.668  1.00  0.00     0.211 HD
ENDBRANCH  14  19
ENDBRANCH   7   8
ENDBRANCH   1   7
BRANCH   2  21
ATOM     21  O   UNL     1       8.374  -8.605  -6.848  1.00  0.00    -0.387 OA
ATOM     22  H   UNL     1       9.043  -9.264  -7.184  1.00  0.00     0.211 HD
ENDBRANCH   2  21
BRANCH   6  23
ATOM     23  O   UNL     1       4.944  -6.453  -9.497  1.00  0.00    -0.462 OA
BRANCH  23  24
ATOM     24  C   UNL     1       4.217  -5.329  -9.931  1.00  0.00     0.130 A 
ATOM     25  C   UNL     1       4.864  -4.173 -10.390  1.00  0.00     0.093 A 
ATOM     26  C   UNL     1       2.826  -5.410  -9.978  1.00  0.00     0.094 A 
ATOM     27  C   UNL     1       4.124  -3.111 -10.952  1.00  0.00     0.133 A 
ATOM     28  C   UNL     1       2.072  -4.381 -10.588  1.00  0.00     0.138 A 
ATOM     29  C   UNL     1       2.708  -3.214 -11.035  1.00  0.00     0.102 A 
ATOM     30  O   UNL     1       0.694  -4.529 -10.770  1.00  0.00    -0.484 OA
ATOM     31  C   UNL     1       1.824  -2.120 -11.519  1.00  0.00     0.174 C 
ATOM     32  C   UNL     1       0.039  -3.921 -11.889  1.00  0.00     0.211 C 
ATOM     33  O   UNL     1       2.156  -0.909 -11.393  1.00  0.00    -0.294 OA
ATOM     34  C   UNL     1       0.493  -2.444 -12.125  1.00  0.00     0.131 C 
BRANCH  27  35
ATOM     35  O   UNL     1       4.822  -2.004 -11.443  1.00  0.00    -0.507 OA
ATOM     36  H   UNL     1       4.606  -1.034 -11.203  1.00  0.00     0.293 HD
ENDBRANCH  27  35
BRANCH  32  37
ATOM     37  C   UNL     1      -1.467  -4.001 -11.724  1.00  0.00    -0.007 A 
ATOM     38  C   UNL     1      -2.285  -2.873 -11.844  1.00  0.00     0.011 A 
ATOM     39  C   UNL     1      -2.070  -5.249 -11.516  1.00  0.00     0.011 A 
ATOM     40  C   UNL     1      -3.673  -2.992 -11.731  1.00  0.00     0.046 A 
ATOM     41  C   UNL     1      -3.444  -5.363 -11.384  1.00  0.00     0.046 A 
ATOM     42  C   UNL     1      -4.255  -4.229 -11.485  1.00  0.00     0.115 A 
BRANCH  42  43
ATOM     43  O   UNL     1      -5.644  -4.352 -11.323  1.00  0.00    -0.508 OA
ATOM     44  H   UNL     1      -6.062  -5.123 -10.821  1.00  0.00     0.293 HD
ENDBRANCH  42  43
ENDBRANCH  32  37
ENDBRANCH  23  24
ENDBRANCH   6  23
BRANCH   3  45
ATOM     45  O   UNL     1       9.828  -7.947  -9.508  1.00  0.00    -0.387 OA
ATOM     46  H   UNL     1      10.133  -7.435  -8.704  1.00  0.00     0.211 HD
ENDBRANCH   3  45
BRANCH   4  47
ATOM     47  C   UNL     1       8.162  -8.047 -11.828  1.00  0.00     0.191 C 
BRANCH  47  48
ATOM     48  O   UNL     1       9.058  -9.146 -11.967  1.00  0.00    -0.394 OA
ATOM     49  H   UNL     1       8.837  -9.691 -12.767  1.00  0.00     0.210 HD
ENDBRANCH  47  48
ENDBRANCH   4  47
TORSDOF 14
ENDMDL
MODEL 4
REMARK VINA RESULT:    -5.175      4.610     10.319
REMARK INTER + INTRA:          -9.474
REMARK INTER:                  -7.326
REMARK INTRA:                  -2.148
REMARK UNBOUND:                -1.273
REMARK SMILES C[C@@H]1O[C@@H](O[C@@H]2[C@H](Oc3cc(O)c4c(c3)O[C@@H](c3ccc(O)cc3)CC4=O)O[C@@H](CO)[C@@H](O)[C@@H]2O)[C@H](O)[C@H](O)[C@H]1O
REMARK SMILES IDX 6 1 34 2 32 3 29 4 28 5 7 6 5 7 4 8 1 9 2 10 40 11 3 12
REMARK SMILES IDX 38 13 36 14 41 15 39 17 37 19 35 21 8 23 9 24 10 25 15 26
REMARK SMILES IDX 11 27 14 28 13 29 16 30 26 31 17 32 27 33 25 34 12 35 18 37
REMARK SMILES IDX 19 38 24 39 20 40 23 41 21 42 22 43 33 45 30 47 31 48
REMARK H PARENT 41 16 39 18 37 20 35 22 12 36 22 44 33 46 31 49
REMARK Flexibility Score: inf
ROOT
ATOM      1  C   UNL     1       5.646  -7.437  -8.871  1.00  0.00     0.221 C 
ATOM      2  C   UNL     1       6.912  -7.612  -8.014  1.00  0.00     0.181 C 
ATOM      3  C   UNL     1       8.202  -7.374  -8.841  1.00  0.00     0.177 C 
ATOM      4  C   UNL     1       7.888  -6.403 -10.014  1.00  0.00     0.179 C 
ATOM      5  O   UNL     1       6.967  -5.409  -9.576  1.00  0.00    -0.332 OA
ATOM      6  C   UNL     1       5.635  -5.947  -9.350  1.00  0.00     0.339 C 
ENDROOT
BRANCH   1   7
ATOM      7  O   UNL     1       5.643  -8.196 -10.062  1.00  0.00    -0.337 OA
BRANCH   7   8
ATOM      8  C   UNL     1       4.794  -9.326 -10.109  1.00  0.00     0.282 C 
ATOM      9  C   UNL     1       3.700 -11.910  -9.050  1.00  0.00     0.041 C 
ATOM     10  C   UNL     1       4.939 -11.705  -9.941  1.00  0.00     0.150 C 
ATOM     11  C   UNL     1       4.661 -11.934 -11.450  1.00  0.00     0.174 C 
ATOM     12  O   UNL     1       5.574 -10.448  -9.717  1.00  0.00    -0.344 OA
ATOM     13  C   UNL     1       3.823 -10.789 -12.045  1.00  0.00     0.179 C 
ATOM     14  C   UNL     1       4.356  -9.407 -11.609  1.00  0.00     0.202 C 
BRANCH  11  15
ATOM     15  O   UNL     1       5.901 -12.003 -12.125  1.00  0.00    -0.388 OA
ATOM     16  H   UNL     1       5.862 -12.776 -12.751  1.00  0.00     0.211 HD
ENDBRANCH  11  15
BRANCH  13  17
ATOM     17  O   UNL     1       2.467 -10.937 -11.673  1.00  0.00    -0.387 OA
ATOM     18  H   UNL     1       2.355 -10.416 -10.841  1.00  0.00     0.211 HD
ENDBRANCH  13  17
BRANCH  14  19
ATOM     19  O   UNL     1       3.378  -8.429 -11.870  1.00  0.00    -0.385 OA
ATOM     20  H   UNL     1       2.641  -8.531 -11.212  1.00  0.00     0.211 HD
ENDBRANCH  14  19
ENDBRANCH   7   8
ENDBRANCH   1   7
BRANCH   2  21
ATOM     21  O   UNL     1       6.929  -8.846  -7.362  1.00  0.00    -0.387 OA
ATOM     22  H   UNL     1       6.128  -8.875  -6.768  1.00  0.00     0.211 HD
ENDBRANCH   2  21
BRANCH   6  23
ATOM     23  O   UNL     1       4.860  -5.856 -10.555  1.00  0.00    -0.462 OA
BRANCH  23  24
ATOM     24  C   UNL     1       3.904  -4.849 -10.781  1.00  0.00     0.130 A 
ATOM     25  C   UNL     1       4.274  -3.583 -11.254  1.00  0.00     0.093 A 
ATOM     26  C   UNL     1       2.555  -5.157 -10.607  1.00  0.00     0.094 A 
ATOM     27  C   UNL     1       3.291  -2.633 -11.609  1.00  0.00     0.133 A 
ATOM     28  C   UNL     1       1.556  -4.241 -11.008  1.00  0.00     0.138 A 
ATOM     29  C   UNL     1       1.916  -2.965 -11.467  1.00  0.00     0.102 A 
ATOM     30  O   UNL     1       0.208  -4.606 -10.974  1.00  0.00    -0.484 OA
ATOM     31  C   UNL     1       0.803  -2.012 -11.719  1.00  0.00     0.174 C 
ATOM     32  C   UNL     1      -0.717  -4.064 -11.923  1.00  0.00     0.211 C 
ATOM     33  O   UNL     1       0.959  -0.769 -11.560  1.00  0.00    -0.294 OA
ATOM     34  C   UNL     1      -0.546  -2.523 -12.122  1.00  0.00     0.131 C 
BRANCH  27  35
ATOM     35  O   UNL     1       3.714  -1.404 -12.125  1.00  0.00    -0.507 OA
ATOM     36  H   UNL     1       3.103  -0.740 -12.606  1.00  0.00     0.293 HD
ENDBRANCH  27  35
BRANCH  32  37
ATOM     37  C   UNL     1      -2.141  -4.400 -11.522  1.00  0.00    -0.007 A 
ATOM     38  C   UNL     1      -3.208  -3.534 -11.786  1.00  0.00     0.011 A 
ATOM     39  C   UNL     1      -2.414  -5.642 -10.931  1.00  0.00     0.011 A 
ATOM     40  C   UNL     1      -4.513  -3.897 -11.443  1.00  0.00     0.046 A 
ATOM     41  C   UNL     1      -3.705  -5.991 -10.572  1.00  0.00     0.046 A 
ATOM     42  C   UNL     1      -4.765  -5.114 -10.822  1.00  0.00     0.115 A 
BRANCH  42  43
ATOM     43  O   UNL     1      -6.066  -5.467 -10.430  1.00  0.00    -0.508 OA
ATOM     44  H   UNL     1      -6.410  -5.301  -9.495  1.00  0.00     0.293 HD
ENDBRANCH  42  43
ENDBRANCH  32  37
ENDBRANCH  23  24
ENDBRANCH   6  23
BRANCH   3  45
ATOM     45  O   UNL     1       9.177  -6.805  -7.995  1.00  0.00    -0.387 OA
ATOM     46  H   UNL     1       8.786  -6.732  -7.076  1.00  0.00     0.211 HD
ENDBRANCH   3  45
BRANCH   4  47
ATOM     47  C   UNL     1       9.140  -5.788 -10.665  1.00  0.00     0.191 C 
BRANCH  47  48
ATOM     48  O   UNL     1       9.565  -4.550 -10.102  1.00  0.00    -0.394 OA
ATOM     49  H   UNL     1       9.912  -3.937 -10.801  1.00  0.00     0.210 HD
ENDBRANCH  47  48
ENDBRANCH   4  47
TORSDOF 14
ENDMDL
MODEL 5
REMARK VINA RESULT:    -4.747      1.478      2.332
REMARK INTER + INTRA:          -8.795
REMARK INTER:                  -7.398
REMARK INTRA:                  -1.397
REMARK UNBOUND:                -1.273
REMARK SMILES C[C@@H]1O[C@@H](O[C@@H]2[C@H](Oc3cc(O)c4c(c3)O[C@@H](c3ccc(O)cc3)CC4=O)O[C@@H](CO)[C@@H](O)[C@@H]2O)[C@H](O)[C@H](O)[C@H]1O
REMARK SMILES IDX 6 1 34 2 32 3 29 4 28 5 7 6 5 7 4 8 1 9 2 10 40 11 3 12
REMARK SMILES IDX 38 13 36 14 41 15 39 17 37 19 35 21 8 23 9 24 10 25 15 26
REMARK SMILES IDX 11 27 14 28 13 29 16 30 26 31 17 32 27 33 25 34 12 35 18 37
REMARK SMILES IDX 19 38 24 39 20 40 23 41 21 42 22 43 33 45 30 47 31 48
REMARK H PARENT 41 16 39 18 37 20 35 22 12 36 22 44 33 46 31 49
REMARK Flexibility Score: inf
ROOT
ATOM      1  C   UNL     1      -5.962  -7.204 -11.337  1.00  0.00     0.221 C 
ATOM      2  C   UNL     1      -7.400  -7.189 -11.884  1.00  0.00     0.181 C 
ATOM      3  C   UNL     1      -8.266  -6.107 -11.190  1.00  0.00     0.177 C 
ATOM      4  C   UNL     1      -7.348  -4.952 -10.698  1.00  0.00     0.179 C 
ATOM      5  O   UNL     1      -6.314  -4.728 -11.651  1.00  0.00    -0.332 OA
ATOM      6  C   UNL     1      -5.342  -5.809 -11.680  1.00  0.00     0.339 C 
ENDROOT
BRANCH   1   7
ATOM      7  O   UNL     1      -5.877  -7.299  -9.931  1.00  0.00    -0.337 OA
BRANCH   7   8
ATOM      8  C   UNL     1      -5.151  -8.389  -9.397  1.00  0.00     0.282 C 
ATOM      9  C   UNL     1      -2.633  -9.896  -8.780  1.00  0.00     0.041 C 
ATOM     10  C   UNL     1      -3.471  -9.948 -10.070  1.00  0.00     0.150 C 
ATOM     11  C   UNL     1      -4.455 -11.147 -10.122  1.00  0.00     0.174 C 
ATOM     12  O   UNL     1      -4.140  -8.718 -10.340  1.00  0.00    -0.344 OA
ATOM     13  C   UNL     1      -5.633 -10.946  -9.152  1.00  0.00     0.179 C 
ATOM     14  C   UNL     1      -6.221  -9.522  -9.258  1.00  0.00     0.202 C 
BRANCH  11  15
ATOM     15  O   UNL     1      -4.951 -11.259 -11.440  1.00  0.00    -0.388 OA
ATOM     16  H   UNL     1      -4.222 -11.631 -12.007  1.00  0.00     0.211 HD
ENDBRANCH  11  15
BRANCH  13  17
ATOM     17  O   UNL     1      -5.222 -11.214  -7.827  1.00  0.00    -0.387 OA
ATOM     18  H   UNL     1      -4.701 -10.425  -7.538  1.00  0.00     0.211 HD
ENDBRANCH  13  17
BRANCH  14  19
ATOM     19  O   UNL     1      -7.034  -9.271  -8.136  1.00  0.00    -0.385 OA
ATOM     20  H   UNL     1      -6.859  -8.348  -7.815  1.00  0.00     0.211 HD
ENDBRANCH  14  19
ENDBRANCH   7   8
ENDBRANCH   1   7
BRANCH   2  21
ATOM     21  O   UNL     1      -7.991  -8.453 -11.819  1.00  0.00    -0.387 OA
ATOM     22  H   UNL     1      -8.950  -8.317 -11.581  1.00  0.00     0.211 HD
ENDBRANCH   2  21
BRANCH   6  23
ATOM     23  O   UNL     1      -4.279  -5.536 -10.753  1.00  0.00    -0.462 OA
BRANCH  23  24
ATOM     24  C   UNL     1      -3.277  -4.578 -10.992  1.00  0.00     0.130 A 
ATOM     25  C   UNL     1      -3.591  -3.230 -11.210  1.00  0.00     0.093 A 
ATOM     26  C   UNL     1      -1.943  -4.976 -10.923  1.00  0.00     0.094 A 
ATOM     27  C   UNL     1      -2.570  -2.260 -11.307  1.00  0.00     0.133 A 
ATOM     28  C   UNL     1      -0.908  -4.014 -10.961  1.00  0.00     0.138 A 
ATOM     29  C   UNL     1      -1.211  -2.665 -11.197  1.00  0.00     0.102 A 
ATOM     30  O   UNL     1       0.419  -4.394 -10.743  1.00  0.00    -0.484 OA
ATOM     31  C   UNL     1      -0.055  -1.747 -11.377  1.00  0.00     0.174 C 
ATOM     32  C   UNL     1       1.342  -3.491 -10.125  1.00  0.00     0.211 C 
ATOM     33  O   UNL     1      -0.138  -0.733 -12.125  1.00  0.00    -0.294 OA
ATOM     34  C   UNL     1       1.250  -2.043 -10.706  1.00  0.00     0.131 C 
BRANCH  27  35
ATOM     35  O   UNL     1      -2.939  -0.923 -11.472  1.00  0.00    -0.507 OA
ATOM     36  H   UNL     1      -3.458  -0.563 -12.277  1.00  0.00     0.293 HD
ENDBRANCH  27  35
BRANCH  32  37
ATOM     37  C   UNL     1       2.758  -4.026 -10.238  1.00  0.00    -0.007 A 
ATOM     38  C   UNL     1       3.179  -5.159  -9.533  1.00  0.00     0.011 A 
ATOM     39  C   UNL     1       3.655  -3.415 -11.125  1.00  0.00     0.011 A 
ATOM     40  C   UNL     1       4.477  -5.650  -9.697  1.00  0.00     0.046 A 
ATOM     41  C   UNL     1       4.948  -3.891 -11.270  1.00  0.00     0.046 A 
ATOM     42  C   UNL     1       5.368  -5.012 -10.549  1.00  0.00     0.115 A 
BRANCH  42  43
ATOM     43  O   UNL     1       6.689  -5.469 -10.684  1.00  0.00    -0.508 OA
ATOM     44  H   UNL     1       7.465  -4.839 -10.835  1.00  0.00     0.293 HD
ENDBRANCH  42  43
ENDBRANCH  32  37
ENDBRANCH  23  24
ENDBRANCH   6  23
BRANCH   3  45
ATOM     45  O   UNL     1      -9.199  -5.612 -12.125  1.00  0.00    -0.387 OA
ATOM     46  H   UNL     1      -9.418  -4.667 -11.875  1.00  0.00     0.211 HD
ENDBRANCH   3  45
BRANCH   4  47
ATOM     47  C   UNL     1      -8.107  -3.660 -10.348  1.00  0.00     0.191 C 
BRANCH  47  48
ATOM     48  O   UNL     1      -8.257  -2.740 -11.426  1.00  0.00    -0.394 OA
ATOM     49  H   UNL     1      -9.186  -2.747 -11.777  1.00  0.00     0.210 HD
ENDBRANCH  47  48
ENDBRANCH   4  47
TORSDOF 14
ENDMDL
MODEL 6
REMARK VINA RESULT:    -4.735      5.721     10.986
REMARK INTER + INTRA:          -8.775
REMARK INTER:                  -7.057
REMARK INTRA:                  -1.718
REMARK UNBOUND:                -1.273
REMARK SMILES C[C@@H]1O[C@@H](O[C@@H]2[C@H](Oc3cc(O)c4c(c3)O[C@@H](c3ccc(O)cc3)CC4=O)O[C@@H](CO)[C@@H](O)[C@@H]2O)[C@H](O)[C@H](O)[C@H]1O
REMARK SMILES IDX 6 1 34 2 32 3 29 4 28 5 7 6 5 7 4 8 1 9 2 10 40 11 3 12
REMARK SMILES IDX 38 13 36 14 41 15 39 17 37 19 35 21 8 23 9 24 10 25 15 26
REMARK SMILES IDX 11 27 14 28 13 29 16 30 26 31 17 32 27 33 25 34 12 35 18 37
REMARK SMILES IDX 19 38 24 39 20 40 23 41 21 42 22 43 33 45 30 47 31 48
REMARK H PARENT 41 16 39 18 37 20 35 22 12 36 22 44 33 46 31 49
REMARK Flexibility Score: inf
ROOT
ATOM      1  C   UNL     1       6.719  -8.807 -10.468  1.00  0.00     0.221 C 
ATOM      2  C   UNL     1       7.170 -10.113 -11.144  1.00  0.00     0.181 C 
ATOM      3  C   UNL     1       6.120 -11.241 -10.970  1.00  0.00     0.177 C 
ATOM      4  C   UNL     1       4.709 -10.609 -10.809  1.00  0.00     0.179 C 
ATOM      5  O   UNL     1       4.597  -9.471 -11.658  1.00  0.00    -0.332 OA
ATOM      6  C   UNL     1       5.411  -8.356 -11.201  1.00  0.00     0.339 C 
ENDROOT
BRANCH   1   7
ATOM      7  O   UNL     1       6.339  -8.954  -9.117  1.00  0.00    -0.337 OA
BRANCH   7   8
ATOM      8  C   UNL     1       7.355  -8.834  -8.140  1.00  0.00     0.282 C 
ATOM      9  C   UNL     1       9.808  -7.577  -6.957  1.00  0.00     0.041 C 
ATOM     10  C   UNL     1       9.737  -8.693  -8.016  1.00  0.00     0.150 C 
ATOM     11  C   UNL     1       9.895 -10.119  -7.425  1.00  0.00     0.174 C 
ATOM     12  O   UNL     1       8.573  -8.600  -8.835  1.00  0.00    -0.344 OA
ATOM     13  C   UNL     1       8.642 -10.541  -6.637  1.00  0.00     0.179 C 
ATOM     14  C   UNL     1       7.347 -10.219  -7.414  1.00  0.00     0.202 C 
BRANCH  11  15
ATOM     15  O   UNL     1      10.101 -11.023  -8.492  1.00  0.00    -0.388 OA
ATOM     16  H   UNL     1      10.485 -11.858  -8.111  1.00  0.00     0.211 HD
ENDBRANCH  11  15
BRANCH  13  17
ATOM     17  O   UNL     1       8.630  -9.912  -5.372  1.00  0.00    -0.387 OA
ATOM     18  H   UNL     1       7.680  -9.736  -5.164  1.00  0.00     0.211 HD
ENDBRANCH  13  17
BRANCH  14  19
ATOM     19  O   UNL     1       6.250 -10.286  -6.533  1.00  0.00    -0.385 OA
ATOM     20  H   UNL     1       6.527  -9.925  -5.650  1.00  0.00     0.211 HD
ENDBRANCH  14  19
ENDBRANCH   7   8
ENDBRANCH   1   7
BRANCH   2  21
ATOM     21  O   UNL     1       8.438 -10.508 -10.713  1.00  0.00    -0.387 OA
ATOM     22  H   UNL     1       8.340 -11.410 -10.300  1.00  0.00     0.211 HD
ENDBRANCH   2  21
BRANCH   6  23
ATOM     23  O   UNL     1       4.649  -7.525 -10.313  1.00  0.00    -0.462 OA
BRANCH  23  24
ATOM     24  C   UNL     1       4.414  -6.158 -10.549  1.00  0.00     0.130 A 
ATOM     25  C   UNL     1       5.457  -5.283 -10.882  1.00  0.00     0.093 A 
ATOM     26  C   UNL     1       3.100  -5.693 -10.531  1.00  0.00     0.094 A 
ATOM     27  C   UNL     1       5.186  -3.949 -11.254  1.00  0.00     0.133 A 
ATOM     28  C   UNL     1       2.802  -4.377 -10.953  1.00  0.00     0.138 A 
ATOM     29  C   UNL     1       3.840  -3.490 -11.272  1.00  0.00     0.102 A 
ATOM     30  O   UNL     1       1.474  -3.958 -11.078  1.00  0.00    -0.484 OA
ATOM     31  C   UNL     1       3.448  -2.083 -11.554  1.00  0.00     0.174 C 
ATOM     32  C   UNL     1       1.107  -2.990 -12.066  1.00  0.00     0.211 C 
ATOM     33  O   UNL     1       4.222  -1.123 -11.283  1.00  0.00    -0.294 OA
ATOM     34  C   UNL     1       2.097  -1.781 -12.125  1.00  0.00     0.131 C 
BRANCH  27  35
ATOM     35  O   UNL     1       6.258  -3.134 -11.628  1.00  0.00    -0.507 OA
ATOM     36  H   UNL     1       6.657  -3.102 -12.569  1.00  0.00     0.293 HD
ENDBRANCH  27  35
BRANCH  32  37
ATOM     37  C   UNL     1      -0.313  -2.511 -11.832  1.00  0.00    -0.007 A 
ATOM     38  C   UNL     1      -0.601  -1.182 -11.502  1.00  0.00     0.011 A 
ATOM     39  C   UNL     1      -1.379  -3.403 -12.018  1.00  0.00     0.011 A 
ATOM     40  C   UNL     1      -1.925  -0.767 -11.338  1.00  0.00     0.046 A 
ATOM     41  C   UNL     1      -2.690  -2.994 -11.834  1.00  0.00     0.046 A 
ATOM     42  C   UNL     1      -2.970  -1.671 -11.487  1.00  0.00     0.115 A 
BRANCH  42  43
ATOM     43  O   UNL     1      -4.301  -1.274 -11.277  1.00  0.00    -0.508 OA
ATOM     44  H   UNL     1      -4.635  -0.355 -11.532  1.00  0.00     0.293 HD
ENDBRANCH  42  43
ENDBRANCH  32  37
ENDBRANCH  23  24
ENDBRANCH   6  23
BRANCH   3  45
ATOM     45  O   UNL     1       6.149 -12.061 -12.118  1.00  0.00    -0.387 OA
ATOM     46  H   UNL     1       5.559 -12.852 -11.949  1.00  0.00     0.211 HD
ENDBRANCH   3  45
BRANCH   4  47
ATOM     47  C   UNL     1       3.553 -11.604 -11.017  1.00  0.00     0.191 C 
BRANCH  47  48
ATOM     48  O   UNL     1       2.428 -11.081 -11.717  1.00  0.00    -0.394 OA
ATOM     49  H   UNL     1       1.787 -11.800 -11.956  1.00  0.00     0.210 HD
ENDBRANCH  47  48
ENDBRANCH   4  47
TORSDOF 14
ENDMDL
MODEL 7
REMARK VINA RESULT:    -4.727      3.812     10.750
REMARK INTER + INTRA:          -8.762
REMARK INTER:                  -7.228
REMARK INTRA:                  -1.534
REMARK UNBOUND:                -1.273
REMARK SMILES C[C@@H]1O[C@@H](O[C@@H]2[C@H](Oc3cc(O)c4c(c3)O[C@@H](c3ccc(O)cc3)CC4=O)O[C@@H](CO)[C@@H](O)[C@@H]2O)[C@H](O)[C@H](O)[C@H]1O
REMARK SMILES IDX 6 1 34 2 32 3 29 4 28 5 7 6 5 7 4 8 1 9 2 10 40 11 3 12
REMARK SMILES IDX 38 13 36 14 41 15 39 17 37 19 35 21 8 23 9 24 10 25 15 26
REMARK SMILES IDX 11 27 14 28 13 29 16 30 26 31 17 32 27 33 25 34 12 35 18 37
REMARK SMILES IDX 19 38 24 39 20 40 23 41 21 42 22 43 33 45 30 47 31 48
REMARK H PARENT 41 16 39 18 37 20 35 22 12 36 22 44 33 46 31 49
REMARK Flexibility Score: inf
ROOT
ATOM      1  C   UNL     1       5.204  -6.646 -11.125  1.00  0.00     0.221 C 
ATOM      2  C   UNL     1       5.442  -8.157 -10.957  1.00  0.00     0.181 C 
ATOM      3  C   UNL     1       5.463  -8.572  -9.463  1.00  0.00     0.177 C 
ATOM      4  C   UNL     1       4.597  -7.576  -8.642  1.00  0.00     0.179 C 
ATOM      5  O   UNL     1       3.451  -7.203  -9.401  1.00  0.00    -0.332 OA
ATOM      6  C   UNL     1       3.787  -6.350 -10.530  1.00  0.00     0.339 C 
ENDROOT
BRANCH   1   7
ATOM      7  O   UNL     1       6.084  -5.834 -10.377  1.00  0.00    -0.337 OA
BRANCH   7   8
ATOM      8  C   UNL     1       7.405  -5.690 -10.861  1.00  0.00     0.282 C 
ATOM      9  C   UNL     1      10.124  -6.722 -11.596  1.00  0.00     0.041 C 
ATOM     10  C   UNL     1       9.638  -6.243 -10.216  1.00  0.00     0.150 C 
ATOM     11  C   UNL     1      10.022  -4.773  -9.900  1.00  0.00     0.174 C 
ATOM     12  O   UNL     1       8.244  -6.466 -10.016  1.00  0.00    -0.344 OA
ATOM     13  C   UNL     1       9.189  -3.784 -10.734  1.00  0.00     0.179 C 
ATOM     14  C   UNL     1       7.690  -4.158 -10.730  1.00  0.00     0.202 C 
BRANCH  11  15
ATOM     15  O   UNL     1       9.787  -4.537  -8.526  1.00  0.00    -0.388 OA
ATOM     16  H   UNL     1      10.031  -5.364  -8.031  1.00  0.00     0.211 HD
ENDBRANCH  11  15
BRANCH  13  17
ATOM     17  O   UNL     1       9.682  -3.731 -12.058  1.00  0.00    -0.387 OA
ATOM     18  H   UNL     1       8.888  -3.641 -12.640  1.00  0.00     0.211 HD
ENDBRANCH  13  17
BRANCH  14  19
ATOM     19  O   UNL     1       7.036  -3.464 -11.765  1.00  0.00    -0.385 OA
ATOM     20  H   UNL     1       6.448  -4.098 -12.253  1.00  0.00     0.211 HD
ENDBRANCH  14  19
ENDBRANCH   7   8
ENDBRANCH   1   7
BRANCH   2  21
ATOM     21  O   UNL     1       6.588  -8.579 -11.633  1.00  0.00    -0.387 OA
ATOM     22  H   UNL     1       6.578  -8.142 -12.529  1.00  0.00     0.211 HD
ENDBRANCH   2  21
BRANCH   6  23
ATOM     23  O   UNL     1       3.733  -4.971 -10.134  1.00  0.00    -0.462 OA
BRANCH  23  24
ATOM     24  C   UNL     1       2.656  -4.122 -10.450  1.00  0.00     0.130 A 
ATOM     25  C   UNL     1       2.863  -2.871 -11.048  1.00  0.00     0.093 A 
ATOM     26  C   UNL     1       1.358  -4.581 -10.236  1.00  0.00     0.094 A 
ATOM     27  C   UNL     1       1.769  -2.094 -11.487  1.00  0.00     0.133 A 
ATOM     28  C   UNL     1       0.252  -3.844 -10.717  1.00  0.00     0.138 A 
ATOM     29  C   UNL     1       0.447  -2.584 -11.302  1.00  0.00     0.102 A 
ATOM     30  O   UNL     1      -1.039  -4.374 -10.636  1.00  0.00    -0.484 OA
ATOM     31  C   UNL     1      -0.778  -1.811 -11.637  1.00  0.00     0.174 C 
ATOM     32  C   UNL     1      -2.021  -4.051 -11.627  1.00  0.00     0.211 C 
ATOM     33  O   UNL     1      -0.783  -0.549 -11.603  1.00  0.00    -0.294 OA
ATOM     34  C   UNL     1      -2.048  -2.528 -11.977  1.00  0.00     0.131 C 
BRANCH  27  35
ATOM     35  O   UNL     1       2.033  -0.879 -12.125  1.00  0.00    -0.507 OA
ATOM     36  H   UNL     1       2.855  -0.699 -12.705  1.00  0.00     0.293 HD
ENDBRANCH  27  35
BRANCH  32  37
ATOM     37  C   UNL     1      -3.392  -4.525 -11.182  1.00  0.00    -0.007 A 
ATOM     38  C   UNL     1      -3.581  -5.761 -10.554  1.00  0.00     0.011 A 
ATOM     39  C   UNL     1      -4.497  -3.676 -11.339  1.00  0.00     0.011 A 
ATOM     40  C   UNL     1      -4.851  -6.144 -10.118  1.00  0.00     0.046 A 
ATOM     41  C   UNL     1      -5.760  -4.067 -10.925  1.00  0.00     0.046 A 
ATOM     42  C   UNL     1      -5.945  -5.310 -10.315  1.00  0.00     0.115 A 
BRANCH  42  43
ATOM     43  O   UNL     1      -7.233  -5.707  -9.923  1.00  0.00    -0.508 OA
ATOM     44  H   UNL     1      -7.908  -6.073 -10.580  1.00  0.00     0.293 HD
ENDBRANCH  42  43
ENDBRANCH  32  37
ENDBRANCH  23  24
ENDBRANCH   6  23
BRANCH   3  45
ATOM     45  O   UNL     1       4.932  -9.874  -9.352  1.00  0.00    -0.387 OA
ATOM     46  H   UNL     1       4.129  -9.831  -8.756  1.00  0.00     0.211 HD
ENDBRANCH   3  45
BRANCH   4  47
ATOM     47  C   UNL     1       4.222  -8.087  -7.239  1.00  0.00     0.191 C 
BRANCH  47  48
ATOM     48  O   UNL     1       3.031  -7.527  -6.693  1.00  0.00    -0.394 OA
ATOM     49  H   UNL     1       3.079  -6.536  -6.667  1.00  0.00     0.210 HD
ENDBRANCH  47  48
ENDBRANCH   4  47
TORSDOF 14
ENDMDL
MODEL 8
REMARK VINA RESULT:    -4.565      4.282     10.885
REMARK INTER + INTRA:          -8.506
REMARK INTER:                  -7.770
REMARK INTRA:                  -0.737
REMARK UNBOUND:                -1.273
REMARK SMILES C[C@@H]1O[C@@H](O[C@@H]2[C@H](Oc3cc(O)c4c(c3)O[C@@H](c3ccc(O)cc3)CC4=O)O[C@@H](CO)[C@@H](O)[C@@H]2O)[C@H](O)[C@H](O)[C@H]1O
REMARK SMILES IDX 6 1 34 2 32 3 29 4 28 5 7 6 5 7 4 8 1 9 2 10 40 11 3 12
REMARK SMILES IDX 38 13 36 14 41 15 39 17 37 19 35 21 8 23 9 24 10 25 15 26
REMARK SMILES IDX 11 27 14 28 13 29 16 30 26 31 17 32 27 33 25 34 12 35 18 37
REMARK SMILES IDX 19 38 24 39 20 40 23 41 21 42 22 43 33 45 30 47 31 48
REMARK H PARENT 41 16 39 18 37 20 35 22 12 36 22 44 33 46 31 49
REMARK Flexibility Score: inf
ROOT
ATOM      1  C   UNL     1       6.065  -7.989  -9.757  1.00  0.00     0.221 C 
ATOM      2  C   UNL     1       6.025  -9.526  -9.677  1.00  0.00     0.181 C 
ATOM      3  C   UNL     1       5.655 -10.016  -8.253  1.00  0.00     0.177 C 
ATOM      4  C   UNL     1       4.793  -8.934  -7.545  1.00  0.00     0.179 C 
ATOM      5  O   UNL     1       3.913  -8.333  -8.489  1.00  0.00    -0.332 OA
ATOM      6  C   UNL     1       4.615  -7.490  -9.444  1.00  0.00     0.339 C 
ENDROOT
BRANCH   1   7
ATOM      7  O   UNL     1       6.874  -7.379  -8.774  1.00  0.00    -0.337 OA
BRANCH   7   8
ATOM      8  C   UNL     1       7.987  -6.630  -9.222  1.00  0.00     0.282 C 
ATOM      9  C   UNL     1      10.125  -4.549  -8.914  1.00  0.00     0.041 C 
ATOM     10  C   UNL     1       8.679  -4.351  -9.405  1.00  0.00     0.150 C 
ATOM     11  C   UNL     1       8.548  -4.325 -10.951  1.00  0.00     0.174 C 
ATOM     12  O   UNL     1       7.769  -5.283  -8.825  1.00  0.00    -0.344 OA
ATOM     13  C   UNL     1       8.749  -5.727 -11.554  1.00  0.00     0.179 C 
ATOM     14  C   UNL     1       7.954  -6.800 -10.777  1.00  0.00     0.202 C 
BRANCH  11  15
ATOM     15  O   UNL     1       7.255  -3.858 -11.280  1.00  0.00    -0.388 OA
ATOM     16  H   UNL     1       6.605  -4.331 -10.694  1.00  0.00     0.211 HD
ENDBRANCH  11  15
BRANCH  13  17
ATOM     17  O   UNL     1      10.125  -6.052 -11.578  1.00  0.00    -0.387 OA
ATOM     18  H   UNL     1      10.436  -5.851 -12.494  1.00  0.00     0.211 HD
ENDBRANCH  13  17
BRANCH  14  19
ATOM     19  O   UNL     1       8.436  -8.076 -11.124  1.00  0.00    -0.385 OA
ATOM     20  H   UNL     1       9.377  -7.990 -11.433  1.00  0.00     0.211 HD
ENDBRANCH  14  19
ENDBRANCH   7   8
ENDBRANCH   1   7
BRANCH   2  21
ATOM     21  O   UNL     1       7.213 -10.098 -10.135  1.00  0.00    -0.387 OA
ATOM     22  H   UNL     1       6.998 -11.027 -10.428  1.00  0.00     0.211 HD
ENDBRANCH   2  21
BRANCH   6  23
ATOM     23  O   UNL     1       4.688  -6.145  -8.949  1.00  0.00    -0.462 OA
BRANCH  23  24
ATOM     24  C   UNL     1       3.994  -5.070  -9.535  1.00  0.00     0.130 A 
ATOM     25  C   UNL     1       4.674  -4.008 -10.147  1.00  0.00     0.093 A 
ATOM     26  C   UNL     1       2.602  -5.116  -9.575  1.00  0.00     0.094 A 
ATOM     27  C   UNL     1       3.965  -3.012 -10.853  1.00  0.00     0.133 A 
ATOM     28  C   UNL     1       1.877  -4.159 -10.323  1.00  0.00     0.138 A 
ATOM     29  C   UNL     1       2.547  -3.084 -10.925  1.00  0.00     0.102 A 
ATOM     30  O   UNL     1       0.495  -4.290 -10.487  1.00  0.00    -0.484 OA
ATOM     31  C   UNL     1       1.695  -2.042 -11.558  1.00  0.00     0.174 C 
ATOM     32  C   UNL     1      -0.142  -3.823 -11.681  1.00  0.00     0.211 C 
ATOM     33  O   UNL     1       2.063  -0.835 -11.599  1.00  0.00    -0.294 OA
ATOM     34  C   UNL     1       0.355  -2.407 -12.117  1.00  0.00     0.131 C 
BRANCH  27  35
ATOM     35  O   UNL     1       4.695  -2.005 -11.490  1.00  0.00    -0.507 OA
ATOM     36  H   UNL     1       5.350  -1.379 -11.015  1.00  0.00     0.293 HD
ENDBRANCH  27  35
BRANCH  32  37
ATOM     37  C   UNL     1      -1.650  -3.835 -11.511  1.00  0.00    -0.007 A 
ATOM     38  C   UNL     1      -2.421  -2.678 -11.666  1.00  0.00     0.011 A 
ATOM     39  C   UNL     1      -2.304  -5.050 -11.262  1.00  0.00     0.011 A 
ATOM     40  C   UNL     1      -3.812  -2.737 -11.547  1.00  0.00     0.046 A 
ATOM     41  C   UNL     1      -3.681  -5.102 -11.124  1.00  0.00     0.046 A 
ATOM     42  C   UNL     1      -4.445  -3.940 -11.261  1.00  0.00     0.115 A 
BRANCH  42  43
ATOM     43  O   UNL     1      -5.837  -4.000 -11.092  1.00  0.00    -0.508 OA
ATOM     44  H   UNL     1      -6.398  -3.172 -10.945  1.00  0.00     0.293 HD
ENDBRANCH  42  43
ENDBRANCH  32  37
ENDBRANCH  23  24
ENDBRANCH   6  23
BRANCH   3  45
ATOM     45  O   UNL     1       4.919 -11.214  -8.370  1.00  0.00    -0.387 OA
ATOM     46  H   UNL     1       4.107 -11.136  -7.790  1.00  0.00     0.211 HD
ENDBRANCH   3  45
BRANCH   4  47
ATOM     47  C   UNL     1       4.047  -9.448  -6.301  1.00  0.00     0.191 C 
BRANCH  47  48
ATOM     48  O   UNL     1       2.669  -9.746  -6.507  1.00  0.00    -0.394 OA
ATOM     49  H   UNL     1       2.315  -9.279  -7.308  1.00  0.00     0.210 HD
ENDBRANCH  47  48
ENDBRANCH   4  47
TORSDOF 14
ENDMDL
MODEL 9
REMARK VINA RESULT:    -4.238      1.765      2.416
REMARK INTER + INTRA:          -7.989
REMARK INTER:                  -7.376
REMARK INTRA:                  -0.613
REMARK UNBOUND:                -1.273
REMARK SMILES C[C@@H]1O[C@@H](O[C@@H]2[C@H](Oc3cc(O)c4c(c3)O[C@@H](c3ccc(O)cc3)CC4=O)O[C@@H](CO)[C@@H](O)[C@@H]2O)[C@H](O)[C@H](O)[C@H]1O
REMARK SMILES IDX 6 1 34 2 32 3 29 4 28 5 7 6 5 7 4 8 1 9 2 10 40 11 3 12
REMARK SMILES IDX 38 13 36 14 41 15 39 17 37 19 35 21 8 23 9 24 10 25 15 26
REMARK SMILES IDX 11 27 14 28 13 29 16 30 26 31 17 32 27 33 25 34 12 35 18 37
REMARK SMILES IDX 19 38 24 39 20 40 23 41 21 42 22 43 33 45 30 47 31 48
REMARK H PARENT 41 16 39 18 37 20 35 22 12 36 22 44 33 46 31 49
REMARK Flexibility Score: inf
ROOT
ATOM      1  C   UNL     1      -7.363  -6.995 -11.319  1.00  0.00     0.221 C 
ATOM      2  C   UNL     1      -8.826  -6.759 -10.906  1.00  0.00     0.181 C 
ATOM      3  C   UNL     1      -8.936  -6.270  -9.439  1.00  0.00     0.177 C 
ATOM      4  C   UNL     1      -7.631  -5.522  -9.048  1.00  0.00     0.179 C 
ATOM      5  O   UNL     1      -7.164  -4.765 -10.160  1.00  0.00    -0.332 OA
ATOM      6  C   UNL     1      -6.645  -5.608 -11.226  1.00  0.00     0.339 C 
ENDROOT
BRANCH   1   7
ATOM      7  O   UNL     1      -6.641  -7.832 -10.441  1.00  0.00    -0.337 OA
BRANCH   7   8
ATOM      8  C   UNL     1      -7.327  -8.939  -9.888  1.00  0.00     0.282 C 
ATOM      9  C   UNL     1      -8.879 -10.334  -7.734  1.00  0.00     0.041 C 
ATOM     10  C   UNL     1      -7.350 -10.233  -7.880  1.00  0.00     0.150 C 
ATOM     11  C   UNL     1      -6.708 -11.477  -8.550  1.00  0.00     0.174 C 
ATOM     12  O   UNL     1      -6.937  -9.029  -8.524  1.00  0.00    -0.344 OA
ATOM     13  C   UNL     1      -7.027 -11.530 -10.054  1.00  0.00     0.179 C 
ATOM     14  C   UNL     1      -6.819 -10.156 -10.729  1.00  0.00     0.202 C 
BRANCH  11  15
ATOM     15  O   UNL     1      -5.308 -11.405  -8.373  1.00  0.00    -0.388 OA
ATOM     16  H   UNL     1      -4.881 -11.622  -9.245  1.00  0.00     0.211 HD
ENDBRANCH  11  15
BRANCH  13  17
ATOM     17  O   UNL     1      -8.351 -11.984 -10.254  1.00  0.00    -0.387 OA
ATOM     18  H   UNL     1      -8.938 -11.285  -9.874  1.00  0.00     0.211 HD
ENDBRANCH  13  17
BRANCH  14  19
ATOM     19  O   UNL     1      -7.448 -10.158 -11.988  1.00  0.00    -0.385 OA
ATOM     20  H   UNL     1      -8.288 -10.684 -11.924  1.00  0.00     0.211 HD
ENDBRANCH  14  19
ENDBRANCH   7   8
ENDBRANCH   1   7
BRANCH   2  21
ATOM     21  O   UNL     1      -9.619  -7.883 -11.144  1.00  0.00    -0.387 OA
ATOM     22  H   UNL     1     -10.018  -8.151 -10.271  1.00  0.00     0.211 HD
ENDBRANCH   2  21
BRANCH   6  23
ATOM     23  O   UNL     1      -5.239  -5.829 -11.034  1.00  0.00    -0.462 OA
BRANCH  23  24
ATOM     24  C   UNL     1      -4.270  -4.824 -11.215  1.00  0.00     0.130 A 
ATOM     25  C   UNL     1      -4.632  -3.479 -11.367  1.00  0.00     0.093 A 
ATOM     26  C   UNL     1      -2.923  -5.177 -11.155  1.00  0.00     0.094 A 
ATOM     27  C   UNL     1      -3.646  -2.469 -11.405  1.00  0.00     0.133 A 
ATOM     28  C   UNL     1      -1.924  -4.177 -11.136  1.00  0.00     0.138 A 
ATOM     29  C   UNL     1      -2.275  -2.829 -11.304  1.00  0.00     0.102 A 
ATOM     30  O   UNL     1      -0.585  -4.520 -10.926  1.00  0.00    -0.484 OA
ATOM     31  C   UNL     1      -1.152  -1.862 -11.428  1.00  0.00     0.174 C 
ATOM     32  C   UNL     1       0.300  -3.617 -10.255  1.00  0.00     0.211 C 
ATOM     33  O   UNL     1      -1.267  -0.814 -12.124  1.00  0.00    -0.294 OA
ATOM     34  C   UNL     1       0.159  -2.145 -10.762  1.00  0.00     0.131 C 
BRANCH  27  35
ATOM     35  O   UNL     1      -4.064  -1.139 -11.505  1.00  0.00    -0.507 OA
ATOM     36  H   UNL     1      -3.448  -0.331 -11.385  1.00  0.00     0.293 HD
ENDBRANCH  27  35
BRANCH  32  37
ATOM     37  C   UNL     1       1.735  -4.094 -10.383  1.00  0.00    -0.007 A 
ATOM     38  C   UNL     1       2.402  -4.723  -9.327  1.00  0.00     0.011 A 
ATOM     39  C   UNL     1       2.394  -3.967 -11.614  1.00  0.00     0.011 A 
ATOM     40  C   UNL     1       3.709  -5.190  -9.496  1.00  0.00     0.046 A 
ATOM     41  C   UNL     1       3.696  -4.412 -11.774  1.00  0.00     0.046 A 
ATOM     42  C   UNL     1       4.364  -5.023 -10.710  1.00  0.00     0.115 A 
BRANCH  42  43
ATOM     43  O   UNL     1       5.693  -5.446 -10.875  1.00  0.00    -0.508 OA
ATOM     44  H   UNL     1       6.349  -5.475 -10.106  1.00  0.00     0.293 HD
ENDBRANCH  42  43
ENDBRANCH  32  37
ENDBRANCH  23  24
ENDBRANCH   6  23
BRANCH   3  45
ATOM     45  O   UNL     1     -10.038  -5.394  -9.341  1.00  0.00    -0.387 OA
ATOM     46  H   UNL     1     -10.813  -5.817  -9.813  1.00  0.00     0.211 HD
ENDBRANCH   3  45
BRANCH   4  47
ATOM     47  C   UNL     1      -7.761  -4.664  -7.776  1.00  0.00     0.191 C 
BRANCH  47  48
ATOM     48  O   UNL     1      -8.660  -5.175  -6.796  1.00  0.00    -0.394 OA
ATOM     49  H   UNL     1      -8.282  -5.973  -6.342  1.00  0.00     0.210 HD
ENDBRANCH  47  48
ENDBRANCH   4  47
TORSDOF 14
ENDMDL
