MODEL 1
REMARK VINA RESULT:    -3.035      0.000      0.000
REMARK INTER + INTRA:          -3.035
REMARK INTER:                  -3.035
REMARK INTRA:                   0.000
REMARK UNBOUND:                 0.000
REMARK SMILES CC(=O)[O-]
REMARK SMILES IDX 1 1 2 2 3 3 4 4
REMARK H PARENT
REMARK Flexibility Score: inf
ROOT
ATOM      1  C   UNL     1      -7.507  -9.604  18.895  1.00  0.00     0.063 C 
ATOM      2  C   UNL     1      -6.046  -9.310  18.933  1.00  0.00     0.038 C 
ATOM      3  O   UNL     1      -5.541  -8.504  18.109  1.00  0.00    -0.550 OA
ATOM      4  O   UNL     1      -5.228  -9.965  19.846  1.00  0.00    -0.550 OA
ENDROOT
TORSDOF 0
ENDMDL
MODEL 2
REMARK VINA RESULT:    -2.999      1.414      1.791
REMARK INTER + INTRA:          -2.999
REMARK INTER:                  -2.999
REMARK INTRA:                   0.000
REMARK UNBOUND:                 0.000
REMARK SMILES CC(=O)[O-]
REMARK SMILES IDX 1 1 2 2 3 3 4 4
REMARK H PARENT
REMARK Flexibility Score: inf
ROOT
ATOM      1  C   UNL     1      -5.085  -9.752  19.646  1.00  0.00     0.063 C 
ATOM      2  C   UNL     1      -6.316  -9.317  18.927  1.00  0.00     0.038 C 
ATOM      3  O   UNL     1      -6.272  -8.340  18.133  1.00  0.00    -0.550 OA
ATOM      4  O   UNL     1      -7.526  -9.954  19.170  1.00  0.00    -0.550 OA
ENDROOT
TORSDOF 0
ENDMDL
MODEL 3
REMARK VINA RESULT:    -2.998      0.078      1.621
REMARK INTER + INTRA:          -2.998
REMARK INTER:                  -2.998
REMARK INTRA:                   0.000
REMARK UNBOUND:                 0.000
REMARK SMILES CC(=O)[O-]
REMARK SMILES IDX 1 1 2 2 3 3 4 4
REMARK H PARENT
REMARK Flexibility Score: inf
ROOT
ATOM      1  C   UNL     1      -7.514  -9.616  18.966  1.00  0.00     0.063 C 
ATOM      2  C   UNL     1      -6.045  -9.361  18.953  1.00  0.00     0.038 C 
ATOM      3  O   UNL     1      -5.296  -9.930  19.791  1.00  0.00    -0.550 OA
ATOM      4  O   UNL     1      -5.504  -8.453  18.051  1.00  0.00    -0.550 OA
ENDROOT
TORSDOF 0
ENDMDL
MODEL 4
REMARK VINA RESULT:    -2.541     18.201     18.363
REMARK INTER + INTRA:          -2.541
REMARK INTER:                  -2.541
REMARK INTRA:                   0.000
REMARK UNBOUND:                 0.000
REMARK SMILES CC(=O)[O-]
REMARK SMILES IDX 1 1 2 2 3 3 4 4
REMARK H PARENT
REMARK Flexibility Score: inf
ROOT
ATOM      1  C   UNL     1       2.187 -20.648   6.505  1.00  0.00     0.063 C 
ATOM      2  C   UNL     1       2.359 -21.211   7.874  1.00  0.00     0.038 C 
ATOM      3  O   UNL     1       1.695 -22.219   8.232  1.00  0.00    -0.550 OA
ATOM      4  O   UNL     1       3.214 -20.593   8.779  1.00  0.00    -0.550 OA
ENDROOT
TORSDOF 0
ENDMDL
MODEL 5
REMARK VINA RESULT:    -2.538     19.566     19.717
REMARK INTER + INTRA:          -2.538
REMARK INTER:                  -2.538
REMARK INTRA:                   0.000
REMARK UNBOUND:                 0.000
REMARK SMILES CC(=O)[O-]
REMARK SMILES IDX 1 1 2 2 3 3 4 4
REMARK H PARENT
REMARK Flexibility Score: inf
ROOT
ATOM      1  C   UNL     1       4.084 -21.303   5.069  1.00  0.00     0.063 C 
ATOM      2  C   UNL     1       3.412 -21.028   6.372  1.00  0.00     0.038 C 
ATOM      3  O   UNL     1       2.215 -20.640   6.397  1.00  0.00    -0.550 OA
ATOM      4  O   UNL     1       4.122 -21.148   7.560  1.00  0.00    -0.550 OA
ENDROOT
TORSDOF 0
ENDMDL
MODEL 6
REMARK VINA RESULT:    -2.496     18.341     18.429
REMARK INTER + INTRA:          -2.496
REMARK INTER:                  -2.496
REMARK INTRA:                   0.000
REMARK UNBOUND:                 0.000
REMARK SMILES CC(=O)[O-]
REMARK SMILES IDX 1 1 2 2 3 3 4 4
REMARK H PARENT
REMARK Flexibility Score: inf
ROOT
ATOM      1  C   UNL     1       3.307 -20.727   8.595  1.00  0.00     0.063 C 
ATOM      2  C   UNL     1       2.219 -21.363   7.797  1.00  0.00     0.038 C 
ATOM      3  O   UNL     1       1.821 -20.826   6.730  1.00  0.00    -0.550 OA
ATOM      4  O   UNL     1       1.605 -22.520   8.257  1.00  0.00    -0.550 OA
ENDROOT
TORSDOF 0
ENDMDL
MODEL 7
REMARK VINA RESULT:    -2.463     19.361     19.548
REMARK INTER + INTRA:          -2.463
REMARK INTER:                  -2.463
REMARK INTRA:                   0.000
REMARK UNBOUND:                 0.000
REMARK SMILES CC(=O)[O-]
REMARK SMILES IDX 1 1 2 2 3 3 4 4
REMARK H PARENT
REMARK Flexibility Score: inf
ROOT
ATOM      1  C   UNL     1       4.028 -21.242   7.604  1.00  0.00     0.063 C 
ATOM      2  C   UNL     1       3.220 -20.994   6.377  1.00  0.00     0.038 C 
ATOM      3  O   UNL     1       3.767 -21.016   5.243  1.00  0.00    -0.550 OA
ATOM      4  O   UNL     1       1.870 -20.684   6.484  1.00  0.00    -0.550 OA
ENDROOT
TORSDOF 0
ENDMDL
MODEL 8
REMARK VINA RESULT:    -2.310     17.900     18.143
REMARK INTER + INTRA:          -2.310
REMARK INTER:                  -2.310
REMARK INTRA:                   0.000
REMARK UNBOUND:                 0.000
REMARK SMILES CC(=O)[O-]
REMARK SMILES IDX 1 1 2 2 3 3 4 4
REMARK H PARENT
REMARK Flexibility Score: inf
ROOT
ATOM      1  C   UNL     1       3.214 -20.947   8.818  1.00  0.00     0.063 C 
ATOM      2  C   UNL     1       2.282 -22.010   9.292  1.00  0.00     0.038 C 
ATOM      3  O   UNL     1       2.169 -22.248  10.523  1.00  0.00    -0.550 OA
ATOM      4  O   UNL     1       1.576 -22.777   8.374  1.00  0.00    -0.550 OA
ENDROOT
TORSDOF 0
ENDMDL
MODEL 9
REMARK VINA RESULT:    -2.122     17.880     18.034
REMARK INTER + INTRA:          -2.122
REMARK INTER:                  -2.122
REMARK INTRA:                   0.000
REMARK UNBOUND:                 0.000
REMARK SMILES CC(=O)[O-]
REMARK SMILES IDX 1 1 2 2 3 3 4 4
REMARK H PARENT
REMARK Flexibility Score: inf
ROOT
ATOM      1  C   UNL     1       1.835 -22.802   8.680  1.00  0.00     0.063 C 
ATOM      2  C   UNL     1       2.670 -21.989   9.610  1.00  0.00     0.038 C 
ATOM      3  O   UNL     1       3.214 -20.928   9.208  1.00  0.00    -0.550 OA
ATOM      4  O   UNL     1       2.893 -22.429  10.909  1.00  0.00    -0.550 OA
ENDROOT
TORSDOF 0
ENDMDL
