MODEL 1
REMARK VINA RESULT:    -3.168      0.000      0.000
REMARK INTER + INTRA:          -3.561
REMARK INTER:                  -3.539
REMARK INTRA:                  -0.022
REMARK UNBOUND:                -0.022
REMARK SMILES CCCC(=O)[O-]
REMARK SMILES IDX 3 1 4 2 5 3 6 4 2 5 1 6
REMARK H PARENT
REMARK Flexibility Score: inf
ROOT
ATOM      1  C   UNL     1       6.033  25.876  14.026  1.00  0.00     0.052 C 
ENDROOT
BRANCH   1   2
ATOM      2  C   UNL     1       5.213  26.917  13.331  1.00  0.00     0.041 C 
ATOM      3  O   UNL     1       4.181  26.588  12.691  1.00  0.00    -0.550 OA
ATOM      4  O   UNL     1       5.618  28.246  13.348  1.00  0.00    -0.550 OA
ENDBRANCH   1   2
BRANCH   1   5
ATOM      5  C   UNL     1       5.757  25.892  15.531  1.00  0.00     0.003 C 
ATOM      6  C   UNL     1       7.054  26.000  16.328  1.00  0.00     0.004 C 
ENDBRANCH   1   5
TORSDOF 2
ENDMDL
MODEL 2
REMARK VINA RESULT:    -3.147      0.077      1.323
REMARK INTER + INTRA:          -3.537
REMARK INTER:                  -3.511
REMARK INTRA:                  -0.026
REMARK UNBOUND:                -0.022
REMARK SMILES CCCC(=O)[O-]
REMARK SMILES IDX 3 1 4 2 5 3 6 4 2 5 1 6
REMARK H PARENT
REMARK Flexibility Score: inf
ROOT
ATOM      1  C   UNL     1       6.014  25.880  14.043  1.00  0.00     0.052 C 
ENDROOT
BRANCH   1   2
ATOM      2  C   UNL     1       5.235  26.938  13.327  1.00  0.00     0.041 C 
ATOM      3  O   UNL     1       5.584  28.144  13.404  1.00  0.00    -0.550 OA
ATOM      4  O   UNL     1       4.092  26.597  12.615  1.00  0.00    -0.550 OA
ENDBRANCH   1   2
BRANCH   1   5
ATOM      5  C   UNL     1       5.762  25.957  15.551  1.00  0.00     0.003 C 
ATOM      6  C   UNL     1       7.074  25.977  16.329  1.00  0.00     0.004 C 
ENDBRANCH   1   5
TORSDOF 2
ENDMDL
MODEL 3
REMARK VINA RESULT:    -2.936      1.598      1.877
REMARK INTER + INTRA:          -3.302
REMARK INTER:                  -3.267
REMARK INTRA:                  -0.035
REMARK UNBOUND:                -0.022
REMARK SMILES CCCC(=O)[O-]
REMARK SMILES IDX 3 1 4 2 5 3 6 4 2 5 1 6
REMARK H PARENT
REMARK Flexibility Score: inf
ROOT
ATOM      1  C   UNL     1       5.596  26.436  13.714  1.00  0.00     0.052 C 
ENDROOT
BRANCH   1   2
ATOM      2  C   UNL     1       5.029  27.548  12.889  1.00  0.00     0.041 C 
ATOM      3  O   UNL     1       4.135  27.312  12.036  1.00  0.00    -0.550 OA
ATOM      4  O   UNL     1       5.526  28.839  13.025  1.00  0.00    -0.550 OA
ENDBRANCH   1   2
BRANCH   1   5
ATOM      5  C   UNL     1       4.805  25.146  13.492  1.00  0.00     0.003 C 
ATOM      6  C   UNL     1       4.091  24.709  14.768  1.00  0.00     0.004 C 
ENDBRANCH   1   5
TORSDOF 2
ENDMDL
MODEL 4
REMARK VINA RESULT:    -2.921      2.192      3.215
REMARK INTER + INTRA:          -3.285
REMARK INTER:                  -3.219
REMARK INTRA:                  -0.066
REMARK UNBOUND:                -0.022
REMARK SMILES CCCC(=O)[O-]
REMARK SMILES IDX 3 1 4 2 5 3 6 4 2 5 1 6
REMARK H PARENT
REMARK Flexibility Score: inf
ROOT
ATOM      1  C   UNL     1       6.037  25.819  13.877  1.00  0.00     0.052 C 
ENDROOT
BRANCH   1   2
ATOM      2  C   UNL     1       6.332  26.066  15.323  1.00  0.00     0.041 C 
ATOM      3  O   UNL     1       7.523  26.138  15.723  1.00  0.00    -0.550 OA
ATOM      4  O   UNL     1       5.291  26.167  16.237  1.00  0.00    -0.550 OA
ENDBRANCH   1   2
BRANCH   1   5
ATOM      5  C   UNL     1       4.933  26.758  13.386  1.00  0.00     0.003 C 
ATOM      6  C   UNL     1       5.436  28.196  13.289  1.00  0.00     0.004 C 
ENDBRANCH   1   5
TORSDOF 2
ENDMDL
MODEL 5
REMARK VINA RESULT:    -2.794      2.012      3.660
REMARK INTER + INTRA:          -3.143
REMARK INTER:                  -3.127
REMARK INTRA:                  -0.016
REMARK UNBOUND:                -0.022
REMARK SMILES CCCC(=O)[O-]
REMARK SMILES IDX 3 1 4 2 5 3 6 4 2 5 1 6
REMARK H PARENT
REMARK Flexibility Score: inf
ROOT
ATOM      1  C   UNL     1       5.136  27.404  13.288  1.00  0.00     0.052 C 
ENDROOT
BRANCH   1   2
ATOM      2  C   UNL     1       5.526  26.029  13.730  1.00  0.00     0.041 C 
ATOM      3  O   UNL     1       6.568  25.855  14.415  1.00  0.00    -0.550 OA
ATOM      4  O   UNL     1       4.766  24.932  13.343  1.00  0.00    -0.550 OA
ENDBRANCH   1   2
BRANCH   1   5
ATOM      5  C   UNL     1       4.085  27.333  12.178  1.00  0.00     0.003 C 
ATOM      6  C   UNL     1       3.178  28.559  12.198  1.00  0.00     0.004 C 
ENDBRANCH   1   5
TORSDOF 2
ENDMDL
MODEL 6
REMARK VINA RESULT:    -2.674      2.129      3.735
REMARK INTER + INTRA:          -3.009
REMARK INTER:                  -2.998
REMARK INTRA:                  -0.010
REMARK UNBOUND:                -0.022
REMARK SMILES CCCC(=O)[O-]
REMARK SMILES IDX 3 1 4 2 5 3 6 4 2 5 1 6
REMARK H PARENT
REMARK Flexibility Score: inf
ROOT
ATOM      1  C   UNL     1       4.002  26.310  12.754  1.00  0.00     0.052 C 
ENDROOT
BRANCH   1   2
ATOM      2  C   UNL     1       5.306  26.747  13.343  1.00  0.00     0.041 C 
ATOM      3  O   UNL     1       6.088  25.902  13.850  1.00  0.00    -0.550 OA
ATOM      4  O   UNL     1       5.635  28.097  13.377  1.00  0.00    -0.550 OA
ENDBRANCH   1   2
BRANCH   1   5
ATOM      5  C   UNL     1       3.313  27.479  12.046  1.00  0.00     0.003 C 
ATOM      6  C   UNL     1       2.211  26.986  11.113  1.00  0.00     0.004 C 
ENDBRANCH   1   5
TORSDOF 2
ENDMDL
MODEL 7
REMARK VINA RESULT:    -2.632      1.604      2.084
REMARK INTER + INTRA:          -2.962
REMARK INTER:                  -2.936
REMARK INTRA:                  -0.026
REMARK UNBOUND:                -0.022
REMARK SMILES CCCC(=O)[O-]
REMARK SMILES IDX 3 1 4 2 5 3 6 4 2 5 1 6
REMARK H PARENT
REMARK Flexibility Score: inf
ROOT
ATOM      1  C   UNL     1       6.304  26.134  14.443  1.00  0.00     0.052 C 
ENDROOT
BRANCH   1   2
ATOM      2  C   UNL     1       4.833  25.882  14.551  1.00  0.00     0.041 C 
ATOM      3  O   UNL     1       4.015  26.823  14.380  1.00  0.00    -0.550 OA
ATOM      4  O   UNL     1       4.366  24.619  14.892  1.00  0.00    -0.550 OA
ENDBRANCH   1   2
BRANCH   1   5
ATOM      5  C   UNL     1       6.985  25.921  15.797  1.00  0.00     0.003 C 
ATOM      6  C   UNL     1       6.309  26.744  16.889  1.00  0.00     0.004 C 
ENDBRANCH   1   5
TORSDOF 2
ENDMDL
MODEL 8
REMARK VINA RESULT:    -2.630      2.467      3.118
REMARK INTER + INTRA:          -2.960
REMARK INTER:                  -2.952
REMARK INTRA:                  -0.007
REMARK UNBOUND:                -0.022
REMARK SMILES CCCC(=O)[O-]
REMARK SMILES IDX 3 1 4 2 5 3 6 4 2 5 1 6
REMARK H PARENT
REMARK Flexibility Score: inf
ROOT
ATOM      1  C   UNL     1       4.103  27.331  12.234  1.00  0.00     0.052 C 
ENDROOT
BRANCH   1   2
ATOM      2  C   UNL     1       2.751  27.490  11.614  1.00  0.00     0.041 C 
ATOM      3  O   UNL     1       2.269  26.572  10.900  1.00  0.00    -0.550 OA
ATOM      4  O   UNL     1       2.044  28.674  11.781  1.00  0.00    -0.550 OA
ENDBRANCH   1   2
BRANCH   1   5
ATOM      5  C   UNL     1       4.147  26.077  13.110  1.00  0.00     0.003 C 
ATOM      6  C   UNL     1       5.535  25.872  13.711  1.00  0.00     0.004 C 
ENDBRANCH   1   5
TORSDOF 2
ENDMDL
MODEL 9
REMARK VINA RESULT:    -2.557      1.721      2.375
REMARK INTER + INTRA:          -2.878
REMARK INTER:                  -2.817
REMARK INTRA:                  -0.061
REMARK UNBOUND:                -0.022
REMARK SMILES CCCC(=O)[O-]
REMARK SMILES IDX 3 1 4 2 5 3 6 4 2 5 1 6
REMARK H PARENT
REMARK Flexibility Score: inf
ROOT
ATOM      1  C   UNL     1       5.633  27.363  13.724  1.00  0.00     0.052 C 
ENDROOT
BRANCH   1   2
ATOM      2  C   UNL     1       4.295  27.978  13.991  1.00  0.00     0.041 C 
ATOM      3  O   UNL     1       3.630  28.483  13.049  1.00  0.00    -0.550 OA
ATOM      4  O   UNL     1       3.804  28.040  15.289  1.00  0.00    -0.550 OA
ENDBRANCH   1   2
BRANCH   1   5
ATOM      5  C   UNL     1       5.631  25.884  14.115  1.00  0.00     0.003 C 
ATOM      6  C   UNL     1       4.534  25.120  13.378  1.00  0.00     0.004 C 
ENDBRANCH   1   5
TORSDOF 2
ENDMDL
