MODEL 1
REMARK VINA RESULT:     1.192      0.000      0.000
REMARK INTER + INTRA:           1.369
REMARK INTER:                   1.401
REMARK INTRA:                  -0.032
REMARK UNBOUND:                -0.032
REMARK SMILES O=C([O-])CCC(=O)[O-]
REMARK SMILES IDX 4 1 2 2 1 3 3 4 5 5 6 6 7 7 8 8
REMARK H PARENT
REMARK Flexibility Score: inf
ROOT
ATOM      1  C   UNL     1     -37.369  15.664  18.137  1.00  0.00     0.059 C 
ENDROOT
BRANCH   1   2
ATOM      2  C   UNL     1     -38.791  15.653  18.601  1.00  0.00     0.042 C 
ATOM      3  O   UNL     1     -39.130  14.954  19.592  1.00  0.00    -0.550 OA
ATOM      4  O   UNL     1     -39.754  16.379  17.911  1.00  0.00    -0.550 OA
ENDBRANCH   1   2
BRANCH   1   5
ATOM      5  C   UNL     1     -36.789  17.076  18.225  1.00  0.00     0.059 C 
BRANCH   5   6
ATOM      6  C   UNL     1     -35.358  17.081  17.789  1.00  0.00     0.042 C 
ATOM      7  O   UNL     1     -34.951  16.248  16.938  1.00  0.00    -0.550 OA
ATOM      8  O   UNL     1     -34.484  18.038  18.288  1.00  0.00    -0.550 OA
ENDBRANCH   5   6
ENDBRANCH   1   5
TORSDOF 3
ENDMDL
MODEL 2
REMARK VINA RESULT:     1.256      0.040      4.284
REMARK INTER + INTRA:           1.443
REMARK INTER:                   1.476
REMARK INTRA:                  -0.033
REMARK UNBOUND:                -0.032
REMARK SMILES O=C([O-])CCC(=O)[O-]
REMARK SMILES IDX 4 1 2 2 1 3 3 4 5 5 6 6 7 7 8 8
REMARK H PARENT
REMARK Flexibility Score: inf
ROOT
ATOM      1  C   UNL     1     -36.825  17.078  18.200  1.00  0.00     0.059 C 
ENDROOT
BRANCH   1   2
ATOM      2  C   UNL     1     -35.389  17.106  17.785  1.00  0.00     0.042 C 
ATOM      3  O   UNL     1     -34.947  16.255  16.969  1.00  0.00    -0.550 OA
ATOM      4  O   UNL     1     -34.524  18.043  18.336  1.00  0.00    -0.550 OA
ENDBRANCH   1   2
BRANCH   1   5
ATOM      5  C   UNL     1     -37.370  15.650  18.147  1.00  0.00     0.059 C 
BRANCH   5   6
ATOM      6  C   UNL     1     -38.795  15.616  18.600  1.00  0.00     0.042 C 
ATOM      7  O   UNL     1     -39.127  14.923  19.598  1.00  0.00    -0.550 OA
ATOM      8  O   UNL     1     -39.750  16.387  17.950  1.00  0.00    -0.550 OA
ENDBRANCH   5   6
ENDBRANCH   1   5
TORSDOF 3
ENDMDL
MODEL 3
REMARK VINA RESULT:     2.335      2.909      4.375
REMARK INTER + INTRA:           2.711
REMARK INTER:                   2.745
REMARK INTRA:                  -0.034
REMARK UNBOUND:                -0.032
REMARK SMILES O=C([O-])CCC(=O)[O-]
REMARK SMILES IDX 4 1 2 2 1 3 3 4 5 5 6 6 7 7 8 8
REMARK H PARENT
REMARK Flexibility Score: inf
ROOT
ATOM      1  C   UNL     1     -34.367  14.508  18.355  1.00  0.00     0.059 C 
ENDROOT
BRANCH   1   2
ATOM      2  C   UNL     1     -33.855  13.225  17.780  1.00  0.00     0.042 C 
ATOM      3  O   UNL     1     -34.213  12.857  16.631  1.00  0.00    -0.550 OA
ATOM      4  O   UNL     1     -33.020  12.410  18.534  1.00  0.00    -0.550 OA
ENDBRANCH   1   2
BRANCH   1   5
ATOM      5  C   UNL     1     -35.080  15.328  17.279  1.00  0.00     0.059 C 
BRANCH   5   6
ATOM      6  C   UNL     1     -35.677  16.564  17.874  1.00  0.00     0.042 C 
ATOM      7  O   UNL     1     -36.904  16.606  18.150  1.00  0.00    -0.550 OA
ATOM      8  O   UNL     1     -34.868  17.654  18.168  1.00  0.00    -0.550 OA
ENDBRANCH   5   6
ENDBRANCH   1   5
TORSDOF 3
ENDMDL
MODEL 4
REMARK VINA RESULT:     2.337      2.902      4.019
REMARK INTER + INTRA:           2.714
REMARK INTER:                   2.748
REMARK INTRA:                  -0.034
REMARK UNBOUND:                -0.032
REMARK SMILES O=C([O-])CCC(=O)[O-]
REMARK SMILES IDX 4 1 2 2 1 3 3 4 5 5 6 6 7 7 8 8
REMARK H PARENT
REMARK Flexibility Score: inf
ROOT
ATOM      1  C   UNL     1     -35.013  15.348  17.263  1.00  0.00     0.059 C 
ENDROOT
BRANCH   1   2
ATOM      2  C   UNL     1     -35.632  16.561  17.882  1.00  0.00     0.042 C 
ATOM      3  O   UNL     1     -36.866  16.589  18.128  1.00  0.00    -0.550 OA
ATOM      4  O   UNL     1     -34.853  17.681  18.145  1.00  0.00    -0.550 OA
ENDBRANCH   1   2
BRANCH   1   5
ATOM      5  C   UNL     1     -34.476  14.411  18.346  1.00  0.00     0.059 C 
BRANCH   5   6
ATOM      6  C   UNL     1     -33.741  13.265  17.727  1.00  0.00     0.042 C 
ATOM      7  O   UNL     1     -33.609  13.196  16.476  1.00  0.00    -0.550 OA
ATOM      8  O   UNL     1     -33.159  12.295  18.533  1.00  0.00    -0.550 OA
ENDBRANCH   5   6
ENDBRANCH   1   5
TORSDOF 3
ENDMDL
MODEL 5
REMARK VINA RESULT:     2.661      5.696      6.976
REMARK INTER + INTRA:           3.095
REMARK INTER:                   3.139
REMARK INTRA:                  -0.044
REMARK UNBOUND:                -0.032
REMARK SMILES O=C([O-])CCC(=O)[O-]
REMARK SMILES IDX 4 1 2 2 1 3 3 4 5 5 6 6 7 7 8 8
REMARK H PARENT
REMARK Flexibility Score: inf
ROOT
ATOM      1  C   UNL     1     -32.940  11.562  18.955  1.00  0.00     0.059 C 
ENDROOT
BRANCH   1   2
ATOM      2  C   UNL     1     -32.973  12.371  17.698  1.00  0.00     0.042 C 
ATOM      3  O   UNL     1     -34.074  12.709  17.190  1.00  0.00    -0.550 OA
ATOM      4  O   UNL     1     -31.787  12.712  17.059  1.00  0.00    -0.550 OA
ENDBRANCH   1   2
BRANCH   1   5
ATOM      5  C   UNL     1     -33.683  12.288  20.077  1.00  0.00     0.059 C 
BRANCH   5   6
ATOM      6  C   UNL     1     -34.086  11.323  21.147  1.00  0.00     0.042 C 
ATOM      7  O   UNL     1     -34.144  10.090  20.901  1.00  0.00    -0.550 OA
ATOM      8  O   UNL     1     -34.351  11.780  22.432  1.00  0.00    -0.550 OA
ENDBRANCH   5   6
ENDBRANCH   1   5
TORSDOF 3
ENDMDL
MODEL 6
REMARK VINA RESULT:     2.682      5.694      6.354
REMARK INTER + INTRA:           3.120
REMARK INTER:                   3.159
REMARK INTRA:                  -0.040
REMARK UNBOUND:                -0.032
REMARK SMILES O=C([O-])CCC(=O)[O-]
REMARK SMILES IDX 4 1 2 2 1 3 3 4 5 5 6 6 7 7 8 8
REMARK H PARENT
REMARK Flexibility Score: inf
ROOT
ATOM      1  C   UNL     1     -33.658  12.279  20.058  1.00  0.00     0.059 C 
ENDROOT
BRANCH   1   2
ATOM      2  C   UNL     1     -34.053  11.321  21.136  1.00  0.00     0.042 C 
ATOM      3  O   UNL     1     -34.163  10.092  20.884  1.00  0.00    -0.550 OA
ATOM      4  O   UNL     1     -34.347  11.790  22.410  1.00  0.00    -0.550 OA
ENDBRANCH   1   2
BRANCH   1   5
ATOM      5  C   UNL     1     -32.928  11.546  18.932  1.00  0.00     0.059 C 
BRANCH   5   6
ATOM      6  C   UNL     1     -32.913  12.378  17.689  1.00  0.00     0.042 C 
ATOM      7  O   UNL     1     -31.821  12.691  17.148  1.00  0.00    -0.550 OA
ATOM      8  O   UNL     1     -34.109  12.769  17.100  1.00  0.00    -0.550 OA
ENDBRANCH   5   6
ENDBRANCH   1   5
TORSDOF 3
ENDMDL
