MODEL 1
REMARK VINA RESULT:    31.675      0.000      0.000
REMARK INTER + INTRA:          35.994
REMARK INTER:                  36.304
REMARK INTRA:                  -0.310
REMARK UNBOUND:                -0.310
REMARK SMILES O=C1C[C@@H](c2ccc(O)cc2)Oc2cc(O)cc(O)c21
REMARK SMILES IDX 3 1 4 2 12 3 13 4 14 5 15 6 17 7 18 8 20 9 2 10 1 11 5 12
REMARK SMILES IDX 6 13 11 14 7 15 10 16 8 17 9 18 19 20 16 22
REMARK H PARENT 9 19 19 21 16 23
REMARK Flexibility Score: inf
ROOT
ATOM      1  C   UNL     1       8.774  -3.797  -9.076  1.00  0.00     0.131 C 
ATOM      2  C   UNL     1       9.474  -3.730 -10.442  1.00  0.00     0.211 C 
ATOM      3  O   UNL     1      10.850  -3.376 -10.285  1.00  0.00    -0.484 OA
ATOM      4  C   UNL     1      11.644  -3.868  -9.239  1.00  0.00     0.138 A 
ATOM      5  C   UNL     1      13.030  -3.705  -9.306  1.00  0.00     0.093 A 
ATOM      6  C   UNL     1      13.847  -4.198  -8.286  1.00  0.00     0.123 A 
ATOM      7  C   UNL     1      13.273  -4.829  -7.181  1.00  0.00     0.093 A 
ATOM      8  C   UNL     1      11.884  -4.967  -7.073  1.00  0.00     0.133 A 
ATOM      9  C   UNL     1      11.053  -4.511  -8.130  1.00  0.00     0.102 A 
ATOM     10  C   UNL     1       9.577  -4.667  -8.156  1.00  0.00     0.174 C 
ATOM     11  O   UNL     1       8.991  -5.545  -7.468  1.00  0.00    -0.294 OA
ENDROOT
BRANCH   2  12
ATOM     12  C   UNL     1       8.784  -2.738 -11.346  1.00  0.00    -0.007 A 
ATOM     13  C   UNL     1       7.504  -2.256 -11.022  1.00  0.00     0.011 A 
ATOM     14  C   UNL     1       9.432  -2.244 -12.492  1.00  0.00     0.011 A 
ATOM     15  C   UNL     1       6.875  -1.315 -11.842  1.00  0.00     0.046 A 
ATOM     16  C   UNL     1       8.800  -1.302 -13.310  1.00  0.00     0.046 A 
ATOM     17  C   UNL     1       7.519  -0.837 -12.988  1.00  0.00     0.115 A 
BRANCH  17  18
ATOM     18  O   UNL     1       6.879   0.100 -13.796  1.00  0.00    -0.508 OA
ATOM     19  H   UNL     1       5.933   0.407 -13.604  1.00  0.00     0.293 HD
ENDBRANCH  17  18
ENDBRANCH   2  12
BRANCH   8  20
ATOM     20  O   UNL     1      11.383  -5.525  -5.895  1.00  0.00    -0.507 OA
ATOM     21  H   UNL     1      10.824  -6.365  -5.860  1.00  0.00     0.293 HD
ENDBRANCH   8  20
BRANCH   6  22
ATOM     22  O   UNL     1      15.232  -4.059  -8.356  1.00  0.00    -0.508 OA
ATOM     23  H   UNL     1      15.698  -3.833  -9.226  1.00  0.00     0.293 HD
ENDBRANCH   6  22
TORSDOF 4
ENDMDL
MODEL 2
REMARK VINA RESULT:    34.165      5.965     10.535
REMARK INTER + INTRA:          38.848
REMARK INTER:                  39.158
REMARK INTRA:                  -0.309
REMARK UNBOUND:                -0.310
REMARK SMILES O=C1C[C@@H](c2ccc(O)cc2)Oc2cc(O)cc(O)c21
REMARK SMILES IDX 3 1 4 2 12 3 13 4 14 5 15 6 17 7 18 8 20 9 2 10 1 11 5 12
REMARK SMILES IDX 6 13 11 14 7 15 10 16 8 17 9 18 19 20 16 22
REMARK H PARENT 9 19 19 21 16 23
REMARK Flexibility Score: inf
ROOT
ATOM      1  C   UNL     1       8.087   2.720 -16.903  1.00  0.00     0.131 C 
ATOM      2  C   UNL     1       9.013   2.696 -15.679  1.00  0.00     0.211 C 
ATOM      3  O   UNL     1      10.364   2.443 -16.075  1.00  0.00    -0.484 OA
ATOM      4  C   UNL     1      10.929   2.997 -17.232  1.00  0.00     0.138 A 
ATOM      5  C   UNL     1      12.314   2.936 -17.406  1.00  0.00     0.093 A 
ATOM      6  C   UNL     1      12.907   3.493 -18.542  1.00  0.00     0.123 A 
ATOM      7  C   UNL     1      12.109   4.087 -19.520  1.00  0.00     0.093 A 
ATOM      8  C   UNL     1      10.715   4.126 -19.387  1.00  0.00     0.133 A 
ATOM      9  C   UNL     1      10.113   3.603 -18.211  1.00  0.00     0.102 A 
ATOM     10  C   UNL     1       8.656   3.652 -17.931  1.00  0.00     0.174 C 
ATOM     11  O   UNL     1       7.900   4.490 -18.491  1.00  0.00    -0.294 OA
ENDROOT
BRANCH   2  12
ATOM     12  C   UNL     1       8.560   1.651 -14.688  1.00  0.00    -0.007 A 
ATOM     13  C   UNL     1       7.286   1.070 -14.806  1.00  0.00     0.011 A 
ATOM     14  C   UNL     1       9.425   1.206 -13.672  1.00  0.00     0.011 A 
ATOM     15  C   UNL     1       6.875   0.080 -13.908  1.00  0.00     0.046 A 
ATOM     16  C   UNL     1       9.010   0.216 -12.775  1.00  0.00     0.046 A 
ATOM     17  C   UNL     1       7.734  -0.347 -12.890  1.00  0.00     0.115 A 
BRANCH  17  18
ATOM     18  O   UNL     1       7.311  -1.334 -12.002  1.00  0.00    -0.508 OA
ATOM     19  H   UNL     1       7.901  -2.123 -11.767  1.00  0.00     0.293 HD
ENDBRANCH  17  18
ENDBRANCH   2  12
BRANCH   8  20
ATOM     20  O   UNL     1       9.982   4.653 -20.451  1.00  0.00    -0.507 OA
ATOM     21  H   UNL     1       9.857   4.186 -21.338  1.00  0.00     0.293 HD
ENDBRANCH   8  20
BRANCH   6  22
ATOM     22  O   UNL     1      14.289   3.454 -18.712  1.00  0.00    -0.508 OA
ATOM     23  H   UNL     1      14.707   3.332 -19.627  1.00  0.00     0.293 HD
ENDBRANCH   6  22
TORSDOF 4
ENDMDL
