MODEL 1
REMARK VINA RESULT:    12.898      0.000      0.000
REMARK INTER + INTRA:          19.927
REMARK INTER:                  20.438
REMARK INTRA:                  -0.511
REMARK UNBOUND:                -0.511
REMARK SMILES CCCCCCCCCCCC(=O)[O-]
REMARK SMILES IDX 7 1 8 2 9 3 10 4 11 5 12 6 13 7 14 8 6 9 5 10 4 11 3 12 2 13
REMARK SMILES IDX 1 14
REMARK H PARENT
REMARK Flexibility Score: inf
ROOT
ATOM      1  C   UNL     1     -25.190  -3.764 -11.996  1.00  0.00     0.000 C 
ENDROOT
BRANCH   1   2
ATOM      2  C   UNL     1     -24.574  -3.135 -13.259  1.00  0.00     0.000 C 
BRANCH   2   3
ATOM      3  C   UNL     1     -24.826  -3.977 -14.521  1.00  0.00     0.000 C 
BRANCH   3   4
ATOM      4  C   UNL     1     -24.677  -3.164 -15.816  1.00  0.00     0.006 C 
BRANCH   4   5
ATOM      5  C   UNL     1     -25.027  -4.017 -17.039  1.00  0.00     0.053 C 
BRANCH   5   6
ATOM      6  C   UNL     1     -23.784  -4.419 -17.770  1.00  0.00     0.041 C 
ATOM      7  O   UNL     1     -23.683  -5.574 -18.260  1.00  0.00    -0.550 OA
ATOM      8  O   UNL     1     -22.757  -3.502 -17.952  1.00  0.00    -0.550 OA
ENDBRANCH   5   6
ENDBRANCH   4   5
ENDBRANCH   3   4
ENDBRANCH   2   3
ENDBRANCH   1   2
BRANCH   1   9
ATOM      9  C   UNL     1     -26.223  -4.854 -12.324  1.00  0.00     0.000 C 
BRANCH   9  10
ATOM     10  C   UNL     1     -27.441  -4.819 -11.384  1.00  0.00    -0.000 C 
BRANCH  10  11
ATOM     11  C   UNL     1     -27.975  -3.394 -11.163  1.00  0.00    -0.000 C 
BRANCH  11  12
ATOM     12  C   UNL     1     -29.471  -3.374 -10.808  1.00  0.00    -0.000 C 
BRANCH  12  13
ATOM     13  C   UNL     1     -29.966  -4.725 -10.268  1.00  0.00    -0.003 C 
ATOM     14  C   UNL     1     -29.903  -4.810  -8.742  1.00  0.00     0.004 C 
ENDBRANCH  12  13
ENDBRANCH  11  12
ENDBRANCH  10  11
ENDBRANCH   9  10
ENDBRANCH   1   9
TORSDOF 10
ENDMDL
MODEL 2
REMARK VINA RESULT:    13.731      4.129      7.577
REMARK INTER + INTRA:          21.248
REMARK INTER:                  21.581
REMARK INTRA:                  -0.334
REMARK UNBOUND:                -0.511
REMARK SMILES CCCCCCCCCCCC(=O)[O-]
REMARK SMILES IDX 7 1 8 2 9 3 10 4 11 5 12 6 13 7 14 8 6 9 5 10 4 11 3 12 2 13
REMARK SMILES IDX 1 14
REMARK H PARENT
REMARK Flexibility Score: inf
ROOT
ATOM      1  C   UNL     1     -25.389  -3.596 -11.950  1.00  0.00     0.000 C 
ENDROOT
BRANCH   1   2
ATOM      2  C   UNL     1     -26.239  -4.871 -12.090  1.00  0.00     0.000 C 
BRANCH   2   3
ATOM      3  C   UNL     1     -27.576  -4.776 -11.337  1.00  0.00     0.000 C 
BRANCH   3   4
ATOM      4  C   UNL     1     -28.057  -3.327 -11.164  1.00  0.00     0.006 C 
BRANCH   4   5
ATOM      5  C   UNL     1     -29.553  -3.284 -10.838  1.00  0.00     0.053 C 
BRANCH   5   6
ATOM      6  C   UNL     1     -29.944  -4.470 -10.014  1.00  0.00     0.041 C 
ATOM      7  O   UNL     1     -29.477  -4.618  -8.855  1.00  0.00    -0.550 OA
ATOM      8  O   UNL     1     -30.863  -5.387 -10.508  1.00  0.00    -0.550 OA
ENDBRANCH   5   6
ENDBRANCH   4   5
ENDBRANCH   3   4
ENDBRANCH   2   3
ENDBRANCH   1   2
BRANCH   1   9
ATOM      9  C   UNL     1     -24.535  -3.317 -13.197  1.00  0.00     0.000 C 
BRANCH   9  10
ATOM     10  C   UNL     1     -25.047  -4.059 -14.445  1.00  0.00    -0.000 C 
BRANCH  10  11
ATOM     11  C   UNL     1     -24.717  -3.316 -15.749  1.00  0.00    -0.000 C 
BRANCH  11  12
ATOM     12  C   UNL     1     -25.110  -4.119 -17.001  1.00  0.00    -0.000 C 
BRANCH  12  13
ATOM     13  C   UNL     1     -23.894  -4.734 -17.711  1.00  0.00    -0.003 C 
ATOM     14  C   UNL     1     -22.763  -3.728 -17.924  1.00  0.00     0.004 C 
ENDBRANCH  12  13
ENDBRANCH  11  12
ENDBRANCH  10  11
ENDBRANCH   9  10
ENDBRANCH   1   9
TORSDOF 10
ENDMDL
MODEL 3
REMARK VINA RESULT:    13.882     14.538     16.550
REMARK INTER + INTRA:          21.486
REMARK INTER:                  22.222
REMARK INTRA:                  -0.736
REMARK UNBOUND:                -0.511
REMARK SMILES CCCCCCCCCCCC(=O)[O-]
REMARK SMILES IDX 7 1 8 2 9 3 10 4 11 5 12 6 13 7 14 8 6 9 5 10 4 11 3 12 2 13
REMARK SMILES IDX 1 14
REMARK H PARENT
REMARK Flexibility Score: inf
ROOT
ATOM      1  C   UNL     1     -13.985  -8.707 -23.213  1.00  0.00     0.000 C 
ENDROOT
BRANCH   1   2
ATOM      2  C   UNL     1     -13.134  -8.065 -22.102  1.00  0.00     0.000 C 
BRANCH   2   3
ATOM      3  C   UNL     1     -12.099  -9.039 -21.515  1.00  0.00     0.000 C 
BRANCH   3   4
ATOM      4  C   UNL     1     -11.710  -8.690 -20.070  1.00  0.00     0.006 C 
BRANCH   4   5
ATOM      5  C   UNL     1     -12.760  -7.780 -19.426  1.00  0.00     0.053 C 
BRANCH   5   6
ATOM      6  C   UNL     1     -13.372  -8.448 -18.236  1.00  0.00     0.041 C 
ATOM      7  O   UNL     1     -12.843  -9.480 -17.746  1.00  0.00    -0.550 OA
ATOM      8  O   UNL     1     -14.502  -7.904 -17.637  1.00  0.00    -0.550 OA
ENDBRANCH   5   6
ENDBRANCH   4   5
ENDBRANCH   3   4
ENDBRANCH   2   3
ENDBRANCH   1   2
BRANCH   1   9
ATOM      9  C   UNL     1     -15.482  -8.392 -23.065  1.00  0.00     0.000 C 
BRANCH   9  10
ATOM     10  C   UNL     1     -15.935  -7.227 -23.964  1.00  0.00    -0.000 C 
BRANCH  10  11
ATOM     11  C   UNL     1     -14.823  -6.743 -24.908  1.00  0.00    -0.000 C 
BRANCH  11  12
ATOM     12  C   UNL     1     -14.854  -5.220 -25.123  1.00  0.00    -0.000 C 
BRANCH  12  13
ATOM     13  C   UNL     1     -13.450  -4.597 -25.124  1.00  0.00    -0.003 C 
ATOM     14  C   UNL     1     -12.627  -4.992 -23.897  1.00  0.00     0.004 C 
ENDBRANCH  12  13
ENDBRANCH  11  12
ENDBRANCH  10  11
ENDBRANCH   9  10
ENDBRANCH   1   9
TORSDOF 10
ENDMDL
MODEL 4
REMARK VINA RESULT:    14.063      2.234      2.931
REMARK INTER + INTRA:          21.773
REMARK INTER:                  22.382
REMARK INTRA:                  -0.609
REMARK UNBOUND:                -0.511
REMARK SMILES CCCCCCCCCCCC(=O)[O-]
REMARK SMILES IDX 7 1 8 2 9 3 10 4 11 5 12 6 13 7 14 8 6 9 5 10 4 11 3 12 2 13
REMARK SMILES IDX 1 14
REMARK H PARENT
REMARK Flexibility Score: inf
ROOT
ATOM      1  C   UNL     1     -25.122  -4.053 -14.031  1.00  0.00     0.000 C 
ENDROOT
BRANCH   1   2
ATOM      2  C   UNL     1     -24.714  -2.883 -14.944  1.00  0.00     0.000 C 
BRANCH   2   3
ATOM      3  C   UNL     1     -25.109  -3.114 -16.411  1.00  0.00     0.000 C 
BRANCH   3   4
ATOM      4  C   UNL     1     -25.564  -4.556 -16.684  1.00  0.00     0.006 C 
BRANCH   4   5
ATOM      5  C   UNL     1     -26.788  -4.578 -17.604  1.00  0.00     0.053 C 
BRANCH   5   6
ATOM      6  C   UNL     1     -27.897  -5.365 -16.981  1.00  0.00     0.041 C 
ATOM      7  O   UNL     1     -27.748  -5.877 -15.842  1.00  0.00    -0.550 OA
ATOM      8  O   UNL     1     -29.114  -5.491 -17.639  1.00  0.00    -0.550 OA
ENDBRANCH   5   6
ENDBRANCH   4   5
ENDBRANCH   3   4
ENDBRANCH   2   3
ENDBRANCH   1   2
BRANCH   1   9
ATOM      9  C   UNL     1     -25.218  -3.642 -12.553  1.00  0.00     0.000 C 
BRANCH   9  10
ATOM     10  C   UNL     1     -25.715  -4.785 -11.649  1.00  0.00    -0.000 C 
BRANCH  10  11
ATOM     11  C   UNL     1     -27.240  -4.766 -11.461  1.00  0.00    -0.000 C 
BRANCH  11  12
ATOM     12  C   UNL     1     -27.795  -3.342 -11.286  1.00  0.00    -0.000 C 
BRANCH  12  13
ATOM     13  C   UNL     1     -29.290  -3.333 -10.933  1.00  0.00    -0.003 C 
ATOM     14  C   UNL     1     -29.730  -4.596 -10.193  1.00  0.00     0.004 C 
ENDBRANCH  12  13
ENDBRANCH  11  12
ENDBRANCH  10  11
ENDBRANCH   9  10
ENDBRANCH   1   9
TORSDOF 10
ENDMDL
MODEL 5
REMARK VINA RESULT:    14.389     14.139     16.343
REMARK INTER + INTRA:          22.290
REMARK INTER:                  22.883
REMARK INTRA:                  -0.593
REMARK UNBOUND:                -0.511
REMARK SMILES CCCCCCCCCCCC(=O)[O-]
REMARK SMILES IDX 7 1 8 2 9 3 10 4 11 5 12 6 13 7 14 8 6 9 5 10 4 11 3 12 2 13
REMARK SMILES IDX 1 14
REMARK H PARENT
REMARK Flexibility Score: inf
ROOT
ATOM      1  C   UNL     1     -14.714  -8.648 -23.608  1.00  0.00     0.000 C 
ENDROOT
BRANCH   1   2
ATOM      2  C   UNL     1     -13.930  -9.933 -23.287  1.00  0.00     0.000 C 
BRANCH   2   3
ATOM      3  C   UNL     1     -13.975 -10.954 -24.435  1.00  0.00     0.000 C 
BRANCH   3   4
ATOM      4  C   UNL     1     -14.364 -12.363 -23.962  1.00  0.00     0.006 C 
BRANCH   4   5
ATOM      5  C   UNL     1     -15.122 -12.303 -22.632  1.00  0.00     0.053 C 
BRANCH   5   6
ATOM      6  C   UNL     1     -16.161 -13.378 -22.573  1.00  0.00     0.041 C 
ATOM      7  O   UNL     1     -16.744 -13.755 -23.622  1.00  0.00    -0.550 OA
ATOM      8  O   UNL     1     -16.450 -13.999 -21.364  1.00  0.00    -0.550 OA
ENDBRANCH   5   6
ENDBRANCH   4   5
ENDBRANCH   3   4
ENDBRANCH   2   3
ENDBRANCH   1   2
BRANCH   1   9
ATOM      9  C   UNL     1     -14.262  -7.453 -22.753  1.00  0.00     0.000 C 
BRANCH   9  10
ATOM     10  C   UNL     1     -13.002  -7.759 -21.924  1.00  0.00    -0.000 C 
BRANCH  10  11
ATOM     11  C   UNL     1     -13.244  -7.623 -20.412  1.00  0.00    -0.000 C 
BRANCH  11  12
ATOM     12  C   UNL     1     -12.301  -8.511 -19.582  1.00  0.00    -0.000 C 
BRANCH  12  13
ATOM     13  C   UNL     1     -12.658  -8.512 -18.088  1.00  0.00    -0.003 C 
ATOM     14  C   UNL     1     -14.071  -7.996 -17.818  1.00  0.00     0.004 C 
ENDBRANCH  12  13
ENDBRANCH  11  12
ENDBRANCH  10  11
ENDBRANCH   9  10
ENDBRANCH   1   9
TORSDOF 10
ENDMDL
MODEL 6
REMARK VINA RESULT:    14.442     15.041     16.697
REMARK INTER + INTRA:          22.373
REMARK INTER:                  22.795
REMARK INTRA:                  -0.421
REMARK UNBOUND:                -0.511
REMARK SMILES CCCCCCCCCCCC(=O)[O-]
REMARK SMILES IDX 7 1 8 2 9 3 10 4 11 5 12 6 13 7 14 8 6 9 5 10 4 11 3 12 2 13
REMARK SMILES IDX 1 14
REMARK H PARENT
REMARK Flexibility Score: inf
ROOT
ATOM      1  C   UNL     1     -16.529 -13.734 -22.615  1.00  0.00     0.000 C 
ENDROOT
BRANCH   1   2
ATOM      2  C   UNL     1     -17.221 -13.663 -23.988  1.00  0.00     0.000 C 
BRANCH   2   3
ATOM      3  C   UNL     1     -18.542 -12.877 -23.944  1.00  0.00     0.000 C 
BRANCH   3   4
ATOM      4  C   UNL     1     -19.580 -13.405 -24.947  1.00  0.00     0.006 C 
BRANCH   4   5
ATOM      5  C   UNL     1     -20.978 -12.875 -24.615  1.00  0.00     0.053 C 
BRANCH   5   6
ATOM      6  C   UNL     1     -21.704 -13.833 -23.725  1.00  0.00     0.041 C 
ATOM      7  O   UNL     1     -22.253 -14.857 -24.210  1.00  0.00    -0.550 OA
ATOM      8  O   UNL     1     -21.735 -13.621 -22.352  1.00  0.00    -0.550 OA
ENDBRANCH   5   6
ENDBRANCH   4   5
ENDBRANCH   3   4
ENDBRANCH   2   3
ENDBRANCH   1   2
BRANCH   1   9
ATOM      9  C   UNL     1     -15.574 -12.554 -22.375  1.00  0.00     0.000 C 
BRANCH   9  10
ATOM     10  C   UNL     1     -14.601 -12.329 -23.546  1.00  0.00    -0.000 C 
BRANCH  10  11
ATOM     11  C   UNL     1     -13.671 -11.127 -23.318  1.00  0.00    -0.000 C 
BRANCH  11  12
ATOM     12  C   UNL     1     -14.183  -9.848 -24.002  1.00  0.00    -0.000 C 
BRANCH  12  13
ATOM     13  C   UNL     1     -14.202  -8.640 -23.053  1.00  0.00    -0.003 C 
ATOM     14  C   UNL     1     -14.890  -7.419 -23.664  1.00  0.00     0.004 C 
ENDBRANCH  12  13
ENDBRANCH  11  12
ENDBRANCH  10  11
ENDBRANCH   9  10
ENDBRANCH   1   9
TORSDOF 10
ENDMDL
MODEL 7
REMARK VINA RESULT:    14.770     15.035     16.109
REMARK INTER + INTRA:          22.893
REMARK INTER:                  23.305
REMARK INTRA:                  -0.412
REMARK UNBOUND:                -0.511
REMARK SMILES CCCCCCCCCCCC(=O)[O-]
REMARK SMILES IDX 7 1 8 2 9 3 10 4 11 5 12 6 13 7 14 8 6 9 5 10 4 11 3 12 2 13
REMARK SMILES IDX 1 14
REMARK H PARENT
REMARK Flexibility Score: inf
ROOT
ATOM      1  C   UNL     1     -15.889 -12.720 -22.462  1.00  0.00     0.000 C 
ENDROOT
BRANCH   1   2
ATOM      2  C   UNL     1     -14.769 -12.486 -23.491  1.00  0.00     0.000 C 
BRANCH   2   3
ATOM      3  C   UNL     1     -13.880 -11.284 -23.133  1.00  0.00     0.000 C 
BRANCH   3   4
ATOM      4  C   UNL     1     -14.139 -10.065 -24.031  1.00  0.00     0.006 C 
BRANCH   4   5
ATOM      5  C   UNL     1     -13.996  -8.762 -23.239  1.00  0.00     0.053 C 
BRANCH   5   6
ATOM      6  C   UNL     1     -15.130  -7.835 -23.547  1.00  0.00     0.041 C 
ATOM      7  O   UNL     1     -16.167  -7.844 -22.835  1.00  0.00    -0.550 OA
ATOM      8  O   UNL     1     -15.020  -6.926 -24.592  1.00  0.00    -0.550 OA
ENDBRANCH   5   6
ENDBRANCH   4   5
ENDBRANCH   3   4
ENDBRANCH   2   3
ENDBRANCH   1   2
BRANCH   1   9
ATOM      9  C   UNL     1     -16.890 -13.795 -22.915  1.00  0.00     0.000 C 
BRANCH   9  10
ATOM     10  C   UNL     1     -17.464 -13.519 -24.316  1.00  0.00    -0.000 C 
BRANCH  10  11
ATOM     11  C   UNL     1     -18.780 -12.726 -24.268  1.00  0.00    -0.000 C 
BRANCH  11  12
ATOM     12  C   UNL     1     -19.948 -13.481 -24.928  1.00  0.00    -0.000 C 
BRANCH  12  13
ATOM     13  C   UNL     1     -21.264 -13.322 -24.152  1.00  0.00    -0.003 C 
ATOM     14  C   UNL     1     -22.122 -14.587 -24.180  1.00  0.00     0.004 C 
ENDBRANCH  12  13
ENDBRANCH  11  12
ENDBRANCH  10  11
ENDBRANCH   9  10
ENDBRANCH   1   9
TORSDOF 10
ENDMDL
MODEL 8
REMARK VINA RESULT:    14.976     14.091     15.923
REMARK INTER + INTRA:          23.220
REMARK INTER:                  23.634
REMARK INTRA:                  -0.414
REMARK UNBOUND:                -0.511
REMARK SMILES CCCCCCCCCCCC(=O)[O-]
REMARK SMILES IDX 7 1 8 2 9 3 10 4 11 5 12 6 13 7 14 8 6 9 5 10 4 11 3 12 2 13
REMARK SMILES IDX 1 14
REMARK H PARENT
REMARK Flexibility Score: inf
ROOT
ATOM      1  C   UNL     1     -17.185 -13.747 -23.730  1.00  0.00     0.000 C 
ENDROOT
BRANCH   1   2
ATOM      2  C   UNL     1     -16.097 -13.193 -22.794  1.00  0.00     0.000 C 
BRANCH   2   3
ATOM      3  C   UNL     1     -14.916 -12.576 -23.561  1.00  0.00     0.000 C 
BRANCH   3   4
ATOM      4  C   UNL     1     -14.327 -11.346 -22.853  1.00  0.00     0.006 C 
BRANCH   4   5
ATOM      5  C   UNL     1     -13.951 -10.260 -23.866  1.00  0.00     0.053 C 
BRANCH   5   6
ATOM      6  C   UNL     1     -14.013  -8.907 -23.230  1.00  0.00     0.041 C 
ATOM      7  O   UNL     1     -13.147  -8.564 -22.384  1.00  0.00    -0.550 OA
ATOM      8  O   UNL     1     -15.001  -8.006 -23.608  1.00  0.00    -0.550 OA
ENDBRANCH   5   6
ENDBRANCH   4   5
ENDBRANCH   3   4
ENDBRANCH   2   3
ENDBRANCH   1   2
BRANCH   1   9
ATOM      9  C   UNL     1     -18.306 -12.730 -23.998  1.00  0.00     0.000 C 
BRANCH   9  10
ATOM     10  C   UNL     1     -19.444 -13.312 -24.855  1.00  0.00    -0.000 C 
BRANCH  10  11
ATOM     11  C   UNL     1     -20.836 -12.941 -24.318  1.00  0.00    -0.000 C 
BRANCH  11  12
ATOM     12  C   UNL     1     -21.860 -14.074 -24.503  1.00  0.00    -0.000 C 
BRANCH  12  13
ATOM     13  C   UNL     1     -22.177 -14.800 -23.187  1.00  0.00    -0.003 C 
ATOM     14  C   UNL     1     -21.952 -13.920 -21.957  1.00  0.00     0.004 C 
ENDBRANCH  12  13
ENDBRANCH  11  12
ENDBRANCH  10  11
ENDBRANCH   9  10
ENDBRANCH   1   9
TORSDOF 10
ENDMDL
