MODEL 1
REMARK VINA RESULT:    -6.777      0.000      0.000
REMARK INTER + INTRA:          -8.240
REMARK INTER:                  -7.966
REMARK INTRA:                  -0.274
REMARK UNBOUND:                -0.274
REMARK SMILES O=c1cc(-c2ccc(O)c(O)c2)oc2cc(O)cc(O)c12
REMARK SMILES IDX 4 1 3 2 2 3 1 4 21 5 19 6 18 7 16 8 15 9 14 10 13 11 5 12
REMARK SMILES IDX 6 13 7 14 8 15 12 16 10 17 9 18 11 20 20 22 17 24
REMARK H PARENT 9 19 11 21 20 23 17 25
REMARK Flexibility Score: inf
ROOT
ATOM      1  C   UNL     1      21.807  47.323  -6.630  1.00  0.00     0.138 A 
ATOM      2  C   UNL     1      21.204  46.059  -6.687  1.00  0.00     0.100 A 
ATOM      3  C   UNL     1      20.740  45.461  -5.515  1.00  0.00     0.197 A 
ATOM      4  O   UNL     1      20.260  44.300  -5.590  1.00  0.00    -0.289 OA
ATOM      5  C   UNL     1      20.855  46.148  -4.283  1.00  0.00     0.107 A 
ATOM      6  C   UNL     1      20.381  45.653  -3.030  1.00  0.00     0.134 A 
ATOM      7  C   UNL     1      20.654  46.368  -1.859  1.00  0.00     0.093 A 
ATOM      8  C   UNL     1      21.330  47.588  -1.899  1.00  0.00     0.123 A 
ATOM      9  C   UNL     1      21.749  48.107  -3.125  1.00  0.00     0.094 A 
ATOM     10  C   UNL     1      21.522  47.401  -4.307  1.00  0.00     0.146 A 
ATOM     11  O   UNL     1      21.952  47.922  -5.452  1.00  0.00    -0.456 OA
ENDROOT
BRANCH   1  12
ATOM     12  C   UNL     1      22.316  48.005  -7.846  1.00  0.00     0.021 A 
ATOM     13  C   UNL     1      23.625  48.517  -7.855  1.00  0.00     0.016 A 
ATOM     14  C   UNL     1      24.125  49.170  -8.984  1.00  0.00     0.051 A 
ATOM     15  C   UNL     1      23.323  49.331 -10.121  1.00  0.00     0.157 A 
ATOM     16  C   UNL     1      21.510  48.182  -8.988  1.00  0.00     0.062 A 
ATOM     17  C   UNL     1      22.012  48.839 -10.121  1.00  0.00     0.158 A 
BRANCH  15  18
ATOM     18  O   UNL     1      23.818  49.980 -11.249  1.00  0.00    -0.504 OA
ATOM     19  H   UNL     1      23.257  50.645 -11.767  1.00  0.00     0.293 HD
ENDBRANCH  15  18
BRANCH  17  20
ATOM     20  O   UNL     1      21.212  49.011 -11.249  1.00  0.00    -0.504 OA
ATOM     21  H   UNL     1      20.254  49.331 -11.176  1.00  0.00     0.293 HD
ENDBRANCH  17  20
ENDBRANCH   1  12
BRANCH   6  22
ATOM     22  O   UNL     1      19.622  44.487  -2.888  1.00  0.00    -0.507 OA
ATOM     23  H   UNL     1      19.545  43.761  -3.582  1.00  0.00     0.293 HD
ENDBRANCH   6  22
BRANCH   8  24
ATOM     24  O   UNL     1      21.570  48.280  -0.715  1.00  0.00    -0.508 OA
ATOM     25  H   UNL     1      22.416  48.131  -0.175  1.00  0.00     0.293 HD
ENDBRANCH   8  24
TORSDOF 5
ENDMDL
MODEL 2
REMARK VINA RESULT:    -6.485      2.078      3.294
REMARK INTER + INTRA:          -7.897
REMARK INTER:                  -7.603
REMARK INTRA:                  -0.293
REMARK UNBOUND:                -0.274
REMARK SMILES O=c1cc(-c2ccc(O)c(O)c2)oc2cc(O)cc(O)c12
REMARK SMILES IDX 4 1 3 2 2 3 1 4 21 5 19 6 18 7 16 8 15 9 14 10 13 11 5 12
REMARK SMILES IDX 6 13 7 14 8 15 12 16 10 17 9 18 11 20 20 22 17 24
REMARK H PARENT 9 19 11 21 20 23 17 25
REMARK Flexibility Score: inf
ROOT
ATOM      1  C   UNL     1      21.383  46.392  -3.898  1.00  0.00     0.138 A 
ATOM      2  C   UNL     1      20.768  45.264  -3.339  1.00  0.00     0.100 A 
ATOM      3  C   UNL     1      20.487  45.237  -1.973  1.00  0.00     0.197 A 
ATOM      4  O   UNL     1      19.992  44.186  -1.489  1.00  0.00    -0.289 OA
ATOM      5  C   UNL     1      20.796  46.360  -1.169  1.00  0.00     0.107 A 
ATOM      6  C   UNL     1      20.518  46.461   0.227  1.00  0.00     0.134 A 
ATOM      7  C   UNL     1      20.975  47.574   0.943  1.00  0.00     0.093 A 
ATOM      8  C   UNL     1      21.646  48.616   0.304  1.00  0.00     0.123 A 
ATOM      9  C   UNL     1      21.875  48.553  -1.072  1.00  0.00     0.094 A 
ATOM     10  C   UNL     1      21.462  47.440  -1.807  1.00  0.00     0.146 A 
ATOM     11  O   UNL     1      21.713  47.411  -3.111  1.00  0.00    -0.456 OA
ENDROOT
BRANCH   1  12
ATOM     12  C   UNL     1      21.703  46.474  -5.346  1.00  0.00     0.021 A 
ATOM     13  C   UNL     1      22.637  47.424  -5.795  1.00  0.00     0.016 A 
ATOM     14  C   UNL     1      22.951  47.526  -7.152  1.00  0.00     0.051 A 
ATOM     15  C   UNL     1      22.328  46.689  -8.086  1.00  0.00     0.157 A 
ATOM     16  C   UNL     1      21.072  45.644  -6.293  1.00  0.00     0.062 A 
ATOM     17  C   UNL     1      21.384  45.748  -7.655  1.00  0.00     0.158 A 
BRANCH  15  18
ATOM     18  O   UNL     1      22.639  46.787  -9.441  1.00  0.00    -0.504 OA
ATOM     19  H   UNL     1      22.557  47.665  -9.941  1.00  0.00     0.293 HD
ENDBRANCH  15  18
BRANCH  17  20
ATOM     20  O   UNL     1      20.759  44.924  -8.589  1.00  0.00    -0.504 OA
ATOM     21  H   UNL     1      19.757  44.769  -8.572  1.00  0.00     0.293 HD
ENDBRANCH  17  20
ENDBRANCH   1  12
BRANCH   6  22
ATOM     22  O   UNL     1      19.781  45.515   0.947  1.00  0.00    -0.507 OA
ATOM     23  H   UNL     1      20.040  44.548   1.061  1.00  0.00     0.293 HD
ENDBRANCH   6  22
BRANCH   8  24
ATOM     24  O   UNL     1      22.073  49.716   1.045  1.00  0.00    -0.508 OA
ATOM     25  H   UNL     1      22.429  50.552   0.596  1.00  0.00     0.293 HD
ENDBRANCH   8  24
TORSDOF 5
ENDMDL
MODEL 3
REMARK VINA RESULT:    -6.388      1.590      6.763
REMARK INTER + INTRA:          -7.783
REMARK INTER:                  -7.489
REMARK INTRA:                  -0.294
REMARK UNBOUND:                -0.274
REMARK SMILES O=c1cc(-c2ccc(O)c(O)c2)oc2cc(O)cc(O)c12
REMARK SMILES IDX 4 1 3 2 2 3 1 4 21 5 19 6 18 7 16 8 15 9 14 10 13 11 5 12
REMARK SMILES IDX 6 13 7 14 8 15 12 16 10 17 9 18 11 20 20 22 17 24
REMARK H PARENT 9 19 11 21 20 23 17 25
REMARK Flexibility Score: inf
ROOT
ATOM      1  C   UNL     1      21.434  47.030  -4.149  1.00  0.00     0.138 A 
ATOM      2  C   UNL     1      20.582  45.957  -4.447  1.00  0.00     0.100 A 
ATOM      3  C   UNL     1      20.497  45.486  -5.757  1.00  0.00     0.197 A 
ATOM      4  O   UNL     1      19.678  44.564  -6.005  1.00  0.00    -0.289 OA
ATOM      5  C   UNL     1      21.293  46.074  -6.769  1.00  0.00     0.107 A 
ATOM      6  C   UNL     1      21.319  45.650  -8.132  1.00  0.00     0.134 A 
ATOM      7  C   UNL     1      22.058  46.382  -9.068  1.00  0.00     0.093 A 
ATOM      8  C   UNL     1      22.820  47.486  -8.682  1.00  0.00     0.123 A 
ATOM      9  C   UNL     1      22.845  47.876  -7.342  1.00  0.00     0.094 A 
ATOM     10  C   UNL     1      22.091  47.187  -6.391  1.00  0.00     0.146 A 
ATOM     11  O   UNL     1      22.129  47.600  -5.128  1.00  0.00    -0.456 OA
ENDROOT
BRANCH   1  12
ATOM     12  C   UNL     1      21.564  47.568  -2.772  1.00  0.00     0.021 A 
ATOM     13  C   UNL     1      22.653  48.398  -2.454  1.00  0.00     0.016 A 
ATOM     14  C   UNL     1      22.803  48.911  -1.164  1.00  0.00     0.051 A 
ATOM     15  C   UNL     1      21.873  48.598  -0.166  1.00  0.00     0.157 A 
ATOM     16  C   UNL     1      20.639  47.246  -1.760  1.00  0.00     0.062 A 
ATOM     17  C   UNL     1      20.790  47.760  -0.464  1.00  0.00     0.158 A 
BRANCH  15  18
ATOM     18  O   UNL     1      22.018  49.109   1.122  1.00  0.00    -0.504 OA
ATOM     19  H   UNL     1      22.611  49.908   1.311  1.00  0.00     0.293 HD
ENDBRANCH  15  18
BRANCH  17  20
ATOM     20  O   UNL     1      19.872  47.441   0.534  1.00  0.00    -0.504 OA
ATOM     21  H   UNL     1      20.169  47.238   1.482  1.00  0.00     0.293 HD
ENDBRANCH  17  20
ENDBRANCH   1  12
BRANCH   6  22
ATOM     22  O   UNL     1      20.661  44.512  -8.608  1.00  0.00    -0.507 OA
ATOM     23  H   UNL     1      20.463  43.689  -8.061  1.00  0.00     0.293 HD
ENDBRANCH   6  22
BRANCH   8  24
ATOM     24  O   UNL     1      23.555  48.181  -9.638  1.00  0.00    -0.508 OA
ATOM     25  H   UNL     1      23.270  49.098  -9.964  1.00  0.00     0.293 HD
ENDBRANCH   8  24
TORSDOF 5
ENDMDL
MODEL 4
REMARK VINA RESULT:    -6.354      2.058      3.938
REMARK INTER + INTRA:          -7.742
REMARK INTER:                  -7.434
REMARK INTRA:                  -0.308
REMARK UNBOUND:                -0.274
REMARK SMILES O=c1cc(-c2ccc(O)c(O)c2)oc2cc(O)cc(O)c12
REMARK SMILES IDX 4 1 3 2 2 3 1 4 21 5 19 6 18 7 16 8 15 9 14 10 13 11 5 12
REMARK SMILES IDX 6 13 7 14 8 15 12 16 10 17 9 18 11 20 20 22 17 24
REMARK H PARENT 9 19 11 21 20 23 17 25
REMARK Flexibility Score: inf
ROOT
ATOM      1  C   UNL     1      21.480  46.911  -4.026  1.00  0.00     0.138 A 
ATOM      2  C   UNL     1      21.589  48.146  -3.372  1.00  0.00     0.100 A 
ATOM      3  C   UNL     1      21.318  48.228  -2.006  1.00  0.00     0.197 A 
ATOM      4  O   UNL     1      21.363  49.361  -1.460  1.00  0.00    -0.289 OA
ATOM      5  C   UNL     1      20.965  47.062  -1.287  1.00  0.00     0.107 A 
ATOM      6  C   UNL     1      20.705  47.020   0.116  1.00  0.00     0.134 A 
ATOM      7  C   UNL     1      20.251  45.831   0.698  1.00  0.00     0.093 A 
ATOM      8  C   UNL     1      20.104  44.668  -0.058  1.00  0.00     0.123 A 
ATOM      9  C   UNL     1      20.408  44.684  -1.420  1.00  0.00     0.094 A 
ATOM     10  C   UNL     1      20.830  45.863  -2.037  1.00  0.00     0.146 A 
ATOM     11  O   UNL     1      21.094  45.841  -3.339  1.00  0.00    -0.456 OA
ENDROOT
BRANCH   1  12
ATOM     12  C   UNL     1      21.759  46.766  -5.477  1.00  0.00     0.021 A 
ATOM     13  C   UNL     1      22.640  47.664  -6.105  1.00  0.00     0.016 A 
ATOM     14  C   UNL     1      22.914  47.554  -7.471  1.00  0.00     0.051 A 
ATOM     15  C   UNL     1      22.305  46.552  -8.235  1.00  0.00     0.157 A 
ATOM     16  C   UNL     1      21.140  45.768  -6.255  1.00  0.00     0.062 A 
ATOM     17  C   UNL     1      21.414  45.659  -7.626  1.00  0.00     0.158 A 
BRANCH  15  18
ATOM     18  O   UNL     1      22.576  46.438  -9.597  1.00  0.00    -0.504 OA
ATOM     19  H   UNL     1      21.833  46.431 -10.286  1.00  0.00     0.293 HD
ENDBRANCH  15  18
BRANCH  17  20
ATOM     20  O   UNL     1      20.801  44.669  -8.392  1.00  0.00    -0.504 OA
ATOM     21  H   UNL     1      20.060  44.889  -9.047  1.00  0.00     0.293 HD
ENDBRANCH  17  20
ENDBRANCH   1  12
BRANCH   6  22
ATOM     22  O   UNL     1      20.901  48.103   0.980  1.00  0.00    -0.507 OA
ATOM     23  H   UNL     1      21.104  48.026   1.964  1.00  0.00     0.293 HD
ENDBRANCH   6  22
BRANCH   8  24
ATOM     24  O   UNL     1      19.665  43.499   0.558  1.00  0.00    -0.508 OA
ATOM     25  H   UNL     1      18.728  43.418   0.938  1.00  0.00     0.293 HD
ENDBRANCH   8  24
TORSDOF 5
ENDMDL
MODEL 5
REMARK VINA RESULT:    -5.976      1.842      7.063
REMARK INTER + INTRA:          -7.298
REMARK INTER:                  -6.995
REMARK INTRA:                  -0.303
REMARK UNBOUND:                -0.274
REMARK SMILES O=c1cc(-c2ccc(O)c(O)c2)oc2cc(O)cc(O)c12
REMARK SMILES IDX 4 1 3 2 2 3 1 4 21 5 19 6 18 7 16 8 15 9 14 10 13 11 5 12
REMARK SMILES IDX 6 13 7 14 8 15 12 16 10 17 9 18 11 20 20 22 17 24
REMARK H PARENT 9 19 11 21 20 23 17 25
REMARK Flexibility Score: inf
ROOT
ATOM      1  C   UNL     1      21.185  45.910  -4.517  1.00  0.00     0.138 A 
ATOM      2  C   UNL     1      20.681  45.010  -5.467  1.00  0.00     0.100 A 
ATOM      3  C   UNL     1      20.989  45.187  -6.815  1.00  0.00     0.197 A 
ATOM      4  O   UNL     1      20.471  44.400  -7.650  1.00  0.00    -0.289 OA
ATOM      5  C   UNL     1      21.831  46.253  -7.211  1.00  0.00     0.107 A 
ATOM      6  C   UNL     1      22.244  46.507  -8.554  1.00  0.00     0.134 A 
ATOM      7  C   UNL     1      22.984  47.659  -8.842  1.00  0.00     0.093 A 
ATOM      8  C   UNL     1      23.376  48.536  -7.830  1.00  0.00     0.123 A 
ATOM      9  C   UNL     1      23.023  48.268  -6.506  1.00  0.00     0.094 A 
ATOM     10  C   UNL     1      22.257  47.145  -6.192  1.00  0.00     0.146 A 
ATOM     11  O   UNL     1      21.928  46.935  -4.921  1.00  0.00    -0.456 OA
ENDROOT
BRANCH   1  12
ATOM     12  C   UNL     1      20.890  45.767  -3.069  1.00  0.00     0.021 A 
ATOM     13  C   UNL     1      20.732  44.483  -2.519  1.00  0.00     0.016 A 
ATOM     14  C   UNL     1      20.447  44.322  -1.161  1.00  0.00     0.051 A 
ATOM     15  C   UNL     1      20.305  45.441  -0.331  1.00  0.00     0.157 A 
ATOM     16  C   UNL     1      20.733  46.889  -2.231  1.00  0.00     0.062 A 
ATOM     17  C   UNL     1      20.445  46.727  -0.868  1.00  0.00     0.158 A 
BRANCH  15  18
ATOM     18  O   UNL     1      20.022  45.284   1.024  1.00  0.00    -0.504 OA
ATOM     19  H   UNL     1      20.634  45.657   1.740  1.00  0.00     0.293 HD
ENDBRANCH  15  18
BRANCH  17  20
ATOM     20  O   UNL     1      20.291  47.838  -0.042  1.00  0.00    -0.504 OA
ATOM     21  H   UNL     1      21.082  48.415   0.223  1.00  0.00     0.293 HD
ENDBRANCH  17  20
ENDBRANCH   1  12
BRANCH   6  22
ATOM     22  O   UNL     1      21.978  45.651  -9.628  1.00  0.00    -0.507 OA
ATOM     23  H   UNL     1      21.385  45.875 -10.411  1.00  0.00     0.293 HD
ENDBRANCH   6  22
BRANCH   8  24
ATOM     24  O   UNL     1      24.124  49.666  -8.151  1.00  0.00    -0.508 OA
ATOM     25  H   UNL     1      23.950  50.195  -8.998  1.00  0.00     0.293 HD
ENDBRANCH   8  24
TORSDOF 5
ENDMDL
MODEL 6
REMARK VINA RESULT:    -4.868      2.180      7.538
REMARK INTER + INTRA:          -5.996
REMARK INTER:                  -5.709
REMARK INTRA:                  -0.287
REMARK UNBOUND:                -0.274
REMARK SMILES O=c1cc(-c2ccc(O)c(O)c2)oc2cc(O)cc(O)c12
REMARK SMILES IDX 4 1 3 2 2 3 1 4 21 5 19 6 18 7 16 8 15 9 14 10 13 11 5 12
REMARK SMILES IDX 6 13 7 14 8 15 12 16 10 17 9 18 11 20 20 22 17 24
REMARK H PARENT 9 19 11 21 20 23 17 25
REMARK Flexibility Score: inf
ROOT
ATOM      1  C   UNL     1      20.891  46.588  -3.835  1.00  0.00     0.138 A 
ATOM      2  C   UNL     1      20.180  47.756  -4.145  1.00  0.00     0.100 A 
ATOM      3  C   UNL     1      20.364  48.367  -5.385  1.00  0.00     0.197 A 
ATOM      4  O   UNL     1      19.759  49.448  -5.610  1.00  0.00    -0.289 OA
ATOM      5  C   UNL     1      21.243  47.788  -6.331  1.00  0.00     0.107 A 
ATOM      6  C   UNL     1      21.479  48.302  -7.642  1.00  0.00     0.134 A 
ATOM      7  C   UNL     1      22.458  47.711  -8.449  1.00  0.00     0.093 A 
ATOM      8  C   UNL     1      23.167  46.590  -8.018  1.00  0.00     0.123 A 
ATOM      9  C   UNL     1      22.906  46.046  -6.759  1.00  0.00     0.094 A 
ATOM     10  C   UNL     1      21.960  46.634  -5.917  1.00  0.00     0.146 A 
ATOM     11  O   UNL     1      21.752  46.096  -4.721  1.00  0.00    -0.456 OA
ENDROOT
BRANCH   1  12
ATOM     12  C   UNL     1      20.732  45.896  -2.532  1.00  0.00     0.021 A 
ATOM     13  C   UNL     1      20.913  44.504  -2.461  1.00  0.00     0.016 A 
ATOM     14  C   UNL     1      20.762  43.827  -1.249  1.00  0.00     0.051 A 
ATOM     15  C   UNL     1      20.416  44.528  -0.087  1.00  0.00     0.157 A 
ATOM     16  C   UNL     1      20.371  46.593  -1.361  1.00  0.00     0.062 A 
ATOM     17  C   UNL     1      20.217  45.913  -0.145  1.00  0.00     0.158 A 
BRANCH  15  18
ATOM     18  O   UNL     1      20.265  43.857   1.125  1.00  0.00    -0.504 OA
ATOM     19  H   UNL     1      20.078  42.862   1.160  1.00  0.00     0.293 HD
ENDBRANCH  15  18
BRANCH  17  20
ATOM     20  O   UNL     1      19.862  46.606   1.011  1.00  0.00    -0.504 OA
ATOM     21  H   UNL     1      20.419  46.548   1.856  1.00  0.00     0.293 HD
ENDBRANCH  17  20
ENDBRANCH   1  12
BRANCH   6  22
ATOM     22  O   UNL     1      20.766  49.366  -8.203  1.00  0.00    -0.507 OA
ATOM     23  H   UNL     1      19.988  49.834  -7.766  1.00  0.00     0.293 HD
ENDBRANCH   6  22
BRANCH   8  24
ATOM     24  O   UNL     1      24.124  46.019  -8.853  1.00  0.00    -0.508 OA
ATOM     25  H   UNL     1      24.159  46.233  -9.844  1.00  0.00     0.293 HD
ENDBRANCH   8  24
TORSDOF 5
ENDMDL
