MODEL 1
REMARK VINA RESULT:    -7.729      0.000      0.000
REMARK INTER + INTRA:          -8.406
REMARK INTER:                  -8.406
REMARK INTRA:                   0.000
REMARK UNBOUND:                 0.000
REMARK SMILES Cc1cc(O)c2c(c1)C(=O)c1cc(O)cc(O)c1C2=O
REMARK SMILES IDX 1 1 2 2 8 3 7 4 6 5 4 6 3 7 19 8 20 9 18 10 11 11 9 12 10 13
REMARK SMILES IDX 12 14 13 15 15 16 16 17 5 18 17 20 14 22
REMARK H PARENT 5 19 17 21 14 23
REMARK Flexibility Score: inf
ROOT
ATOM      1  C   UNL     1     133.474 129.644 122.176  1.00  0.00     0.044 C 
ATOM      2  C   UNL     1     132.492 130.639 122.721  1.00  0.00    -0.047 A 
ATOM      3  C   UNL     1     132.182 131.793 121.996  1.00  0.00     0.016 A 
ATOM      4  C   UNL     1     131.230 132.709 122.475  1.00  0.00     0.038 A 
ATOM      5  C   UNL     1     130.553 132.452 123.689  1.00  0.00     0.076 A 
ATOM      6  C   UNL     1     130.917 131.307 124.450  1.00  0.00     0.127 A 
ATOM      7  C   UNL     1     131.849 130.400 123.938  1.00  0.00     0.050 A 
ATOM      8  C   UNL     1     129.441 133.361 124.086  1.00  0.00     0.201 C 
ATOM      9  O   UNL     1     128.560 132.967 124.897  1.00  0.00    -0.288 OA
ATOM     10  C   UNL     1     129.298 134.693 123.443  1.00  0.00     0.076 A 
ATOM     11  C   UNL     1     130.025 134.967 122.265  1.00  0.00     0.041 A 
ATOM     12  C   UNL     1     130.942 133.946 121.710  1.00  0.00     0.194 C 
ATOM     13  O   UNL     1     131.494 134.139 120.591  1.00  0.00    -0.289 OA
ATOM     14  C   UNL     1     129.872 136.208 121.622  1.00  0.00     0.059 A 
ATOM     15  C   UNL     1     129.010 137.177 122.146  1.00  0.00     0.120 A 
ATOM     16  C   UNL     1     128.297 136.912 123.315  1.00  0.00     0.093 A 
ATOM     17  C   UNL     1     128.433 135.681 123.969  1.00  0.00     0.131 A 
ENDROOT
BRANCH   6  18
ATOM     18  O   UNL     1     130.410 131.048 125.726  1.00  0.00    -0.507 OA
ATOM     19  H   UNL     1     129.814 131.687 126.234  1.00  0.00     0.293 HD
ENDBRANCH   6  18
BRANCH  17  20
ATOM     20  O   UNL     1     127.718 135.447 125.144  1.00  0.00    -0.507 OA
ATOM     21  H   UNL     1     127.325 134.537 125.358  1.00  0.00     0.293 HD
ENDBRANCH  17  20
BRANCH  15  22
ATOM     22  O   UNL     1     128.856 138.408 121.513  1.00  0.00    -0.508 OA
ATOM     23  H   UNL     1     128.614 139.244 122.033  1.00  0.00     0.293 HD
ENDBRANCH  15  22
TORSDOF 3
ENDMDL
MODEL 2
REMARK VINA RESULT:    -7.606      1.551      5.579
REMARK INTER + INTRA:          -8.273
REMARK INTER:                  -8.273
REMARK INTRA:                   0.000
REMARK UNBOUND:                 0.000
REMARK SMILES Cc1cc(O)c2c(c1)C(=O)c1cc(O)cc(O)c1C2=O
REMARK SMILES IDX 1 1 2 2 8 3 7 4 6 5 4 6 3 7 19 8 20 9 18 10 11 11 9 12 10 13
REMARK SMILES IDX 12 14 13 15 15 16 16 17 5 18 17 20 14 22
REMARK H PARENT 5 19 17 21 14 23
REMARK Flexibility Score: inf
ROOT
ATOM      1  C   UNL     1     128.283 137.312 122.262  1.00  0.00     0.044 C 
ATOM      2  C   UNL     1     128.818 135.996 122.747  1.00  0.00    -0.047 A 
ATOM      3  C   UNL     1     129.700 135.258 121.952  1.00  0.00     0.016 A 
ATOM      4  C   UNL     1     130.243 134.047 122.416  1.00  0.00     0.038 A 
ATOM      5  C   UNL     1     129.921 133.580 123.711  1.00  0.00     0.076 A 
ATOM      6  C   UNL     1     128.978 134.305 124.489  1.00  0.00     0.127 A 
ATOM      7  C   UNL     1     128.472 135.519 124.014  1.00  0.00     0.050 A 
ATOM      8  C   UNL     1     130.635 132.379 124.228  1.00  0.00     0.201 C 
ATOM      9  O   UNL     1     130.706 132.169 125.469  1.00  0.00    -0.288 OA
ATOM     10  C   UNL     1     131.368 131.485 123.294  1.00  0.00     0.076 A 
ATOM     11  C   UNL     1     131.631 131.931 121.982  1.00  0.00     0.041 A 
ATOM     12  C   UNL     1     131.147 133.260 121.544  1.00  0.00     0.194 C 
ATOM     13  O   UNL     1     131.491 133.714 120.417  1.00  0.00    -0.289 OA
ATOM     14  C   UNL     1     132.357 131.113 121.097  1.00  0.00     0.059 A 
ATOM     15  C   UNL     1     132.812 129.856 121.506  1.00  0.00     0.120 A 
ATOM     16  C   UNL     1     132.545 129.408 122.800  1.00  0.00     0.093 A 
ATOM     17  C   UNL     1     131.826 130.209 123.697  1.00  0.00     0.131 A 
ENDROOT
BRANCH   6  18
ATOM     18  O   UNL     1     128.488 133.847 125.714  1.00  0.00    -0.507 OA
ATOM     19  H   UNL     1     127.788 134.334 126.257  1.00  0.00     0.293 HD
ENDBRANCH   6  18
BRANCH  17  20
ATOM     20  O   UNL     1     131.562 129.730 124.981  1.00  0.00    -0.507 OA
ATOM     21  H   UNL     1     131.105 128.838 125.133  1.00  0.00     0.293 HD
ENDBRANCH  17  20
BRANCH  15  22
ATOM     22  O   UNL     1     133.530 129.042 120.633  1.00  0.00    -0.508 OA
ATOM     23  H   UNL     1     133.236 128.906 119.672  1.00  0.00     0.293 HD
ENDBRANCH  15  22
TORSDOF 3
ENDMDL
MODEL 3
REMARK VINA RESULT:    -7.249      1.725      6.304
REMARK INTER + INTRA:          -7.885
REMARK INTER:                  -7.885
REMARK INTRA:                   0.000
REMARK UNBOUND:                 0.000
REMARK SMILES Cc1cc(O)c2c(c1)C(=O)c1cc(O)cc(O)c1C2=O
REMARK SMILES IDX 1 1 2 2 8 3 7 4 6 5 4 6 3 7 19 8 20 9 18 10 11 11 9 12 10 13
REMARK SMILES IDX 12 14 13 15 15 16 16 17 5 18 17 20 14 22
REMARK H PARENT 5 19 17 21 14 23
REMARK Flexibility Score: inf
ROOT
ATOM      1  C   UNL     1     128.818 137.418 122.931  1.00  0.00     0.044 C 
ATOM      2  C   UNL     1     129.481 136.073 122.866  1.00  0.00    -0.047 A 
ATOM      3  C   UNL     1     129.389 135.189 123.945  1.00  0.00     0.016 A 
ATOM      4  C   UNL     1     129.966 133.910 123.877  1.00  0.00     0.038 A 
ATOM      5  C   UNL     1     130.622 133.494 122.696  1.00  0.00     0.076 A 
ATOM      6  C   UNL     1     130.763 134.419 121.626  1.00  0.00     0.127 A 
ATOM      7  C   UNL     1     130.159 135.677 121.710  1.00  0.00     0.050 A 
ATOM      8  C   UNL     1     131.083 132.080 122.602  1.00  0.00     0.201 C 
ATOM      9  O   UNL     1     131.284 131.552 121.475  1.00  0.00    -0.288 OA
ATOM     10  C   UNL     1     131.196 131.247 123.828  1.00  0.00     0.076 A 
ATOM     11  C   UNL     1     130.592 131.698 125.021  1.00  0.00     0.041 A 
ATOM     12  C   UNL     1     129.890 133.001 125.046  1.00  0.00     0.194 C 
ATOM     13  O   UNL     1     129.241 133.345 126.073  1.00  0.00    -0.289 OA
ATOM     14  C   UNL     1     130.656 130.904 126.180  1.00  0.00     0.059 A 
ATOM     15  C   UNL     1     131.322 129.675 126.162  1.00  0.00     0.120 A 
ATOM     16  C   UNL     1     131.929 129.231 124.986  1.00  0.00     0.093 A 
ATOM     17  C   UNL     1     131.873 130.006 123.820  1.00  0.00     0.131 A 
ENDROOT
BRANCH   6  18
ATOM     18  O   UNL     1     131.519 134.151 120.482  1.00  0.00    -0.507 OA
ATOM     19  H   UNL     1     132.346 133.570 120.479  1.00  0.00     0.293 HD
ENDBRANCH   6  18
BRANCH  17  20
ATOM     20  O   UNL     1     132.500 129.544 122.662  1.00  0.00    -0.507 OA
ATOM     21  H   UNL     1     133.259 130.055 122.227  1.00  0.00     0.293 HD
ENDBRANCH  17  20
BRANCH  15  22
ATOM     22  O   UNL     1     131.390 128.885 127.308  1.00  0.00    -0.508 OA
ATOM     23  H   UNL     1     130.811 128.061 127.418  1.00  0.00     0.293 HD
ENDBRANCH  15  22
TORSDOF 3
ENDMDL
MODEL 4
REMARK VINA RESULT:    -7.195      2.286      5.957
REMARK INTER + INTRA:          -7.826
REMARK INTER:                  -7.826
REMARK INTRA:                   0.000
REMARK UNBOUND:                 0.000
REMARK SMILES Cc1cc(O)c2c(c1)C(=O)c1cc(O)cc(O)c1C2=O
REMARK SMILES IDX 1 1 2 2 8 3 7 4 6 5 4 6 3 7 19 8 20 9 18 10 11 11 9 12 10 13
REMARK SMILES IDX 12 14 13 15 15 16 16 17 5 18 17 20 14 22
REMARK H PARENT 5 19 17 21 14 23
REMARK Flexibility Score: inf
ROOT
ATOM      1  C   UNL     1     127.281 136.359 121.396  1.00  0.00     0.044 C 
ATOM      2  C   UNL     1     128.341 135.543 122.076  1.00  0.00    -0.047 A 
ATOM      3  C   UNL     1     128.197 135.179 123.417  1.00  0.00     0.016 A 
ATOM      4  C   UNL     1     129.161 134.376 124.051  1.00  0.00     0.038 A 
ATOM      5  C   UNL     1     130.276 133.904 123.321  1.00  0.00     0.076 A 
ATOM      6  C   UNL     1     130.446 134.328 121.975  1.00  0.00     0.127 A 
ATOM      7  C   UNL     1     129.459 135.106 121.361  1.00  0.00     0.050 A 
ATOM      8  C   UNL     1     131.192 132.930 123.978  1.00  0.00     0.201 C 
ATOM      9  O   UNL     1     131.927 132.180 123.281  1.00  0.00    -0.288 OA
ATOM     10  C   UNL     1     131.162 132.753 125.454  1.00  0.00     0.076 A 
ATOM     11  C   UNL     1     130.077 133.281 126.186  1.00  0.00     0.041 A 
ATOM     12  C   UNL     1     129.010 134.030 125.485  1.00  0.00     0.194 C 
ATOM     13  O   UNL     1     127.977 134.392 126.116  1.00  0.00    -0.289 OA
ATOM     14  C   UNL     1     130.014 133.090 127.577  1.00  0.00     0.059 A 
ATOM     15  C   UNL     1     131.022 132.387 128.243  1.00  0.00     0.120 A 
ATOM     16  C   UNL     1     132.101 131.871 127.524  1.00  0.00     0.093 A 
ATOM     17  C   UNL     1     132.181 132.049 126.136  1.00  0.00     0.131 A 
ENDROOT
BRANCH   6  18
ATOM     18  O   UNL     1     131.586 134.035 121.222  1.00  0.00    -0.507 OA
ATOM     19  H   UNL     1     131.669 134.225 120.233  1.00  0.00     0.293 HD
ENDBRANCH   6  18
BRANCH  17  20
ATOM     20  O   UNL     1     133.277 131.534 125.443  1.00  0.00    -0.507 OA
ATOM     21  H   UNL     1     134.223 131.842 125.638  1.00  0.00     0.293 HD
ENDBRANCH  17  20
BRANCH  15  22
ATOM     22  O   UNL     1     130.964 132.195 129.622  1.00  0.00    -0.508 OA
ATOM     23  H   UNL     1     130.274 131.583 130.043  1.00  0.00     0.293 HD
ENDBRANCH  15  22
TORSDOF 3
ENDMDL
MODEL 5
REMARK VINA RESULT:    -7.063      2.917      5.853
REMARK INTER + INTRA:          -7.682
REMARK INTER:                  -7.682
REMARK INTRA:                   0.000
REMARK UNBOUND:                 0.000
REMARK SMILES Cc1cc(O)c2c(c1)C(=O)c1cc(O)cc(O)c1C2=O
REMARK SMILES IDX 1 1 2 2 8 3 7 4 6 5 4 6 3 7 19 8 20 9 18 10 11 11 9 12 10 13
REMARK SMILES IDX 12 14 13 15 15 16 16 17 5 18 17 20 14 22
REMARK H PARENT 5 19 17 21 14 23
REMARK Flexibility Score: inf
ROOT
ATOM      1  C   UNL     1     130.367 131.365 129.715  1.00  0.00     0.044 C 
ATOM      2  C   UNL     1     130.506 131.685 128.256  1.00  0.00    -0.047 A 
ATOM      3  C   UNL     1     131.041 130.741 127.375  1.00  0.00     0.016 A 
ATOM      4  C   UNL     1     131.133 131.012 125.999  1.00  0.00     0.038 A 
ATOM      5  C   UNL     1     130.651 132.240 125.489  1.00  0.00     0.076 A 
ATOM      6  C   UNL     1     130.163 133.218 126.398  1.00  0.00     0.127 A 
ATOM      7  C   UNL     1     130.060 132.913 127.759  1.00  0.00     0.050 A 
ATOM      8  C   UNL     1     130.619 132.430 124.011  1.00  0.00     0.201 C 
ATOM      9  O   UNL     1     129.849 133.284 123.499  1.00  0.00    -0.288 OA
ATOM     10  C   UNL     1     131.408 131.534 123.126  1.00  0.00     0.076 A 
ATOM     11  C   UNL     1     131.940 130.339 123.656  1.00  0.00     0.041 A 
ATOM     12  C   UNL     1     131.738 130.014 125.086  1.00  0.00     0.194 C 
ATOM     13  O   UNL     1     132.101 128.889 125.531  1.00  0.00    -0.289 OA
ATOM     14  C   UNL     1     132.655 129.462 122.822  1.00  0.00     0.059 A 
ATOM     15  C   UNL     1     132.852 129.768 121.472  1.00  0.00     0.120 A 
ATOM     16  C   UNL     1     132.335 130.953 120.947  1.00  0.00     0.093 A 
ATOM     17  C   UNL     1     131.617 131.839 121.761  1.00  0.00     0.131 A 
ENDROOT
BRANCH   6  18
ATOM     18  O   UNL     1     129.804 134.510 126.007  1.00  0.00    -0.507 OA
ATOM     19  H   UNL     1     130.447 135.290 125.989  1.00  0.00     0.293 HD
ENDBRANCH   6  18
BRANCH  17  20
ATOM     20  O   UNL     1     131.123 133.023 121.212  1.00  0.00    -0.507 OA
ATOM     21  H   UNL     1     131.069 133.164 120.210  1.00  0.00     0.293 HD
ENDBRANCH  17  20
BRANCH  15  22
ATOM     22  O   UNL     1     133.561 128.903 120.643  1.00  0.00    -0.508 OA
ATOM     23  H   UNL     1     133.412 127.900 120.672  1.00  0.00     0.293 HD
ENDBRANCH  15  22
TORSDOF 3
ENDMDL
MODEL 6
REMARK VINA RESULT:    -6.956      2.544      4.297
REMARK INTER + INTRA:          -7.566
REMARK INTER:                  -7.566
REMARK INTRA:                   0.000
REMARK UNBOUND:                 0.000
REMARK SMILES Cc1cc(O)c2c(c1)C(=O)c1cc(O)cc(O)c1C2=O
REMARK SMILES IDX 1 1 2 2 8 3 7 4 6 5 4 6 3 7 19 8 20 9 18 10 11 11 9 12 10 13
REMARK SMILES IDX 12 14 13 15 15 16 16 17 5 18 17 20 14 22
REMARK H PARENT 5 19 17 21 14 23
REMARK Flexibility Score: inf
ROOT
ATOM      1  C   UNL     1     129.896 132.388 129.755  1.00  0.00     0.044 C 
ATOM      2  C   UNL     1     130.167 132.703 128.314  1.00  0.00    -0.047 A 
ATOM      3  C   UNL     1     129.243 133.441 127.569  1.00  0.00     0.016 A 
ATOM      4  C   UNL     1     129.507 133.782 126.231  1.00  0.00     0.038 A 
ATOM      5  C   UNL     1     130.732 133.402 125.635  1.00  0.00     0.076 A 
ATOM      6  C   UNL     1     131.639 132.601 126.380  1.00  0.00     0.127 A 
ATOM      7  C   UNL     1     131.363 132.297 127.716  1.00  0.00     0.050 A 
ATOM      8  C   UNL     1     131.044 133.914 124.271  1.00  0.00     0.201 C 
ATOM      9  O   UNL     1     132.238 133.963 123.870  1.00  0.00    -0.288 OA
ATOM     10  C   UNL     1     129.965 134.477 123.418  1.00  0.00     0.076 A 
ATOM     11  C   UNL     1     128.722 134.796 124.006  1.00  0.00     0.041 A 
ATOM     12  C   UNL     1     128.498 134.533 125.446  1.00  0.00     0.194 C 
ATOM     13  O   UNL     1     127.437 134.934 126.000  1.00  0.00    -0.289 OA
ATOM     14  C   UNL     1     127.703 135.366 123.222  1.00  0.00     0.059 A 
ATOM     15  C   UNL     1     127.909 135.611 121.861  1.00  0.00     0.120 A 
ATOM     16  C   UNL     1     129.134 135.289 121.275  1.00  0.00     0.093 A 
ATOM     17  C   UNL     1     130.162 134.723 122.040  1.00  0.00     0.131 A 
ENDROOT
BRANCH   6  18
ATOM     18  O   UNL     1     132.803 132.057 125.830  1.00  0.00    -0.507 OA
ATOM     19  H   UNL     1     132.924 131.871 124.844  1.00  0.00     0.293 HD
ENDBRANCH   6  18
BRANCH  17  20
ATOM     20  O   UNL     1     131.372 134.399 121.425  1.00  0.00    -0.507 OA
ATOM     21  H   UNL     1     132.140 133.988 121.944  1.00  0.00     0.293 HD
ENDBRANCH  17  20
BRANCH  15  22
ATOM     22  O   UNL     1     126.903 136.174 121.080  1.00  0.00    -0.508 OA
ATOM     23  H   UNL     1     126.461 137.050 121.336  1.00  0.00     0.293 HD
ENDBRANCH  15  22
TORSDOF 3
ENDMDL
MODEL 7
REMARK VINA RESULT:    -6.897      1.813      5.620
REMARK INTER + INTRA:          -7.502
REMARK INTER:                  -7.502
REMARK INTRA:                   0.000
REMARK UNBOUND:                 0.000
REMARK SMILES Cc1cc(O)c2c(c1)C(=O)c1cc(O)cc(O)c1C2=O
REMARK SMILES IDX 1 1 2 2 8 3 7 4 6 5 4 6 3 7 19 8 20 9 18 10 11 11 9 12 10 13
REMARK SMILES IDX 12 14 13 15 15 16 16 17 5 18 17 20 14 22
REMARK H PARENT 5 19 17 21 14 23
REMARK Flexibility Score: inf
ROOT
ATOM      1  C   UNL     1     128.088 136.454 120.986  1.00  0.00     0.044 C 
ATOM      2  C   UNL     1     128.529 135.595 122.134  1.00  0.00    -0.047 A 
ATOM      3  C   UNL     1     129.520 134.627 121.950  1.00  0.00     0.016 A 
ATOM      4  C   UNL     1     129.974 133.849 123.029  1.00  0.00     0.038 A 
ATOM      5  C   UNL     1     129.447 134.063 124.324  1.00  0.00     0.076 A 
ATOM      6  C   UNL     1     128.398 135.007 124.491  1.00  0.00     0.127 A 
ATOM      7  C   UNL     1     127.982 135.785 123.406  1.00  0.00     0.050 A 
ATOM      8  C   UNL     1     130.062 133.332 125.468  1.00  0.00     0.201 C 
ATOM      9  O   UNL     1     129.932 133.771 126.642  1.00  0.00    -0.288 OA
ATOM     10  C   UNL     1     130.927 132.149 125.221  1.00  0.00     0.076 A 
ATOM     11  C   UNL     1     131.399 131.905 123.914  1.00  0.00     0.041 A 
ATOM     12  C   UNL     1     131.000 132.802 122.807  1.00  0.00     0.194 C 
ATOM     13  O   UNL     1     131.522 132.661 121.665  1.00  0.00    -0.289 OA
ATOM     14  C   UNL     1     132.250 130.812 123.672  1.00  0.00     0.059 A 
ATOM     15  C   UNL     1     132.625 129.959 124.715  1.00  0.00     0.120 A 
ATOM     16  C   UNL     1     132.152 130.193 126.006  1.00  0.00     0.093 A 
ATOM     17  C   UNL     1     131.306 131.278 126.269  1.00  0.00     0.131 A 
ENDROOT
BRANCH   6  18
ATOM     18  O   UNL     1     127.716 135.182 125.698  1.00  0.00    -0.507 OA
ATOM     19  H   UNL     1     127.384 136.076 126.031  1.00  0.00     0.293 HD
ENDBRANCH   6  18
BRANCH  17  20
ATOM     20  O   UNL     1     130.838 131.481 127.568  1.00  0.00    -0.507 OA
ATOM     21  H   UNL     1     130.985 132.357 128.057  1.00  0.00     0.293 HD
ENDBRANCH  17  20
BRANCH  15  22
ATOM     22  O   UNL     1     133.467 128.875 124.479  1.00  0.00    -0.508 OA
ATOM     23  H   UNL     1     134.420 129.004 124.158  1.00  0.00     0.293 HD
ENDBRANCH  15  22
TORSDOF 3
ENDMDL
MODEL 8
REMARK VINA RESULT:    -6.813      1.649      3.425
REMARK INTER + INTRA:          -7.410
REMARK INTER:                  -7.410
REMARK INTRA:                   0.000
REMARK UNBOUND:                 0.000
REMARK SMILES Cc1cc(O)c2c(c1)C(=O)c1cc(O)cc(O)c1C2=O
REMARK SMILES IDX 1 1 2 2 8 3 7 4 6 5 4 6 3 7 19 8 20 9 18 10 11 11 9 12 10 13
REMARK SMILES IDX 12 14 13 15 15 16 16 17 5 18 17 20 14 22
REMARK H PARENT 5 19 17 21 14 23
REMARK Flexibility Score: inf
ROOT
ATOM      1  C   UNL     1     131.067 129.624 127.628  1.00  0.00     0.044 C 
ATOM      2  C   UNL     1     130.991 130.413 126.354  1.00  0.00    -0.047 A 
ATOM      3  C   UNL     1     130.371 131.666 126.337  1.00  0.00     0.016 A 
ATOM      4  C   UNL     1     130.335 132.434 125.161  1.00  0.00     0.038 A 
ATOM      5  C   UNL     1     130.957 131.953 123.985  1.00  0.00     0.076 A 
ATOM      6  C   UNL     1     131.532 130.653 123.995  1.00  0.00     0.127 A 
ATOM      7  C   UNL     1     131.577 129.921 125.185  1.00  0.00     0.050 A 
ATOM      8  C   UNL     1     131.036 132.859 122.805  1.00  0.00     0.201 C 
ATOM      9  O   UNL     1     131.905 132.663 121.913  1.00  0.00    -0.288 OA
ATOM     10  C   UNL     1     130.170 134.064 122.728  1.00  0.00     0.076 A 
ATOM     11  C   UNL     1     129.502 134.504 123.890  1.00  0.00     0.041 A 
ATOM     12  C   UNL     1     129.640 133.744 125.153  1.00  0.00     0.194 C 
ATOM     13  O   UNL     1     129.149 134.205 126.221  1.00  0.00    -0.289 OA
ATOM     14  C   UNL     1     128.710 135.665 123.844  1.00  0.00     0.059 A 
ATOM     15  C   UNL     1     128.572 136.383 122.652  1.00  0.00     0.120 A 
ATOM     16  C   UNL     1     129.225 135.946 121.499  1.00  0.00     0.093 A 
ATOM     17  C   UNL     1     130.021 134.793 121.525  1.00  0.00     0.131 A 
ENDROOT
BRANCH   6  18
ATOM     18  O   UNL     1     132.038 130.035 122.848  1.00  0.00    -0.507 OA
ATOM     19  H   UNL     1     131.838 129.078 122.592  1.00  0.00     0.293 HD
ENDBRANCH   6  18
BRANCH  17  20
ATOM     20  O   UNL     1     130.651 134.371 120.354  1.00  0.00    -0.507 OA
ATOM     21  H   UNL     1     131.616 134.059 120.351  1.00  0.00     0.293 HD
ENDBRANCH  17  20
BRANCH  15  22
ATOM     22  O   UNL     1     127.788 137.533 122.601  1.00  0.00    -0.508 OA
ATOM     23  H   UNL     1     128.143 138.399 122.213  1.00  0.00     0.293 HD
ENDBRANCH  15  22
TORSDOF 3
ENDMDL
MODEL 9
REMARK VINA RESULT:    -6.643      2.446      3.877
REMARK INTER + INTRA:          -7.226
REMARK INTER:                  -7.226
REMARK INTRA:                   0.000
REMARK UNBOUND:                 0.000
REMARK SMILES Cc1cc(O)c2c(c1)C(=O)c1cc(O)cc(O)c1C2=O
REMARK SMILES IDX 1 1 2 2 8 3 7 4 6 5 4 6 3 7 19 8 20 9 18 10 11 11 9 12 10 13
REMARK SMILES IDX 12 14 13 15 15 16 16 17 5 18 17 20 14 22
REMARK H PARENT 5 19 17 21 14 23
REMARK Flexibility Score: inf
ROOT
ATOM      1  C   UNL     1     132.194 129.210 128.853  1.00  0.00     0.044 C 
ATOM      2  C   UNL     1     131.667 130.365 128.054  1.00  0.00    -0.047 A 
ATOM      3  C   UNL     1     131.889 130.428 126.675  1.00  0.00     0.016 A 
ATOM      4  C   UNL     1     131.360 131.481 125.909  1.00  0.00     0.038 A 
ATOM      5  C   UNL     1     130.568 132.476 126.529  1.00  0.00     0.076 A 
ATOM      6  C   UNL     1     130.398 132.437 127.940  1.00  0.00     0.127 A 
ATOM      7  C   UNL     1     130.913 131.365 128.674  1.00  0.00     0.050 A 
ATOM      8  C   UNL     1     129.896 133.486 125.665  1.00  0.00     0.201 C 
ATOM      9  O   UNL     1     128.886 134.110 126.088  1.00  0.00    -0.288 OA
ATOM     10  C   UNL     1     130.337 133.680 124.259  1.00  0.00     0.076 A 
ATOM     11  C   UNL     1     131.179 132.716 123.665  1.00  0.00     0.041 A 
ATOM     12  C   UNL     1     131.637 131.550 124.455  1.00  0.00     0.194 C 
ATOM     13  O   UNL     1     132.283 130.623 123.890  1.00  0.00    -0.289 OA
ATOM     14  C   UNL     1     131.574 132.865 122.324  1.00  0.00     0.059 A 
ATOM     15  C   UNL     1     131.147 133.966 121.576  1.00  0.00     0.120 A 
ATOM     16  C   UNL     1     130.322 134.926 122.164  1.00  0.00     0.093 A 
ATOM     17  C   UNL     1     129.915 134.794 123.498  1.00  0.00     0.131 A 
ENDROOT
BRANCH   6  18
ATOM     18  O   UNL     1     129.759 133.451 128.658  1.00  0.00    -0.507 OA
ATOM     19  H   UNL     1     128.816 133.378 129.016  1.00  0.00     0.293 HD
ENDBRANCH   6  18
BRANCH  17  20
ATOM     20  O   UNL     1     129.101 135.776 124.064  1.00  0.00    -0.507 OA
ATOM     21  H   UNL     1     128.234 136.068 123.626  1.00  0.00     0.293 HD
ENDBRANCH  17  20
BRANCH  15  22
ATOM     22  O   UNL     1     131.537 134.118 120.248  1.00  0.00    -0.508 OA
ATOM     23  H   UNL     1     132.274 133.551 119.844  1.00  0.00     0.293 HD
ENDBRANCH  15  22
TORSDOF 3
ENDMDL
