MODEL 1
REMARK VINA RESULT:    -4.528      0.000      0.000
REMARK INTER + INTRA:          -6.713
REMARK INTER:                  -6.116
REMARK INTRA:                  -0.597
REMARK UNBOUND:                -0.597
REMARK SMILES COc1ccc(-c2cc(=O)c3c(OC)c(OC)c(OC)c(OC)c3o2)cc1
REMARK SMILES IDX 7 1 8 2 9 3 10 4 11 5 24 6 25 7 21 8 18 9 15 10 12 11 6 12
REMARK SMILES IDX 3 13 4 14 27 15 5 16 26 17 2 18 1 19 22 20 23 21 13 22 14 23
REMARK SMILES IDX 19 24 20 25 16 26 17 27
REMARK H PARENT
REMARK Flexibility Score: inf
ROOT
ATOM      1  C   UNL     1     134.398 137.925 135.047  1.00  0.00     0.138 A 
ATOM      2  C   UNL     1     135.401 138.333 135.929  1.00  0.00     0.100 A 
ATOM      3  C   UNL     1     135.052 138.754 137.210  1.00  0.00     0.197 A 
ATOM      4  O   UNL     1     135.972 139.123 137.990  1.00  0.00    -0.289 OA
ATOM      5  C   UNL     1     133.692 138.763 137.605  1.00  0.00     0.115 A 
ATOM      6  C   UNL     1     132.733 138.348 136.650  1.00  0.00     0.188 A 
ATOM      7  O   UNL     1     133.128 137.959 135.439  1.00  0.00    -0.452 OA
ATOM      8  C   UNL     1     131.360 138.333 136.982  1.00  0.00     0.209 A 
ATOM      9  C   UNL     1     130.948 138.758 138.257  1.00  0.00     0.211 A 
ATOM     10  C   UNL     1     131.900 139.137 139.238  1.00  0.00     0.208 A 
ATOM     11  C   UNL     1     133.279 139.158 138.901  1.00  0.00     0.179 A 
ENDROOT
BRANCH   1  12
ATOM     12  C   UNL     1     134.716 137.460 133.674  1.00  0.00     0.018 A 
ATOM     13  C   UNL     1     135.332 136.622 131.050  1.00  0.00     0.118 A 
ATOM     14  C   UNL     1     134.246 136.067 131.734  1.00  0.00     0.047 A 
ATOM     15  C   UNL     1     136.110 137.607 131.683  1.00  0.00     0.047 A 
ATOM     16  C   UNL     1     133.936 136.481 133.033  1.00  0.00     0.016 A 
ATOM     17  C   UNL     1     135.801 138.023 132.982  1.00  0.00     0.016 A 
BRANCH  13  18
ATOM     18  O   UNL     1     135.601 136.172 129.749  1.00  0.00    -0.497 OA
ATOM     19  C   UNL     1     134.910 136.616 128.585  1.00  0.00     0.278 C 
ENDBRANCH  13  18
ENDBRANCH   1  12
BRANCH   8  20
ATOM     20  O   UNL     1     130.360 137.874 136.104  1.00  0.00    -0.490 OA
ATOM     21  C   UNL     1     129.988 136.522 135.862  1.00  0.00     0.278 C 
ENDBRANCH   8  20
BRANCH  11  22
ATOM     22  O   UNL     1     134.278 139.556 139.817  1.00  0.00    -0.492 OA
ATOM     23  C   UNL     1     134.705 138.874 140.992  1.00  0.00     0.278 C 
ENDBRANCH  11  22
BRANCH   9  24
ATOM     24  O   UNL     1     129.582 138.786 138.563  1.00  0.00    -0.490 OA
ATOM     25  C   UNL     1     128.782 139.960 138.458  1.00  0.00     0.279 C 
ENDBRANCH   9  24
BRANCH  10  26
ATOM     26  O   UNL     1     131.527 139.499 140.546  1.00  0.00    -0.490 OA
ATOM     27  C   UNL     1     131.082 138.641 141.593  1.00  0.00     0.278 C 
ENDBRANCH  10  26
TORSDOF 6
ENDMDL
MODEL 2
REMARK VINA RESULT:    -4.524     18.811     22.004
REMARK INTER + INTRA:          -6.709
REMARK INTER:                  -6.088
REMARK INTRA:                  -0.621
REMARK UNBOUND:                -0.597
REMARK SMILES COc1ccc(-c2cc(=O)c3c(OC)c(OC)c(OC)c(OC)c3o2)cc1
REMARK SMILES IDX 7 1 8 2 9 3 10 4 11 5 24 6 25 7 21 8 18 9 15 10 12 11 6 12
REMARK SMILES IDX 3 13 4 14 27 15 5 16 26 17 2 18 1 19 22 20 23 21 13 22 14 23
REMARK SMILES IDX 19 24 20 25 16 26 17 27
REMARK H PARENT
REMARK Flexibility Score: inf
ROOT
ATOM      1  C   UNL     1     122.300 121.991 146.082  1.00  0.00     0.138 A 
ATOM      2  C   UNL     1     123.350 121.692 146.953  1.00  0.00     0.100 A 
ATOM      3  C   UNL     1     124.656 121.680 146.469  1.00  0.00     0.197 A 
ATOM      4  O   UNL     1     125.588 121.403 147.271  1.00  0.00    -0.289 OA
ATOM      5  C   UNL     1     124.906 121.971 145.107  1.00  0.00     0.115 A 
ATOM      6  C   UNL     1     123.790 122.251 144.283  1.00  0.00     0.188 A 
ATOM      7  O   UNL     1     122.564 122.244 144.803  1.00  0.00    -0.452 OA
ATOM      8  C   UNL     1     123.973 122.549 142.915  1.00  0.00     0.209 A 
ATOM      9  C   UNL     1     125.269 122.540 142.368  1.00  0.00     0.211 A 
ATOM     10  C   UNL     1     126.400 122.302 143.189  1.00  0.00     0.208 A 
ATOM     11  C   UNL     1     126.215 121.996 144.562  1.00  0.00     0.179 A 
ENDROOT
BRANCH   1  12
ATOM     12  C   UNL     1     120.892 122.026 146.548  1.00  0.00     0.018 A 
ATOM     13  C   UNL     1     118.215 122.043 147.445  1.00  0.00     0.118 A 
ATOM     14  C   UNL     1     118.589 122.778 146.315  1.00  0.00     0.047 A 
ATOM     15  C   UNL     1     119.189 121.290 148.124  1.00  0.00     0.047 A 
ATOM     16  C   UNL     1     119.913 122.771 145.866  1.00  0.00     0.016 A 
ATOM     17  C   UNL     1     120.514 121.281 147.676  1.00  0.00     0.016 A 
BRANCH  13  18
ATOM     18  O   UNL     1     116.875 122.085 147.854  1.00  0.00    -0.497 OA
ATOM     19  C   UNL     1     115.875 121.163 147.429  1.00  0.00     0.278 C 
ENDBRANCH  13  18
ENDBRANCH   1  12
BRANCH   8  20
ATOM     20  O   UNL     1     122.915 122.898 142.054  1.00  0.00    -0.490 OA
ATOM     21  C   UNL     1     122.265 124.161 141.963  1.00  0.00     0.278 C 
ENDBRANCH   8  20
BRANCH  11  22
ATOM     22  O   UNL     1     127.293 121.716 145.430  1.00  0.00    -0.492 OA
ATOM     23  C   UNL     1     128.298 122.614 145.889  1.00  0.00     0.278 C 
ENDBRANCH  11  22
BRANCH   9  24
ATOM     24  O   UNL     1     125.438 122.790 141.001  1.00  0.00    -0.490 OA
ATOM     25  C   UNL     1     125.866 124.047 140.483  1.00  0.00     0.279 C 
ENDBRANCH   9  24
BRANCH  10  26
ATOM     26  O   UNL     1     127.715 122.357 142.689  1.00  0.00    -0.490 OA
ATOM     27  C   UNL     1     128.478 121.292 142.130  1.00  0.00     0.278 C 
ENDBRANCH  10  26
TORSDOF 6
ENDMDL
MODEL 3
REMARK VINA RESULT:    -4.465      5.277      8.459
REMARK INTER + INTRA:          -6.629
REMARK INTER:                  -5.989
REMARK INTRA:                  -0.640
REMARK UNBOUND:                -0.597
REMARK SMILES COc1ccc(-c2cc(=O)c3c(OC)c(OC)c(OC)c(OC)c3o2)cc1
REMARK SMILES IDX 7 1 8 2 9 3 10 4 11 5 24 6 25 7 21 8 18 9 15 10 12 11 6 12
REMARK SMILES IDX 3 13 4 14 27 15 5 16 26 17 2 18 1 19 22 20 23 21 13 22 14 23
REMARK SMILES IDX 19 24 20 25 16 26 17 27
REMARK H PARENT
REMARK Flexibility Score: inf
ROOT
ATOM      1  C   UNL     1     134.681 133.306 134.157  1.00  0.00     0.138 A 
ATOM      2  C   UNL     1     135.141 134.534 134.638  1.00  0.00     0.100 A 
ATOM      3  C   UNL     1     135.109 135.648 133.803  1.00  0.00     0.197 A 
ATOM      4  O   UNL     1     135.532 136.746 134.255  1.00  0.00    -0.289 OA
ATOM      5  C   UNL     1     134.612 135.527 132.483  1.00  0.00     0.115 A 
ATOM      6  C   UNL     1     134.177 134.247 132.064  1.00  0.00     0.188 A 
ATOM      7  O   UNL     1     134.235 133.218 132.908  1.00  0.00    -0.452 OA
ATOM      8  C   UNL     1     133.670 134.061 130.759  1.00  0.00     0.209 A 
ATOM      9  C   UNL     1     133.625 135.148 129.868  1.00  0.00     0.211 A 
ATOM     10  C   UNL     1     134.019 136.444 130.286  1.00  0.00     0.208 A 
ATOM     11  C   UNL     1     134.534 136.630 131.596  1.00  0.00     0.179 A 
ENDROOT
BRANCH   1  12
ATOM     12  C   UNL     1     134.685 132.090 135.007  1.00  0.00     0.018 A 
ATOM     13  C   UNL     1     134.645 129.784 136.635  1.00  0.00     0.118 A 
ATOM     14  C   UNL     1     135.731 130.664 136.680  1.00  0.00     0.047 A 
ATOM     15  C   UNL     1     133.570 130.066 135.774  1.00  0.00     0.047 A 
ATOM     16  C   UNL     1     135.754 131.809 135.878  1.00  0.00     0.016 A 
ATOM     17  C   UNL     1     133.591 131.210 134.971  1.00  0.00     0.016 A 
BRANCH  13  18
ATOM     18  O   UNL     1     134.671 128.650 137.460  1.00  0.00    -0.497 OA
ATOM     19  C   UNL     1     134.988 128.672 138.849  1.00  0.00     0.278 C 
ENDBRANCH  13  18
ENDBRANCH   1  12
BRANCH   8  20
ATOM     20  O   UNL     1     133.163 132.831 130.297  1.00  0.00    -0.490 OA
ATOM     21  C   UNL     1     131.856 132.311 130.509  1.00  0.00     0.278 C 
ENDBRANCH   8  20
BRANCH  11  22
ATOM     22  O   UNL     1     134.975 137.886 132.068  1.00  0.00    -0.492 OA
ATOM     23  C   UNL     1     136.125 138.618 131.653  1.00  0.00     0.278 C 
ENDBRANCH  11  22
BRANCH   9  24
ATOM     24  O   UNL     1     133.166 134.945 128.561  1.00  0.00    -0.490 OA
ATOM     25  C   UNL     1     131.821 135.186 128.159  1.00  0.00     0.279 C 
ENDBRANCH   9  24
BRANCH  10  26
ATOM     26  O   UNL     1     133.919 137.568 129.444  1.00  0.00    -0.490 OA
ATOM     27  C   UNL     1     132.859 138.518 129.382  1.00  0.00     0.278 C 
ENDBRANCH  10  26
TORSDOF 6
ENDMDL
MODEL 4
REMARK VINA RESULT:    -4.443      2.325      8.136
REMARK INTER + INTRA:          -6.599
REMARK INTER:                  -6.017
REMARK INTRA:                  -0.582
REMARK UNBOUND:                -0.597
REMARK SMILES COc1ccc(-c2cc(=O)c3c(OC)c(OC)c(OC)c(OC)c3o2)cc1
REMARK SMILES IDX 7 1 8 2 9 3 10 4 11 5 24 6 25 7 21 8 18 9 15 10 12 11 6 12
REMARK SMILES IDX 3 13 4 14 27 15 5 16 26 17 2 18 1 19 22 20 23 21 13 22 14 23
REMARK SMILES IDX 19 24 20 25 16 26 17 27
REMARK H PARENT
REMARK Flexibility Score: inf
ROOT
ATOM      1  C   UNL     1     134.505 137.559 134.081  1.00  0.00     0.138 A 
ATOM      2  C   UNL     1     135.330 137.989 133.039  1.00  0.00     0.100 A 
ATOM      3  C   UNL     1     135.268 137.342 131.808  1.00  0.00     0.197 A 
ATOM      4  O   UNL     1     136.024 137.743 130.882  1.00  0.00    -0.289 OA
ATOM      5  C   UNL     1     134.373 136.261 131.623  1.00  0.00     0.115 A 
ATOM      6  C   UNL     1     133.579 135.873 132.730  1.00  0.00     0.188 A 
ATOM      7  O   UNL     1     133.686 136.530 133.884  1.00  0.00    -0.452 OA
ATOM      8  C   UNL     1     132.667 134.803 132.610  1.00  0.00     0.209 A 
ATOM      9  C   UNL     1     132.568 134.104 131.394  1.00  0.00     0.211 A 
ATOM     10  C   UNL     1     133.326 134.506 130.265  1.00  0.00     0.208 A 
ATOM     11  C   UNL     1     134.249 135.578 130.387  1.00  0.00     0.179 A 
ENDROOT
BRANCH   1  12
ATOM     12  C   UNL     1     134.526 138.219 135.410  1.00  0.00     0.018 A 
ATOM     13  C   UNL     1     134.576 139.431 137.959  1.00  0.00     0.118 A 
ATOM     14  C   UNL     1     133.622 139.813 137.011  1.00  0.00     0.047 A 
ATOM     15  C   UNL     1     135.507 138.430 137.628  1.00  0.00     0.047 A 
ATOM     16  C   UNL     1     133.591 139.214 135.748  1.00  0.00     0.016 A 
ATOM     17  C   UNL     1     135.478 137.829 136.366  1.00  0.00     0.016 A 
BRANCH  13  18
ATOM     18  O   UNL     1     134.564 140.064 139.210  1.00  0.00    -0.497 OA
ATOM     19  C   UNL     1     134.261 139.409 140.439  1.00  0.00     0.278 C 
ENDBRANCH  13  18
ENDBRANCH   1  12
BRANCH   8  20
ATOM     20  O   UNL     1     131.803 134.406 133.649  1.00  0.00    -0.490 OA
ATOM     21  C   UNL     1     130.529 134.957 133.961  1.00  0.00     0.278 C 
ENDBRANCH   8  20
BRANCH  11  22
ATOM     22  O   UNL     1     135.059 136.010 129.314  1.00  0.00    -0.492 OA
ATOM     23  C   UNL     1     134.665 136.768 128.175  1.00  0.00     0.278 C 
ENDBRANCH  11  22
BRANCH   9  24
ATOM     24  O   UNL     1     131.696 133.014 131.297  1.00  0.00    -0.490 OA
ATOM     25  C   UNL     1     132.102 131.667 131.521  1.00  0.00     0.279 C 
ENDBRANCH   9  24
BRANCH  10  26
ATOM     26  O   UNL     1     133.200 133.876 129.012  1.00  0.00    -0.490 OA
ATOM     27  C   UNL     1     132.162 134.048 128.052  1.00  0.00     0.278 C 
ENDBRANCH  10  26
TORSDOF 6
ENDMDL
MODEL 5
REMARK VINA RESULT:    -4.409     17.900     20.367
REMARK INTER + INTRA:          -6.553
REMARK INTER:                  -5.946
REMARK INTRA:                  -0.607
REMARK UNBOUND:                -0.597
REMARK SMILES COc1ccc(-c2cc(=O)c3c(OC)c(OC)c(OC)c(OC)c3o2)cc1
REMARK SMILES IDX 7 1 8 2 9 3 10 4 11 5 24 6 25 7 21 8 18 9 15 10 12 11 6 12
REMARK SMILES IDX 3 13 4 14 27 15 5 16 26 17 2 18 1 19 22 20 23 21 13 22 14 23
REMARK SMILES IDX 19 24 20 25 16 26 17 27
REMARK H PARENT
REMARK Flexibility Score: inf
ROOT
ATOM      1  C   UNL     1     122.556 123.203 142.993  1.00  0.00     0.138 A 
ATOM      2  C   UNL     1     123.016 122.434 144.065  1.00  0.00     0.100 A 
ATOM      3  C   UNL     1     122.311 122.447 145.266  1.00  0.00     0.197 A 
ATOM      4  O   UNL     1     122.746 121.749 146.222  1.00  0.00    -0.289 OA
ATOM      5  C   UNL     1     121.140 123.233 145.389  1.00  0.00     0.115 A 
ATOM      6  C   UNL     1     120.745 123.996 144.264  1.00  0.00     0.188 A 
ATOM      7  O   UNL     1     121.462 123.944 143.143  1.00  0.00    -0.452 OA
ATOM      8  C   UNL     1     119.586 124.800 144.323  1.00  0.00     0.209 A 
ATOM      9  C   UNL     1     118.840 124.862 145.513  1.00  0.00     0.211 A 
ATOM     10  C   UNL     1     119.200 124.072 146.635  1.00  0.00     0.208 A 
ATOM     11  C   UNL     1     120.369 123.269 146.578  1.00  0.00     0.179 A 
ENDROOT
BRANCH   1  12
ATOM     12  C   UNL     1     123.265 123.218 141.690  1.00  0.00     0.018 A 
ATOM     13  C   UNL     1     124.655 123.235 139.233  1.00  0.00     0.118 A 
ATOM     14  C   UNL     1     123.710 124.225 139.519  1.00  0.00     0.047 A 
ATOM     15  C   UNL     1     124.909 122.235 140.189  1.00  0.00     0.047 A 
ATOM     16  C   UNL     1     123.020 124.222 140.735  1.00  0.00     0.016 A 
ATOM     17  C   UNL     1     124.221 122.231 141.406  1.00  0.00     0.016 A 
BRANCH  13  18
ATOM     18  O   UNL     1     125.319 123.282 137.999  1.00  0.00    -0.497 OA
ATOM     19  C   UNL     1     126.392 124.169 137.697  1.00  0.00     0.278 C 
ENDBRANCH  13  18
ENDBRANCH   1  12
BRANCH   8  20
ATOM     20  O   UNL     1     119.101 125.534 143.223  1.00  0.00    -0.490 OA
ATOM     21  C   UNL     1     118.247 125.061 142.188  1.00  0.00     0.278 C 
ENDBRANCH   8  20
BRANCH  11  22
ATOM     22  O   UNL     1     120.805 122.483 147.668  1.00  0.00    -0.492 OA
ATOM     23  C   UNL     1     120.262 121.249 148.125  1.00  0.00     0.278 C 
ENDBRANCH  11  22
BRANCH   9  24
ATOM     24  O   UNL     1     117.720 125.698 145.579  1.00  0.00    -0.490 OA
ATOM     25  C   UNL     1     117.756 127.011 146.130  1.00  0.00     0.279 C 
ENDBRANCH   9  24
BRANCH  10  26
ATOM     26  O   UNL     1     118.436 124.054 147.817  1.00  0.00    -0.490 OA
ATOM     27  C   UNL     1     117.230 123.338 148.063  1.00  0.00     0.278 C 
ENDBRANCH  10  26
TORSDOF 6
ENDMDL
MODEL 6
REMARK VINA RESULT:    -4.380      6.554      9.932
REMARK INTER + INTRA:          -6.513
REMARK INTER:                  -5.981
REMARK INTRA:                  -0.532
REMARK UNBOUND:                -0.597
REMARK SMILES COc1ccc(-c2cc(=O)c3c(OC)c(OC)c(OC)c(OC)c3o2)cc1
REMARK SMILES IDX 7 1 8 2 9 3 10 4 11 5 24 6 25 7 21 8 18 9 15 10 12 11 6 12
REMARK SMILES IDX 3 13 4 14 27 15 5 16 26 17 2 18 1 19 22 20 23 21 13 22 14 23
REMARK SMILES IDX 19 24 20 25 16 26 17 27
REMARK H PARENT
REMARK Flexibility Score: inf
ROOT
ATOM      1  C   UNL     1     132.728 131.747 129.979  1.00  0.00     0.138 A 
ATOM      2  C   UNL     1     131.737 132.188 129.099  1.00  0.00     0.100 A 
ATOM      3  C   UNL     1     131.728 133.521 128.694  1.00  0.00     0.197 A 
ATOM      4  O   UNL     1     130.823 133.899 127.903  1.00  0.00    -0.289 OA
ATOM      5  C   UNL     1     132.718 134.411 129.174  1.00  0.00     0.115 A 
ATOM      6  C   UNL     1     133.681 133.893 130.074  1.00  0.00     0.188 A 
ATOM      7  O   UNL     1     133.636 132.610 130.427  1.00  0.00    -0.452 OA
ATOM      8  C   UNL     1     134.695 134.730 130.588  1.00  0.00     0.209 A 
ATOM      9  C   UNL     1     134.729 136.088 130.224  1.00  0.00     0.211 A 
ATOM     10  C   UNL     1     133.797 136.611 129.292  1.00  0.00     0.208 A 
ATOM     11  C   UNL     1     132.773 135.771 128.780  1.00  0.00     0.179 A 
ENDROOT
BRANCH   1  12
ATOM     12  C   UNL     1     132.788 130.337 130.435  1.00  0.00     0.018 A 
ATOM     13  C   UNL     1     132.901 127.638 131.256  1.00  0.00     0.118 A 
ATOM     14  C   UNL     1     132.096 128.553 131.940  1.00  0.00     0.047 A 
ATOM     15  C   UNL     1     133.649 128.078 130.149  1.00  0.00     0.047 A 
ATOM     16  C   UNL     1     132.035 129.890 131.537  1.00  0.00     0.016 A 
ATOM     17  C   UNL     1     133.589 129.414 129.743  1.00  0.00     0.016 A 
BRANCH  13  18
ATOM     18  O   UNL     1     132.928 126.308 131.702  1.00  0.00    -0.497 OA
ATOM     19  C   UNL     1     131.772 125.493 131.867  1.00  0.00     0.278 C 
ENDBRANCH  13  18
ENDBRANCH   1  12
BRANCH   8  20
ATOM     20  O   UNL     1     135.720 134.268 131.437  1.00  0.00    -0.490 OA
ATOM     21  C   UNL     1     135.654 134.107 132.849  1.00  0.00     0.278 C 
ENDBRANCH   8  20
BRANCH  11  22
ATOM     22  O   UNL     1     131.793 136.233 127.875  1.00  0.00    -0.492 OA
ATOM     23  C   UNL     1     130.686 137.086 128.150  1.00  0.00     0.278 C 
ENDBRANCH  11  22
BRANCH   9  24
ATOM     24  O   UNL     1     135.709 136.922 130.775  1.00  0.00    -0.490 OA
ATOM     25  C   UNL     1     135.517 137.666 131.974  1.00  0.00     0.279 C 
ENDBRANCH   9  24
BRANCH  10  26
ATOM     26  O   UNL     1     133.846 137.947 128.849  1.00  0.00    -0.490 OA
ATOM     27  C   UNL     1     133.209 139.080 129.431  1.00  0.00     0.278 C 
ENDBRANCH  10  26
TORSDOF 6
ENDMDL
MODEL 7
REMARK VINA RESULT:    -4.281      5.310      8.475
REMARK INTER + INTRA:          -6.380
REMARK INTER:                  -5.789
REMARK INTRA:                  -0.592
REMARK UNBOUND:                -0.597
REMARK SMILES COc1ccc(-c2cc(=O)c3c(OC)c(OC)c(OC)c(OC)c3o2)cc1
REMARK SMILES IDX 7 1 8 2 9 3 10 4 11 5 24 6 25 7 21 8 18 9 15 10 12 11 6 12
REMARK SMILES IDX 3 13 4 14 27 15 5 16 26 17 2 18 1 19 22 20 23 21 13 22 14 23
REMARK SMILES IDX 19 24 20 25 16 26 17 27
REMARK H PARENT
REMARK Flexibility Score: inf
ROOT
ATOM      1  C   UNL     1     133.007 132.095 130.235  1.00  0.00     0.138 A 
ATOM      2  C   UNL     1     133.191 133.163 129.354  1.00  0.00     0.100 A 
ATOM      3  C   UNL     1     133.771 134.340 129.821  1.00  0.00     0.197 A 
ATOM      4  O   UNL     1     133.925 135.293 129.010  1.00  0.00    -0.289 OA
ATOM      5  C   UNL     1     134.167 134.442 131.176  1.00  0.00     0.115 A 
ATOM      6  C   UNL     1     133.934 133.323 132.011  1.00  0.00     0.188 A 
ATOM      7  O   UNL     1     133.373 132.226 131.506  1.00  0.00    -0.452 OA
ATOM      8  C   UNL     1     134.307 133.362 133.372  1.00  0.00     0.209 A 
ATOM      9  C   UNL     1     134.886 134.529 133.902  1.00  0.00     0.211 A 
ATOM     10  C   UNL     1     135.163 135.643 133.070  1.00  0.00     0.208 A 
ATOM     11  C   UNL     1     134.782 135.606 131.703  1.00  0.00     0.179 A 
ENDROOT
BRANCH   1  12
ATOM     12  C   UNL     1     132.402 130.816 129.787  1.00  0.00     0.018 A 
ATOM     13  C   UNL     1     131.206 128.405 128.934  1.00  0.00     0.118 A 
ATOM     14  C   UNL     1     132.231 128.390 129.885  1.00  0.00     0.047 A 
ATOM     15  C   UNL     1     130.774 129.638 128.413  1.00  0.00     0.047 A 
ATOM     16  C   UNL     1     132.825 129.582 130.312  1.00  0.00     0.016 A 
ATOM     17  C   UNL     1     131.366 130.831 128.839  1.00  0.00     0.016 A 
BRANCH  13  18
ATOM     18  O   UNL     1     130.644 127.182 128.539  1.00  0.00    -0.497 OA
ATOM     19  C   UNL     1     131.107 125.907 128.975  1.00  0.00     0.278 C 
ENDBRANCH  13  18
ENDBRANCH   1  12
BRANCH   8  20
ATOM     20  O   UNL     1     134.162 132.265 134.242  1.00  0.00    -0.490 OA
ATOM     21  C   UNL     1     132.973 131.845 134.901  1.00  0.00     0.278 C 
ENDBRANCH   8  20
BRANCH  11  22
ATOM     22  O   UNL     1     134.997 136.690 130.824  1.00  0.00    -0.492 OA
ATOM     23  C   UNL     1     134.259 137.906 130.744  1.00  0.00     0.278 C 
ENDBRANCH  11  22
BRANCH   9  24
ATOM     24  O   UNL     1     135.209 134.577 135.264  1.00  0.00    -0.490 OA
ATOM     25  C   UNL     1     134.314 135.059 136.262  1.00  0.00     0.279 C 
ENDBRANCH   9  24
BRANCH  10  26
ATOM     26  O   UNL     1     135.807 136.798 133.551  1.00  0.00    -0.490 OA
ATOM     27  C   UNL     1     135.212 137.922 134.193  1.00  0.00     0.278 C 
ENDBRANCH  10  26
TORSDOF 6
ENDMDL
