MODEL 1
REMARK VINA RESULT:    -4.575      0.000      0.000
REMARK INTER + INTRA:         -14.461
REMARK INTER:                 -10.459
REMARK INTRA:                  -4.002
REMARK UNBOUND:                -4.002
REMARK SMILES CCCCCCCCCCCCCCCCCCCCCCCC(=O)[O-]
REMARK SMILES IDX 13 1 14 2 15 3 16 4 17 5 18 6 19 7 20 8 21 9 22 10 23 11
REMARK SMILES IDX 24 12 25 13 26 14 12 15 11 16 10 17 9 18 8 19 7 20 6 21 5 22
REMARK SMILES IDX 4 23 3 24 2 25 1 26
REMARK H PARENT
REMARK Flexibility Score: inf
ROOT
ATOM      1  C   UNL     1      62.223  28.590   8.974  1.00  0.00     0.000 C 
ENDROOT
BRANCH   1   2
ATOM      2  C   UNL     1      63.669  28.982   9.326  1.00  0.00     0.000 C 
BRANCH   2   3
ATOM      3  C   UNL     1      63.836  30.495   9.554  1.00  0.00     0.000 C 
BRANCH   3   4
ATOM      4  C   UNL     1      65.261  31.037   9.320  1.00  0.00     0.000 C 
BRANCH   4   5
ATOM      5  C   UNL     1      65.682  32.197  10.243  1.00  0.00     0.000 C 
BRANCH   5   6
ATOM      6  C   UNL     1      64.844  32.349  11.527  1.00  0.00     0.000 C 
BRANCH   6   7
ATOM      7  C   UNL     1      65.437  33.372  12.510  1.00  0.00     0.000 C 
BRANCH   7   8
ATOM      8  C   UNL     1      64.427  33.801  13.587  1.00  0.00     0.000 C 
BRANCH   8   9
ATOM      9  C   UNL     1      65.055  33.846  14.991  1.00  0.00     0.000 C 
BRANCH   9  10
ATOM     10  C   UNL     1      64.098  34.418  16.050  1.00  0.00     0.006 C 
BRANCH  10  11
ATOM     11  C   UNL     1      64.108  33.613  17.356  1.00  0.00     0.053 C 
BRANCH  11  12
ATOM     12  C   UNL     1      63.385  34.357  18.435  1.00  0.00     0.041 C 
ATOM     13  O   UNL     1      63.984  35.241  19.103  1.00  0.00    -0.550 OA
ATOM     14  O   UNL     1      62.038  34.112  18.667  1.00  0.00    -0.550 OA
ENDBRANCH  11  12
ENDBRANCH  10  11
ENDBRANCH   9  10
ENDBRANCH   8   9
ENDBRANCH   7   8
ENDBRANCH   6   7
ENDBRANCH   5   6
ENDBRANCH   4   5
ENDBRANCH   3   4
ENDBRANCH   2   3
ENDBRANCH   1   2
BRANCH   1  15
ATOM     15  C   UNL     1      61.202  29.655   9.412  1.00  0.00     0.000 C 
BRANCH  15  16
ATOM     16  C   UNL     1      59.999  29.045  10.150  1.00  0.00     0.000 C 
BRANCH  16  17
ATOM     17  C   UNL     1      59.984  29.386  11.651  1.00  0.00     0.000 C 
BRANCH  17  18
ATOM     18  C   UNL     1      60.569  28.298  12.573  1.00  0.00    -0.000 C 
BRANCH  18  19
ATOM     19  C   UNL     1      62.076  28.430  12.868  1.00  0.00    -0.000 C 
BRANCH  19  20
ATOM     20  C   UNL     1      62.606  29.877  12.931  1.00  0.00    -0.000 C 
BRANCH  20  21
ATOM     21  C   UNL     1      63.568  30.168  14.096  1.00  0.00    -0.000 C 
BRANCH  21  22
ATOM     22  C   UNL     1      62.892  30.903  15.262  1.00  0.00    -0.000 C 
BRANCH  22  23
ATOM     23  C   UNL     1      61.414  31.183  14.950  1.00  0.00    -0.000 C 
BRANCH  23  24
ATOM     24  C   UNL     1      60.977  32.590  15.409  1.00  0.00    -0.000 C 
BRANCH  24  25
ATOM     25  C   UNL     1      60.854  33.602  14.258  1.00  0.00    -0.003 C 
ATOM     26  C   UNL     1      60.873  32.945  12.880  1.00  0.00     0.004 C 
ENDBRANCH  24  25
ENDBRANCH  23  24
ENDBRANCH  22  23
ENDBRANCH  21  22
ENDBRANCH  20  21
ENDBRANCH  19  20
ENDBRANCH  18  19
ENDBRANCH  17  18
ENDBRANCH  16  17
ENDBRANCH  15  16
ENDBRANCH   1  15
TORSDOF 22
ENDMDL
MODEL 2
REMARK VINA RESULT:    -4.507      1.438      4.072
REMARK INTER + INTRA:         -14.305
REMARK INTER:                 -10.748
REMARK INTRA:                  -3.557
REMARK UNBOUND:                -4.002
REMARK SMILES CCCCCCCCCCCCCCCCCCCCCCCC(=O)[O-]
REMARK SMILES IDX 13 1 14 2 15 3 16 4 17 5 18 6 19 7 20 8 21 9 22 10 23 11
REMARK SMILES IDX 24 12 25 13 26 14 12 15 11 16 10 17 9 18 8 19 7 20 6 21 5 22
REMARK SMILES IDX 4 23 3 24 2 25 1 26
REMARK H PARENT
REMARK Flexibility Score: inf
ROOT
ATOM      1  C   UNL     1      61.229  28.587  12.590  1.00  0.00     0.000 C 
ENDROOT
BRANCH   1   2
ATOM      2  C   UNL     1      61.373  29.705  13.637  1.00  0.00     0.000 C 
BRANCH   2   3
ATOM      3  C   UNL     1      60.359  30.845  13.433  1.00  0.00     0.000 C 
BRANCH   3   4
ATOM      4  C   UNL     1      60.892  32.057  12.642  1.00  0.00     0.000 C 
BRANCH   4   5
ATOM      5  C   UNL     1      61.083  33.346  13.466  1.00  0.00     0.000 C 
BRANCH   5   6
ATOM      6  C   UNL     1      60.872  33.189  14.984  1.00  0.00     0.000 C 
BRANCH   6   7
ATOM      7  C   UNL     1      60.780  34.538  15.717  1.00  0.00     0.000 C 
BRANCH   7   8
ATOM      8  C   UNL     1      61.755  34.626  16.902  1.00  0.00     0.000 C 
BRANCH   8   9
ATOM      9  C   UNL     1      61.785  33.331  17.732  1.00  0.00     0.000 C 
BRANCH   9  10
ATOM     10  C   UNL     1      62.178  33.575  19.198  1.00  0.00     0.006 C 
BRANCH  10  11
ATOM     11  C   UNL     1      63.247  34.665  19.353  1.00  0.00     0.053 C 
BRANCH  11  12
ATOM     12  C   UNL     1      64.544  34.066  19.797  1.00  0.00     0.041 C 
ATOM     13  O   UNL     1      64.822  33.995  21.023  1.00  0.00    -0.550 OA
ATOM     14  O   UNL     1      65.424  33.539  18.860  1.00  0.00    -0.550 OA
ENDBRANCH  11  12
ENDBRANCH  10  11
ENDBRANCH   9  10
ENDBRANCH   8   9
ENDBRANCH   7   8
ENDBRANCH   6   7
ENDBRANCH   5   6
ENDBRANCH   4   5
ENDBRANCH   3   4
ENDBRANCH   2   3
ENDBRANCH   1   2
BRANCH   1  15
ATOM     15  C   UNL     1      59.865  28.621  11.879  1.00  0.00     0.000 C 
BRANCH  15  16
ATOM     16  C   UNL     1      60.003  28.756  10.353  1.00  0.00     0.000 C 
BRANCH  16  17
ATOM     17  C   UNL     1      61.245  29.562   9.934  1.00  0.00     0.000 C 
BRANCH  17  18
ATOM     18  C   UNL     1      62.263  28.792   9.069  1.00  0.00    -0.000 C 
BRANCH  18  19
ATOM     19  C   UNL     1      63.740  29.149   9.322  1.00  0.00    -0.000 C 
BRANCH  19  20
ATOM     20  C   UNL     1      64.087  30.643   9.170  1.00  0.00    -0.000 C 
BRANCH  20  21
ATOM     21  C   UNL     1      64.597  31.327  10.452  1.00  0.00    -0.000 C 
BRANCH  21  22
ATOM     22  C   UNL     1      64.370  30.480  11.712  1.00  0.00    -0.000 C 
BRANCH  22  23
ATOM     23  C   UNL     1      64.572  31.322  12.982  1.00  0.00    -0.000 C 
BRANCH  23  24
ATOM     24  C   UNL     1      64.635  32.834  12.676  1.00  0.00    -0.000 C 
BRANCH  24  25
ATOM     25  C   UNL     1      64.654  33.715  13.936  1.00  0.00    -0.003 C 
ATOM     26  C   UNL     1      64.593  32.908  15.231  1.00  0.00     0.004 C 
ENDBRANCH  24  25
ENDBRANCH  23  24
ENDBRANCH  22  23
ENDBRANCH  21  22
ENDBRANCH  20  21
ENDBRANCH  19  20
ENDBRANCH  18  19
ENDBRANCH  17  18
ENDBRANCH  16  17
ENDBRANCH  15  16
ENDBRANCH   1  15
TORSDOF 22
ENDMDL
MODEL 3
REMARK VINA RESULT:    -4.500      1.645      3.619
REMARK INTER + INTRA:         -14.289
REMARK INTER:                 -10.678
REMARK INTRA:                  -3.612
REMARK UNBOUND:                -4.002
REMARK SMILES CCCCCCCCCCCCCCCCCCCCCCCC(=O)[O-]
REMARK SMILES IDX 13 1 14 2 15 3 16 4 17 5 18 6 19 7 20 8 21 9 22 10 23 11
REMARK SMILES IDX 24 12 25 13 26 14 12 15 11 16 10 17 9 18 8 19 7 20 6 21 5 22
REMARK SMILES IDX 4 23 3 24 2 25 1 26
REMARK H PARENT
REMARK Flexibility Score: inf
ROOT
ATOM      1  C   UNL     1      60.493  28.367  10.853  1.00  0.00     0.000 C 
ENDROOT
BRANCH   1   2
ATOM      2  C   UNL     1      60.254  29.545   9.893  1.00  0.00     0.000 C 
BRANCH   2   3
ATOM      3  C   UNL     1      61.427  29.768   8.921  1.00  0.00     0.000 C 
BRANCH   3   4
ATOM      4  C   UNL     1      62.563  28.729   9.022  1.00  0.00     0.000 C 
BRANCH   4   5
ATOM      5  C   UNL     1      63.938  29.297   9.426  1.00  0.00     0.000 C 
BRANCH   5   6
ATOM      6  C   UNL     1      63.989  30.827   9.596  1.00  0.00     0.000 C 
BRANCH   6   7
ATOM      7  C   UNL     1      65.243  31.303  10.349  1.00  0.00     0.000 C 
BRANCH   7   8
ATOM      8  C   UNL     1      64.910  32.318  11.455  1.00  0.00     0.000 C 
BRANCH   8   9
ATOM      9  C   UNL     1      65.939  33.459  11.528  1.00  0.00     0.000 C 
BRANCH   9  10
ATOM     10  C   UNL     1      66.043  34.074  12.934  1.00  0.00     0.006 C 
BRANCH  10  11
ATOM     11  C   UNL     1      64.832  33.745  13.817  1.00  0.00     0.053 C 
BRANCH  11  12
ATOM     12  C   UNL     1      65.270  33.060  15.072  1.00  0.00     0.041 C 
ATOM     13  O   UNL     1      65.528  31.827  15.063  1.00  0.00    -0.550 OA
ATOM     14  O   UNL     1      65.445  33.791  16.241  1.00  0.00    -0.550 OA
ENDBRANCH  11  12
ENDBRANCH  10  11
ENDBRANCH   9  10
ENDBRANCH   8   9
ENDBRANCH   7   8
ENDBRANCH   6   7
ENDBRANCH   5   6
ENDBRANCH   4   5
ENDBRANCH   3   4
ENDBRANCH   2   3
ENDBRANCH   1   2
BRANCH   1  15
ATOM     15  C   UNL     1      59.826  28.581  12.223  1.00  0.00     0.000 C 
BRANCH  15  16
ATOM     16  C   UNL     1      60.843  28.586  13.376  1.00  0.00     0.000 C 
BRANCH  16  17
ATOM     17  C   UNL     1      62.214  29.150  12.961  1.00  0.00     0.000 C 
BRANCH  17  18
ATOM     18  C   UNL     1      62.449  30.629  13.327  1.00  0.00    -0.000 C 
BRANCH  18  19
ATOM     19  C   UNL     1      61.589  31.642  12.545  1.00  0.00    -0.000 C 
BRANCH  19  20
ATOM     20  C   UNL     1      60.289  32.076  13.249  1.00  0.00    -0.000 C 
BRANCH  20  21
ATOM     21  C   UNL     1      60.454  32.499  14.720  1.00  0.00    -0.000 C 
BRANCH  21  22
ATOM     22  C   UNL     1      60.787  33.989  14.881  1.00  0.00    -0.000 C 
BRANCH  22  23
ATOM     23  C   UNL     1      61.833  34.201  15.986  1.00  0.00    -0.000 C 
BRANCH  23  24
ATOM     24  C   UNL     1      61.968  32.970  16.907  1.00  0.00    -0.000 C 
BRANCH  24  25
ATOM     25  C   UNL     1      62.492  33.308  18.312  1.00  0.00    -0.003 C 
ATOM     26  C   UNL     1      61.453  34.009  19.185  1.00  0.00     0.004 C 
ENDBRANCH  24  25
ENDBRANCH  23  24
ENDBRANCH  22  23
ENDBRANCH  21  22
ENDBRANCH  20  21
ENDBRANCH  19  20
ENDBRANCH  18  19
ENDBRANCH  17  18
ENDBRANCH  16  17
ENDBRANCH  15  16
ENDBRANCH   1  15
TORSDOF 22
ENDMDL
MODEL 4
REMARK VINA RESULT:    -4.352      2.723      6.505
REMARK INTER + INTRA:         -13.951
REMARK INTER:                 -10.199
REMARK INTRA:                  -3.752
REMARK UNBOUND:                -4.002
REMARK SMILES CCCCCCCCCCCCCCCCCCCCCCCC(=O)[O-]
REMARK SMILES IDX 13 1 14 2 15 3 16 4 17 5 18 6 19 7 20 8 21 9 22 10 23 11
REMARK SMILES IDX 24 12 25 13 26 14 12 15 11 16 10 17 9 18 8 19 7 20 6 21 5 22
REMARK SMILES IDX 4 23 3 24 2 25 1 26
REMARK H PARENT
REMARK Flexibility Score: inf
ROOT
ATOM      1  C   UNL     1      64.430  32.110  14.520  1.00  0.00     0.000 C 
ENDROOT
BRANCH   1   2
ATOM      2  C   UNL     1      64.122  31.224  13.300  1.00  0.00     0.000 C 
BRANCH   2   3
ATOM      3  C   UNL     1      64.070  32.022  11.984  1.00  0.00     0.000 C 
BRANCH   3   4
ATOM      4  C   UNL     1      64.552  31.253  10.737  1.00  0.00     0.000 C 
BRANCH   4   5
ATOM      5  C   UNL     1      64.138  29.769  10.679  1.00  0.00     0.000 C 
BRANCH   5   6
ATOM      6  C   UNL     1      63.674  29.274   9.296  1.00  0.00     0.000 C 
BRANCH   6   7
ATOM      7  C   UNL     1      62.283  28.618   9.332  1.00  0.00     0.000 C 
BRANCH   7   8
ATOM      8  C   UNL     1      61.151  29.637   9.126  1.00  0.00     0.000 C 
BRANCH   8   9
ATOM      9  C   UNL     1      60.171  29.669  10.313  1.00  0.00     0.000 C 
BRANCH   9  10
ATOM     10  C   UNL     1      60.631  30.613  11.436  1.00  0.00     0.006 C 
BRANCH  10  11
ATOM     11  C   UNL     1      60.389  30.033  12.836  1.00  0.00     0.053 C 
BRANCH  11  12
ATOM     12  C   UNL     1      60.837  28.607  12.896  1.00  0.00     0.041 C 
ATOM     13  O   UNL     1      62.058  28.333  13.039  1.00  0.00    -0.550 OA
ATOM     14  O   UNL     1      59.903  27.581  12.848  1.00  0.00    -0.550 OA
ENDBRANCH  11  12
ENDBRANCH  10  11
ENDBRANCH   9  10
ENDBRANCH   8   9
ENDBRANCH   7   8
ENDBRANCH   6   7
ENDBRANCH   5   6
ENDBRANCH   4   5
ENDBRANCH   3   4
ENDBRANCH   2   3
ENDBRANCH   1   2
BRANCH   1  15
ATOM     15  C   UNL     1      64.623  33.588  14.139  1.00  0.00     0.000 C 
BRANCH  15  16
ATOM     16  C   UNL     1      65.194  34.423  15.298  1.00  0.00     0.000 C 
BRANCH  16  17
ATOM     17  C   UNL     1      65.867  33.561  16.379  1.00  0.00     0.000 C 
BRANCH  17  18
ATOM     18  C   UNL     1      65.766  34.116  17.814  1.00  0.00    -0.000 C 
BRANCH  18  19
ATOM     19  C   UNL     1      64.991  35.441  17.950  1.00  0.00    -0.000 C 
BRANCH  19  20
ATOM     20  C   UNL     1      63.590  35.319  18.583  1.00  0.00    -0.000 C 
BRANCH  20  21
ATOM     21  C   UNL     1      63.192  33.895  19.011  1.00  0.00    -0.000 C 
BRANCH  21  22
ATOM     22  C   UNL     1      61.833  33.458  18.446  1.00  0.00    -0.000 C 
BRANCH  22  23
ATOM     23  C   UNL     1      61.972  32.981  16.992  1.00  0.00    -0.000 C 
BRANCH  23  24
ATOM     24  C   UNL     1      61.285  33.938  15.995  1.00  0.00    -0.000 C 
BRANCH  24  25
ATOM     25  C   UNL     1      60.532  33.214  14.866  1.00  0.00    -0.003 C 
ATOM     26  C   UNL     1      61.062  33.560  13.477  1.00  0.00     0.004 C 
ENDBRANCH  24  25
ENDBRANCH  23  24
ENDBRANCH  22  23
ENDBRANCH  21  22
ENDBRANCH  20  21
ENDBRANCH  19  20
ENDBRANCH  18  19
ENDBRANCH  17  18
ENDBRANCH  16  17
ENDBRANCH  15  16
ENDBRANCH   1  15
TORSDOF 22
ENDMDL
MODEL 5
REMARK VINA RESULT:    -4.289      2.090      4.821
REMARK INTER + INTRA:         -13.807
REMARK INTER:                 -10.805
REMARK INTRA:                  -3.002
REMARK UNBOUND:                -4.002
REMARK SMILES CCCCCCCCCCCCCCCCCCCCCCCC(=O)[O-]
REMARK SMILES IDX 13 1 14 2 15 3 16 4 17 5 18 6 19 7 20 8 21 9 22 10 23 11
REMARK SMILES IDX 24 12 25 13 26 14 12 15 11 16 10 17 9 18 8 19 7 20 6 21 5 22
REMARK SMILES IDX 4 23 3 24 2 25 1 26
REMARK H PARENT
REMARK Flexibility Score: inf
ROOT
ATOM      1  C   UNL     1      59.982  28.234  12.609  1.00  0.00     0.000 C 
ENDROOT
BRANCH   1   2
ATOM      2  C   UNL     1      59.633  28.623  11.162  1.00  0.00     0.000 C 
BRANCH   2   3
ATOM      3  C   UNL     1      60.849  28.560  10.220  1.00  0.00     0.000 C 
BRANCH   3   4
ATOM      4  C   UNL     1      61.091  29.831   9.381  1.00  0.00     0.000 C 
BRANCH   4   5
ATOM      5  C   UNL     1      62.567  30.129   9.051  1.00  0.00     0.000 C 
BRANCH   5   6
ATOM      6  C   UNL     1      63.595  29.400   9.937  1.00  0.00     0.000 C 
BRANCH   6   7
ATOM      7  C   UNL     1      64.945  30.134  10.014  1.00  0.00     0.000 C 
BRANCH   7   8
ATOM      8  C   UNL     1      64.814  31.633   9.699  1.00  0.00     0.000 C 
BRANCH   8   9
ATOM      9  C   UNL     1      65.438  32.516  10.794  1.00  0.00     0.000 C 
BRANCH   9  10
ATOM     10  C   UNL     1      64.480  32.768  11.970  1.00  0.00     0.006 C 
BRANCH  10  11
ATOM     11  C   UNL     1      65.197  32.786  13.327  1.00  0.00     0.053 C 
BRANCH  11  12
ATOM     12  C   UNL     1      64.841  31.570  14.123  1.00  0.00     0.041 C 
ATOM     13  O   UNL     1      64.423  31.688  15.305  1.00  0.00    -0.550 OA
ATOM     14  O   UNL     1      64.920  30.310  13.543  1.00  0.00    -0.550 OA
ENDBRANCH  11  12
ENDBRANCH  10  11
ENDBRANCH   9  10
ENDBRANCH   8   9
ENDBRANCH   7   8
ENDBRANCH   6   7
ENDBRANCH   5   6
ENDBRANCH   4   5
ENDBRANCH   3   4
ENDBRANCH   2   3
ENDBRANCH   1   2
BRANCH   1  15
ATOM     15  C   UNL     1      61.411  28.649  13.001  1.00  0.00     0.000 C 
BRANCH  15  16
ATOM     16  C   UNL     1      61.449  29.998  13.738  1.00  0.00     0.000 C 
BRANCH  16  17
ATOM     17  C   UNL     1      61.548  31.198  12.780  1.00  0.00     0.000 C 
BRANCH  17  18
ATOM     18  C   UNL     1      60.549  32.340  13.059  1.00  0.00    -0.000 C 
BRANCH  18  19
ATOM     19  C   UNL     1      61.106  33.508  13.895  1.00  0.00    -0.000 C 
BRANCH  19  20
ATOM     20  C   UNL     1      61.265  33.218  15.401  1.00  0.00    -0.000 C 
BRANCH  20  21
ATOM     21  C   UNL     1      62.111  34.243  16.176  1.00  0.00    -0.000 C 
BRANCH  21  22
ATOM     22  C   UNL     1      61.567  34.528  17.582  1.00  0.00    -0.000 C 
BRANCH  22  23
ATOM     23  C   UNL     1      62.131  33.528  18.603  1.00  0.00    -0.000 C 
BRANCH  23  24
ATOM     24  C   UNL     1      63.660  33.662  18.767  1.00  0.00    -0.000 C 
BRANCH  24  25
ATOM     25  C   UNL     1      64.075  34.552  19.950  1.00  0.00    -0.003 C 
ATOM     26  C   UNL     1      63.920  33.860  21.302  1.00  0.00     0.004 C 
ENDBRANCH  24  25
ENDBRANCH  23  24
ENDBRANCH  22  23
ENDBRANCH  21  22
ENDBRANCH  20  21
ENDBRANCH  19  20
ENDBRANCH  18  19
ENDBRANCH  17  18
ENDBRANCH  16  17
ENDBRANCH  15  16
ENDBRANCH   1  15
TORSDOF 22
ENDMDL
MODEL 6
REMARK VINA RESULT:    -4.273      1.543      4.807
REMARK INTER + INTRA:         -13.771
REMARK INTER:                 -10.096
REMARK INTRA:                  -3.675
REMARK UNBOUND:                -4.002
REMARK SMILES CCCCCCCCCCCCCCCCCCCCCCCC(=O)[O-]
REMARK SMILES IDX 13 1 14 2 15 3 16 4 17 5 18 6 19 7 20 8 21 9 22 10 23 11
REMARK SMILES IDX 24 12 25 13 26 14 12 15 11 16 10 17 9 18 8 19 7 20 6 21 5 22
REMARK SMILES IDX 4 23 3 24 2 25 1 26
REMARK H PARENT
REMARK Flexibility Score: inf
ROOT
ATOM      1  C   UNL     1      63.859  29.490   9.787  1.00  0.00     0.000 C 
ENDROOT
BRANCH   1   2
ATOM      2  C   UNL     1      62.603  29.753   8.938  1.00  0.00     0.000 C 
BRANCH   2   3
ATOM      3  C   UNL     1      61.357  29.029   9.479  1.00  0.00     0.000 C 
BRANCH   3   4
ATOM      4  C   UNL     1      60.342  29.934  10.207  1.00  0.00     0.000 C 
BRANCH   4   5
ATOM      5  C   UNL     1      60.472  29.963  11.743  1.00  0.00     0.000 C 
BRANCH   5   6
ATOM      6  C   UNL     1      60.853  28.619  12.392  1.00  0.00     0.000 C 
BRANCH   6   7
ATOM      7  C   UNL     1      62.187  28.682  13.156  1.00  0.00     0.000 C 
BRANCH   7   8
ATOM      8  C   UNL     1      62.862  30.058  13.041  1.00  0.00     0.000 C 
BRANCH   8   9
ATOM      9  C   UNL     1      63.463  30.527  14.377  1.00  0.00     0.000 C 
BRANCH   9  10
ATOM     10  C   UNL     1      62.535  31.487  15.140  1.00  0.00     0.006 C 
BRANCH  10  11
ATOM     11  C   UNL     1      62.171  32.735  14.324  1.00  0.00     0.053 C 
BRANCH  11  12
ATOM     12  C   UNL     1      60.790  33.198  14.663  1.00  0.00     0.041 C 
ATOM     13  O   UNL     1      60.611  34.332  15.181  1.00  0.00    -0.550 OA
ATOM     14  O   UNL     1      59.694  32.399  14.361  1.00  0.00    -0.550 OA
ENDBRANCH  11  12
ENDBRANCH  10  11
ENDBRANCH   9  10
ENDBRANCH   8   9
ENDBRANCH   7   8
ENDBRANCH   6   7
ENDBRANCH   5   6
ENDBRANCH   4   5
ENDBRANCH   3   4
ENDBRANCH   2   3
ENDBRANCH   1   2
BRANCH   1  15
ATOM     15  C   UNL     1      65.118  30.147   9.193  1.00  0.00     0.000 C 
BRANCH  15  16
ATOM     16  C   UNL     1      65.186  31.655   9.486  1.00  0.00     0.000 C 
BRANCH  16  17
ATOM     17  C   UNL     1      64.955  31.986  10.971  1.00  0.00     0.000 C 
BRANCH  17  18
ATOM     18  C   UNL     1      65.668  33.256  11.476  1.00  0.00    -0.000 C 
BRANCH  18  19
ATOM     19  C   UNL     1      65.311  33.679  12.915  1.00  0.00    -0.000 C 
BRANCH  19  20
ATOM     20  C   UNL     1      66.084  32.939  14.025  1.00  0.00    -0.000 C 
BRANCH  20  21
ATOM     21  C   UNL     1      65.808  33.440  15.454  1.00  0.00    -0.000 C 
BRANCH  21  22
ATOM     22  C   UNL     1      65.035  34.766  15.485  1.00  0.00    -0.000 C 
BRANCH  22  23
ATOM     23  C   UNL     1      64.167  34.866  16.749  1.00  0.00    -0.000 C 
BRANCH  23  24
ATOM     24  C   UNL     1      64.128  33.540  17.537  1.00  0.00    -0.000 C 
BRANCH  24  25
ATOM     25  C   UNL     1      63.224  33.589  18.779  1.00  0.00    -0.003 C 
ATOM     26  C   UNL     1      61.736  33.558  18.437  1.00  0.00     0.004 C 
ENDBRANCH  24  25
ENDBRANCH  23  24
ENDBRANCH  22  23
ENDBRANCH  21  22
ENDBRANCH  20  21
ENDBRANCH  19  20
ENDBRANCH  18  19
ENDBRANCH  17  18
ENDBRANCH  16  17
ENDBRANCH  15  16
ENDBRANCH   1  15
TORSDOF 22
ENDMDL
MODEL 7
REMARK VINA RESULT:    -4.217      0.991      2.076
REMARK INTER + INTRA:         -13.643
REMARK INTER:                 -10.526
REMARK INTRA:                  -3.117
REMARK UNBOUND:                -4.002
REMARK SMILES CCCCCCCCCCCCCCCCCCCCCCCC(=O)[O-]
REMARK SMILES IDX 13 1 14 2 15 3 16 4 17 5 18 6 19 7 20 8 21 9 22 10 23 11
REMARK SMILES IDX 24 12 25 13 26 14 12 15 11 16 10 17 9 18 8 19 7 20 6 21 5 22
REMARK SMILES IDX 4 23 3 24 2 25 1 26
REMARK H PARENT
REMARK Flexibility Score: inf
ROOT
ATOM      1  C   UNL     1      63.500  29.193  10.974  1.00  0.00     0.000 C 
ENDROOT
BRANCH   1   2
ATOM      2  C   UNL     1      64.175  30.520  11.362  1.00  0.00     0.000 C 
BRANCH   2   3
ATOM      3  C   UNL     1      64.861  31.209  10.168  1.00  0.00     0.000 C 
BRANCH   3   4
ATOM      4  C   UNL     1      65.569  32.538  10.502  1.00  0.00     0.000 C 
BRANCH   4   5
ATOM      5  C   UNL     1      65.233  33.132  11.884  1.00  0.00     0.000 C 
BRANCH   5   6
ATOM      6  C   UNL     1      66.358  33.963  12.529  1.00  0.00     0.000 C 
BRANCH   6   7
ATOM      7  C   UNL     1      65.900  34.708  13.795  1.00  0.00     0.000 C 
BRANCH   7   8
ATOM      8  C   UNL     1      65.022  33.832  14.703  1.00  0.00     0.000 C 
BRANCH   8   9
ATOM      9  C   UNL     1      64.491  34.604  15.924  1.00  0.00     0.000 C 
BRANCH   9  10
ATOM     10  C   UNL     1      63.198  33.997  16.492  1.00  0.00     0.006 C 
BRANCH  10  11
ATOM     11  C   UNL     1      63.345  33.548  17.952  1.00  0.00     0.053 C 
BRANCH  11  12
ATOM     12  C   UNL     1      62.672  34.521  18.868  1.00  0.00     0.041 C 
ATOM     13  O   UNL     1      61.473  34.343  19.211  1.00  0.00    -0.550 OA
ATOM     14  O   UNL     1      63.383  35.597  19.385  1.00  0.00    -0.550 OA
ENDBRANCH  11  12
ENDBRANCH  10  11
ENDBRANCH   9  10
ENDBRANCH   8   9
ENDBRANCH   7   8
ENDBRANCH   6   7
ENDBRANCH   5   6
ENDBRANCH   4   5
ENDBRANCH   3   4
ENDBRANCH   2   3
ENDBRANCH   1   2
BRANCH   1  15
ATOM     15  C   UNL     1      63.401  29.008   9.450  1.00  0.00     0.000 C 
BRANCH  15  16
ATOM     16  C   UNL     1      61.998  28.563   9.004  1.00  0.00     0.000 C 
BRANCH  16  17
ATOM     17  C   UNL     1      60.995  29.728   8.935  1.00  0.00     0.000 C 
BRANCH  17  18
ATOM     18  C   UNL     1      60.118  29.911  10.190  1.00  0.00    -0.000 C 
BRANCH  18  19
ATOM     19  C   UNL     1      59.712  28.605  10.901  1.00  0.00    -0.000 C 
BRANCH  19  20
ATOM     20  C   UNL     1      60.246  28.449  12.339  1.00  0.00    -0.000 C 
BRANCH  20  21
ATOM     21  C   UNL     1      60.517  29.771  13.079  1.00  0.00    -0.000 C 
BRANCH  21  22
ATOM     22  C   UNL     1      61.621  29.648  14.139  1.00  0.00    -0.000 C 
BRANCH  22  23
ATOM     23  C   UNL     1      61.858  30.993  14.843  1.00  0.00    -0.000 C 
BRANCH  23  24
ATOM     24  C   UNL     1      60.573  31.845  14.923  1.00  0.00    -0.000 C 
BRANCH  24  25
ATOM     25  C   UNL     1      60.689  33.200  14.207  1.00  0.00    -0.003 C 
ATOM     26  C   UNL     1      61.731  33.200  13.091  1.00  0.00     0.004 C 
ENDBRANCH  24  25
ENDBRANCH  23  24
ENDBRANCH  22  23
ENDBRANCH  21  22
ENDBRANCH  20  21
ENDBRANCH  19  20
ENDBRANCH  18  19
ENDBRANCH  17  18
ENDBRANCH  16  17
ENDBRANCH  15  16
ENDBRANCH   1  15
TORSDOF 22
ENDMDL
MODEL 8
REMARK VINA RESULT:    -4.211      2.261      6.068
REMARK INTER + INTRA:         -13.628
REMARK INTER:                 -10.540
REMARK INTRA:                  -3.088
REMARK UNBOUND:                -4.002
REMARK SMILES CCCCCCCCCCCCCCCCCCCCCCCC(=O)[O-]
REMARK SMILES IDX 13 1 14 2 15 3 16 4 17 5 18 6 19 7 20 8 21 9 22 10 23 11
REMARK SMILES IDX 24 12 25 13 26 14 12 15 11 16 10 17 9 18 8 19 7 20 6 21 5 22
REMARK SMILES IDX 4 23 3 24 2 25 1 26
REMARK H PARENT
REMARK Flexibility Score: inf
ROOT
ATOM      1  C   UNL     1      64.527  32.664  14.508  1.00  0.00     0.000 C 
ENDROOT
BRANCH   1   2
ATOM      2  C   UNL     1      64.801  34.170  14.344  1.00  0.00     0.000 C 
BRANCH   2   3
ATOM      3  C   UNL     1      65.326  34.823  15.635  1.00  0.00     0.000 C 
BRANCH   3   4
ATOM      4  C   UNL     1      65.550  33.851  16.812  1.00  0.00     0.000 C 
BRANCH   4   5
ATOM      5  C   UNL     1      64.695  34.129  18.065  1.00  0.00     0.000 C 
BRANCH   5   6
ATOM      6  C   UNL     1      63.667  35.265  17.915  1.00  0.00     0.000 C 
BRANCH   6   7
ATOM      7  C   UNL     1      62.237  34.749  17.681  1.00  0.00     0.000 C 
BRANCH   7   8
ATOM      8  C   UNL     1      62.179  33.217  17.571  1.00  0.00     0.000 C 
BRANCH   8   9
ATOM      9  C   UNL     1      61.374  32.749  16.346  1.00  0.00     0.000 C 
BRANCH   9  10
ATOM     10  C   UNL     1      60.989  33.908  15.412  1.00  0.00     0.006 C 
BRANCH  10  11
ATOM     11  C   UNL     1      61.098  33.536  13.928  1.00  0.00     0.053 C 
BRANCH  11  12
ATOM     12  C   UNL     1      60.616  32.138  13.702  1.00  0.00     0.041 C 
ATOM     13  O   UNL     1      61.436  31.221  13.435  1.00  0.00    -0.550 OA
ATOM     14  O   UNL     1      59.266  31.837  13.836  1.00  0.00    -0.550 OA
ENDBRANCH  11  12
ENDBRANCH  10  11
ENDBRANCH   9  10
ENDBRANCH   8   9
ENDBRANCH   7   8
ENDBRANCH   6   7
ENDBRANCH   5   6
ENDBRANCH   4   5
ENDBRANCH   3   4
ENDBRANCH   2   3
ENDBRANCH   1   2
BRANCH   1  15
ATOM     15  C   UNL     1      64.971  31.850  13.281  1.00  0.00     0.000 C 
BRANCH  15  16
ATOM     16  C   UNL     1      64.412  32.419  11.966  1.00  0.00     0.000 C 
BRANCH  16  17
ATOM     17  C   UNL     1      65.515  32.902  11.008  1.00  0.00     0.000 C 
BRANCH  17  18
ATOM     18  C   UNL     1      65.767  31.991   9.789  1.00  0.00    -0.000 C 
BRANCH  18  19
ATOM     19  C   UNL     1      64.517  31.283   9.231  1.00  0.00    -0.000 C 
BRANCH  19  20
ATOM     20  C   UNL     1      64.670  29.765   9.007  1.00  0.00    -0.000 C 
BRANCH  20  21
ATOM     21  C   UNL     1      63.498  28.910   9.523  1.00  0.00    -0.000 C 
BRANCH  21  22
ATOM     22  C   UNL     1      62.503  29.710  10.375  1.00  0.00    -0.000 C 
BRANCH  22  23
ATOM     23  C   UNL     1      61.130  29.785   9.689  1.00  0.00    -0.000 C 
BRANCH  23  24
ATOM     24  C   UNL     1      60.007  29.183  10.560  1.00  0.00    -0.000 C 
BRANCH  24  25
ATOM     25  C   UNL     1      60.523  28.472  11.822  1.00  0.00    -0.003 C 
ATOM     26  C   UNL     1      59.405  28.076  12.783  1.00  0.00     0.004 C 
ENDBRANCH  24  25
ENDBRANCH  23  24
ENDBRANCH  22  23
ENDBRANCH  21  22
ENDBRANCH  20  21
ENDBRANCH  19  20
ENDBRANCH  18  19
ENDBRANCH  17  18
ENDBRANCH  16  17
ENDBRANCH  15  16
ENDBRANCH   1  15
TORSDOF 22
ENDMDL
MODEL 9
REMARK VINA RESULT:    -4.144      2.276      6.023
REMARK INTER + INTRA:         -13.475
REMARK INTER:                  -9.998
REMARK INTRA:                  -3.477
REMARK UNBOUND:                -4.002
REMARK SMILES CCCCCCCCCCCCCCCCCCCCCCCC(=O)[O-]
REMARK SMILES IDX 13 1 14 2 15 3 16 4 17 5 18 6 19 7 20 8 21 9 22 10 23 11
REMARK SMILES IDX 24 12 25 13 26 14 12 15 11 16 10 17 9 18 8 19 7 20 6 21 5 22
REMARK SMILES IDX 4 23 3 24 2 25 1 26
REMARK H PARENT
REMARK Flexibility Score: inf
ROOT
ATOM      1  C   UNL     1      61.489  33.943  15.529  1.00  0.00     0.000 C 
ENDROOT
BRANCH   1   2
ATOM      2  C   UNL     1      61.703  32.738  16.463  1.00  0.00     0.000 C 
BRANCH   2   3
ATOM      3  C   UNL     1      61.722  33.135  17.950  1.00  0.00     0.000 C 
BRANCH   3   4
ATOM      4  C   UNL     1      62.655  34.312  18.299  1.00  0.00     0.000 C 
BRANCH   4   5
ATOM      5  C   UNL     1      64.084  33.915  18.720  1.00  0.00     0.000 C 
BRANCH   5   6
ATOM      6  C   UNL     1      65.164  34.980  18.450  1.00  0.00     0.000 C 
BRANCH   6   7
ATOM      7  C   UNL     1      64.933  35.745  17.137  1.00  0.00     0.000 C 
BRANCH   7   8
ATOM      8  C   UNL     1      66.175  35.740  16.231  1.00  0.00     0.000 C 
BRANCH   8   9
ATOM      9  C   UNL     1      65.884  35.140  14.844  1.00  0.00     0.000 C 
BRANCH   9  10
ATOM     10  C   UNL     1      64.842  34.010  14.894  1.00  0.00     0.006 C 
BRANCH  10  11
ATOM     11  C   UNL     1      65.449  32.660  15.299  1.00  0.00     0.053 C 
BRANCH  11  12
ATOM     12  C   UNL     1      65.150  31.621  14.265  1.00  0.00     0.041 C 
ATOM     13  O   UNL     1      65.024  31.950  13.056  1.00  0.00    -0.550 OA
ATOM     14  O   UNL     1      65.064  30.283  14.627  1.00  0.00    -0.550 OA
ENDBRANCH  11  12
ENDBRANCH  10  11
ENDBRANCH   9  10
ENDBRANCH   8   9
ENDBRANCH   7   8
ENDBRANCH   6   7
ENDBRANCH   5   6
ENDBRANCH   4   5
ENDBRANCH   3   4
ENDBRANCH   2   3
ENDBRANCH   1   2
BRANCH   1  15
ATOM     15  C   UNL     1      60.773  33.554  14.224  1.00  0.00     0.000 C 
BRANCH  15  16
ATOM     16  C   UNL     1      61.694  32.798  13.252  1.00  0.00     0.000 C 
BRANCH  16  17
ATOM     17  C   UNL     1      61.116  31.440  12.817  1.00  0.00     0.000 C 
BRANCH  17  18
ATOM     18  C   UNL     1      61.766  30.210  13.482  1.00  0.00    -0.000 C 
BRANCH  18  19
ATOM     19  C   UNL     1      61.373  28.851  12.870  1.00  0.00    -0.000 C 
BRANCH  19  20
ATOM     20  C   UNL     1      60.007  28.825  12.156  1.00  0.00    -0.000 C 
BRANCH  20  21
ATOM     21  C   UNL     1      60.065  28.510  10.651  1.00  0.00    -0.000 C 
BRANCH  21  22
ATOM     22  C   UNL     1      60.050  29.770   9.774  1.00  0.00    -0.000 C 
BRANCH  22  23
ATOM     23  C   UNL     1      61.389  29.944   9.041  1.00  0.00    -0.000 C 
BRANCH  23  24
ATOM     24  C   UNL     1      62.267  28.677   9.120  1.00  0.00    -0.000 C 
BRANCH  24  25
ATOM     25  C   UNL     1      63.711  28.958   9.568  1.00  0.00    -0.003 C 
ATOM     26  C   UNL     1      63.864  30.293  10.291  1.00  0.00     0.004 C 
ENDBRANCH  24  25
ENDBRANCH  23  24
ENDBRANCH  22  23
ENDBRANCH  21  22
ENDBRANCH  20  21
ENDBRANCH  19  20
ENDBRANCH  18  19
ENDBRANCH  17  18
ENDBRANCH  16  17
ENDBRANCH  15  16
ENDBRANCH   1  15
TORSDOF 22
ENDMDL
