MODEL 1
REMARK VINA RESULT:    -7.104      0.000      0.000
REMARK INTER + INTRA:         -10.759
REMARK INTER:                  -9.804
REMARK INTRA:                  -0.955
REMARK UNBOUND:                -0.955
REMARK SMILES CC[C@H](CC[C@H](C)[C@H]1CC[C@@H]2[C@H]3CC=C4C[C@@H](O)CC[C@]4(C)[C@@H]3CC[C@@]21C)C(C)C
REMARK SMILES IDX 5 1 4 2 3 3 2 4 1 5 28 6 29 7 30 8 6 9 7 10 8 11 9 12 26 13
REMARK SMILES IDX 10 14 11 15 25 16 27 17 12 18 24 19 23 20 13 21 21 22 14 23
REMARK SMILES IDX 15 24 20 25 22 26 16 27 19 28 17 29 18 30
REMARK H PARENT 18 31
REMARK Flexibility Score: inf
ROOT
ATOM      1  C   UNL     1      11.750 -18.274  31.617  1.00  0.00     0.004 C 
ENDROOT
BRANCH   1   2
ATOM      2  C   UNL     1      10.366 -18.892  31.956  1.00  0.00     0.004 C 
BRANCH   2   3
ATOM      3  C   UNL     1      10.465 -20.304  32.599  1.00  0.00    -0.009 C 
BRANCH   3   4
ATOM      4  C   UNL     1      10.271 -20.220  34.142  1.00  0.00     0.000 C 
ATOM      5  C   UNL     1       8.801 -20.267  34.562  1.00  0.00     0.004 C 
ENDBRANCH   3   4
BRANCH   3   6
ATOM      6  C   UNL     1       9.472 -21.329  31.948  1.00  0.00    -0.014 C 
ATOM      7  C   UNL     1       9.236 -21.096  30.444  1.00  0.00     0.007 C 
ATOM      8  C   UNL     1       9.908 -22.783  32.196  1.00  0.00     0.007 C 
ENDBRANCH   3   6
ENDBRANCH   2   3
ENDBRANCH   1   2
BRANCH   1   9
ATOM      9  C   UNL     1      11.831 -16.736  31.838  1.00  0.00    -0.011 C 
ATOM     10  C   UNL     1      10.573 -16.262  32.600  1.00  0.00     0.008 C 
BRANCH   9  11
ATOM     11  C   UNL     1      12.068 -15.996  30.468  1.00  0.00    -0.002 C 
ATOM     12  C   UNL     1      11.118 -14.843  30.166  1.00  0.00     0.005 C 
ATOM     13  C   UNL     1      13.506 -15.455  30.135  1.00  0.00    -0.026 C 
ATOM     14  C   UNL     1      11.715 -14.193  28.931  1.00  0.00     0.005 C 
ATOM     15  C   UNL     1      13.237 -14.278  29.125  1.00  0.00    -0.001 C 
ATOM     16  C   UNL     1      14.371 -16.598  29.503  1.00  0.00     0.007 C 
ATOM     17  C   UNL     1      14.250 -14.902  31.379  1.00  0.00     0.012 C 
ATOM     18  C   UNL     1      14.018 -14.420  27.791  1.00  0.00     0.000 C 
ATOM     19  C   UNL     1      15.633 -16.132  28.729  1.00  0.00     0.005 C 
ATOM     20  C   UNL     1      15.512 -14.707  28.119  1.00  0.00     0.003 C 
ATOM     21  C   UNL     1      13.881 -13.172  26.904  1.00  0.00     0.031 C 
ATOM     22  C   UNL     1      16.544 -14.309  26.954  1.00  0.00    -0.008 C 
ATOM     23  C   UNL     1      14.616 -13.425  25.621  1.00  0.00    -0.027 C 
ATOM     24  C   UNL     1      15.821 -14.028  25.627  1.00  0.00    -0.065 C 
ATOM     25  C   UNL     1      17.630 -15.401  26.700  1.00  0.00     0.014 C 
ATOM     26  C   UNL     1      17.262 -12.995  27.384  1.00  0.00     0.016 C 
ATOM     27  C   UNL     1      16.350 -14.600  24.324  1.00  0.00     0.063 C 
ATOM     28  C   UNL     1      18.604 -15.032  25.569  1.00  0.00     0.033 C 
ATOM     29  C   UNL     1      17.895 -14.649  24.243  1.00  0.00     0.118 C 
BRANCH  29  30
ATOM     30  O   UNL     1      18.411 -13.445  23.731  1.00  0.00    -0.393 OA
ATOM     31  H   UNL     1      19.299 -13.297  24.146  1.00  0.00     0.210 HD
ENDBRANCH  29  30
ENDBRANCH   9  11
ENDBRANCH   1   9
TORSDOF 7
ENDMDL
MODEL 2
REMARK VINA RESULT:    -6.744      2.896      5.162
REMARK INTER + INTRA:         -10.262
REMARK INTER:                  -8.958
REMARK INTRA:                  -1.304
REMARK UNBOUND:                -0.955
REMARK SMILES CC[C@H](CC[C@H](C)[C@H]1CC[C@@H]2[C@H]3CC=C4C[C@@H](O)CC[C@]4(C)[C@@H]3CC[C@@]21C)C(C)C
REMARK SMILES IDX 5 1 4 2 3 3 2 4 1 5 28 6 29 7 30 8 6 9 7 10 8 11 9 12 26 13
REMARK SMILES IDX 10 14 11 15 25 16 27 17 12 18 24 19 23 20 13 21 21 22 14 23
REMARK SMILES IDX 15 24 20 25 22 26 16 27 19 28 17 29 18 30
REMARK H PARENT 18 31
REMARK Flexibility Score: inf
ROOT
ATOM      1  C   UNL     1      13.072 -14.150  29.466  1.00  0.00     0.004 C 
ENDROOT
BRANCH   1   2
ATOM      2  C   UNL     1      11.784 -14.859  29.968  1.00  0.00     0.004 C 
BRANCH   2   3
ATOM      3  C   UNL     1      12.063 -16.217  30.671  1.00  0.00    -0.009 C 
BRANCH   3   4
ATOM      4  C   UNL     1      13.585 -16.383  30.960  1.00  0.00     0.000 C 
ATOM      5  C   UNL     1      13.956 -16.055  32.408  1.00  0.00     0.004 C 
ENDBRANCH   3   4
BRANCH   3   6
ATOM      6  C   UNL     1      11.205 -16.406  31.970  1.00  0.00    -0.014 C 
ATOM      7  C   UNL     1       9.927 -15.545  32.002  1.00  0.00     0.007 C 
ATOM      8  C   UNL     1      10.853 -17.883  32.212  1.00  0.00     0.007 C 
ENDBRANCH   3   6
ENDBRANCH   2   3
ENDBRANCH   1   2
BRANCH   1   9
ATOM      9  C   UNL     1      13.146 -13.985  27.921  1.00  0.00    -0.011 C 
ATOM     10  C   UNL     1      11.780 -13.492  27.393  1.00  0.00     0.008 C 
BRANCH   9  11
ATOM     11  C   UNL     1      13.651 -15.318  27.249  1.00  0.00    -0.002 C 
ATOM     12  C   UNL     1      12.615 -16.079  26.431  1.00  0.00     0.005 C 
ATOM     13  C   UNL     1      14.946 -15.277  26.359  1.00  0.00    -0.026 C 
ATOM     14  C   UNL     1      13.423 -17.160  25.736  1.00  0.00     0.005 C 
ATOM     15  C   UNL     1      14.765 -16.498  25.382  1.00  0.00    -0.001 C 
ATOM     16  C   UNL     1      16.217 -15.420  27.263  1.00  0.00     0.007 C 
ATOM     17  C   UNL     1      15.072 -13.973  25.530  1.00  0.00     0.012 C 
ATOM     18  C   UNL     1      15.960 -17.487  25.403  1.00  0.00     0.000 C 
ATOM     19  C   UNL     1      17.518 -15.835  26.526  1.00  0.00     0.005 C 
ATOM     20  C   UNL     1      17.278 -16.676  25.241  1.00  0.00     0.003 C 
ATOM     21  C   UNL     1      15.840 -18.564  24.312  1.00  0.00     0.031 C 
ATOM     22  C   UNL     1      18.518 -17.518  24.661  1.00  0.00    -0.008 C 
ATOM     23  C   UNL     1      17.003 -19.501  24.448  1.00  0.00    -0.027 C 
ATOM     24  C   UNL     1      18.242 -19.030  24.693  1.00  0.00    -0.065 C 
ATOM     25  C   UNL     1      19.851 -17.246  25.427  1.00  0.00     0.014 C 
ATOM     26  C   UNL     1      18.716 -17.107  23.172  1.00  0.00     0.016 C 
ATOM     27  C   UNL     1      19.299 -19.997  25.192  1.00  0.00     0.063 C 
ATOM     28  C   UNL     1      21.034 -18.069  24.889  1.00  0.00     0.033 C 
ATOM     29  C   UNL     1      20.745 -19.592  24.818  1.00  0.00     0.118 C 
BRANCH  29  30
ATOM     30  O   UNL     1      21.104 -20.109  23.561  1.00  0.00    -0.393 OA
ATOM     31  H   UNL     1      22.070 -19.932  23.426  1.00  0.00     0.210 HD
ENDBRANCH  29  30
ENDBRANCH   9  11
ENDBRANCH   1   9
TORSDOF 7
ENDMDL
MODEL 3
REMARK VINA RESULT:    -6.272      3.849      7.000
REMARK INTER + INTRA:          -9.611
REMARK INTER:                  -7.880
REMARK INTRA:                  -1.730
REMARK UNBOUND:                -0.955
REMARK SMILES CC[C@H](CC[C@H](C)[C@H]1CC[C@@H]2[C@H]3CC=C4C[C@@H](O)CC[C@]4(C)[C@@H]3CC[C@@]21C)C(C)C
REMARK SMILES IDX 5 1 4 2 3 3 2 4 1 5 28 6 29 7 30 8 6 9 7 10 8 11 9 12 26 13
REMARK SMILES IDX 10 14 11 15 25 16 27 17 12 18 24 19 23 20 13 21 21 22 14 23
REMARK SMILES IDX 15 24 20 25 22 26 16 27 19 28 17 29 18 30
REMARK H PARENT 18 31
REMARK Flexibility Score: inf
ROOT
ATOM      1  C   UNL     1      13.565 -12.670  26.243  1.00  0.00     0.004 C 
ENDROOT
BRANCH   1   2
ATOM      2  C   UNL     1      12.465 -12.628  27.339  1.00  0.00     0.004 C 
BRANCH   2   3
ATOM      3  C   UNL     1      11.938 -14.036  27.734  1.00  0.00    -0.009 C 
BRANCH   3   4
ATOM      4  C   UNL     1      12.159 -15.052  26.574  1.00  0.00     0.000 C 
ATOM      5  C   UNL     1      10.993 -15.087  25.584  1.00  0.00     0.004 C 
ENDBRANCH   3   4
BRANCH   3   6
ATOM      6  C   UNL     1      12.560 -14.553  29.078  1.00  0.00    -0.014 C 
ATOM      7  C   UNL     1      11.514 -15.043  30.098  1.00  0.00     0.007 C 
ATOM      8  C   UNL     1      13.615 -15.645  28.837  1.00  0.00     0.007 C 
ENDBRANCH   3   6
ENDBRANCH   2   3
ENDBRANCH   1   2
BRANCH   1   9
ATOM      9  C   UNL     1      15.010 -12.823  26.798  1.00  0.00    -0.011 C 
ATOM     10  C   UNL     1      15.501 -11.459  27.333  1.00  0.00     0.008 C 
BRANCH   9  11
ATOM     11  C   UNL     1      15.953 -13.462  25.709  1.00  0.00    -0.002 C 
ATOM     12  C   UNL     1      17.083 -12.571  25.208  1.00  0.00     0.005 C 
ATOM     13  C   UNL     1      16.614 -14.858  26.001  1.00  0.00    -0.026 C 
ATOM     14  C   UNL     1      17.937 -13.504  24.368  1.00  0.00     0.005 C 
ATOM     15  C   UNL     1      17.908 -14.852  25.104  1.00  0.00    -0.001 C 
ATOM     16  C   UNL     1      15.623 -16.007  25.611  1.00  0.00     0.007 C 
ATOM     17  C   UNL     1      17.022 -15.038  27.486  1.00  0.00     0.012 C 
ATOM     18  C   UNL     1      18.003 -16.072  24.151  1.00  0.00     0.000 C 
ATOM     19  C   UNL     1      16.265 -17.408  25.421  1.00  0.00     0.005 C 
ATOM     20  C   UNL     1      17.754 -17.368  24.976  1.00  0.00     0.003 C 
ATOM     21  C   UNL     1      19.357 -16.137  23.424  1.00  0.00     0.031 C 
ATOM     22  C   UNL     1      18.373 -18.704  24.334  1.00  0.00    -0.008 C 
ATOM     23  C   UNL     1      19.333 -17.308  22.489  1.00  0.00    -0.027 C 
ATOM     24  C   UNL     1      18.802 -18.485  22.874  1.00  0.00    -0.065 C 
ATOM     25  C   UNL     1      17.390 -19.916  24.380  1.00  0.00     0.014 C 
ATOM     26  C   UNL     1      19.648 -19.076  25.148  1.00  0.00     0.016 C 
ATOM     27  C   UNL     1      18.454 -19.507  21.806  1.00  0.00     0.063 C 
ATOM     28  C   UNL     1      17.971 -21.189  23.744  1.00  0.00     0.033 C 
ATOM     29  C   UNL     1      18.503 -20.972  22.302  1.00  0.00     0.118 C 
BRANCH  29  30
ATOM     30  O   UNL     1      19.794 -21.510  22.161  1.00  0.00    -0.393 OA
ATOM     31  H   UNL     1      19.778 -22.433  22.521  1.00  0.00     0.210 HD
ENDBRANCH  29  30
ENDBRANCH   9  11
ENDBRANCH   1   9
TORSDOF 7
ENDMDL
MODEL 4
REMARK VINA RESULT:    -6.270      7.823     12.002
REMARK INTER + INTRA:          -9.607
REMARK INTER:                  -8.008
REMARK INTRA:                  -1.599
REMARK UNBOUND:                -0.955
REMARK SMILES CC[C@H](CC[C@H](C)[C@H]1CC[C@@H]2[C@H]3CC=C4C[C@@H](O)CC[C@]4(C)[C@@H]3CC[C@@]21C)C(C)C
REMARK SMILES IDX 5 1 4 2 3 3 2 4 1 5 28 6 29 7 30 8 6 9 7 10 8 11 9 12 26 13
REMARK SMILES IDX 10 14 11 15 25 16 27 17 12 18 24 19 23 20 13 21 21 22 14 23
REMARK SMILES IDX 15 24 20 25 22 26 16 27 19 28 17 29 18 30
REMARK H PARENT 18 31
REMARK Flexibility Score: inf
ROOT
ATOM      1  C   UNL     1       4.333 -16.344  22.796  1.00  0.00     0.004 C 
ENDROOT
BRANCH   1   2
ATOM      2  C   UNL     1       4.767 -16.166  21.315  1.00  0.00     0.004 C 
BRANCH   2   3
ATOM      3  C   UNL     1       6.308 -16.206  21.117  1.00  0.00    -0.009 C 
BRANCH   3   4
ATOM      4  C   UNL     1       7.037 -15.602  22.354  1.00  0.00     0.000 C 
ATOM      5  C   UNL     1       7.240 -14.089  22.246  1.00  0.00     0.004 C 
ENDBRANCH   3   4
BRANCH   3   6
ATOM      6  C   UNL     1       6.833 -17.646  20.785  1.00  0.00    -0.014 C 
ATOM      7  C   UNL     1       7.254 -18.455  22.027  1.00  0.00     0.007 C 
ATOM      8  C   UNL     1       5.817 -18.446  19.954  1.00  0.00     0.007 C 
ENDBRANCH   3   6
ENDBRANCH   2   3
ENDBRANCH   1   2
BRANCH   1   9
ATOM      9  C   UNL     1       3.989 -17.811  23.185  1.00  0.00    -0.011 C 
ATOM     10  C   UNL     1       2.733 -18.265  22.408  1.00  0.00     0.008 C 
BRANCH   9  11
ATOM     11  C   UNL     1       3.861 -17.949  24.749  1.00  0.00    -0.002 C 
ATOM     12  C   UNL     1       2.440 -18.065  25.288  1.00  0.00     0.005 C 
ATOM     13  C   UNL     1       4.684 -19.069  25.484  1.00  0.00    -0.026 C 
ATOM     14  C   UNL     1       2.634 -18.410  26.755  1.00  0.00     0.005 C 
ATOM     15  C   UNL     1       3.854 -19.344  26.793  1.00  0.00    -0.001 C 
ATOM     16  C   UNL     1       6.130 -18.550  25.792  1.00  0.00     0.007 C 
ATOM     17  C   UNL     1       4.793 -20.380  24.662  1.00  0.00     0.012 C 
ATOM     18  C   UNL     1       4.690 -19.206  28.093  1.00  0.00     0.000 C 
ATOM     19  C   UNL     1       6.908 -19.343  26.876  1.00  0.00     0.005 C 
ATOM     20  C   UNL     1       5.999 -20.033  27.931  1.00  0.00     0.003 C 
ATOM     21  C   UNL     1       3.906 -19.657  29.336  1.00  0.00     0.031 C 
ATOM     22  C   UNL     1       6.679 -20.490  29.312  1.00  0.00    -0.008 C 
ATOM     23  C   UNL     1       4.769 -19.435  30.542  1.00  0.00    -0.027 C 
ATOM     24  C   UNL     1       6.081 -19.743  30.515  1.00  0.00    -0.065 C 
ATOM     25  C   UNL     1       8.227 -20.285  29.328  1.00  0.00     0.014 C 
ATOM     26  C   UNL     1       6.385 -22.007  29.508  1.00  0.00     0.016 C 
ATOM     27  C   UNL     1       6.983 -19.165  31.591  1.00  0.00     0.063 C 
ATOM     28  C   UNL     1       8.878 -20.700  30.658  1.00  0.00     0.033 C 
ATOM     29  C   UNL     1       8.226 -20.033  31.899  1.00  0.00     0.118 C 
BRANCH  29  30
ATOM     30  O   UNL     1       7.940 -20.992  32.887  1.00  0.00    -0.393 OA
ATOM     31  H   UNL     1       8.439 -21.817  32.660  1.00  0.00     0.210 HD
ENDBRANCH  29  30
ENDBRANCH   9  11
ENDBRANCH   1   9
TORSDOF 7
ENDMDL
MODEL 5
REMARK VINA RESULT:    -6.248      1.893      3.618
REMARK INTER + INTRA:          -9.577
REMARK INTER:                  -9.735
REMARK INTRA:                   0.158
REMARK UNBOUND:                -0.955
REMARK SMILES CC[C@H](CC[C@H](C)[C@H]1CC[C@@H]2[C@H]3CC=C4C[C@@H](O)CC[C@]4(C)[C@@H]3CC[C@@]21C)C(C)C
REMARK SMILES IDX 5 1 4 2 3 3 2 4 1 5 28 6 29 7 30 8 6 9 7 10 8 11 9 12 26 13
REMARK SMILES IDX 10 14 11 15 25 16 27 17 12 18 24 19 23 20 13 21 21 22 14 23
REMARK SMILES IDX 15 24 20 25 22 26 16 27 19 28 17 29 18 30
REMARK H PARENT 18 31
REMARK Flexibility Score: inf
ROOT
ATOM      1  C   UNL     1      12.832 -16.318  31.481  1.00  0.00     0.004 C 
ENDROOT
BRANCH   1   2
ATOM      2  C   UNL     1      11.566 -17.175  31.208  1.00  0.00     0.004 C 
BRANCH   2   3
ATOM      3  C   UNL     1      10.866 -17.668  32.506  1.00  0.00    -0.009 C 
BRANCH   3   4
ATOM      4  C   UNL     1       9.518 -16.918  32.724  1.00  0.00     0.000 C 
ATOM      5  C   UNL     1       9.694 -15.404  32.856  1.00  0.00     0.004 C 
ENDBRANCH   3   4
BRANCH   3   6
ATOM      6  C   UNL     1      10.670 -19.224  32.526  1.00  0.00    -0.014 C 
ATOM      7  C   UNL     1       9.967 -19.745  33.794  1.00  0.00     0.007 C 
ATOM      8  C   UNL     1       9.935 -19.723  31.272  1.00  0.00     0.007 C 
ENDBRANCH   3   6
ENDBRANCH   2   3
ENDBRANCH   1   2
BRANCH   1   9
ATOM      9  C   UNL     1      12.942 -15.045  30.592  1.00  0.00    -0.011 C 
ATOM     10  C   UNL     1      11.661 -14.904  29.740  1.00  0.00     0.008 C 
BRANCH   9  11
ATOM     11  C   UNL     1      14.274 -15.077  29.750  1.00  0.00    -0.002 C 
ATOM     12  C   UNL     1      14.831 -16.462  29.448  1.00  0.00     0.005 C 
ATOM     13  C   UNL     1      14.332 -14.291  28.390  1.00  0.00    -0.026 C 
ATOM     14  C   UNL     1      15.951 -16.195  28.457  1.00  0.00     0.005 C 
ATOM     15  C   UNL     1      15.442 -15.049  27.570  1.00  0.00    -0.001 C 
ATOM     16  C   UNL     1      14.705 -12.794  28.657  1.00  0.00     0.007 C 
ATOM     17  C   UNL     1      12.995 -14.337  27.605  1.00  0.00     0.012 C 
ATOM     18  C   UNL     1      16.574 -14.119  27.061  1.00  0.00     0.000 C 
ATOM     19  C   UNL     1      15.226 -12.005  27.425  1.00  0.00     0.005 C 
ATOM     20  C   UNL     1      15.929 -12.889  26.358  1.00  0.00     0.003 C 
ATOM     21  C   UNL     1      17.541 -14.848  26.113  1.00  0.00     0.031 C 
ATOM     22  C   UNL     1      16.876 -12.152  25.289  1.00  0.00    -0.008 C 
ATOM     23  C   UNL     1      18.627 -13.890  25.722  1.00  0.00    -0.027 C 
ATOM     24  C   UNL     1      18.338 -12.610  25.416  1.00  0.00    -0.065 C 
ATOM     25  C   UNL     1      16.836 -10.596  25.410  1.00  0.00     0.014 C 
ATOM     26  C   UNL     1      16.382 -12.546  23.866  1.00  0.00     0.016 C 
ATOM     27  C   UNL     1      19.468 -11.597  25.398  1.00  0.00     0.063 C 
ATOM     28  C   UNL     1      17.760  -9.889  24.404  1.00  0.00     0.033 C 
ATOM     29  C   UNL     1      19.224 -10.403  24.443  1.00  0.00     0.118 C 
BRANCH  29  30
ATOM     30  O   UNL     1      19.686 -10.693  23.147  1.00  0.00    -0.393 OA
ATOM     31  H   UNL     1      19.985  -9.842  22.736  1.00  0.00     0.210 HD
ENDBRANCH  29  30
ENDBRANCH   9  11
ENDBRANCH   1   9
TORSDOF 7
ENDMDL
MODEL 6
REMARK VINA RESULT:    -6.228      8.195     11.885
REMARK INTER + INTRA:          -9.549
REMARK INTER:                  -7.977
REMARK INTRA:                  -1.572
REMARK UNBOUND:                -0.955
REMARK SMILES CC[C@H](CC[C@H](C)[C@H]1CC[C@@H]2[C@H]3CC=C4C[C@@H](O)CC[C@]4(C)[C@@H]3CC[C@@]21C)C(C)C
REMARK SMILES IDX 5 1 4 2 3 3 2 4 1 5 28 6 29 7 30 8 6 9 7 10 8 11 9 12 26 13
REMARK SMILES IDX 10 14 11 15 25 16 27 17 12 18 24 19 23 20 13 21 21 22 14 23
REMARK SMILES IDX 15 24 20 25 22 26 16 27 19 28 17 29 18 30
REMARK H PARENT 18 31
REMARK Flexibility Score: inf
ROOT
ATOM      1  C   UNL     1       6.262 -17.264  22.882  1.00  0.00     0.004 C 
ENDROOT
BRANCH   1   2
ATOM      2  C   UNL     1       7.320 -18.235  22.288  1.00  0.00     0.004 C 
BRANCH   2   3
ATOM      3  C   UNL     1       6.700 -19.346  21.394  1.00  0.00    -0.009 C 
BRANCH   3   4
ATOM      4  C   UNL     1       6.488 -18.827  19.941  1.00  0.00     0.000 C 
ATOM      5  C   UNL     1       5.026 -18.890  19.494  1.00  0.00     0.004 C 
ENDBRANCH   3   4
BRANCH   3   6
ATOM      6  C   UNL     1       7.540 -20.670  21.417  1.00  0.00    -0.014 C 
ATOM      7  C   UNL     1       6.856 -21.851  20.702  1.00  0.00     0.007 C 
ATOM      8  C   UNL     1       8.955 -20.460  20.855  1.00  0.00     0.007 C 
ENDBRANCH   3   6
ENDBRANCH   2   3
ENDBRANCH   1   2
BRANCH   1   9
ATOM      9  C   UNL     1       4.866 -17.910  23.114  1.00  0.00    -0.011 C 
ATOM     10  C   UNL     1       3.802 -17.134  22.304  1.00  0.00     0.008 C 
BRANCH   9  11
ATOM     11  C   UNL     1       4.554 -18.009  24.655  1.00  0.00    -0.002 C 
ATOM     12  C   UNL     1       3.078 -18.009  25.032  1.00  0.00     0.005 C 
ATOM     13  C   UNL     1       5.203 -19.173  25.489  1.00  0.00    -0.026 C 
ATOM     14  C   UNL     1       3.081 -18.340  26.514  1.00  0.00     0.005 C 
ATOM     15  C   UNL     1       4.214 -19.361  26.699  1.00  0.00    -0.001 C 
ATOM     16  C   UNL     1       6.641 -18.757  25.952  1.00  0.00     0.007 C 
ATOM     17  C   UNL     1       5.303 -20.504  24.698  1.00  0.00     0.012 C 
ATOM     18  C   UNL     1       4.908 -19.261  28.083  1.00  0.00     0.000 C 
ATOM     19  C   UNL     1       7.231 -19.585  27.125  1.00  0.00     0.005 C 
ATOM     20  C   UNL     1       6.160 -20.186  28.078  1.00  0.00     0.003 C 
ATOM     21  C   UNL     1       3.959 -19.630  29.235  1.00  0.00     0.031 C 
ATOM     22  C   UNL     1       6.646 -20.667  29.532  1.00  0.00    -0.008 C 
ATOM     23  C   UNL     1       4.697 -19.449  30.528  1.00  0.00    -0.027 C 
ATOM     24  C   UNL     1       5.976 -19.854  30.652  1.00  0.00    -0.065 C 
ATOM     25  C   UNL     1       8.193 -20.577  29.719  1.00  0.00     0.014 C 
ATOM     26  C   UNL     1       6.217 -22.153  29.709  1.00  0.00     0.016 C 
ATOM     27  C   UNL     1       6.794 -19.325  31.816  1.00  0.00     0.063 C 
ATOM     28  C   UNL     1       8.659 -21.014  31.118  1.00  0.00     0.033 C 
ATOM     29  C   UNL     1       7.926 -20.277  32.271  1.00  0.00     0.118 C 
BRANCH  29  30
ATOM     30  O   UNL     1       7.459 -21.193  33.230  1.00  0.00    -0.393 OA
ATOM     31  H   UNL     1       8.071 -21.973  33.226  1.00  0.00     0.210 HD
ENDBRANCH  29  30
ENDBRANCH   9  11
ENDBRANCH   1   9
TORSDOF 7
ENDMDL
MODEL 7
REMARK VINA RESULT:    -6.180      3.871      6.977
REMARK INTER + INTRA:          -9.483
REMARK INTER:                  -8.589
REMARK INTRA:                  -0.894
REMARK UNBOUND:                -0.955
REMARK SMILES CC[C@H](CC[C@H](C)[C@H]1CC[C@@H]2[C@H]3CC=C4C[C@@H](O)CC[C@]4(C)[C@@H]3CC[C@@]21C)C(C)C
REMARK SMILES IDX 5 1 4 2 3 3 2 4 1 5 28 6 29 7 30 8 6 9 7 10 8 11 9 12 26 13
REMARK SMILES IDX 10 14 11 15 25 16 27 17 12 18 24 19 23 20 13 21 21 22 14 23
REMARK SMILES IDX 15 24 20 25 22 26 16 27 19 28 17 29 18 30
REMARK H PARENT 18 31
REMARK Flexibility Score: inf
ROOT
ATOM      1  C   UNL     1      14.655 -15.124  27.729  1.00  0.00     0.004 C 
ENDROOT
BRANCH   1   2
ATOM      2  C   UNL     1      14.423 -15.703  29.152  1.00  0.00     0.004 C 
BRANCH   2   3
ATOM      3  C   UNL     1      13.348 -14.926  29.963  1.00  0.00    -0.009 C 
BRANCH   3   4
ATOM      4  C   UNL     1      12.140 -14.549  29.055  1.00  0.00     0.000 C 
ATOM      5  C   UNL     1      12.108 -13.063  28.694  1.00  0.00     0.004 C 
ENDBRANCH   3   4
BRANCH   3   6
ATOM      6  C   UNL     1      12.885 -15.705  31.243  1.00  0.00    -0.014 C 
ATOM      7  C   UNL     1      11.354 -15.806  31.390  1.00  0.00     0.007 C 
ATOM      8  C   UNL     1      13.515 -17.106  31.319  1.00  0.00     0.007 C 
ENDBRANCH   3   6
ENDBRANCH   2   3
ENDBRANCH   1   2
BRANCH   1   9
ATOM      9  C   UNL     1      15.983 -14.329  27.575  1.00  0.00    -0.011 C 
ATOM     10  C   UNL     1      15.687 -12.815  27.664  1.00  0.00     0.008 C 
BRANCH   9  11
ATOM     11  C   UNL     1      16.733 -14.761  26.258  1.00  0.00    -0.002 C 
ATOM     12  C   UNL     1      17.855 -13.836  25.803  1.00  0.00     0.005 C 
ATOM     13  C   UNL     1      17.318 -16.216  26.158  1.00  0.00    -0.026 C 
ATOM     14  C   UNL     1      18.525 -14.603  24.677  1.00  0.00     0.005 C 
ATOM     15  C   UNL     1      18.487 -16.076  25.113  1.00  0.00    -0.001 C 
ATOM     16  C   UNL     1      16.203 -17.205  25.677  1.00  0.00     0.007 C 
ATOM     17  C   UNL     1      17.892 -16.733  27.502  1.00  0.00     0.012 C 
ATOM     18  C   UNL     1      18.371 -17.064  23.922  1.00  0.00     0.000 C 
ATOM     19  C   UNL     1      16.709 -18.560  25.113  1.00  0.00     0.005 C 
ATOM     20  C   UNL     1      18.130 -18.494  24.485  1.00  0.00     0.003 C 
ATOM     21  C   UNL     1      19.615 -17.032  23.019  1.00  0.00     0.031 C 
ATOM     22  C   UNL     1      18.562 -19.687  23.499  1.00  0.00    -0.008 C 
ATOM     23  C   UNL     1      19.387 -17.971  21.872  1.00  0.00    -0.027 C 
ATOM     24  C   UNL     1      18.821 -19.177  22.072  1.00  0.00    -0.065 C 
ATOM     25  C   UNL     1      17.504 -20.833  23.427  1.00  0.00     0.014 C 
ATOM     26  C   UNL     1      19.896 -20.286  24.034  1.00  0.00     0.016 C 
ATOM     27  C   UNL     1      18.268 -19.926  20.873  1.00  0.00     0.063 C 
ATOM     28  C   UNL     1      17.904 -21.964  22.465  1.00  0.00     0.033 C 
ATOM     29  C   UNL     1      18.267 -21.464  21.041  1.00  0.00     0.118 C 
BRANCH  29  30
ATOM     30  O   UNL     1      19.487 -22.018  20.614  1.00  0.00    -0.393 OA
ATOM     31  H   UNL     1      20.133 -21.274  20.499  1.00  0.00     0.210 HD
ENDBRANCH  29  30
ENDBRANCH   9  11
ENDBRANCH   1   9
TORSDOF 7
ENDMDL
MODEL 8
REMARK VINA RESULT:    -5.896      5.754      8.257
REMARK INTER + INTRA:          -9.092
REMARK INTER:                  -7.495
REMARK INTRA:                  -1.596
REMARK UNBOUND:                -0.955
REMARK SMILES CC[C@H](CC[C@H](C)[C@H]1CC[C@@H]2[C@H]3CC=C4C[C@@H](O)CC[C@]4(C)[C@@H]3CC[C@@]21C)C(C)C
REMARK SMILES IDX 5 1 4 2 3 3 2 4 1 5 28 6 29 7 30 8 6 9 7 10 8 11 9 12 26 13
REMARK SMILES IDX 10 14 11 15 25 16 27 17 12 18 24 19 23 20 13 21 21 22 14 23
REMARK SMILES IDX 15 24 20 25 22 26 16 27 19 28 17 29 18 30
REMARK H PARENT 18 31
REMARK Flexibility Score: inf
ROOT
ATOM      1  C   UNL     1      14.870 -13.935  27.323  1.00  0.00     0.004 C 
ENDROOT
BRANCH   1   2
ATOM      2  C   UNL     1      14.137 -12.583  27.103  1.00  0.00     0.004 C 
BRANCH   2   3
ATOM      3  C   UNL     1      13.401 -12.499  25.736  1.00  0.00    -0.009 C 
BRANCH   3   4
ATOM      4  C   UNL     1      13.953 -13.570  24.748  1.00  0.00     0.000 C 
ATOM      5  C   UNL     1      14.878 -12.979  23.683  1.00  0.00     0.004 C 
ENDBRANCH   3   4
BRANCH   3   6
ATOM      6  C   UNL     1      11.844 -12.601  25.887  1.00  0.00    -0.014 C 
ATOM      7  C   UNL     1      11.063 -11.820  24.812  1.00  0.00     0.007 C 
ATOM      8  C   UNL     1      11.368 -14.063  25.927  1.00  0.00     0.007 C 
ENDBRANCH   3   6
ENDBRANCH   2   3
ENDBRANCH   1   2
BRANCH   1   9
ATOM      9  C   UNL     1      16.413 -13.804  27.475  1.00  0.00    -0.011 C 
ATOM     10  C   UNL     1      16.772 -12.339  27.812  1.00  0.00     0.008 C 
BRANCH   9  11
ATOM     11  C   UNL     1      17.141 -14.365  26.195  1.00  0.00    -0.002 C 
ATOM     12  C   UNL     1      18.367 -13.584  25.737  1.00  0.00     0.005 C 
ATOM     13  C   UNL     1      17.567 -15.877  26.164  1.00  0.00    -0.026 C 
ATOM     14  C   UNL     1      18.976 -14.463  24.659  1.00  0.00     0.005 C 
ATOM     15  C   UNL     1      18.769 -15.905  25.147  1.00  0.00    -0.001 C 
ATOM     16  C   UNL     1      16.363 -16.759  25.690  1.00  0.00     0.007 C 
ATOM     17  C   UNL     1      18.052 -16.399  27.542  1.00  0.00     0.012 C 
ATOM     18  C   UNL     1      18.573 -16.921  23.991  1.00  0.00     0.000 C 
ATOM     19  C   UNL     1      16.733 -18.182  25.191  1.00  0.00     0.005 C 
ATOM     20  C   UNL     1      18.166 -18.294  24.600  1.00  0.00     0.003 C 
ATOM     21  C   UNL     1      19.834 -17.059  23.121  1.00  0.00     0.031 C 
ATOM     22  C   UNL     1      18.489 -19.564  23.670  1.00  0.00    -0.008 C 
ATOM     23  C   UNL     1      19.532 -18.012  22.004  1.00  0.00    -0.027 C 
ATOM     24  C   UNL     1      18.834 -19.142  22.233  1.00  0.00    -0.065 C 
ATOM     25  C   UNL     1      17.315 -20.592  23.611  1.00  0.00     0.014 C 
ATOM     26  C   UNL     1      19.738 -20.281  24.263  1.00  0.00     0.016 C 
ATOM     27  C   UNL     1      18.231 -19.873  21.048  1.00  0.00     0.063 C 
ATOM     28  C   UNL     1      17.612 -21.796  22.703  1.00  0.00     0.033 C 
ATOM     29  C   UNL     1      18.059 -21.395  21.272  1.00  0.00     0.118 C 
BRANCH  29  30
ATOM     30  O   UNL     1      19.222 -22.093  20.899  1.00  0.00    -0.393 OA
ATOM     31  H   UNL     1      19.300 -22.887  21.488  1.00  0.00     0.210 HD
ENDBRANCH  29  30
ENDBRANCH   9  11
ENDBRANCH   1   9
TORSDOF 7
ENDMDL
