MODEL 1
REMARK VINA RESULT:    -4.514      0.000      0.000
REMARK INTER + INTRA:          -4.514
REMARK INTER:                  -4.514
REMARK INTRA:                   0.000
REMARK UNBOUND:                 0.000
REMARK SMILES CC1=CC(=O)[C@H]2C[C@@H]1C2(C)C
REMARK SMILES IDX 1 1 2 2 3 3 4 4 5 5 6 6 7 7 8 8 9 9 10 10 11 11
REMARK H PARENT
REMARK Flexibility Score: inf
ROOT
ATOM      1  C   UNL     1      20.956   1.828  25.100  1.00  0.00     0.040 C 
ATOM      2  C   UNL     1      19.827   1.161  24.380  1.00  0.00    -0.066 C 
ATOM      3  C   UNL     1      18.802   0.575  25.059  1.00  0.00     0.047 C 
ATOM      4  C   UNL     1      17.747  -0.087  24.225  1.00  0.00     0.159 C 
ATOM      5  O   UNL     1      16.771  -0.696  24.735  1.00  0.00    -0.295 OA
ATOM      6  C   UNL     1      17.941   0.029  22.712  1.00  0.00     0.067 C 
ATOM      7  C   UNL     1      18.304   1.513  22.490  1.00  0.00     0.021 C 
ATOM      8  C   UNL     1      19.757   1.119  22.839  1.00  0.00     0.022 C 
ATOM      9  C   UNL     1      19.417  -0.326  22.374  1.00  0.00    -0.019 C 
ATOM     10  C   UNL     1      19.642  -0.526  20.854  1.00  0.00     0.012 C 
ATOM     11  C   UNL     1      20.082  -1.514  23.126  1.00  0.00     0.012 C 
ENDROOT
TORSDOF 0
ENDMDL
MODEL 2
REMARK VINA RESULT:    -4.463      1.707      3.372
REMARK INTER + INTRA:          -4.463
REMARK INTER:                  -4.463
REMARK INTRA:                   0.000
REMARK UNBOUND:                 0.000
REMARK SMILES CC1=CC(=O)[C@H]2C[C@@H]1C2(C)C
REMARK SMILES IDX 1 1 2 2 3 3 4 4 5 5 6 6 7 7 8 8 9 9 10 10 11 11
REMARK H PARENT
REMARK Flexibility Score: inf
ROOT
ATOM      1  C   UNL     1      19.255   1.953  20.316  1.00  0.00     0.040 C 
ATOM      2  C   UNL     1      19.408   1.225  21.614  1.00  0.00    -0.066 C 
ATOM      3  C   UNL     1      19.747  -0.093  21.652  1.00  0.00     0.047 C 
ATOM      4  C   UNL     1      19.838  -0.716  23.012  1.00  0.00     0.159 C 
ATOM      5  O   UNL     1      20.105  -1.935  23.176  1.00  0.00    -0.295 OA
ATOM      6  C   UNL     1      19.582   0.233  24.184  1.00  0.00     0.067 C 
ATOM      7  C   UNL     1      20.406   1.492  23.838  1.00  0.00     0.021 C 
ATOM      8  C   UNL     1      19.205   1.933  22.971  1.00  0.00     0.022 C 
ATOM      9  C   UNL     1      18.298   1.056  23.882  1.00  0.00    -0.019 C 
ATOM     10  C   UNL     1      17.788   1.829  25.124  1.00  0.00     0.012 C 
ATOM     11  C   UNL     1      17.088   0.327  23.231  1.00  0.00     0.012 C 
ENDROOT
TORSDOF 0
ENDMDL
MODEL 3
REMARK VINA RESULT:    -4.064      1.953      3.545
REMARK INTER + INTRA:          -4.064
REMARK INTER:                  -4.064
REMARK INTRA:                   0.000
REMARK UNBOUND:                 0.000
REMARK SMILES CC1=CC(=O)[C@H]2C[C@@H]1C2(C)C
REMARK SMILES IDX 1 1 2 2 3 3 4 4 5 5 6 6 7 7 8 8 9 9 10 10 11 11
REMARK H PARENT
REMARK Flexibility Score: inf
ROOT
ATOM      1  C   UNL     1      20.083  -2.126  22.888  1.00  0.00     0.040 C 
ATOM      2  C   UNL     1      19.503  -0.768  22.647  1.00  0.00    -0.066 C 
ATOM      3  C   UNL     1      19.747  -0.088  21.492  1.00  0.00     0.047 C 
ATOM      4  C   UNL     1      19.135   1.275  21.383  1.00  0.00     0.159 C 
ATOM      5  O   UNL     1      19.320   2.016  20.383  1.00  0.00    -0.295 OA
ATOM      6  C   UNL     1      18.275   1.703  22.573  1.00  0.00     0.067 C 
ATOM      7  C   UNL     1      17.396   0.468  22.867  1.00  0.00     0.021 C 
ATOM      8  C   UNL     1      18.590  -0.078  23.683  1.00  0.00     0.022 C 
ATOM      9  C   UNL     1      19.053   1.394  23.883  1.00  0.00    -0.019 C 
ATOM     10  C   UNL     1      18.402   2.053  25.125  1.00  0.00     0.012 C 
ATOM     11  C   UNL     1      20.580   1.685  23.921  1.00  0.00     0.012 C 
ENDROOT
TORSDOF 0
ENDMDL
MODEL 4
REMARK VINA RESULT:    -3.820      1.791      2.873
REMARK INTER + INTRA:          -3.820
REMARK INTER:                  -3.820
REMARK INTRA:                   0.000
REMARK UNBOUND:                 0.000
REMARK SMILES CC1=CC(=O)[C@H]2C[C@@H]1C2(C)C
REMARK SMILES IDX 1 1 2 2 3 3 4 4 5 5 6 6 7 7 8 8 9 9 10 10 11 11
REMARK H PARENT
REMARK Flexibility Score: inf
ROOT
ATOM      1  C   UNL     1      16.366   1.415  24.563  1.00  0.00     0.040 C 
ATOM      2  C   UNL     1      17.747   0.984  24.181  1.00  0.00    -0.066 C 
ATOM      3  C   UNL     1      18.814   1.222  24.993  1.00  0.00     0.047 C 
ATOM      4  C   UNL     1      20.149   0.769  24.484  1.00  0.00     0.159 C 
ATOM      5  O   UNL     1      21.214   0.967  25.125  1.00  0.00    -0.295 OA
ATOM      6  C   UNL     1      20.125   0.054  23.132  1.00  0.00     0.067 C 
ATOM      7  C   UNL     1      18.951  -0.940  23.252  1.00  0.00     0.021 C 
ATOM      8  C   UNL     1      18.029   0.237  22.860  1.00  0.00     0.022 C 
ATOM      9  C   UNL     1      19.252   0.884  22.149  1.00  0.00    -0.019 C 
ATOM     10  C   UNL     1      19.403   0.407  20.682  1.00  0.00     0.012 C 
ATOM     11  C   UNL     1      19.381   2.433  22.174  1.00  0.00     0.012 C 
ENDROOT
TORSDOF 0
ENDMDL
MODEL 5
REMARK VINA RESULT:    -3.689      1.927      3.063
REMARK INTER + INTRA:          -3.689
REMARK INTER:                  -3.689
REMARK INTRA:                   0.000
REMARK UNBOUND:                 0.000
REMARK SMILES CC1=CC(=O)[C@H]2C[C@@H]1C2(C)C
REMARK SMILES IDX 1 1 2 2 3 3 4 4 5 5 6 6 7 7 8 8 9 9 10 10 11 11
REMARK H PARENT
REMARK Flexibility Score: inf
ROOT
ATOM      1  C   UNL     1      21.270   2.309  25.125  1.00  0.00     0.040 C 
ATOM      2  C   UNL     1      20.334   1.773  24.088  1.00  0.00    -0.066 C 
ATOM      3  C   UNL     1      20.126   2.430  22.914  1.00  0.00     0.047 C 
ATOM      4  C   UNL     1      19.142   1.806  21.971  1.00  0.00     0.159 C 
ATOM      5  O   UNL     1      18.835   2.337  20.872  1.00  0.00    -0.295 OA
ATOM      6  C   UNL     1      18.536   0.481  22.439  1.00  0.00     0.067 C 
ATOM      7  C   UNL     1      19.746  -0.324  22.959  1.00  0.00     0.021 C 
ATOM      8  C   UNL     1      19.574   0.444  24.290  1.00  0.00     0.022 C 
ATOM      9  C   UNL     1      18.076   0.642  23.916  1.00  0.00    -0.019 C 
ATOM     10  C   UNL     1      17.190  -0.537  24.388  1.00  0.00     0.012 C 
ATOM     11  C   UNL     1      17.385   1.971  24.334  1.00  0.00     0.012 C 
ENDROOT
TORSDOF 0
ENDMDL
MODEL 6
REMARK VINA RESULT:    -3.665      1.620      2.968
REMARK INTER + INTRA:          -3.665
REMARK INTER:                  -3.665
REMARK INTRA:                   0.000
REMARK UNBOUND:                 0.000
REMARK SMILES CC1=CC(=O)[C@H]2C[C@@H]1C2(C)C
REMARK SMILES IDX 1 1 2 2 3 3 4 4 5 5 6 6 7 7 8 8 9 9 10 10 11 11
REMARK H PARENT
REMARK Flexibility Score: inf
ROOT
ATOM      1  C   UNL     1      16.590   0.385  25.105  1.00  0.00     0.040 C 
ATOM      2  C   UNL     1      17.728   0.403  24.135  1.00  0.00    -0.066 C 
ATOM      3  C   UNL     1      18.258  -0.751  23.642  1.00  0.00     0.047 C 
ATOM      4  C   UNL     1      19.415  -0.600  22.702  1.00  0.00     0.159 C 
ATOM      5  O   UNL     1      20.015  -1.591  22.211  1.00  0.00    -0.295 OA
ATOM      6  C   UNL     1      19.816   0.841  22.383  1.00  0.00     0.067 C 
ATOM      7  C   UNL     1      18.474   1.552  22.101  1.00  0.00     0.021 C 
ATOM      8  C   UNL     1      18.345   1.726  23.631  1.00  0.00     0.022 C 
ATOM      9  C   UNL     1      19.896   1.639  23.715  1.00  0.00    -0.019 C 
ATOM     10  C   UNL     1      20.574   3.020  23.535  1.00  0.00     0.012 C 
ATOM     11  C   UNL     1      20.527   0.944  24.955  1.00  0.00     0.012 C 
ENDROOT
TORSDOF 0
ENDMDL
MODEL 7
REMARK VINA RESULT:    -3.622      1.343      1.792
REMARK INTER + INTRA:          -3.622
REMARK INTER:                  -3.622
REMARK INTRA:                   0.000
REMARK UNBOUND:                 0.000
REMARK SMILES CC1=CC(=O)[C@H]2C[C@@H]1C2(C)C
REMARK SMILES IDX 1 1 2 2 3 3 4 4 5 5 6 6 7 7 8 8 9 9 10 10 11 11
REMARK H PARENT
REMARK Flexibility Score: inf
ROOT
ATOM      1  C   UNL     1      20.474   3.234  22.516  1.00  0.00     0.040 C 
ATOM      2  C   UNL     1      19.585   2.104  22.929  1.00  0.00    -0.066 C 
ATOM      3  C   UNL     1      18.628   2.269  23.884  1.00  0.00     0.047 C 
ATOM      4  C   UNL     1      17.823   1.053  24.231  1.00  0.00     0.159 C 
ATOM      5  O   UNL     1      16.936   1.068  25.125  1.00  0.00    -0.295 OA
ATOM      6  C   UNL     1      18.156  -0.205  23.427  1.00  0.00     0.067 C 
ATOM      7  C   UNL     1      18.241   0.292  21.968  1.00  0.00     0.021 C 
ATOM      8  C   UNL     1      19.696   0.706  22.285  1.00  0.00     0.022 C 
ATOM      9  C   UNL     1      19.701  -0.380  23.400  1.00  0.00    -0.019 C 
ATOM     10  C   UNL     1      20.127  -1.771  22.868  1.00  0.00     0.012 C 
ATOM     11  C   UNL     1      20.500  -0.091  24.703  1.00  0.00     0.012 C 
ENDROOT
TORSDOF 0
ENDMDL
