MODEL 1
REMARK VINA RESULT:    -6.740      0.000      0.000
REMARK INTER + INTRA:         -13.461
REMARK INTER:                 -11.863
REMARK INTRA:                  -1.598
REMARK UNBOUND:                -1.598
REMARK SMILES CCCCCCC=CCCCCCCCC(=O)[O-]
REMARK SMILES IDX 10 1 11 2 12 3 13 4 14 5 15 6 16 7 17 8 18 9 9 10 8 11 7 12
REMARK SMILES IDX 6 13 5 14 4 15 3 16 2 17 1 18
REMARK H PARENT
REMARK Flexibility Score: inf
ROOT
ATOM      1  C   UNL     1     131.176 125.256 126.799  1.00  0.00     0.004 C 
ENDROOT
BRANCH   1   2
ATOM      2  C   UNL     1     130.380 124.154 126.077  1.00  0.00     0.000 C 
BRANCH   2   3
ATOM      3  C   UNL     1     129.074 123.795 126.804  1.00  0.00     0.000 C 
BRANCH   3   4
ATOM      4  C   UNL     1     128.291 125.034 127.266  1.00  0.00     0.000 C 
BRANCH   4   5
ATOM      5  C   UNL     1     127.753 124.843 128.691  1.00  0.00     0.006 C 
BRANCH   5   6
ATOM      6  C   UNL     1     128.875 124.588 129.707  1.00  0.00     0.053 C 
BRANCH   6   7
ATOM      7  C   UNL     1     128.574 123.408 130.580  1.00  0.00     0.041 C 
ATOM      8  O   UNL     1     128.620 123.517 131.833  1.00  0.00    -0.550 OA
ATOM      9  O   UNL     1     128.274 122.178 130.007  1.00  0.00    -0.550 OA
ENDBRANCH   6   7
ENDBRANCH   5   6
ENDBRANCH   4   5
ENDBRANCH   3   4
ENDBRANCH   2   3
ENDBRANCH   1   2
BRANCH   1  10
ATOM     10  C   UNL     1     131.846 126.224 125.812  1.00  0.00     0.027 C 
BRANCH  10  11
ATOM     11  C   UNL     1     131.153 127.564 125.778  1.00  0.00    -0.031 C 
ATOM     12  C   UNL     1     130.113 127.868 124.978  1.00  0.00    -0.031 C 
BRANCH  12  13
ATOM     13  C   UNL     1     129.542 126.954 123.923  1.00  0.00     0.027 C 
BRANCH  13  14
ATOM     14  C   UNL     1     128.026 126.746 124.092  1.00  0.00     0.004 C 
BRANCH  14  15
ATOM     15  C   UNL     1     127.192 127.136 122.857  1.00  0.00     0.000 C 
BRANCH  15  16
ATOM     16  C   UNL     1     127.712 128.401 122.159  1.00  0.00    -0.000 C 
BRANCH  16  17
ATOM     17  C   UNL     1     126.559 129.348 121.809  1.00  0.00    -0.003 C 
ATOM     18  C   UNL     1     125.360 129.118 122.723  1.00  0.00     0.004 C 
ENDBRANCH  16  17
ENDBRANCH  15  16
ENDBRANCH  14  15
ENDBRANCH  13  14
ENDBRANCH  12  13
ENDBRANCH  10  11
ENDBRANCH   1  10
TORSDOF 13
ENDMDL
MODEL 2
REMARK VINA RESULT:    -6.205      3.737      7.369
REMARK INTER + INTRA:         -12.518
REMARK INTER:                 -11.285
REMARK INTRA:                  -1.233
REMARK UNBOUND:                -1.598
REMARK SMILES CCCCCCC=CCCCCCCCC(=O)[O-]
REMARK SMILES IDX 10 1 11 2 12 3 13 4 14 5 15 6 16 7 17 8 18 9 9 10 8 11 7 12
REMARK SMILES IDX 6 13 5 14 4 15 3 16 2 17 1 18
REMARK H PARENT
REMARK Flexibility Score: inf
ROOT
ATOM      1  C   UNL     1     130.538 127.503 126.436  1.00  0.00     0.004 C 
ENDROOT
BRANCH   1   2
ATOM      2  C   UNL     1     131.014 127.783 124.999  1.00  0.00     0.000 C 
BRANCH   2   3
ATOM      3  C   UNL     1     129.849 128.029 124.027  1.00  0.00     0.000 C 
BRANCH   3   4
ATOM      4  C   UNL     1     129.090 126.742 123.672  1.00  0.00     0.000 C 
BRANCH   4   5
ATOM      5  C   UNL     1     127.574 126.989 123.642  1.00  0.00     0.006 C 
BRANCH   5   6
ATOM      6  C   UNL     1     127.067 127.317 122.231  1.00  0.00     0.053 C 
BRANCH   6   7
ATOM      7  C   UNL     1     126.526 128.713 122.147  1.00  0.00     0.041 C 
ATOM      8  O   UNL     1     127.221 129.633 121.640  1.00  0.00    -0.550 OA
ATOM      9  O   UNL     1     125.267 129.002 122.657  1.00  0.00    -0.550 OA
ENDBRANCH   6   7
ENDBRANCH   5   6
ENDBRANCH   4   5
ENDBRANCH   3   4
ENDBRANCH   2   3
ENDBRANCH   1   2
BRANCH   1  10
ATOM     10  C   UNL     1     131.120 126.194 126.991  1.00  0.00     0.027 C 
BRANCH  10  11
ATOM     11  C   UNL     1     130.399 124.984 126.451  1.00  0.00    -0.031 C 
ATOM     12  C   UNL     1     129.113 124.679 126.709  1.00  0.00    -0.031 C 
BRANCH  12  13
ATOM     13  C   UNL     1     128.221 125.444 127.657  1.00  0.00     0.027 C 
BRANCH  13  14
ATOM     14  C   UNL     1     127.338 124.510 128.503  1.00  0.00     0.004 C 
BRANCH  14  15
ATOM     15  C   UNL     1     127.823 123.049 128.551  1.00  0.00     0.000 C 
BRANCH  15  16
ATOM     16  C   UNL     1     128.239 122.604 129.961  1.00  0.00    -0.000 C 
BRANCH  16  17
ATOM     17  C   UNL     1     128.627 123.809 130.825  1.00  0.00    -0.003 C 
ATOM     18  C   UNL     1     128.580 123.462 132.309  1.00  0.00     0.004 C 
ENDBRANCH  16  17
ENDBRANCH  15  16
ENDBRANCH  14  15
ENDBRANCH  13  14
ENDBRANCH  12  13
ENDBRANCH  10  11
ENDBRANCH   1  10
TORSDOF 13
ENDMDL
MODEL 3
REMARK VINA RESULT:    -5.933      1.422      1.790
REMARK INTER + INTRA:         -12.041
REMARK INTER:                 -10.765
REMARK INTRA:                  -1.276
REMARK UNBOUND:                -1.598
REMARK SMILES CCCCCCC=CCCCCCCCC(=O)[O-]
REMARK SMILES IDX 10 1 11 2 12 3 13 4 14 5 15 6 16 7 17 8 18 9 9 10 8 11 7 12
REMARK SMILES IDX 6 13 5 14 4 15 3 16 2 17 1 18
REMARK H PARENT
REMARK Flexibility Score: inf
ROOT
ATOM      1  C   UNL     1     131.553 125.828 126.245  1.00  0.00     0.004 C 
ENDROOT
BRANCH   1   2
ATOM      2  C   UNL     1     130.839 124.513 125.882  1.00  0.00     0.000 C 
BRANCH   2   3
ATOM      3  C   UNL     1     129.405 124.448 126.431  1.00  0.00     0.000 C 
BRANCH   3   4
ATOM      4  C   UNL     1     129.301 123.625 127.724  1.00  0.00     0.000 C 
BRANCH   4   5
ATOM      5  C   UNL     1     129.100 124.540 128.941  1.00  0.00     0.006 C 
BRANCH   5   6
ATOM      6  C   UNL     1     127.954 124.062 129.844  1.00  0.00     0.053 C 
BRANCH   6   7
ATOM      7  C   UNL     1     126.634 124.109 129.136  1.00  0.00     0.041 C 
ATOM      8  O   UNL     1     125.937 123.067 129.023  1.00  0.00    -0.550 OA
ATOM      9  O   UNL     1     126.190 125.299 128.573  1.00  0.00    -0.550 OA
ENDBRANCH   6   7
ENDBRANCH   5   6
ENDBRANCH   4   5
ENDBRANCH   3   4
ENDBRANCH   2   3
ENDBRANCH   1   2
BRANCH   1  10
ATOM     10  C   UNL     1     130.562 126.982 126.455  1.00  0.00     0.027 C 
BRANCH  10  11
ATOM     11  C   UNL     1     130.687 128.034 125.380  1.00  0.00    -0.031 C 
ATOM     12  C   UNL     1     130.051 127.996 124.194  1.00  0.00    -0.031 C 
BRANCH  12  13
ATOM     13  C   UNL     1     129.195 126.850 123.712  1.00  0.00     0.027 C 
BRANCH  13  14
ATOM     14  C   UNL     1     127.696 127.201 123.721  1.00  0.00     0.004 C 
BRANCH  14  15
ATOM     15  C   UNL     1     127.047 127.243 122.325  1.00  0.00     0.000 C 
BRANCH  15  16
ATOM     16  C   UNL     1     127.250 128.587 121.611  1.00  0.00    -0.000 C 
BRANCH  16  17
ATOM     17  C   UNL     1     126.131 129.572 121.968  1.00  0.00    -0.003 C 
ATOM     18  C   UNL     1     126.542 131.009 121.661  1.00  0.00     0.004 C 
ENDBRANCH  16  17
ENDBRANCH  15  16
ENDBRANCH  14  15
ENDBRANCH  13  14
ENDBRANCH  12  13
ENDBRANCH  10  11
ENDBRANCH   1  10
TORSDOF 13
ENDMDL
MODEL 4
REMARK VINA RESULT:    -5.481      3.944      6.547
REMARK INTER + INTRA:         -11.245
REMARK INTER:                 -10.505
REMARK INTRA:                  -0.741
REMARK UNBOUND:                -1.598
REMARK SMILES CCCCCCC=CCCCCCCCC(=O)[O-]
REMARK SMILES IDX 10 1 11 2 12 3 13 4 14 5 15 6 16 7 17 8 18 9 9 10 8 11 7 12
REMARK SMILES IDX 6 13 5 14 4 15 3 16 2 17 1 18
REMARK H PARENT
REMARK Flexibility Score: inf
ROOT
ATOM      1  C   UNL     1     126.853 128.223 122.532  1.00  0.00     0.004 C 
ENDROOT
BRANCH   1   2
ATOM      2  C   UNL     1     127.349 126.807 122.877  1.00  0.00     0.000 C 
BRANCH   2   3
ATOM      3  C   UNL     1     128.180 126.770 124.169  1.00  0.00     0.000 C 
BRANCH   3   4
ATOM      4  C   UNL     1     129.512 127.525 124.040  1.00  0.00     0.000 C 
BRANCH   4   5
ATOM      5  C   UNL     1     130.701 126.558 124.135  1.00  0.00     0.006 C 
BRANCH   5   6
ATOM      6  C   UNL     1     131.541 126.792 125.398  1.00  0.00     0.053 C 
BRANCH   6   7
ATOM      7  C   UNL     1     131.009 126.022 126.568  1.00  0.00     0.041 C 
ATOM      8  O   UNL     1     131.200 124.780 126.650  1.00  0.00    -0.550 OA
ATOM      9  O   UNL     1     130.274 126.672 127.552  1.00  0.00    -0.550 OA
ENDBRANCH   6   7
ENDBRANCH   5   6
ENDBRANCH   4   5
ENDBRANCH   3   4
ENDBRANCH   2   3
ENDBRANCH   1   2
BRANCH   1  10
ATOM     10  C   UNL     1     125.371 128.232 122.129  1.00  0.00     0.027 C 
BRANCH  10  11
ATOM     11  C   UNL     1     124.899 126.871 121.683  1.00  0.00    -0.031 C 
ATOM     12  C   UNL     1     123.614 126.542 121.452  1.00  0.00    -0.031 C 
BRANCH  12  13
ATOM     13  C   UNL     1     122.436 127.452 121.698  1.00  0.00     0.027 C 
BRANCH  13  14
ATOM     14  C   UNL     1     121.333 126.763 122.521  1.00  0.00     0.004 C 
BRANCH  14  15
ATOM     15  C   UNL     1     119.956 127.447 122.434  1.00  0.00     0.000 C 
BRANCH  15  16
ATOM     16  C   UNL     1     119.739 128.186 121.105  1.00  0.00    -0.000 C 
BRANCH  16  17
ATOM     17  C   UNL     1     118.437 128.995 121.133  1.00  0.00    -0.003 C 
ATOM     18  C   UNL     1     118.495 130.094 122.190  1.00  0.00     0.004 C 
ENDBRANCH  16  17
ENDBRANCH  15  16
ENDBRANCH  14  15
ENDBRANCH  13  14
ENDBRANCH  12  13
ENDBRANCH  10  11
ENDBRANCH   1  10
TORSDOF 13
ENDMDL
MODEL 5
REMARK VINA RESULT:    -5.049     10.006     13.411
REMARK INTER + INTRA:         -10.485
REMARK INTER:                  -9.357
REMARK INTRA:                  -1.128
REMARK UNBOUND:                -1.598
REMARK SMILES CCCCCCC=CCCCCCCCC(=O)[O-]
REMARK SMILES IDX 10 1 11 2 12 3 13 4 14 5 15 6 16 7 17 8 18 9 9 10 8 11 7 12
REMARK SMILES IDX 6 13 5 14 4 15 3 16 2 17 1 18
REMARK H PARENT
REMARK Flexibility Score: inf
ROOT
ATOM      1  C   UNL     1     117.017 131.769 125.530  1.00  0.00     0.004 C 
ENDROOT
BRANCH   1   2
ATOM      2  C   UNL     1     115.604 132.027 124.977  1.00  0.00     0.000 C 
BRANCH   2   3
ATOM      3  C   UNL     1     114.533 131.167 125.667  1.00  0.00     0.000 C 
BRANCH   3   4
ATOM      4  C   UNL     1     113.429 132.008 126.326  1.00  0.00     0.000 C 
BRANCH   4   5
ATOM      5  C   UNL     1     113.301 131.672 127.819  1.00  0.00     0.006 C 
BRANCH   5   6
ATOM      6  C   UNL     1     114.592 131.969 128.594  1.00  0.00     0.053 C 
BRANCH   6   7
ATOM      7  C   UNL     1     115.205 130.719 129.148  1.00  0.00     0.041 C 
ATOM      8  O   UNL     1     116.199 130.194 128.580  1.00  0.00    -0.550 OA
ATOM      9  O   UNL     1     114.659 130.117 130.275  1.00  0.00    -0.550 OA
ENDBRANCH   6   7
ENDBRANCH   5   6
ENDBRANCH   4   5
ENDBRANCH   3   4
ENDBRANCH   2   3
ENDBRANCH   1   2
BRANCH   1  10
ATOM     10  C   UNL     1     117.596 130.437 125.031  1.00  0.00     0.027 C 
BRANCH  10  11
ATOM     11  C   UNL     1     118.849 130.637 124.215  1.00  0.00    -0.031 C 
ATOM     12  C   UNL     1     118.914 130.539 122.874  1.00  0.00    -0.031 C 
BRANCH  12  13
ATOM     13  C   UNL     1     117.770 130.117 121.985  1.00  0.00     0.027 C 
BRANCH  13  14
ATOM     14  C   UNL     1     118.192 129.042 120.967  1.00  0.00     0.004 C 
BRANCH  14  15
ATOM     15  C   UNL     1     119.613 128.489 121.182  1.00  0.00     0.000 C 
BRANCH  15  16
ATOM     16  C   UNL     1     119.648 127.282 122.130  1.00  0.00    -0.000 C 
BRANCH  16  17
ATOM     17  C   UNL     1     121.040 127.111 122.750  1.00  0.00    -0.003 C 
ATOM     18  C   UNL     1     122.130 127.180 121.685  1.00  0.00     0.004 C 
ENDBRANCH  16  17
ENDBRANCH  15  16
ENDBRANCH  14  15
ENDBRANCH  13  14
ENDBRANCH  12  13
ENDBRANCH  10  11
ENDBRANCH   1  10
TORSDOF 13
ENDMDL
MODEL 6
REMARK VINA RESULT:    -4.657      9.379     12.240
REMARK INTER + INTRA:          -9.795
REMARK INTER:                  -7.643
REMARK INTRA:                  -2.152
REMARK UNBOUND:                -1.598
REMARK SMILES CCCCCCC=CCCCCCCCC(=O)[O-]
REMARK SMILES IDX 10 1 11 2 12 3 13 4 14 5 15 6 16 7 17 8 18 9 9 10 8 11 7 12
REMARK SMILES IDX 6 13 5 14 4 15 3 16 2 17 1 18
REMARK H PARENT
REMARK Flexibility Score: inf
ROOT
ATOM      1  C   UNL     1     118.808 129.025 134.048  1.00  0.00     0.004 C 
ENDROOT
BRANCH   1   2
ATOM      2  C   UNL     1     120.262 128.993 134.554  1.00  0.00     0.000 C 
BRANCH   2   3
ATOM      3  C   UNL     1     120.971 127.669 134.230  1.00  0.00     0.000 C 
BRANCH   3   4
ATOM      4  C   UNL     1     122.456 127.859 133.886  1.00  0.00     0.000 C 
BRANCH   4   5
ATOM      5  C   UNL     1     122.643 128.109 132.383  1.00  0.00     0.006 C 
BRANCH   5   6
ATOM      6  C   UNL     1     122.630 129.604 132.037  1.00  0.00     0.053 C 
BRANCH   6   7
ATOM      7  C   UNL     1     122.753 129.833 130.561  1.00  0.00     0.041 C 
ATOM      8  O   UNL     1     122.393 128.941 129.748  1.00  0.00    -0.550 OA
ATOM      9  O   UNL     1     123.295 131.020 130.084  1.00  0.00    -0.550 OA
ENDBRANCH   6   7
ENDBRANCH   5   6
ENDBRANCH   4   5
ENDBRANCH   3   4
ENDBRANCH   2   3
ENDBRANCH   1   2
BRANCH   1  10
ATOM     10  C   UNL     1     118.371 127.673 133.465  1.00  0.00     0.027 C 
BRANCH  10  11
ATOM     11  C   UNL     1     117.694 127.830 132.126  1.00  0.00    -0.031 C 
ATOM     12  C   UNL     1     118.233 127.465 130.947  1.00  0.00    -0.031 C 
BRANCH  12  13
ATOM     13  C   UNL     1     119.635 126.937 130.769  1.00  0.00     0.027 C 
BRANCH  13  14
ATOM     14  C   UNL     1     119.687 125.399 130.817  1.00  0.00     0.004 C 
BRANCH  14  15
ATOM     15  C   UNL     1     120.348 124.827 132.085  1.00  0.00     0.000 C 
BRANCH  15  16
ATOM     16  C   UNL     1     119.607 123.604 132.646  1.00  0.00    -0.000 C 
BRANCH  16  17
ATOM     17  C   UNL     1     118.931 123.937 133.981  1.00  0.00    -0.003 C 
ATOM     18  C   UNL     1     117.414 123.982 133.834  1.00  0.00     0.004 C 
ENDBRANCH  16  17
ENDBRANCH  15  16
ENDBRANCH  14  15
ENDBRANCH  13  14
ENDBRANCH  12  13
ENDBRANCH  10  11
ENDBRANCH   1  10
TORSDOF 13
ENDMDL
MODEL 7
REMARK VINA RESULT:    -4.605      9.544     11.746
REMARK INTER + INTRA:          -9.702
REMARK INTER:                  -7.479
REMARK INTRA:                  -2.223
REMARK UNBOUND:                -1.598
REMARK SMILES CCCCCCC=CCCCCCCCC(=O)[O-]
REMARK SMILES IDX 10 1 11 2 12 3 13 4 14 5 15 6 16 7 17 8 18 9 9 10 8 11 7 12
REMARK SMILES IDX 6 13 5 14 4 15 3 16 2 17 1 18
REMARK H PARENT
REMARK Flexibility Score: inf
ROOT
ATOM      1  C   UNL     1     118.239 127.493 130.757  1.00  0.00     0.004 C 
ENDROOT
BRANCH   1   2
ATOM      2  C   UNL     1     118.281 125.990 131.087  1.00  0.00     0.000 C 
BRANCH   2   3
ATOM      3  C   UNL     1     119.661 125.365 130.824  1.00  0.00     0.000 C 
BRANCH   3   4
ATOM      4  C   UNL     1     120.337 124.857 132.106  1.00  0.00     0.000 C 
BRANCH   4   5
ATOM      5  C   UNL     1     119.490 123.765 132.776  1.00  0.00     0.006 C 
BRANCH   5   6
ATOM      6  C   UNL     1     119.261 124.041 134.268  1.00  0.00     0.053 C 
BRANCH   6   7
ATOM      7  C   UNL     1     117.801 124.090 134.605  1.00  0.00     0.041 C 
ATOM      8  O   UNL     1     116.938 124.085 133.688  1.00  0.00    -0.550 OA
ATOM      9  O   UNL     1     117.396 124.175 135.931  1.00  0.00    -0.550 OA
ENDBRANCH   6   7
ENDBRANCH   5   6
ENDBRANCH   4   5
ENDBRANCH   3   4
ENDBRANCH   2   3
ENDBRANCH   1   2
BRANCH   1  10
ATOM     10  C   UNL     1     117.968 128.348 132.004  1.00  0.00     0.027 C 
BRANCH  10  11
ATOM     11  C   UNL     1     118.395 127.649 133.271  1.00  0.00    -0.031 C 
ATOM     12  C   UNL     1     119.487 127.967 133.991  1.00  0.00    -0.031 C 
BRANCH  12  13
ATOM     13  C   UNL     1     120.509 129.003 133.592  1.00  0.00     0.027 C 
BRANCH  13  14
ATOM     14  C   UNL     1     121.670 128.393 132.786  1.00  0.00     0.004 C 
BRANCH  14  15
ATOM     15  C   UNL     1     122.616 129.431 132.152  1.00  0.00     0.000 C 
BRANCH  15  16
ATOM     16  C   UNL     1     122.572 129.419 130.617  1.00  0.00    -0.000 C 
BRANCH  16  17
ATOM     17  C   UNL     1     121.873 128.157 130.098  1.00  0.00    -0.003 C 
ATOM     18  C   UNL     1     122.169 127.933 128.618  1.00  0.00     0.004 C 
ENDBRANCH  16  17
ENDBRANCH  15  16
ENDBRANCH  14  15
ENDBRANCH  13  14
ENDBRANCH  12  13
ENDBRANCH  10  11
ENDBRANCH   1  10
TORSDOF 13
ENDMDL
MODEL 8
REMARK VINA RESULT:    -4.513      9.914     12.407
REMARK INTER + INTRA:          -9.540
REMARK INTER:                  -7.234
REMARK INTRA:                  -2.306
REMARK UNBOUND:                -1.598
REMARK SMILES CCCCCCC=CCCCCCCCC(=O)[O-]
REMARK SMILES IDX 10 1 11 2 12 3 13 4 14 5 15 6 16 7 17 8 18 9 9 10 8 11 7 12
REMARK SMILES IDX 6 13 5 14 4 15 3 16 2 17 1 18
REMARK H PARENT
REMARK Flexibility Score: inf
ROOT
ATOM      1  C   UNL     1     118.733 124.101 133.117  1.00  0.00     0.004 C 
ENDROOT
BRANCH   1   2
ATOM      2  C   UNL     1     119.932 124.060 132.152  1.00  0.00     0.000 C 
BRANCH   2   3
ATOM      3  C   UNL     1     119.822 125.102 131.027  1.00  0.00     0.000 C 
BRANCH   3   4
ATOM      4  C   UNL     1     118.519 125.914 131.096  1.00  0.00     0.000 C 
BRANCH   4   5
ATOM      5  C   UNL     1     118.814 127.417 131.206  1.00  0.00     0.006 C 
BRANCH   5   6
ATOM      6  C   UNL     1     117.568 128.227 131.589  1.00  0.00     0.053 C 
BRANCH   6   7
ATOM      7  C   UNL     1     116.594 128.315 130.454  1.00  0.00     0.041 C 
ATOM      8  O   UNL     1     115.461 127.774 130.547  1.00  0.00    -0.550 OA
ATOM      9  O   UNL     1     116.950 128.967 129.281  1.00  0.00    -0.550 OA
ENDBRANCH   6   7
ENDBRANCH   5   6
ENDBRANCH   4   5
ENDBRANCH   3   4
ENDBRANCH   2   3
ENDBRANCH   1   2
BRANCH   1  10
ATOM     10  C   UNL     1     119.158 124.466 134.547  1.00  0.00     0.027 C 
BRANCH  10  11
ATOM     11  C   UNL     1     118.797 125.888 134.897  1.00  0.00    -0.031 C 
ATOM     12  C   UNL     1     119.613 126.947 134.740  1.00  0.00    -0.031 C 
BRANCH  12  13
ATOM     13  C   UNL     1     121.049 126.866 134.284  1.00  0.00     0.027 C 
BRANCH  13  14
ATOM     14  C   UNL     1     121.753 128.233 134.339  1.00  0.00     0.004 C 
BRANCH  14  15
ATOM     15  C   UNL     1     121.506 129.123 133.106  1.00  0.00     0.000 C 
BRANCH  15  16
ATOM     16  C   UNL     1     122.663 129.082 132.097  1.00  0.00    -0.000 C 
BRANCH  16  17
ATOM     17  C   UNL     1     122.425 128.002 131.035  1.00  0.00    -0.003 C 
ATOM     18  C   UNL     1     122.229 128.621 129.654  1.00  0.00     0.004 C 
ENDBRANCH  16  17
ENDBRANCH  15  16
ENDBRANCH  14  15
ENDBRANCH  13  14
ENDBRANCH  12  13
ENDBRANCH  10  11
ENDBRANCH   1  10
TORSDOF 13
ENDMDL
MODEL 9
REMARK VINA RESULT:    -4.510      9.549     12.278
REMARK INTER + INTRA:          -9.535
REMARK INTER:                  -7.052
REMARK INTRA:                  -2.483
REMARK UNBOUND:                -1.598
REMARK SMILES CCCCCCC=CCCCCCCCC(=O)[O-]
REMARK SMILES IDX 10 1 11 2 12 3 13 4 14 5 15 6 16 7 17 8 18 9 9 10 8 11 7 12
REMARK SMILES IDX 6 13 5 14 4 15 3 16 2 17 1 18
REMARK H PARENT
REMARK Flexibility Score: inf
ROOT
ATOM      1  C   UNL     1     118.219 128.198 134.545  1.00  0.00     0.004 C 
ENDROOT
BRANCH   1   2
ATOM      2  C   UNL     1     119.486 129.017 134.241  1.00  0.00     0.000 C 
BRANCH   2   3
ATOM      3  C   UNL     1     120.706 128.541 135.046  1.00  0.00     0.000 C 
BRANCH   3   4
ATOM      4  C   UNL     1     122.021 128.667 134.262  1.00  0.00     0.000 C 
BRANCH   4   5
ATOM      5  C   UNL     1     121.764 129.193 132.841  1.00  0.00     0.006 C 
BRANCH   5   6
ATOM      6  C   UNL     1     122.713 128.567 131.810  1.00  0.00     0.053 C 
BRANCH   6   7
ATOM      7  C   UNL     1     122.653 129.284 130.495  1.00  0.00     0.041 C 
ATOM      8  O   UNL     1     122.997 130.493 130.415  1.00  0.00    -0.550 OA
ATOM      9  O   UNL     1     122.188 128.624 129.365  1.00  0.00    -0.550 OA
ENDBRANCH   6   7
ENDBRANCH   5   6
ENDBRANCH   4   5
ENDBRANCH   3   4
ENDBRANCH   2   3
ENDBRANCH   1   2
BRANCH   1  10
ATOM     10  C   UNL     1     118.541 126.725 134.835  1.00  0.00     0.027 C 
BRANCH  10  11
ATOM     11  C   UNL     1     117.563 125.792 134.165  1.00  0.00    -0.031 C 
ATOM     12  C   UNL     1     117.862 124.555 133.724  1.00  0.00    -0.031 C 
BRANCH  12  13
ATOM     13  C   UNL     1     119.243 123.947 133.740  1.00  0.00     0.027 C 
BRANCH  13  14
ATOM     14  C   UNL     1     119.925 124.020 132.362  1.00  0.00     0.004 C 
BRANCH  14  15
ATOM     15  C   UNL     1     120.498 125.406 132.011  1.00  0.00     0.000 C 
BRANCH  15  16
ATOM     16  C   UNL     1     119.931 125.973 130.701  1.00  0.00    -0.000 C 
BRANCH  16  17
ATOM     17  C   UNL     1     119.284 127.343 130.932  1.00  0.00    -0.003 C 
ATOM     18  C   UNL     1     117.765 127.263 130.811  1.00  0.00     0.004 C 
ENDBRANCH  16  17
ENDBRANCH  15  16
ENDBRANCH  14  15
ENDBRANCH  13  14
ENDBRANCH  12  13
ENDBRANCH  10  11
ENDBRANCH   1  10
TORSDOF 13
ENDMDL
