MODEL 1
REMARK VINA RESULT:    -3.942      0.000      0.000
REMARK INTER + INTRA:          -6.247
REMARK INTER:                  -6.016
REMARK INTRA:                  -0.231
REMARK UNBOUND:                -0.231
REMARK SMILES CC1=CCC[C@@H](C)C(=O)C[C@H](C(C)C)C(=O)C1
REMARK SMILES IDX 8 1 9 2 6 3 7 4 5 5 4 6 3 7 2 8 1 9 10 11 11 12 15 13 16 14
REMARK SMILES IDX 17 15 12 17 13 18 14 19
REMARK H PARENT
REMARK Flexibility Score: 70.00
ROOT
ATOM      1  C   UNL     1     -15.863  13.733 -31.025  1.00  0.00     0.136 C 
ATOM      2  O   UNL     1     -16.591  13.930 -31.986  1.00  0.00    -0.299 OA
ENDROOT
BRANCH   1   3
ATOM      3  C   UNL     1     -14.359  13.740 -31.233  1.00  0.00     0.053 C 
ATOM      4  C   UNL     1     -13.904  15.047 -31.896  1.00  0.00     0.016 C 
BRANCH   3   5
ATOM      5  C   UNL     1     -13.899  12.512 -32.043  1.00  0.00     0.015 C 
BRANCH   5   6
ATOM      6  C   UNL     1     -13.710  11.271 -31.149  1.00  0.00     0.028 C 
BRANCH   6   7
ATOM      7  C   UNL     1     -13.047  11.625 -29.843  1.00  0.00    -0.028 C 
ATOM      8  C   UNL     1     -13.521  11.288 -28.622  1.00  0.00    -0.070 CG0
ATOM      9  C   UNL     1     -12.722  11.699 -27.412  1.00  0.00     0.039 C 
ATOM     10  G   UNL     1     -14.810  10.510 -28.412  1.00  0.00     0.000 G0
ENDBRANCH   6   7
ENDBRANCH   5   6
ENDBRANCH   3   5
ENDBRANCH   1   3
BRANCH   1  11
ATOM     11  C   UNL     1     -16.478  13.417 -29.675  1.00  0.00     0.087 C 
BRANCH  11  12
ATOM     12  C   UNL     1     -16.808  11.922 -29.426  1.00  0.00     0.066 C 
BRANCH  12  13
ATOM     13  C   UNL     1     -16.020  11.387 -28.237  1.00  0.00     0.140 C 
ATOM     14  O   UNL     1     -16.368  11.717 -27.112  1.00  0.00    -0.299 OA
BRANCH  13  15
ATOM     15  C   UNL     1     -14.802  10.503 -28.403  1.00  0.00     0.106 CG0
ATOM     16  G   UNL     1     -13.525  11.302 -28.613  1.00  0.00     0.000 G0
ENDBRANCH  13  15
ENDBRANCH  12  13
BRANCH  12  17
ATOM     17  C   UNL     1     -18.332  11.564 -29.375  1.00  0.00    -0.006 C 
ATOM     18  C   UNL     1     -18.572  10.128 -29.875  1.00  0.00     0.008 C 
ATOM     19  C   UNL     1     -19.187  12.523 -30.222  1.00  0.00     0.008 C 
ENDBRANCH  12  17
ENDBRANCH  11  12
ENDBRANCH   1  11
TORSDOF 1
ENDMDL
MODEL 2
REMARK VINA RESULT:    -3.774      1.710      3.965
REMARK INTER + INTRA:          -5.991
REMARK INTER:                  -6.136
REMARK INTRA:                   0.146
REMARK UNBOUND:                -0.231
REMARK SMILES CC1=CCC[C@@H](C)C(=O)C[C@H](C(C)C)C(=O)C1
REMARK SMILES IDX 8 1 9 2 6 3 7 4 5 5 4 6 3 7 2 8 1 9 10 11 11 12 15 13 16 14
REMARK SMILES IDX 17 15 12 17 13 18 14 19
REMARK H PARENT
REMARK Flexibility Score: 70.00
ROOT
ATOM      1  C   UNL     1     -17.215  12.374 -31.814  1.00  0.00     0.136 C 
ATOM      2  O   UNL     1     -17.575  13.284 -32.546  1.00  0.00    -0.299 OA
ENDROOT
BRANCH   1   3
ATOM      3  C   UNL     1     -18.271  11.529 -31.124  1.00  0.00     0.053 C 
ATOM      4  C   UNL     1     -19.162  12.395 -30.223  1.00  0.00     0.016 C 
BRANCH   3   5
ATOM      5  C   UNL     1     -17.633  10.371 -30.332  1.00  0.00     0.015 C 
BRANCH   5   6
ATOM      6  C   UNL     1     -18.043  10.394 -28.847  1.00  0.00     0.028 C 
BRANCH   6   7
ATOM      7  C   UNL     1     -16.939   9.880 -27.959  1.00  0.00    -0.028 C 
ATOM      8  C   UNL     1     -15.868  10.604 -27.563  1.00  0.00    -0.070 CG0
ATOM      9  C   UNL     1     -14.863   9.946 -26.653  1.00  0.00     0.039 C 
ATOM     10  G   UNL     1     -15.633  12.047 -27.984  1.00  0.00     0.000 G0
ENDBRANCH   6   7
ENDBRANCH   5   6
ENDBRANCH   3   5
ENDBRANCH   1   3
BRANCH   1  11
ATOM     11  C   UNL     1     -15.735  12.162 -31.560  1.00  0.00     0.087 C 
BRANCH  11  12
ATOM     12  C   UNL     1     -15.124  13.022 -30.422  1.00  0.00     0.066 C 
BRANCH  12  13
ATOM     13  C   UNL     1     -14.743  12.149 -29.233  1.00  0.00     0.140 C 
ATOM     14  O   UNL     1     -13.725  11.475 -29.308  1.00  0.00    -0.299 OA
BRANCH  13  15
ATOM     15  C   UNL     1     -15.600  12.056 -27.988  1.00  0.00     0.106 CG0
ATOM     16  G   UNL     1     -15.858  10.618 -27.565  1.00  0.00     0.000 G0
ENDBRANCH  13  15
ENDBRANCH  12  13
BRANCH  12  17
ATOM     17  C   UNL     1     -13.991  14.013 -30.856  1.00  0.00    -0.006 C 
ATOM     18  C   UNL     1     -14.566  15.418 -31.117  1.00  0.00     0.008 C 
ATOM     19  C   UNL     1     -13.258  13.544 -32.125  1.00  0.00     0.008 C 
ENDBRANCH  12  17
ENDBRANCH  11  12
ENDBRANCH   1  11
TORSDOF 1
ENDMDL
MODEL 3
REMARK VINA RESULT:    -3.585      1.960      4.898
REMARK INTER + INTRA:          -5.702
REMARK INTER:                  -5.869
REMARK INTRA:                   0.167
REMARK UNBOUND:                -0.231
REMARK SMILES CC1=CCC[C@@H](C)C(=O)C[C@H](C(C)C)C(=O)C1
REMARK SMILES IDX 8 1 9 2 6 3 7 4 5 5 4 6 3 7 2 8 1 9 10 11 11 12 15 13 16 14
REMARK SMILES IDX 17 15 12 17 13 18 14 19
REMARK H PARENT
REMARK Flexibility Score: 70.00
ROOT
ATOM      1  C   UNL     1     -13.646  11.968 -29.177  1.00  0.00     0.136 C 
ATOM      2  O   UNL     1     -12.835  11.397 -29.890  1.00  0.00    -0.299 OA
ENDROOT
BRANCH   1   3
ATOM      3  C   UNL     1     -13.840  11.479 -27.752  1.00  0.00     0.053 C 
ATOM      4  C   UNL     1     -13.106  10.150 -27.525  1.00  0.00     0.016 C 
BRANCH   3   5
ATOM      5  C   UNL     1     -15.336  11.359 -27.400  1.00  0.00     0.015 C 
BRANCH   5   6
ATOM      6  C   UNL     1     -16.100  10.492 -28.419  1.00  0.00     0.028 C 
BRANCH   6   7
ATOM      7  C   UNL     1     -17.364  11.168 -28.885  1.00  0.00    -0.028 C 
ATOM      8  C   UNL     1     -17.607  11.554 -30.158  1.00  0.00    -0.070 CG0
ATOM      9  C   UNL     1     -18.935  12.197 -30.463  1.00  0.00     0.039 C 
ATOM     10  G   UNL     1     -16.613  11.364 -31.293  1.00  0.00     0.000 G0
ENDBRANCH   6   7
ENDBRANCH   5   6
ENDBRANCH   3   5
ENDBRANCH   1   3
BRANCH   1  11
ATOM     11  C   UNL     1     -14.483  13.094 -29.753  1.00  0.00     0.087 C 
BRANCH  11  12
ATOM     12  C   UNL     1     -14.587  13.124 -31.300  1.00  0.00     0.066 C 
BRANCH  12  13
ATOM     13  C   UNL     1     -15.968  12.671 -31.755  1.00  0.00     0.140 C 
ATOM     14  O   UNL     1     -16.607  13.406 -32.497  1.00  0.00    -0.299 OA
BRANCH  13  15
ATOM     15  C   UNL     1     -16.591  11.372 -31.289  1.00  0.00     0.106 CG0
ATOM     16  G   UNL     1     -17.594  11.576 -30.164  1.00  0.00     0.000 G0
ENDBRANCH  13  15
ENDBRANCH  12  13
BRANCH  12  17
ATOM     17  C   UNL     1     -14.108  14.448 -31.985  1.00  0.00    -0.006 C 
ATOM     18  C   UNL     1     -12.746  14.244 -32.674  1.00  0.00     0.008 C 
ATOM     19  C   UNL     1     -13.978  15.611 -30.986  1.00  0.00     0.008 C 
ENDBRANCH  12  17
ENDBRANCH  11  12
ENDBRANCH   1  11
TORSDOF 1
ENDMDL
MODEL 4
REMARK VINA RESULT:    -3.288      1.936      4.060
REMARK INTER + INTRA:          -5.249
REMARK INTER:                  -5.573
REMARK INTRA:                   0.324
REMARK UNBOUND:                -0.231
REMARK SMILES CC1=CCC[C@@H](C)C(=O)C[C@H](C(C)C)C(=O)C1
REMARK SMILES IDX 8 1 9 2 6 3 7 4 5 5 4 6 3 7 2 8 1 9 10 11 11 12 15 13 16 14
REMARK SMILES IDX 17 15 12 17 13 18 14 19
REMARK H PARENT
REMARK Flexibility Score: 70.00
ROOT
ATOM      1  C   UNL     1     -14.394  13.151 -30.587  1.00  0.00     0.136 C 
ATOM      2  O   UNL     1     -14.643  14.202 -30.016  1.00  0.00    -0.299 OA
ENDROOT
BRANCH   1   3
ATOM      3  C   UNL     1     -14.559  13.079 -32.094  1.00  0.00     0.053 C 
ATOM      4  C   UNL     1     -14.450  14.474 -32.724  1.00  0.00     0.016 C 
BRANCH   3   5
ATOM      5  C   UNL     1     -15.884  12.392 -32.481  1.00  0.00     0.015 C 
BRANCH   5   6
ATOM      6  C   UNL     1     -17.108  13.237 -32.080  1.00  0.00     0.028 C 
BRANCH   6   7
ATOM      7  C   UNL     1     -18.253  12.371 -31.620  1.00  0.00    -0.028 C 
ATOM      8  C   UNL     1     -18.421  11.925 -30.355  1.00  0.00    -0.070 CG0
ATOM      9  C   UNL     1     -19.635  11.086 -30.053  1.00  0.00     0.039 C 
ATOM     10  G   UNL     1     -17.453  12.236 -29.224  1.00  0.00     0.000 G0
ENDBRANCH   6   7
ENDBRANCH   5   6
ENDBRANCH   3   5
ENDBRANCH   1   3
BRANCH   1  11
ATOM     11  C   UNL     1     -14.001  11.934 -29.770  1.00  0.00     0.087 C 
BRANCH  11  12
ATOM     12  C   UNL     1     -14.950  11.585 -28.594  1.00  0.00     0.066 C 
BRANCH  12  13
ATOM     13  C   UNL     1     -16.333  11.213 -29.111  1.00  0.00     0.140 C 
ATOM     14  O   UNL     1     -16.523  10.066 -29.492  1.00  0.00    -0.299 OA
BRANCH  13  15
ATOM     15  C   UNL     1     -17.461  12.218 -29.208  1.00  0.00     0.106 CG0
ATOM     16  G   UNL     1     -18.418  11.913 -30.350  1.00  0.00     0.000 G0
ENDBRANCH  13  15
ENDBRANCH  12  13
BRANCH  12  17
ATOM     17  C   UNL     1     -14.382  10.571 -27.544  1.00  0.00    -0.006 C 
ATOM     18  C   UNL     1     -15.221  10.596 -26.253  1.00  0.00     0.008 C 
ATOM     19  C   UNL     1     -12.917  10.866 -27.178  1.00  0.00     0.008 C 
ENDBRANCH  12  17
ENDBRANCH  11  12
ENDBRANCH   1  11
TORSDOF 1
ENDMDL
MODEL 5
REMARK VINA RESULT:    -3.212      8.884     11.607
REMARK INTER + INTRA:          -5.133
REMARK INTER:                  -6.712
REMARK INTRA:                   1.580
REMARK UNBOUND:                -0.231
REMARK SMILES CC1=CCC[C@@H](C)C(=O)C[C@H](C(C)C)C(=O)C1
REMARK SMILES IDX 8 1 9 2 6 3 7 4 5 5 4 6 3 7 2 8 1 9 10 11 11 12 15 13 16 14
REMARK SMILES IDX 17 15 12 17 13 18 14 19
REMARK H PARENT
REMARK Flexibility Score: 70.00
ROOT
ATOM      1  C   UNL     1     -27.598  13.370 -30.666  1.00  0.00     0.136 C 
ATOM      2  O   UNL     1     -27.316  13.788 -31.779  1.00  0.00    -0.299 OA
ENDROOT
BRANCH   1   3
ATOM      3  C   UNL     1     -28.906  12.623 -30.474  1.00  0.00     0.053 C 
ATOM      4  C   UNL     1     -30.106  13.552 -30.704  1.00  0.00     0.016 C 
BRANCH   3   5
ATOM      5  C   UNL     1     -28.972  11.955 -29.087  1.00  0.00     0.015 C 
BRANCH   5   6
ATOM      6  C   UNL     1     -28.504  10.488 -29.132  1.00  0.00     0.028 C 
BRANCH   6   7
ATOM      7  C   UNL     1     -27.312  10.259 -28.239  1.00  0.00    -0.028 C 
ATOM      8  C   UNL     1     -26.028  10.492 -28.593  1.00  0.00    -0.070 CG0
ATOM      9  C   UNL     1     -24.951  10.234 -27.571  1.00  0.00     0.039 C 
ATOM     10  G   UNL     1     -25.620  11.009 -29.964  1.00  0.00     0.000 G0
ENDBRANCH   6   7
ENDBRANCH   5   6
ENDBRANCH   3   5
ENDBRANCH   1   3
BRANCH   1  11
ATOM     11  C   UNL     1     -26.675  13.672 -29.501  1.00  0.00     0.087 C 
BRANCH  11  12
ATOM     12  C   UNL     1     -25.158  13.627 -29.821  1.00  0.00     0.066 C 
BRANCH  12  13
ATOM     13  C   UNL     1     -24.670  12.187 -29.914  1.00  0.00     0.140 C 
ATOM     14  O   UNL     1     -23.466  11.984 -29.980  1.00  0.00    -0.299 OA
BRANCH  13  15
ATOM     15  C   UNL     1     -25.622  11.010 -29.973  1.00  0.00     0.106 CG0
ATOM     16  G   UNL     1     -26.017  10.511 -28.592  1.00  0.00     0.000 G0
ENDBRANCH  13  15
ENDBRANCH  12  13
BRANCH  12  17
ATOM     17  C   UNL     1     -24.692  14.522 -31.019  1.00  0.00    -0.006 C 
ATOM     18  C   UNL     1     -23.164  14.447 -31.194  1.00  0.00     0.008 C 
ATOM     19  C   UNL     1     -25.089  15.998 -30.836  1.00  0.00     0.008 C 
ENDBRANCH  12  17
ENDBRANCH  11  12
ENDBRANCH   1  11
TORSDOF 1
ENDMDL
MODEL 6
REMARK VINA RESULT:    -3.127     10.582     12.718
REMARK INTER + INTRA:          -5.003
REMARK INTER:                  -4.921
REMARK INTRA:                  -0.082
REMARK UNBOUND:                -0.231
REMARK SMILES CC1=CCC[C@@H](C)C(=O)C[C@H](C(C)C)C(=O)C1
REMARK SMILES IDX 8 1 9 2 6 3 7 4 5 5 4 6 3 7 2 8 1 9 10 11 11 12 15 13 16 14
REMARK SMILES IDX 17 15 12 17 13 18 14 19
REMARK H PARENT
REMARK Flexibility Score: 70.00
ROOT
ATOM      1  C   UNL     1     -26.430  19.614 -33.837  1.00  0.00     0.136 C 
ATOM      2  O   UNL     1     -26.304  20.826 -33.748  1.00  0.00    -0.299 OA
ENDROOT
BRANCH   1   3
ATOM      3  C   UNL     1     -27.828  19.028 -33.927  1.00  0.00     0.053 C 
ATOM      4  C   UNL     1     -28.821  19.851 -33.095  1.00  0.00     0.016 C 
BRANCH   3   5
ATOM      5  C   UNL     1     -27.841  17.545 -33.508  1.00  0.00     0.015 C 
BRANCH   5   6
ATOM      6  C   UNL     1     -27.822  17.379 -31.976  1.00  0.00     0.028 C 
BRANCH   6   7
ATOM      7  C   UNL     1     -27.147  16.095 -31.566  1.00  0.00    -0.028 C 
ATOM      8  C   UNL     1     -25.934  16.018 -30.973  1.00  0.00    -0.070 CG0
ATOM      9  C   UNL     1     -25.410  14.654 -30.603  1.00  0.00     0.039 C 
ATOM     10  G   UNL     1     -25.081  17.236 -30.654  1.00  0.00     0.000 G0
ENDBRANCH   6   7
ENDBRANCH   5   6
ENDBRANCH   3   5
ENDBRANCH   1   3
BRANCH   1  11
ATOM     11  C   UNL     1     -25.198  18.731 -33.782  1.00  0.00     0.087 C 
BRANCH  11  12
ATOM     12  C   UNL     1     -24.289  18.931 -32.541  1.00  0.00     0.066 C 
BRANCH  12  13
ATOM     13  C   UNL     1     -24.134  17.626 -31.771  1.00  0.00     0.140 C 
ATOM     14  O   UNL     1     -23.245  16.855 -32.104  1.00  0.00    -0.299 OA
BRANCH  13  15
ATOM     15  C   UNL     1     -25.066  17.234 -30.643  1.00  0.00     0.106 CG0
ATOM     16  G   UNL     1     -25.910  16.015 -30.980  1.00  0.00     0.000 G0
ENDBRANCH  13  15
ENDBRANCH  12  13
BRANCH  12  17
ATOM     17  C   UNL     1     -22.929  19.661 -32.808  1.00  0.00    -0.006 C 
ATOM     18  C   UNL     1     -23.011  21.139 -32.383  1.00  0.00     0.008 C 
ATOM     19  C   UNL     1     -22.515  19.603 -34.290  1.00  0.00     0.008 C 
ENDBRANCH  12  17
ENDBRANCH  11  12
ENDBRANCH   1  11
TORSDOF 1
ENDMDL
MODEL 7
REMARK VINA RESULT:    -3.035      2.350      5.340
REMARK INTER + INTRA:          -4.862
REMARK INTER:                  -5.482
REMARK INTRA:                   0.620
REMARK UNBOUND:                -0.231
REMARK SMILES CC1=CCC[C@@H](C)C(=O)C[C@H](C(C)C)C(=O)C1
REMARK SMILES IDX 8 1 9 2 6 3 7 4 5 5 4 6 3 7 2 8 1 9 10 11 11 12 15 13 16 14
REMARK SMILES IDX 17 15 12 17 13 18 14 19
REMARK H PARENT
REMARK Flexibility Score: 70.00
ROOT
ATOM      1  C   UNL     1     -14.506  11.256 -29.820  1.00  0.00     0.136 C 
ATOM      2  O   UNL     1     -14.627  10.051 -29.981  1.00  0.00    -0.299 OA
ENDROOT
BRANCH   1   3
ATOM      3  C   UNL     1     -15.635  12.023 -29.155  1.00  0.00     0.053 C 
ATOM      4  C   UNL     1     -15.873  11.515 -27.726  1.00  0.00     0.016 C 
BRANCH   3   5
ATOM      5  C   UNL     1     -16.926  11.960 -29.994  1.00  0.00     0.015 C 
BRANCH   5   6
ATOM      6  C   UNL     1     -17.129  13.236 -30.834  1.00  0.00     0.028 C 
BRANCH   6   7
ATOM      7  C   UNL     1     -16.079  14.273 -30.528  1.00  0.00    -0.028 C 
ATOM      8  C   UNL     1     -15.049  14.590 -31.345  1.00  0.00    -0.070 CG0
ATOM      9  C   UNL     1     -14.097  15.670 -30.901  1.00  0.00     0.039 C 
ATOM     10  G   UNL     1     -14.810  13.917 -32.688  1.00  0.00     0.000 G0
ENDBRANCH   6   7
ENDBRANCH   5   6
ENDBRANCH   3   5
ENDBRANCH   1   3
BRANCH   1  11
ATOM     11  C   UNL     1     -13.272  11.959 -30.353  1.00  0.00     0.087 C 
BRANCH  11  12
ATOM     12  C   UNL     1     -13.133  11.986 -31.898  1.00  0.00     0.066 C 
BRANCH  12  13
ATOM     13  C   UNL     1     -14.430  12.453 -32.547  1.00  0.00     0.140 C 
ATOM     14  O   UNL     1     -15.190  11.610 -33.002  1.00  0.00    -0.299 OA
BRANCH  13  15
ATOM     15  C   UNL     1     -14.785  13.919 -32.685  1.00  0.00     0.106 CG0
ATOM     16  G   UNL     1     -15.039  14.587 -31.342  1.00  0.00     0.000 G0
ENDBRANCH  13  15
ENDBRANCH  12  13
BRANCH  12  17
ATOM     17  C   UNL     1     -11.862  12.712 -32.452  1.00  0.00    -0.006 C 
ATOM     18  C   UNL     1     -11.931  12.841 -33.985  1.00  0.00     0.008 C 
ATOM     19  C   UNL     1     -10.561  11.977 -32.084  1.00  0.00     0.008 C 
ENDBRANCH  12  17
ENDBRANCH  11  12
ENDBRANCH   1  11
TORSDOF 1
ENDMDL
MODEL 8
REMARK VINA RESULT:    -3.033      8.939     12.097
REMARK INTER + INTRA:          -4.860
REMARK INTER:                  -5.290
REMARK INTRA:                   0.430
REMARK UNBOUND:                -0.231
REMARK SMILES CC1=CCC[C@@H](C)C(=O)C[C@H](C(C)C)C(=O)C1
REMARK SMILES IDX 8 1 9 2 6 3 7 4 5 5 4 6 3 7 2 8 1 9 10 11 11 12 15 13 16 14
REMARK SMILES IDX 17 15 12 17 13 18 14 19
REMARK H PARENT
REMARK Flexibility Score: 70.00
ROOT
ATOM      1  C   UNL     1     -27.965  10.819 -28.141  1.00  0.00     0.136 C 
ATOM      2  O   UNL     1     -28.041   9.884 -27.358  1.00  0.00    -0.299 OA
ENDROOT
BRANCH   1   3
ATOM      3  C   UNL     1     -29.132  11.090 -29.073  1.00  0.00     0.053 C 
ATOM      4  C   UNL     1     -29.012  10.257 -30.356  1.00  0.00     0.016 C 
BRANCH   3   5
ATOM      5  C   UNL     1     -29.259  12.593 -29.391  1.00  0.00     0.015 C 
BRANCH   5   6
ATOM      6  C   UNL     1     -28.639  12.946 -30.757  1.00  0.00     0.028 C 
BRANCH   6   7
ATOM      7  C   UNL     1     -27.824  14.211 -30.685  1.00  0.00    -0.028 C 
ATOM      8  C   UNL     1     -26.488  14.279 -30.884  1.00  0.00    -0.070 CG0
ATOM      9  C   UNL     1     -25.825  15.630 -30.800  1.00  0.00     0.039 C 
ATOM     10  G   UNL     1     -25.627  13.065 -31.196  1.00  0.00     0.000 G0
ENDBRANCH   6   7
ENDBRANCH   5   6
ENDBRANCH   3   5
ENDBRANCH   1   3
BRANCH   1  11
ATOM     11  C   UNL     1     -26.685  11.631 -28.210  1.00  0.00     0.087 C 
BRANCH  11  12
ATOM     12  C   UNL     1     -25.680  11.201 -29.310  1.00  0.00     0.066 C 
BRANCH  12  13
ATOM     13  C   UNL     1     -25.043  12.421 -29.963  1.00  0.00     0.140 C 
ATOM     14  O   UNL     1     -24.047  12.905 -29.443  1.00  0.00    -0.299 OA
BRANCH  13  15
ATOM     15  C   UNL     1     -25.622  13.075 -31.200  1.00  0.00     0.106 CG0
ATOM     16  G   UNL     1     -26.494  14.277 -30.870  1.00  0.00     0.000 G0
ENDBRANCH  13  15
ENDBRANCH  12  13
BRANCH  12  17
ATOM     17  C   UNL     1     -24.644  10.105 -28.890  1.00  0.00    -0.006 C 
ATOM     18  C   UNL     1     -24.374  10.162 -27.375  1.00  0.00     0.008 C 
ATOM     19  C   UNL     1     -23.302  10.255 -29.629  1.00  0.00     0.008 C 
ENDBRANCH  12  17
ENDBRANCH  11  12
ENDBRANCH   1  11
TORSDOF 1
ENDMDL
MODEL 9
REMARK VINA RESULT:    -2.922     10.068     12.862
REMARK INTER + INTRA:          -4.690
REMARK INTER:                  -4.999
REMARK INTRA:                   0.310
REMARK UNBOUND:                -0.231
REMARK SMILES CC1=CCC[C@@H](C)C(=O)C[C@H](C(C)C)C(=O)C1
REMARK SMILES IDX 8 1 9 2 6 3 7 4 5 5 4 6 3 7 2 8 1 9 10 11 11 12 15 13 16 14
REMARK SMILES IDX 17 15 12 17 13 18 14 19
REMARK H PARENT
REMARK Flexibility Score: 70.00
ROOT
ATOM      1  C   UNL     1     -27.739  17.749 -32.623  1.00  0.00     0.136 C 
ATOM      2  O   UNL     1     -27.824  16.829 -33.423  1.00  0.00    -0.299 OA
ENDROOT
BRANCH   1   3
ATOM      3  C   UNL     1     -28.571  18.998 -32.853  1.00  0.00     0.053 C 
ATOM      4  C   UNL     1     -29.893  18.654 -33.552  1.00  0.00     0.016 C 
BRANCH   3   5
ATOM      5  C   UNL     1     -27.781  20.062 -33.641  1.00  0.00     0.015 C 
BRANCH   5   6
ATOM      6  C   UNL     1     -26.499  19.479 -34.267  1.00  0.00     0.028 C 
BRANCH   6   7
ATOM      7  C   UNL     1     -25.285  20.296 -33.907  1.00  0.00    -0.028 C 
ATOM      8  C   UNL     1     -24.107  19.782 -33.490  1.00  0.00    -0.070 CG0
ATOM      9  C   UNL     1     -22.980  20.738 -33.192  1.00  0.00     0.039 C 
ATOM     10  G   UNL     1     -23.860  18.291 -33.315  1.00  0.00     0.000 G0
ENDBRANCH   6   7
ENDBRANCH   5   6
ENDBRANCH   3   5
ENDBRANCH   1   3
BRANCH   1  11
ATOM     11  C   UNL     1     -26.755  17.648 -31.473  1.00  0.00     0.087 C 
BRANCH  11  12
ATOM     12  C   UNL     1     -25.460  16.848 -31.770  1.00  0.00     0.066 C 
BRANCH  12  13
ATOM     13  C   UNL     1     -24.276  17.790 -31.950  1.00  0.00     0.140 C 
ATOM     14  O   UNL     1     -23.684  18.178 -30.953  1.00  0.00    -0.299 OA
BRANCH  13  15
ATOM     15  C   UNL     1     -23.838  18.291 -33.311  1.00  0.00     0.106 CG0
ATOM     16  G   UNL     1     -24.088  19.780 -33.491  1.00  0.00     0.000 G0
ENDBRANCH  13  15
ENDBRANCH  12  13
BRANCH  12  17
ATOM     17  C   UNL     1     -25.165  15.653 -30.802  1.00  0.00    -0.006 C 
ATOM     18  C   UNL     1     -24.010  14.788 -31.340  1.00  0.00     0.008 C 
ATOM     19  C   UNL     1     -26.393  14.750 -30.596  1.00  0.00     0.008 C 
ENDBRANCH  12  17
ENDBRANCH  11  12
ENDBRANCH   1  11
TORSDOF 1
ENDMDL
