MODEL 1
REMARK VINA RESULT:    12.200      0.000      0.000
REMARK INTER + INTRA:          26.931
REMARK INTER:                  27.891
REMARK INTRA:                  -0.961
REMARK UNBOUND:                -0.961
REMARK SMILES CCCCCCCCCCCCCCCCCCCCCCCC(=O)[O-]
REMARK SMILES IDX 13 1 14 2 15 3 16 4 17 5 18 6 19 7 20 8 21 9 22 10 23 11
REMARK SMILES IDX 24 12 25 13 26 14 12 15 11 16 10 17 9 18 8 19 7 20 6 21 5 22
REMARK SMILES IDX 4 23 3 24 2 25 1 26
REMARK H PARENT
REMARK Flexibility Score: inf
ROOT
ATOM      1  C   UNL     1      84.087  15.573 107.150  1.00  0.00     0.000 C 
ENDROOT
BRANCH   1   2
ATOM      2  C   UNL     1      83.733  14.404 108.082  1.00  0.00     0.000 C 
BRANCH   2   3
ATOM      3  C   UNL     1      84.964  13.584 108.497  1.00  0.00     0.000 C 
BRANCH   3   4
ATOM      4  C   UNL     1      86.277  14.169 107.947  1.00  0.00     0.000 C 
BRANCH   4   5
ATOM      5  C   UNL     1      87.081  13.133 107.132  1.00  0.00     0.000 C 
BRANCH   5   6
ATOM      6  C   UNL     1      88.418  13.675 106.596  1.00  0.00     0.000 C 
BRANCH   6   7
ATOM      7  C   UNL     1      89.168  12.654 105.725  1.00  0.00     0.000 C 
BRANCH   7   8
ATOM      8  C   UNL     1      89.135  11.235 106.317  1.00  0.00     0.000 C 
BRANCH   8   9
ATOM      9  C   UNL     1      89.628  10.170 105.321  1.00  0.00     0.000 C 
BRANCH   9  10
ATOM     10  C   UNL     1      90.230   8.937 106.019  1.00  0.00     0.006 C 
BRANCH  10  11
ATOM     11  C   UNL     1      90.283   9.036 107.551  1.00  0.00     0.053 C 
BRANCH  11  12
ATOM     12  C   UNL     1      90.712   7.748 108.184  1.00  0.00     0.041 C 
ATOM     13  O   UNL     1      91.855   7.276 107.947  1.00  0.00    -0.550 OA
ATOM     14  O   UNL     1      89.839   7.054 109.012  1.00  0.00    -0.550 OA
ENDBRANCH  11  12
ENDBRANCH  10  11
ENDBRANCH   9  10
ENDBRANCH   8   9
ENDBRANCH   7   8
ENDBRANCH   6   7
ENDBRANCH   5   6
ENDBRANCH   4   5
ENDBRANCH   3   4
ENDBRANCH   2   3
ENDBRANCH   1   2
BRANCH   1  15
ATOM     15  C   UNL     1      84.070  16.905 107.914  1.00  0.00     0.000 C 
BRANCH  15  16
ATOM     16  C   UNL     1      85.463  17.552 108.019  1.00  0.00     0.000 C 
BRANCH  16  17
ATOM     17  C   UNL     1      85.461  19.076 108.253  1.00  0.00     0.000 C 
BRANCH  17  18
ATOM     18  C   UNL     1      86.579  19.595 109.175  1.00  0.00    -0.000 C 
BRANCH  18  19
ATOM     19  C   UNL     1      86.601  21.130 109.277  1.00  0.00    -0.000 C 
BRANCH  19  20
ATOM     20  C   UNL     1      87.962  21.676 109.744  1.00  0.00    -0.000 C 
BRANCH  20  21
ATOM     21  C   UNL     1      88.315  21.365 111.212  1.00  0.00    -0.000 C 
BRANCH  21  22
ATOM     22  C   UNL     1      89.003  22.512 111.981  1.00  0.00    -0.000 C 
BRANCH  22  23
ATOM     23  C   UNL     1      90.188  22.084 112.864  1.00  0.00    -0.000 C 
BRANCH  23  24
ATOM     24  C   UNL     1      90.692  20.669 112.543  1.00  0.00    -0.000 C 
BRANCH  24  25
ATOM     25  C   UNL     1      92.102  20.712 111.944  1.00  0.00    -0.003 C 
ATOM     26  C   UNL     1      92.733  19.324 111.917  1.00  0.00     0.004 C 
ENDBRANCH  24  25
ENDBRANCH  23  24
ENDBRANCH  22  23
ENDBRANCH  21  22
ENDBRANCH  20  21
ENDBRANCH  19  20
ENDBRANCH  18  19
ENDBRANCH  17  18
ENDBRANCH  16  17
ENDBRANCH  15  16
ENDBRANCH   1  15
TORSDOF 22
ENDMDL
MODEL 2
REMARK VINA RESULT:    12.809      3.773     10.441
REMARK INTER + INTRA:          28.323
REMARK INTER:                  27.988
REMARK INTRA:                   0.335
REMARK UNBOUND:                -0.961
REMARK SMILES CCCCCCCCCCCCCCCCCCCCCCCC(=O)[O-]
REMARK SMILES IDX 13 1 14 2 15 3 16 4 17 5 18 6 19 7 20 8 21 9 22 10 23 11
REMARK SMILES IDX 24 12 25 13 26 14 12 15 11 16 10 17 9 18 8 19 7 20 6 21 5 22
REMARK SMILES IDX 4 23 3 24 2 25 1 26
REMARK H PARENT
REMARK Flexibility Score: inf
ROOT
ATOM      1  C   UNL     1      83.422  15.057 107.158  1.00  0.00     0.000 C 
ENDROOT
BRANCH   1   2
ATOM      2  C   UNL     1      84.646  15.911 107.522  1.00  0.00     0.000 C 
BRANCH   2   3
ATOM      3  C   UNL     1      84.298  17.396 107.705  1.00  0.00     0.000 C 
BRANCH   3   4
ATOM      4  C   UNL     1      85.535  18.308 107.623  1.00  0.00     0.000 C 
BRANCH   4   5
ATOM      5  C   UNL     1      85.449  19.498 108.603  1.00  0.00     0.000 C 
BRANCH   5   6
ATOM      6  C   UNL     1      86.699  19.660 109.485  1.00  0.00     0.000 C 
BRANCH   6   7
ATOM      7  C   UNL     1      87.014  21.131 109.807  1.00  0.00     0.000 C 
BRANCH   7   8
ATOM      8  C   UNL     1      88.453  21.329 110.310  1.00  0.00     0.000 C 
BRANCH   8   9
ATOM      9  C   UNL     1      88.504  21.844 111.760  1.00  0.00     0.000 C 
BRANCH   9  10
ATOM     10  C   UNL     1      89.820  22.574 112.086  1.00  0.00     0.006 C 
BRANCH  10  11
ATOM     11  C   UNL     1      90.708  21.855 113.114  1.00  0.00     0.053 C 
BRANCH  11  12
ATOM     12  C   UNL     1      91.180  20.524 112.615  1.00  0.00     0.041 C 
ATOM     13  O   UNL     1      92.246  20.440 111.949  1.00  0.00    -0.550 OA
ATOM     14  O   UNL     1      90.430  19.382 112.861  1.00  0.00    -0.550 OA
ENDBRANCH  11  12
ENDBRANCH  10  11
ENDBRANCH   9  10
ENDBRANCH   8   9
ENDBRANCH   7   8
ENDBRANCH   6   7
ENDBRANCH   5   6
ENDBRANCH   4   5
ENDBRANCH   3   4
ENDBRANCH   2   3
ENDBRANCH   1   2
BRANCH   1  15
ATOM     15  C   UNL     1      83.177  13.972 108.216  1.00  0.00     0.000 C 
BRANCH  15  16
ATOM     16  C   UNL     1      84.405  13.071 108.444  1.00  0.00     0.000 C 
BRANCH  16  17
ATOM     17  C   UNL     1      85.755  13.688 108.026  1.00  0.00     0.000 C 
BRANCH  17  18
ATOM     18  C   UNL     1      86.604  12.819 107.081  1.00  0.00    -0.000 C 
BRANCH  18  19
ATOM     19  C   UNL     1      88.029  13.365 106.892  1.00  0.00    -0.000 C 
BRANCH  19  20
ATOM     20  C   UNL     1      88.869  12.513 105.923  1.00  0.00    -0.000 C 
BRANCH  20  21
ATOM     21  C   UNL     1      89.532  11.274 106.558  1.00  0.00    -0.000 C 
BRANCH  21  22
ATOM     22  C   UNL     1      89.664  10.050 105.629  1.00  0.00    -0.000 C 
BRANCH  22  23
ATOM     23  C   UNL     1      90.641   8.966 106.117  1.00  0.00    -0.000 C 
BRANCH  23  24
ATOM     24  C   UNL     1      90.015   8.020 107.152  1.00  0.00    -0.000 C 
BRANCH  24  25
ATOM     25  C   UNL     1      91.045   7.607 108.210  1.00  0.00    -0.003 C 
ATOM     26  C   UNL     1      92.402   7.319 107.576  1.00  0.00     0.004 C 
ENDBRANCH  24  25
ENDBRANCH  23  24
ENDBRANCH  22  23
ENDBRANCH  21  22
ENDBRANCH  20  21
ENDBRANCH  19  20
ENDBRANCH  18  19
ENDBRANCH  17  18
ENDBRANCH  16  17
ENDBRANCH  15  16
ENDBRANCH   1  15
TORSDOF 22
ENDMDL
MODEL 3
REMARK VINA RESULT:    12.833      3.856     10.655
REMARK INTER + INTRA:          28.377
REMARK INTER:                  28.327
REMARK INTRA:                   0.050
REMARK UNBOUND:                -0.961
REMARK SMILES CCCCCCCCCCCCCCCCCCCCCCCC(=O)[O-]
REMARK SMILES IDX 13 1 14 2 15 3 16 4 17 5 18 6 19 7 20 8 21 9 22 10 23 11
REMARK SMILES IDX 24 12 25 13 26 14 12 15 11 16 10 17 9 18 8 19 7 20 6 21 5 22
REMARK SMILES IDX 4 23 3 24 2 25 1 26
REMARK H PARENT
REMARK Flexibility Score: inf
ROOT
ATOM      1  C   UNL     1      83.686  14.657 107.586  1.00  0.00     0.000 C 
ENDROOT
BRANCH   1   2
ATOM      2  C   UNL     1      84.507  15.909 107.243  1.00  0.00     0.000 C 
BRANCH   2   3
ATOM      3  C   UNL     1      84.443  16.978 108.345  1.00  0.00     0.000 C 
BRANCH   3   4
ATOM      4  C   UNL     1      84.870  18.370 107.845  1.00  0.00     0.000 C 
BRANCH   4   5
ATOM      5  C   UNL     1      86.283  18.757 108.335  1.00  0.00     0.000 C 
BRANCH   5   6
ATOM      6  C   UNL     1      86.283  19.886 109.380  1.00  0.00     0.000 C 
BRANCH   6   7
ATOM      7  C   UNL     1      87.613  20.658 109.423  1.00  0.00     0.000 C 
BRANCH   7   8
ATOM      8  C   UNL     1      87.659  21.692 110.559  1.00  0.00     0.000 C 
BRANCH   8   9
ATOM      9  C   UNL     1      88.511  21.219 111.751  1.00  0.00     0.000 C 
BRANCH   9  10
ATOM     10  C   UNL     1      89.408  22.334 112.320  1.00  0.00     0.006 C 
BRANCH  10  11
ATOM     11  C   UNL     1      90.916  22.069 112.182  1.00  0.00     0.053 C 
BRANCH  11  12
ATOM     12  C   UNL     1      91.250  20.620 112.356  1.00  0.00     0.041 C 
ATOM     13  O   UNL     1      90.479  19.866 113.006  1.00  0.00    -0.550 OA
ATOM     14  O   UNL     1      92.428  20.108 111.827  1.00  0.00    -0.550 OA
ENDBRANCH  11  12
ENDBRANCH  10  11
ENDBRANCH   9  10
ENDBRANCH   8   9
ENDBRANCH   7   8
ENDBRANCH   6   7
ENDBRANCH   5   6
ENDBRANCH   4   5
ENDBRANCH   3   4
ENDBRANCH   2   3
ENDBRANCH   1   2
BRANCH   1  15
ATOM     15  C   UNL     1      84.607  13.471 107.909  1.00  0.00     0.000 C 
BRANCH  15  16
ATOM     16  C   UNL     1      86.090  13.873 108.000  1.00  0.00     0.000 C 
BRANCH  16  17
ATOM     17  C   UNL     1      86.910  13.645 106.713  1.00  0.00     0.000 C 
BRANCH  17  18
ATOM     18  C   UNL     1      88.401  13.337 106.937  1.00  0.00    -0.000 C 
BRANCH  18  19
ATOM     19  C   UNL     1      88.939  12.269 105.969  1.00  0.00    -0.000 C 
BRANCH  19  20
ATOM     20  C   UNL     1      89.529  11.049 106.697  1.00  0.00    -0.000 C 
BRANCH  20  21
ATOM     21  C   UNL     1      89.669   9.782 105.829  1.00  0.00    -0.000 C 
BRANCH  21  22
ATOM     22  C   UNL     1      90.833   8.846 106.213  1.00  0.00    -0.000 C 
BRANCH  22  23
ATOM     23  C   UNL     1      90.452   7.688 107.153  1.00  0.00    -0.000 C 
BRANCH  23  24
ATOM     24  C   UNL     1      89.972   8.170 108.530  1.00  0.00    -0.000 C 
BRANCH  24  25
ATOM     25  C   UNL     1      89.238   7.050 109.276  1.00  0.00    -0.003 C 
ATOM     26  C   UNL     1      88.208   7.617 110.248  1.00  0.00     0.004 C 
ENDBRANCH  24  25
ENDBRANCH  23  24
ENDBRANCH  22  23
ENDBRANCH  21  22
ENDBRANCH  20  21
ENDBRANCH  19  20
ENDBRANCH  18  19
ENDBRANCH  17  18
ENDBRANCH  16  17
ENDBRANCH  15  16
ENDBRANCH   1  15
TORSDOF 22
ENDMDL
MODEL 4
REMARK VINA RESULT:    12.879     11.518     13.350
REMARK INTER + INTRA:          28.482
REMARK INTER:                  29.578
REMARK INTRA:                  -1.096
REMARK UNBOUND:                -0.961
REMARK SMILES CCCCCCCCCCCCCCCCCCCCCCCC(=O)[O-]
REMARK SMILES IDX 13 1 14 2 15 3 16 4 17 5 18 6 19 7 20 8 21 9 22 10 23 11
REMARK SMILES IDX 24 12 25 13 26 14 12 15 11 16 10 17 9 18 8 19 7 20 6 21 5 22
REMARK SMILES IDX 4 23 3 24 2 25 1 26
REMARK H PARENT
REMARK Flexibility Score: inf
ROOT
ATOM      1  C   UNL     1      86.239  19.074 120.699  1.00  0.00     0.000 C 
ENDROOT
BRANCH   1   2
ATOM      2  C   UNL     1      87.684  19.489 121.015  1.00  0.00     0.000 C 
BRANCH   2   3
ATOM      3  C   UNL     1      88.721  18.547 120.384  1.00  0.00     0.000 C 
BRANCH   3   4
ATOM      4  C   UNL     1      90.071  18.573 121.123  1.00  0.00     0.000 C 
BRANCH   4   5
ATOM      5  C   UNL     1      91.260  18.303 120.175  1.00  0.00     0.000 C 
BRANCH   5   6
ATOM      6  C   UNL     1      91.419  16.820 119.796  1.00  0.00     0.000 C 
BRANCH   6   7
ATOM      7  C   UNL     1      92.077  15.989 120.910  1.00  0.00     0.000 C 
BRANCH   7   8
ATOM      8  C   UNL     1      93.594  16.223 121.004  1.00  0.00     0.000 C 
BRANCH   8   9
ATOM      9  C   UNL     1      94.395  14.908 120.977  1.00  0.00     0.000 C 
BRANCH   9  10
ATOM     10  C   UNL     1      95.597  14.964 120.017  1.00  0.00     0.006 C 
BRANCH  10  11
ATOM     11  C   UNL     1      95.566  16.139 119.027  1.00  0.00     0.053 C 
BRANCH  11  12
ATOM     12  C   UNL     1      96.582  17.187 119.365  1.00  0.00     0.041 C 
ATOM     13  O   UNL     1      97.044  17.935 118.463  1.00  0.00    -0.550 OA
ATOM     14  O   UNL     1      97.040  17.318 120.669  1.00  0.00    -0.550 OA
ENDBRANCH  11  12
ENDBRANCH  10  11
ENDBRANCH   9  10
ENDBRANCH   8   9
ENDBRANCH   7   8
ENDBRANCH   6   7
ENDBRANCH   5   6
ENDBRANCH   4   5
ENDBRANCH   3   4
ENDBRANCH   2   3
ENDBRANCH   1   2
BRANCH   1  15
ATOM     15  C   UNL     1      86.030  17.575 120.960  1.00  0.00     0.000 C 
BRANCH  15  16
ATOM     16  C   UNL     1      84.926  16.963 120.078  1.00  0.00     0.000 C 
BRANCH  16  17
ATOM     17  C   UNL     1      83.552  17.658 120.174  1.00  0.00     0.000 C 
BRANCH  17  18
ATOM     18  C   UNL     1      83.014  18.223 118.847  1.00  0.00    -0.000 C 
BRANCH  18  19
ATOM     19  C   UNL     1      82.098  17.233 118.108  1.00  0.00    -0.000 C 
BRANCH  19  20
ATOM     20  C   UNL     1      81.078  17.934 117.194  1.00  0.00    -0.000 C 
BRANCH  20  21
ATOM     21  C   UNL     1      81.086  19.474 117.276  1.00  0.00    -0.000 C 
BRANCH  21  22
ATOM     22  C   UNL     1      81.931  20.186 116.200  1.00  0.00    -0.000 C 
BRANCH  22  23
ATOM     23  C   UNL     1      81.682  21.699 116.074  1.00  0.00    -0.000 C 
BRANCH  23  24
ATOM     24  C   UNL     1      82.974  22.502 115.869  1.00  0.00    -0.000 C 
BRANCH  24  25
ATOM     25  C   UNL     1      82.995  23.745 116.766  1.00  0.00    -0.003 C 
ATOM     26  C   UNL     1      84.293  24.528 116.595  1.00  0.00     0.004 C 
ENDBRANCH  24  25
ENDBRANCH  23  24
ENDBRANCH  22  23
ENDBRANCH  21  22
ENDBRANCH  20  21
ENDBRANCH  19  20
ENDBRANCH  18  19
ENDBRANCH  17  18
ENDBRANCH  16  17
ENDBRANCH  15  16
ENDBRANCH   1  15
TORSDOF 22
ENDMDL
MODEL 5
REMARK VINA RESULT:    13.559     11.644     14.230
REMARK INTER + INTRA:          30.037
REMARK INTER:                  31.240
REMARK INTRA:                  -1.203
REMARK UNBOUND:                -0.961
REMARK SMILES CCCCCCCCCCCCCCCCCCCCCCCC(=O)[O-]
REMARK SMILES IDX 13 1 14 2 15 3 16 4 17 5 18 6 19 7 20 8 21 9 22 10 23 11
REMARK SMILES IDX 24 12 25 13 26 14 12 15 11 16 10 17 9 18 8 19 7 20 6 21 5 22
REMARK SMILES IDX 4 23 3 24 2 25 1 26
REMARK H PARENT
REMARK Flexibility Score: inf
ROOT
ATOM      1  C   UNL     1      87.074  17.124 119.935  1.00  0.00     0.000 C 
ENDROOT
BRANCH   1   2
ATOM      2  C   UNL     1      87.056  18.613 119.556  1.00  0.00     0.000 C 
BRANCH   2   3
ATOM      3  C   UNL     1      88.285  19.372 120.080  1.00  0.00     0.000 C 
BRANCH   3   4
ATOM      4  C   UNL     1      89.078  18.565 121.124  1.00  0.00     0.000 C 
BRANCH   4   5
ATOM      5  C   UNL     1      90.594  18.562 120.828  1.00  0.00     0.000 C 
BRANCH   5   6
ATOM      6  C   UNL     1      91.048  17.376 119.959  1.00  0.00     0.000 C 
BRANCH   6   7
ATOM      7  C   UNL     1      92.560  17.112 120.057  1.00  0.00     0.000 C 
BRANCH   7   8
ATOM      8  C   UNL     1      92.881  15.720 120.627  1.00  0.00     0.000 C 
BRANCH   8   9
ATOM      9  C   UNL     1      94.219  15.166 120.106  1.00  0.00     0.000 C 
BRANCH   9  10
ATOM     10  C   UNL     1      95.123  16.258 119.507  1.00  0.00     0.006 C 
BRANCH  10  11
ATOM     11  C   UNL     1      96.004  16.988 120.533  1.00  0.00     0.053 C 
BRANCH  11  12
ATOM     12  C   UNL     1      97.411  17.157 120.048  1.00  0.00     0.041 C 
ATOM     13  O   UNL     1      98.009  18.254 120.211  1.00  0.00    -0.550 OA
ATOM     14  O   UNL     1      98.051  16.116 119.389  1.00  0.00    -0.550 OA
ENDBRANCH  11  12
ENDBRANCH  10  11
ENDBRANCH   9  10
ENDBRANCH   8   9
ENDBRANCH   7   8
ENDBRANCH   6   7
ENDBRANCH   5   6
ENDBRANCH   4   5
ENDBRANCH   3   4
ENDBRANCH   2   3
ENDBRANCH   1   2
BRANCH   1  15
ATOM     15  C   UNL     1      86.048  16.828 121.039  1.00  0.00     0.000 C 
BRANCH  15  16
ATOM     16  C   UNL     1      84.615  16.672 120.497  1.00  0.00     0.000 C 
BRANCH  16  17
ATOM     17  C   UNL     1      83.607  17.724 121.003  1.00  0.00     0.000 C 
BRANCH  17  18
ATOM     18  C   UNL     1      82.272  17.767 120.239  1.00  0.00    -0.000 C 
BRANCH  18  19
ATOM     19  C   UNL     1      82.449  17.584 118.722  1.00  0.00    -0.000 C 
BRANCH  19  20
ATOM     20  C   UNL     1      81.263  18.138 117.913  1.00  0.00    -0.000 C 
BRANCH  20  21
ATOM     21  C   UNL     1      81.115  17.549 116.496  1.00  0.00    -0.000 C 
BRANCH  21  22
ATOM     22  C   UNL     1      80.007  16.487 116.338  1.00  0.00    -0.000 C 
BRANCH  22  23
ATOM     23  C   UNL     1      78.857  16.591 117.355  1.00  0.00    -0.000 C 
BRANCH  23  24
ATOM     24  C   UNL     1      78.171  15.243 117.620  1.00  0.00    -0.000 C 
BRANCH  24  25
ATOM     25  C   UNL     1      78.296  14.316 116.406  1.00  0.00    -0.003 C 
ATOM     26  C   UNL     1      78.896  12.970 116.798  1.00  0.00     0.004 C 
ENDBRANCH  24  25
ENDBRANCH  23  24
ENDBRANCH  22  23
ENDBRANCH  21  22
ENDBRANCH  20  21
ENDBRANCH  19  20
ENDBRANCH  18  19
ENDBRANCH  17  18
ENDBRANCH  16  17
ENDBRANCH  15  16
ENDBRANCH   1  15
TORSDOF 22
ENDMDL
MODEL 6
REMARK VINA RESULT:    14.126      3.748      9.963
REMARK INTER + INTRA:          31.332
REMARK INTER:                  31.422
REMARK INTRA:                  -0.089
REMARK UNBOUND:                -0.961
REMARK SMILES CCCCCCCCCCCCCCCCCCCCCCCC(=O)[O-]
REMARK SMILES IDX 13 1 14 2 15 3 16 4 17 5 18 6 19 7 20 8 21 9 22 10 23 11
REMARK SMILES IDX 24 12 25 13 26 14 12 15 11 16 10 17 9 18 8 19 7 20 6 21 5 22
REMARK SMILES IDX 4 23 3 24 2 25 1 26
REMARK H PARENT
REMARK Flexibility Score: inf
ROOT
ATOM      1  C   UNL     1      84.246  16.562 107.838  1.00  0.00     0.000 C 
ENDROOT
BRANCH   1   2
ATOM      2  C   UNL     1      85.354  17.579 107.522  1.00  0.00     0.000 C 
BRANCH   2   3
ATOM      3  C   UNL     1      85.179  18.900 108.287  1.00  0.00     0.000 C 
BRANCH   3   4
ATOM      4  C   UNL     1      86.467  19.343 109.003  1.00  0.00     0.000 C 
BRANCH   4   5
ATOM      5  C   UNL     1      86.436  20.838 109.387  1.00  0.00     0.000 C 
BRANCH   5   6
ATOM      6  C   UNL     1      87.826  21.425 109.688  1.00  0.00     0.000 C 
BRANCH   6   7
ATOM      7  C   UNL     1      88.310  21.107 111.114  1.00  0.00     0.000 C 
BRANCH   7   8
ATOM      8  C   UNL     1      88.570  22.374 111.945  1.00  0.00     0.000 C 
BRANCH   8   9
ATOM      9  C   UNL     1      90.012  22.891 111.794  1.00  0.00     0.000 C 
BRANCH   9  10
ATOM     10  C   UNL     1      90.826  22.770 113.096  1.00  0.00     0.006 C 
BRANCH  10  11
ATOM     11  C   UNL     1      90.778  21.380 113.749  1.00  0.00     0.053 C 
BRANCH  11  12
ATOM     12  C   UNL     1      91.134  20.292 112.782  1.00  0.00     0.041 C 
ATOM     13  O   UNL     1      92.098  20.443 111.986  1.00  0.00    -0.550 OA
ATOM     14  O   UNL     1      90.383  19.125 112.741  1.00  0.00    -0.550 OA
ENDBRANCH  11  12
ENDBRANCH  10  11
ENDBRANCH   9  10
ENDBRANCH   8   9
ENDBRANCH   7   8
ENDBRANCH   6   7
ENDBRANCH   5   6
ENDBRANCH   4   5
ENDBRANCH   3   4
ENDBRANCH   2   3
ENDBRANCH   1   2
BRANCH   1  15
ATOM     15  C   UNL     1      83.894  15.732 106.595  1.00  0.00     0.000 C 
BRANCH  15  16
ATOM     16  C   UNL     1      82.739  14.744 106.842  1.00  0.00     0.000 C 
BRANCH  16  17
ATOM     17  C   UNL     1      83.168  13.350 107.344  1.00  0.00     0.000 C 
BRANCH  17  18
ATOM     18  C   UNL     1      83.511  13.274 108.842  1.00  0.00    -0.000 C 
BRANCH  18  19
ATOM     19  C   UNL     1      85.021  13.136 109.100  1.00  0.00    -0.000 C 
BRANCH  19  20
ATOM     20  C   UNL     1      85.869  14.000 108.151  1.00  0.00    -0.000 C 
BRANCH  20  21
ATOM     21  C   UNL     1      86.937  13.227 107.352  1.00  0.00    -0.000 C 
BRANCH  21  22
ATOM     22  C   UNL     1      88.052  14.096 106.732  1.00  0.00    -0.000 C 
BRANCH  22  23
ATOM     23  C   UNL     1      89.122  13.317 105.947  1.00  0.00    -0.000 C 
BRANCH  23  24
ATOM     24  C   UNL     1      88.722  11.859 105.678  1.00  0.00    -0.000 C 
BRANCH  24  25
ATOM     25  C   UNL     1      89.642  10.890 106.430  1.00  0.00    -0.003 C 
ATOM     26  C   UNL     1      89.810   9.582 105.665  1.00  0.00     0.004 C 
ENDBRANCH  24  25
ENDBRANCH  23  24
ENDBRANCH  22  23
ENDBRANCH  21  22
ENDBRANCH  20  21
ENDBRANCH  19  20
ENDBRANCH  18  19
ENDBRANCH  17  18
ENDBRANCH  16  17
ENDBRANCH  15  16
ENDBRANCH   1  15
TORSDOF 22
ENDMDL
MODEL 7
REMARK VINA RESULT:    14.273      4.525      5.877
REMARK INTER + INTRA:          31.669
REMARK INTER:                  31.526
REMARK INTRA:                   0.142
REMARK UNBOUND:                -0.961
REMARK SMILES CCCCCCCCCCCCCCCCCCCCCCCC(=O)[O-]
REMARK SMILES IDX 13 1 14 2 15 3 16 4 17 5 18 6 19 7 20 8 21 9 22 10 23 11
REMARK SMILES IDX 24 12 25 13 26 14 12 15 11 16 10 17 9 18 8 19 7 20 6 21 5 22
REMARK SMILES IDX 4 23 3 24 2 25 1 26
REMARK H PARENT
REMARK Flexibility Score: inf
ROOT
ATOM      1  C   UNL     1      85.415  20.184 107.703  1.00  0.00     0.000 C 
ENDROOT
BRANCH   1   2
ATOM      2  C   UNL     1      84.618  18.951 107.253  1.00  0.00     0.000 C 
BRANCH   2   3
ATOM      3  C   UNL     1      84.591  17.843 108.317  1.00  0.00     0.000 C 
BRANCH   3   4
ATOM      4  C   UNL     1      85.468  16.636 107.938  1.00  0.00     0.000 C 
BRANCH   4   5
ATOM      5  C   UNL     1      84.825  15.773 106.831  1.00  0.00     0.000 C 
BRANCH   5   6
ATOM      6  C   UNL     1      83.406  15.288 107.175  1.00  0.00     0.000 C 
BRANCH   6   7
ATOM      7  C   UNL     1      83.036  13.976 106.463  1.00  0.00     0.000 C 
BRANCH   7   8
ATOM      8  C   UNL     1      83.461  12.731 107.259  1.00  0.00     0.000 C 
BRANCH   8   9
ATOM      9  C   UNL     1      84.626  13.019 108.223  1.00  0.00     0.000 C 
BRANCH   9  10
ATOM     10  C   UNL     1      84.155  13.591 109.573  1.00  0.00     0.006 C 
BRANCH  10  11
ATOM     11  C   UNL     1      82.629  13.659 109.736  1.00  0.00     0.053 C 
BRANCH  11  12
ATOM     12  C   UNL     1      82.221  13.789 111.171  1.00  0.00     0.041 C 
ATOM     13  O   UNL     1      82.920  13.264 112.078  1.00  0.00    -0.550 OA
ATOM     14  O   UNL     1      81.055  14.464 111.506  1.00  0.00    -0.550 OA
ENDBRANCH  11  12
ENDBRANCH  10  11
ENDBRANCH   9  10
ENDBRANCH   8   9
ENDBRANCH   7   8
ENDBRANCH   6   7
ENDBRANCH   5   6
ENDBRANCH   4   5
ENDBRANCH   3   4
ENDBRANCH   2   3
ENDBRANCH   1   2
BRANCH   1  15
ATOM     15  C   UNL     1      86.242  19.873 108.959  1.00  0.00     0.000 C 
BRANCH  15  16
ATOM     16  C   UNL     1      87.378  20.886 109.193  1.00  0.00     0.000 C 
BRANCH  16  17
ATOM     17  C   UNL     1      87.330  21.622 110.548  1.00  0.00     0.000 C 
BRANCH  17  18
ATOM     18  C   UNL     1      88.657  21.641 111.326  1.00  0.00    -0.000 C 
BRANCH  18  19
ATOM     19  C   UNL     1      89.095  23.062 111.719  1.00  0.00    -0.000 C 
BRANCH  19  20
ATOM     20  C   UNL     1      90.527  23.109 112.283  1.00  0.00    -0.000 C 
BRANCH  20  21
ATOM     21  C   UNL     1      90.681  22.535 113.706  1.00  0.00    -0.000 C 
BRANCH  21  22
ATOM     22  C   UNL     1      91.363  21.154 113.788  1.00  0.00    -0.000 C 
BRANCH  22  23
ATOM     23  C   UNL     1      90.597  20.010 113.101  1.00  0.00    -0.000 C 
BRANCH  23  24
ATOM     24  C   UNL     1      91.519  19.047 112.339  1.00  0.00    -0.000 C 
BRANCH  24  25
ATOM     25  C   UNL     1      92.961  19.566 112.323  1.00  0.00    -0.003 C 
ATOM     26  C   UNL     1      93.404  19.922 110.907  1.00  0.00     0.004 C 
ENDBRANCH  24  25
ENDBRANCH  23  24
ENDBRANCH  22  23
ENDBRANCH  21  22
ENDBRANCH  20  21
ENDBRANCH  19  20
ENDBRANCH  18  19
ENDBRANCH  17  18
ENDBRANCH  16  17
ENDBRANCH  15  16
ENDBRANCH   1  15
TORSDOF 22
ENDMDL
MODEL 8
REMARK VINA RESULT:    14.438      4.453      7.341
REMARK INTER + INTRA:          32.047
REMARK INTER:                  32.569
REMARK INTRA:                  -0.521
REMARK UNBOUND:                -0.961
REMARK SMILES CCCCCCCCCCCCCCCCCCCCCCCC(=O)[O-]
REMARK SMILES IDX 13 1 14 2 15 3 16 4 17 5 18 6 19 7 20 8 21 9 22 10 23 11
REMARK SMILES IDX 24 12 25 13 26 14 12 15 11 16 10 17 9 18 8 19 7 20 6 21 5 22
REMARK SMILES IDX 4 23 3 24 2 25 1 26
REMARK H PARENT
REMARK Flexibility Score: inf
ROOT
ATOM      1  C   UNL     1      88.386  21.461 111.183  1.00  0.00     0.000 C 
ENDROOT
BRANCH   1   2
ATOM      2  C   UNL     1      87.730  21.520 109.795  1.00  0.00     0.000 C 
BRANCH   2   3
ATOM      3  C   UNL     1      86.425  20.712 109.723  1.00  0.00     0.000 C 
BRANCH   3   4
ATOM      4  C   UNL     1      86.542  19.478 108.812  1.00  0.00     0.000 C 
BRANCH   4   5
ATOM      5  C   UNL     1      85.187  18.763 108.620  1.00  0.00     0.000 C 
BRANCH   5   6
ATOM      6  C   UNL     1      85.196  17.719 107.490  1.00  0.00     0.000 C 
BRANCH   6   7
ATOM      7  C   UNL     1      84.737  16.329 107.960  1.00  0.00     0.000 C 
BRANCH   7   8
ATOM      8  C   UNL     1      84.220  15.456 106.805  1.00  0.00     0.000 C 
BRANCH   8   9
ATOM      9  C   UNL     1      82.928  14.703 107.169  1.00  0.00     0.000 C 
BRANCH   9  10
ATOM     10  C   UNL     1      83.101  13.173 107.133  1.00  0.00     0.006 C 
BRANCH  10  11
ATOM     11  C   UNL     1      83.915  12.597 108.302  1.00  0.00     0.053 C 
BRANCH  11  12
ATOM     12  C   UNL     1      83.782  13.427 109.542  1.00  0.00     0.041 C 
ATOM     13  O   UNL     1      84.810  13.839 110.142  1.00  0.00    -0.550 OA
ATOM     14  O   UNL     1      82.524  13.721 110.052  1.00  0.00    -0.550 OA
ENDBRANCH  11  12
ENDBRANCH  10  11
ENDBRANCH   9  10
ENDBRANCH   8   9
ENDBRANCH   7   8
ENDBRANCH   6   7
ENDBRANCH   5   6
ENDBRANCH   4   5
ENDBRANCH   3   4
ENDBRANCH   2   3
ENDBRANCH   1   2
BRANCH   1  15
ATOM     15  C   UNL     1      89.028  22.810 111.542  1.00  0.00     0.000 C 
BRANCH  15  16
ATOM     16  C   UNL     1      90.498  22.674 111.981  1.00  0.00     0.000 C 
BRANCH  16  17
ATOM     17  C   UNL     1      90.705  22.213 113.438  1.00  0.00     0.000 C 
BRANCH  17  18
ATOM     18  C   UNL     1      91.163  20.753 113.601  1.00  0.00    -0.000 C 
BRANCH  18  19
ATOM     19  C   UNL     1      91.522  20.090 112.260  1.00  0.00    -0.000 C 
BRANCH  19  20
ATOM     20  C   UNL     1      93.001  20.280 111.879  1.00  0.00    -0.000 C 
BRANCH  20  21
ATOM     21  C   UNL     1      93.404  19.666 110.523  1.00  0.00    -0.000 C 
BRANCH  21  22
ATOM     22  C   UNL     1      94.127  20.626 109.555  1.00  0.00    -0.000 C 
BRANCH  22  23
ATOM     23  C   UNL     1      94.068  20.219 108.072  1.00  0.00    -0.000 C 
BRANCH  23  24
ATOM     24  C   UNL     1      94.236  21.411 107.119  1.00  0.00    -0.000 C 
BRANCH  24  25
ATOM     25  C   UNL     1      94.438  20.934 105.676  1.00  0.00    -0.003 C 
ATOM     26  C   UNL     1      93.313  21.427 104.770  1.00  0.00     0.004 C 
ENDBRANCH  24  25
ENDBRANCH  23  24
ENDBRANCH  22  23
ENDBRANCH  21  22
ENDBRANCH  20  21
ENDBRANCH  19  20
ENDBRANCH  18  19
ENDBRANCH  17  18
ENDBRANCH  16  17
ENDBRANCH  15  16
ENDBRANCH   1  15
TORSDOF 22
ENDMDL
MODEL 9
REMARK VINA RESULT:    14.439      1.517      2.688
REMARK INTER + INTRA:          32.048
REMARK INTER:                  32.412
REMARK INTRA:                  -0.364
REMARK UNBOUND:                -0.961
REMARK SMILES CCCCCCCCCCCCCCCCCCCCCCCC(=O)[O-]
REMARK SMILES IDX 13 1 14 2 15 3 16 4 17 5 18 6 19 7 20 8 21 9 22 10 23 11
REMARK SMILES IDX 24 12 25 13 26 14 12 15 11 16 10 17 9 18 8 19 7 20 6 21 5 22
REMARK SMILES IDX 4 23 3 24 2 25 1 26
REMARK H PARENT
REMARK Flexibility Score: inf
ROOT
ATOM      1  C   UNL     1      84.153  15.930 106.837  1.00  0.00     0.000 C 
ENDROOT
BRANCH   1   2
ATOM      2  C   UNL     1      82.983  14.981 107.139  1.00  0.00     0.000 C 
BRANCH   2   3
ATOM      3  C   UNL     1      83.400  13.502 107.117  1.00  0.00     0.000 C 
BRANCH   3   4
ATOM      4  C   UNL     1      83.469  12.886 108.525  1.00  0.00     0.000 C 
BRANCH   4   5
ATOM      5  C   UNL     1      84.107  13.846 109.552  1.00  0.00     0.000 C 
BRANCH   5   6
ATOM      6  C   UNL     1      85.627  14.012 109.377  1.00  0.00     0.000 C 
BRANCH   6   7
ATOM      7  C   UNL     1      86.094  13.731 107.938  1.00  0.00     0.000 C 
BRANCH   7   8
ATOM      8  C   UNL     1      87.621  13.835 107.782  1.00  0.00     0.000 C 
BRANCH   8   9
ATOM      9  C   UNL     1      88.050  14.041 106.319  1.00  0.00     0.000 C 
BRANCH   9  10
ATOM     10  C   UNL     1      89.064  12.985 105.842  1.00  0.00     0.006 C 
BRANCH  10  11
ATOM     11  C   UNL     1      89.103  11.709 106.698  1.00  0.00     0.053 C 
BRANCH  11  12
ATOM     12  C   UNL     1      89.508  10.508 105.900  1.00  0.00     0.041 C 
ATOM     13  O   UNL     1      90.194   9.596 106.432  1.00  0.00    -0.550 OA
ATOM     14  O   UNL     1      89.154  10.410 104.561  1.00  0.00    -0.550 OA
ENDBRANCH  11  12
ENDBRANCH  10  11
ENDBRANCH   9  10
ENDBRANCH   8   9
ENDBRANCH   7   8
ENDBRANCH   6   7
ENDBRANCH   5   6
ENDBRANCH   4   5
ENDBRANCH   3   4
ENDBRANCH   2   3
ENDBRANCH   1   2
BRANCH   1  15
ATOM     15  C   UNL     1      84.223  17.060 107.874  1.00  0.00     0.000 C 
BRANCH  15  16
ATOM     16  C   UNL     1      85.470  17.949 107.706  1.00  0.00     0.000 C 
BRANCH  16  17
ATOM     17  C   UNL     1      85.486  19.223 108.576  1.00  0.00     0.000 C 
BRANCH  17  18
ATOM     18  C   UNL     1      86.880  19.827 108.819  1.00  0.00    -0.000 C 
BRANCH  18  19
ATOM     19  C   UNL     1      86.883  20.886 109.935  1.00  0.00    -0.000 C 
BRANCH  19  20
ATOM     20  C   UNL     1      88.291  21.166 110.487  1.00  0.00    -0.000 C 
BRANCH  20  21
ATOM     21  C   UNL     1      88.323  21.990 111.791  1.00  0.00    -0.000 C 
BRANCH  21  22
ATOM     22  C   UNL     1      89.632  22.766 112.047  1.00  0.00    -0.000 C 
BRANCH  22  23
ATOM     23  C   UNL     1      90.659  22.035 112.930  1.00  0.00    -0.000 C 
BRANCH  23  24
ATOM     24  C   UNL     1      91.792  21.391 112.119  1.00  0.00    -0.000 C 
BRANCH  24  25
ATOM     25  C   UNL     1      91.852  19.879 112.366  1.00  0.00    -0.003 C 
ATOM     26  C   UNL     1      90.500  19.341 112.823  1.00  0.00     0.004 C 
ENDBRANCH  24  25
ENDBRANCH  23  24
ENDBRANCH  22  23
ENDBRANCH  21  22
ENDBRANCH  20  21
ENDBRANCH  19  20
ENDBRANCH  18  19
ENDBRANCH  17  18
ENDBRANCH  16  17
ENDBRANCH  15  16
ENDBRANCH   1  15
TORSDOF 22
ENDMDL
