MODEL 1
REMARK VINA RESULT:    -2.538      0.000      0.000
REMARK INTER + INTRA:          -6.964
REMARK INTER:                  -5.802
REMARK INTRA:                  -1.162
REMARK UNBOUND:                -1.162
REMARK SMILES CCCCCCCCCCCCCCCCCCCCCCCC(=O)[O-]
REMARK SMILES IDX 13 1 14 2 15 3 16 4 17 5 18 6 19 7 20 8 21 9 22 10 23 11
REMARK SMILES IDX 24 12 25 13 26 14 12 15 11 16 10 17 9 18 8 19 7 20 6 21 5 22
REMARK SMILES IDX 4 23 3 24 2 25 1 26
REMARK H PARENT
REMARK Flexibility Score: inf
ROOT
ATOM      1  C   UNL     1      41.064  26.637  19.307  1.00  0.00     0.000 C 
ENDROOT
BRANCH   1   2
ATOM      2  C   UNL     1      41.238  28.154  19.092  1.00  0.00     0.000 C 
BRANCH   2   3
ATOM      3  C   UNL     1      42.105  28.469  17.861  1.00  0.00     0.000 C 
BRANCH   3   4
ATOM      4  C   UNL     1      41.546  29.629  17.017  1.00  0.00     0.000 C 
BRANCH   4   5
ATOM      5  C   UNL     1      42.488  30.071  15.878  1.00  0.00     0.000 C 
BRANCH   5   6
ATOM      6  C   UNL     1      42.736  31.587  15.878  1.00  0.00     0.000 C 
BRANCH   6   7
ATOM      7  C   UNL     1      44.213  31.899  15.593  1.00  0.00     0.000 C 
BRANCH   7   8
ATOM      8  C   UNL     1      45.073  31.956  16.869  1.00  0.00     0.000 C 
BRANCH   8   9
ATOM      9  C   UNL     1      46.330  31.067  16.845  1.00  0.00     0.000 C 
BRANCH   9  10
ATOM     10  C   UNL     1      46.618  30.469  15.460  1.00  0.00     0.006 C 
BRANCH  10  11
ATOM     11  C   UNL     1      47.940  29.693  15.461  1.00  0.00     0.053 C 
BRANCH  11  12
ATOM     12  C   UNL     1      48.964  30.385  14.613  1.00  0.00     0.041 C 
ATOM     13  O   UNL     1      50.082  30.705  15.099  1.00  0.00    -0.550 OA
ATOM     14  O   UNL     1      48.678  30.686  13.285  1.00  0.00    -0.550 OA
ENDBRANCH  11  12
ENDBRANCH  10  11
ENDBRANCH   9  10
ENDBRANCH   8   9
ENDBRANCH   7   8
ENDBRANCH   6   7
ENDBRANCH   5   6
ENDBRANCH   4   5
ENDBRANCH   3   4
ENDBRANCH   2   3
ENDBRANCH   1   2
BRANCH   1  15
ATOM     15  C   UNL     1      41.288  25.803  18.034  1.00  0.00     0.000 C 
BRANCH  15  16
ATOM     16  C   UNL     1      40.327  26.181  16.895  1.00  0.00     0.000 C 
BRANCH  16  17
ATOM     17  C   UNL     1      38.872  26.322  17.370  1.00  0.00     0.000 C 
BRANCH  17  18
ATOM     18  C   UNL     1      37.876  26.393  16.204  1.00  0.00    -0.000 C 
BRANCH  18  19
ATOM     19  C   UNL     1      36.856  25.247  16.282  1.00  0.00    -0.000 C 
BRANCH  19  20
ATOM     20  C   UNL     1      35.405  25.749  16.363  1.00  0.00    -0.000 C 
BRANCH  20  21
ATOM     21  C   UNL     1      35.156  26.980  15.473  1.00  0.00    -0.000 C 
BRANCH  21  22
ATOM     22  C   UNL     1      34.618  28.181  16.269  1.00  0.00    -0.000 C 
BRANCH  22  23
ATOM     23  C   UNL     1      34.891  29.522  15.566  1.00  0.00    -0.000 C 
BRANCH  23  24
ATOM     24  C   UNL     1      35.253  29.355  14.080  1.00  0.00    -0.000 C 
BRANCH  24  25
ATOM     25  C   UNL     1      34.346  30.120  13.100  1.00  0.00    -0.003 C 
ATOM     26  C   UNL     1      33.909  31.484  13.632  1.00  0.00     0.004 C 
ENDBRANCH  24  25
ENDBRANCH  23  24
ENDBRANCH  22  23
ENDBRANCH  21  22
ENDBRANCH  20  21
ENDBRANCH  19  20
ENDBRANCH  18  19
ENDBRANCH  17  18
ENDBRANCH  16  17
ENDBRANCH  15  16
ENDBRANCH   1  15
TORSDOF 22
ENDMDL
MODEL 2
REMARK VINA RESULT:    -2.363      5.320     10.000
REMARK INTER + INTRA:          -6.564
REMARK INTER:                  -5.626
REMARK INTRA:                  -0.938
REMARK UNBOUND:                -1.162
REMARK SMILES CCCCCCCCCCCCCCCCCCCCCCCC(=O)[O-]
REMARK SMILES IDX 13 1 14 2 15 3 16 4 17 5 18 6 19 7 20 8 21 9 22 10 23 11
REMARK SMILES IDX 24 12 25 13 26 14 12 15 11 16 10 17 9 18 8 19 7 20 6 21 5 22
REMARK SMILES IDX 4 23 3 24 2 25 1 26
REMARK H PARENT
REMARK Flexibility Score: inf
ROOT
ATOM      1  C   UNL     1      42.161  27.915  17.768  1.00  0.00     0.000 C 
ENDROOT
BRANCH   1   2
ATOM      2  C   UNL     1      41.217  28.465  18.858  1.00  0.00     0.000 C 
BRANCH   2   3
ATOM      3  C   UNL     1      40.910  27.417  19.941  1.00  0.00     0.000 C 
BRANCH   3   4
ATOM      4  C   UNL     1      39.771  26.463  19.544  1.00  0.00     0.000 C 
BRANCH   4   5
ATOM      5  C   UNL     1      39.094  26.833  18.208  1.00  0.00     0.000 C 
BRANCH   5   6
ATOM      6  C   UNL     1      38.457  25.619  17.516  1.00  0.00     0.000 C 
BRANCH   6   7
ATOM      7  C   UNL     1      37.596  26.061  16.322  1.00  0.00     0.000 C 
BRANCH   7   8
ATOM      8  C   UNL     1      36.133  25.597  16.431  1.00  0.00     0.000 C 
BRANCH   8   9
ATOM      9  C   UNL     1      35.162  26.270  15.443  1.00  0.00     0.000 C 
BRANCH   9  10
ATOM     10  C   UNL     1      34.974  27.771  15.715  1.00  0.00     0.006 C 
BRANCH  10  11
ATOM     11  C   UNL     1      34.951  28.566  14.405  1.00  0.00     0.053 C 
BRANCH  11  12
ATOM     12  C   UNL     1      34.889  30.038  14.676  1.00  0.00     0.041 C 
ATOM     13  O   UNL     1      34.851  30.860  13.721  1.00  0.00    -0.550 OA
ATOM     14  O   UNL     1      34.883  30.504  15.987  1.00  0.00    -0.550 OA
ENDBRANCH  11  12
ENDBRANCH  10  11
ENDBRANCH   9  10
ENDBRANCH   8   9
ENDBRANCH   7   8
ENDBRANCH   6   7
ENDBRANCH   5   6
ENDBRANCH   4   5
ENDBRANCH   3   4
ENDBRANCH   2   3
ENDBRANCH   1   2
BRANCH   1  15
ATOM     15  C   UNL     1      41.428  27.424  16.508  1.00  0.00     0.000 C 
BRANCH  15  16
ATOM     16  C   UNL     1      41.591  25.915  16.271  1.00  0.00     0.000 C 
BRANCH  16  17
ATOM     17  C   UNL     1      42.528  25.253  17.294  1.00  0.00     0.000 C 
BRANCH  17  18
ATOM     18  C   UNL     1      43.103  23.920  16.790  1.00  0.00    -0.000 C 
BRANCH  18  19
ATOM     19  C   UNL     1      44.313  23.490  17.632  1.00  0.00    -0.000 C 
BRANCH  19  20
ATOM     20  C   UNL     1      44.789  22.065  17.302  1.00  0.00    -0.000 C 
BRANCH  20  21
ATOM     21  C   UNL     1      43.638  21.150  16.848  1.00  0.00    -0.000 C 
BRANCH  21  22
ATOM     22  C   UNL     1      43.069  20.306  18.000  1.00  0.00    -0.000 C 
BRANCH  22  23
ATOM     23  C   UNL     1      41.783  19.560  17.604  1.00  0.00    -0.000 C 
BRANCH  23  24
ATOM     24  C   UNL     1      41.469  19.667  16.101  1.00  0.00    -0.000 C 
BRANCH  24  25
ATOM     25  C   UNL     1      41.520  18.335  15.331  1.00  0.00    -0.003 C 
ATOM     26  C   UNL     1      40.419  17.362  15.751  1.00  0.00     0.004 C 
ENDBRANCH  24  25
ENDBRANCH  23  24
ENDBRANCH  22  23
ENDBRANCH  21  22
ENDBRANCH  20  21
ENDBRANCH  19  20
ENDBRANCH  18  19
ENDBRANCH  17  18
ENDBRANCH  16  17
ENDBRANCH  15  16
ENDBRANCH   1  15
TORSDOF 22
ENDMDL
MODEL 3
REMARK VINA RESULT:    -2.314      4.229      9.819
REMARK INTER + INTRA:          -6.452
REMARK INTER:                  -4.752
REMARK INTRA:                  -1.700
REMARK UNBOUND:                -1.162
REMARK SMILES CCCCCCCCCCCCCCCCCCCCCCCC(=O)[O-]
REMARK SMILES IDX 13 1 14 2 15 3 16 4 17 5 18 6 19 7 20 8 21 9 22 10 23 11
REMARK SMILES IDX 24 12 25 13 26 14 12 15 11 16 10 17 9 18 8 19 7 20 6 21 5 22
REMARK SMILES IDX 4 23 3 24 2 25 1 26
REMARK H PARENT
REMARK Flexibility Score: inf
ROOT
ATOM      1  C   UNL     1      42.109  25.984  19.504  1.00  0.00     0.000 C 
ENDROOT
BRANCH   1   2
ATOM      2  C   UNL     1      41.682  25.176  18.261  1.00  0.00     0.000 C 
BRANCH   2   3
ATOM      3  C   UNL     1      41.945  25.943  16.953  1.00  0.00     0.000 C 
BRANCH   3   4
ATOM      4  C   UNL     1      40.652  26.293  16.196  1.00  0.00     0.000 C 
BRANCH   4   5
ATOM      5  C   UNL     1      39.373  26.097  17.036  1.00  0.00     0.000 C 
BRANCH   5   6
ATOM      6  C   UNL     1      38.097  26.429  16.249  1.00  0.00     0.000 C 
BRANCH   6   7
ATOM      7  C   UNL     1      36.936  25.520  16.681  1.00  0.00     0.000 C 
BRANCH   7   8
ATOM      8  C   UNL     1      35.615  25.848  15.963  1.00  0.00     0.000 C 
BRANCH   8   9
ATOM      9  C   UNL     1      35.137  27.304  16.113  1.00  0.00     0.000 C 
BRANCH   9  10
ATOM     10  C   UNL     1      35.068  28.055  14.774  1.00  0.00     0.006 C 
BRANCH  10  11
ATOM     11  C   UNL     1      34.955  29.567  14.999  1.00  0.00     0.053 C 
BRANCH  11  12
ATOM     12  C   UNL     1      34.500  30.259  13.751  1.00  0.00     0.041 C 
ATOM     13  O   UNL     1      34.537  29.661  12.642  1.00  0.00    -0.550 OA
ATOM     14  O   UNL     1      34.045  31.573  13.811  1.00  0.00    -0.550 OA
ENDBRANCH  11  12
ENDBRANCH  10  11
ENDBRANCH   9  10
ENDBRANCH   8   9
ENDBRANCH   7   8
ENDBRANCH   6   7
ENDBRANCH   5   6
ENDBRANCH   4   5
ENDBRANCH   3   4
ENDBRANCH   2   3
ENDBRANCH   1   2
BRANCH   1  15
ATOM     15  C   UNL     1      40.932  26.634  20.251  1.00  0.00     0.000 C 
BRANCH  15  16
ATOM     16  C   UNL     1      40.631  28.061  19.766  1.00  0.00     0.000 C 
BRANCH  16  17
ATOM     17  C   UNL     1      41.756  28.639  18.892  1.00  0.00     0.000 C 
BRANCH  17  18
ATOM     18  C   UNL     1      41.221  29.389  17.663  1.00  0.00    -0.000 C 
BRANCH  18  19
ATOM     19  C   UNL     1      42.281  29.450  16.553  1.00  0.00    -0.000 C 
BRANCH  19  20
ATOM     20  C   UNL     1      42.243  30.774  15.770  1.00  0.00    -0.000 C 
BRANCH  20  21
ATOM     21  C   UNL     1      43.244  31.809  16.313  1.00  0.00    -0.000 C 
BRANCH  21  22
ATOM     22  C   UNL     1      44.516  31.903  15.454  1.00  0.00    -0.000 C 
BRANCH  22  23
ATOM     23  C   UNL     1      45.701  31.143  16.074  1.00  0.00    -0.000 C 
BRANCH  23  24
ATOM     24  C   UNL     1      46.639  30.532  15.017  1.00  0.00    -0.000 C 
BRANCH  24  25
ATOM     25  C   UNL     1      47.969  29.987  15.565  1.00  0.00    -0.003 C 
ATOM     26  C   UNL     1      49.162  30.313  14.669  1.00  0.00     0.004 C 
ENDBRANCH  24  25
ENDBRANCH  23  24
ENDBRANCH  22  23
ENDBRANCH  21  22
ENDBRANCH  20  21
ENDBRANCH  19  20
ENDBRANCH  18  19
ENDBRANCH  17  18
ENDBRANCH  16  17
ENDBRANCH  15  16
ENDBRANCH   1  15
TORSDOF 22
ENDMDL
MODEL 4
REMARK VINA RESULT:    -2.294      5.415      7.676
REMARK INTER + INTRA:          -6.407
REMARK INTER:                  -5.681
REMARK INTRA:                  -0.726
REMARK UNBOUND:                -1.162
REMARK SMILES CCCCCCCCCCCCCCCCCCCCCCCC(=O)[O-]
REMARK SMILES IDX 13 1 14 2 15 3 16 4 17 5 18 6 19 7 20 8 21 9 22 10 23 11
REMARK SMILES IDX 24 12 25 13 26 14 12 15 11 16 10 17 9 18 8 19 7 20 6 21 5 22
REMARK SMILES IDX 4 23 3 24 2 25 1 26
REMARK H PARENT
REMARK Flexibility Score: inf
ROOT
ATOM      1  C   UNL     1      41.512  27.593  18.759  1.00  0.00     0.000 C 
ENDROOT
BRANCH   1   2
ATOM      2  C   UNL     1      41.650  26.114  19.175  1.00  0.00     0.000 C 
BRANCH   2   3
ATOM      3  C   UNL     1      42.815  25.415  18.454  1.00  0.00     0.000 C 
BRANCH   3   4
ATOM      4  C   UNL     1      42.388  24.751  17.133  1.00  0.00     0.000 C 
BRANCH   4   5
ATOM      5  C   UNL     1      43.458  23.809  16.544  1.00  0.00     0.000 C 
BRANCH   5   6
ATOM      6  C   UNL     1      44.404  23.249  17.617  1.00  0.00     0.000 C 
BRANCH   6   7
ATOM      7  C   UNL     1      44.828  21.813  17.276  1.00  0.00     0.000 C 
BRANCH   7   8
ATOM      8  C   UNL     1      43.645  20.915  16.870  1.00  0.00     0.000 C 
BRANCH   8   9
ATOM      9  C   UNL     1      42.891  20.264  18.044  1.00  0.00     0.000 C 
BRANCH   9  10
ATOM     10  C   UNL     1      41.670  19.446  17.594  1.00  0.00     0.006 C 
BRANCH  10  11
ATOM     11  C   UNL     1      41.568  19.410  16.065  1.00  0.00     0.053 C 
BRANCH  11  12
ATOM     12  C   UNL     1      41.155  18.050  15.591  1.00  0.00     0.041 C 
ATOM     13  O   UNL     1      40.593  17.244  16.380  1.00  0.00    -0.550 OA
ATOM     14  O   UNL     1      41.402  17.668  14.276  1.00  0.00    -0.550 OA
ENDBRANCH  11  12
ENDBRANCH  10  11
ENDBRANCH   9  10
ENDBRANCH   8   9
ENDBRANCH   7   8
ENDBRANCH   6   7
ENDBRANCH   5   6
ENDBRANCH   4   5
ENDBRANCH   3   4
ENDBRANCH   2   3
ENDBRANCH   1   2
BRANCH   1  15
ATOM     15  C   UNL     1      41.372  27.796  17.240  1.00  0.00     0.000 C 
BRANCH  15  16
ATOM     16  C   UNL     1      40.143  27.085  16.652  1.00  0.00     0.000 C 
BRANCH  16  17
ATOM     17  C   UNL     1      39.146  26.636  17.732  1.00  0.00     0.000 C 
BRANCH  17  18
ATOM     18  C   UNL     1      38.166  25.569  17.222  1.00  0.00    -0.000 C 
BRANCH  18  19
ATOM     19  C   UNL     1      37.356  26.094  16.027  1.00  0.00    -0.000 C 
BRANCH  19  20
ATOM     20  C   UNL     1      35.842  25.883  16.198  1.00  0.00    -0.000 C 
BRANCH  20  21
ATOM     21  C   UNL     1      35.010  26.888  15.382  1.00  0.00    -0.000 C 
BRANCH  21  22
ATOM     22  C   UNL     1      34.629  28.134  16.198  1.00  0.00    -0.000 C 
BRANCH  22  23
ATOM     23  C   UNL     1      34.971  29.444  15.467  1.00  0.00    -0.000 C 
BRANCH  23  24
ATOM     24  C   UNL     1      35.282  29.231  13.974  1.00  0.00    -0.000 C 
BRANCH  24  25
ATOM     25  C   UNL     1      34.369  30.002  13.005  1.00  0.00    -0.003 C 
ATOM     26  C   UNL     1      33.893  31.340  13.570  1.00  0.00     0.004 C 
ENDBRANCH  24  25
ENDBRANCH  23  24
ENDBRANCH  22  23
ENDBRANCH  21  22
ENDBRANCH  20  21
ENDBRANCH  19  20
ENDBRANCH  18  19
ENDBRANCH  17  18
ENDBRANCH  16  17
ENDBRANCH  15  16
ENDBRANCH   1  15
TORSDOF 22
ENDMDL
MODEL 5
REMARK VINA RESULT:    -2.278      3.355      6.786
REMARK INTER + INTRA:          -6.369
REMARK INTER:                  -5.819
REMARK INTRA:                  -0.551
REMARK UNBOUND:                -1.162
REMARK SMILES CCCCCCCCCCCCCCCCCCCCCCCC(=O)[O-]
REMARK SMILES IDX 13 1 14 2 15 3 16 4 17 5 18 6 19 7 20 8 21 9 22 10 23 11
REMARK SMILES IDX 24 12 25 13 26 14 12 15 11 16 10 17 9 18 8 19 7 20 6 21 5 22
REMARK SMILES IDX 4 23 3 24 2 25 1 26
REMARK H PARENT
REMARK Flexibility Score: inf
ROOT
ATOM      1  C   UNL     1      39.562  26.371  18.327  1.00  0.00     0.000 C 
ENDROOT
BRANCH   1   2
ATOM      2  C   UNL     1      39.665  27.010  16.927  1.00  0.00     0.000 C 
BRANCH   2   3
ATOM      3  C   UNL     1      41.112  27.392  16.569  1.00  0.00     0.000 C 
BRANCH   3   4
ATOM      4  C   UNL     1      41.515  28.777  17.104  1.00  0.00     0.000 C 
BRANCH   4   5
ATOM      5  C   UNL     1      42.562  29.495  16.228  1.00  0.00     0.000 C 
BRANCH   5   6
ATOM      6  C   UNL     1      42.160  30.940  15.899  1.00  0.00     0.000 C 
BRANCH   6   7
ATOM      7  C   UNL     1      43.362  31.887  16.042  1.00  0.00     0.000 C 
BRANCH   7   8
ATOM      8  C   UNL     1      44.703  31.214  15.701  1.00  0.00     0.000 C 
BRANCH   8   9
ATOM      9  C   UNL     1      45.860  31.545  16.662  1.00  0.00     0.000 C 
BRANCH   9  10
ATOM     10  C   UNL     1      47.024  30.547  16.567  1.00  0.00     0.006 C 
BRANCH  10  11
ATOM     11  C   UNL     1      47.156  29.992  15.144  1.00  0.00     0.053 C 
BRANCH  11  12
ATOM     12  C   UNL     1      48.471  30.380  14.540  1.00  0.00     0.041 C 
ATOM     13  O   UNL     1      48.537  30.738  13.333  1.00  0.00    -0.550 OA
ATOM     14  O   UNL     1      49.629  30.335  15.310  1.00  0.00    -0.550 OA
ENDBRANCH  11  12
ENDBRANCH  10  11
ENDBRANCH   9  10
ENDBRANCH   8   9
ENDBRANCH   7   8
ENDBRANCH   6   7
ENDBRANCH   5   6
ENDBRANCH   4   5
ENDBRANCH   3   4
ENDBRANCH   2   3
ENDBRANCH   1   2
BRANCH   1  15
ATOM     15  C   UNL     1      40.458  27.045  19.381  1.00  0.00     0.000 C 
BRANCH  15  16
ATOM     16  C   UNL     1      41.796  26.316  19.582  1.00  0.00     0.000 C 
BRANCH  16  17
ATOM     17  C   UNL     1      41.908  25.039  18.734  1.00  0.00     0.000 C 
BRANCH  17  18
ATOM     18  C   UNL     1      43.061  25.104  17.722  1.00  0.00    -0.000 C 
BRANCH  18  19
ATOM     19  C   UNL     1      43.213  23.770  16.975  1.00  0.00    -0.000 C 
BRANCH  19  20
ATOM     20  C   UNL     1      44.649  23.222  17.026  1.00  0.00    -0.000 C 
BRANCH  20  21
ATOM     21  C   UNL     1      44.699  21.735  17.421  1.00  0.00    -0.000 C 
BRANCH  21  22
ATOM     22  C   UNL     1      43.483  20.949  16.903  1.00  0.00    -0.000 C 
BRANCH  22  23
ATOM     23  C   UNL     1      42.803  20.122  18.007  1.00  0.00    -0.000 C 
BRANCH  23  24
ATOM     24  C   UNL     1      41.479  19.485  17.547  1.00  0.00    -0.000 C 
BRANCH  24  25
ATOM     25  C   UNL     1      41.340  19.302  16.026  1.00  0.00    -0.003 C 
ATOM     26  C   UNL     1      40.898  17.893  15.633  1.00  0.00     0.004 C 
ENDBRANCH  24  25
ENDBRANCH  23  24
ENDBRANCH  22  23
ENDBRANCH  21  22
ENDBRANCH  20  21
ENDBRANCH  19  20
ENDBRANCH  18  19
ENDBRANCH  17  18
ENDBRANCH  16  17
ENDBRANCH  15  16
ENDBRANCH   1  15
TORSDOF 22
ENDMDL
MODEL 6
REMARK VINA RESULT:    -2.194      5.570     10.197
REMARK INTER + INTRA:          -6.177
REMARK INTER:                  -5.450
REMARK INTRA:                  -0.727
REMARK UNBOUND:                -1.162
REMARK SMILES CCCCCCCCCCCCCCCCCCCCCCCC(=O)[O-]
REMARK SMILES IDX 13 1 14 2 15 3 16 4 17 5 18 6 19 7 20 8 21 9 22 10 23 11
REMARK SMILES IDX 24 12 25 13 26 14 12 15 11 16 10 17 9 18 8 19 7 20 6 21 5 22
REMARK SMILES IDX 4 23 3 24 2 25 1 26
REMARK H PARENT
REMARK Flexibility Score: inf
ROOT
ATOM      1  C   UNL     1      40.141  26.809  18.761  1.00  0.00     0.000 C 
ENDROOT
BRANCH   1   2
ATOM      2  C   UNL     1      40.138  26.254  17.322  1.00  0.00     0.000 C 
BRANCH   2   3
ATOM      3  C   UNL     1      41.510  25.687  16.917  1.00  0.00     0.000 C 
BRANCH   3   4
ATOM      4  C   UNL     1      42.311  25.148  18.115  1.00  0.00     0.000 C 
BRANCH   4   5
ATOM      5  C   UNL     1      43.634  24.463  17.713  1.00  0.00     0.000 C 
BRANCH   5   6
ATOM      6  C   UNL     1      43.412  23.241  16.810  1.00  0.00     0.000 C 
BRANCH   6   7
ATOM      7  C   UNL     1      44.429  22.135  17.129  1.00  0.00     0.000 C 
BRANCH   7   8
ATOM      8  C   UNL     1      43.846  20.718  16.975  1.00  0.00     0.000 C 
BRANCH   8   9
ATOM      9  C   UNL     1      42.872  20.291  18.088  1.00  0.00     0.000 C 
BRANCH   9  10
ATOM     10  C   UNL     1      41.650  19.526  17.557  1.00  0.00     0.006 C 
BRANCH  10  11
ATOM     11  C   UNL     1      41.658  19.478  16.025  1.00  0.00     0.053 C 
BRANCH  11  12
ATOM     12  C   UNL     1      41.241  18.126  15.532  1.00  0.00     0.041 C 
ATOM     13  O   UNL     1      41.438  17.797  14.331  1.00  0.00    -0.550 OA
ATOM     14  O   UNL     1      40.623  17.230  16.399  1.00  0.00    -0.550 OA
ENDBRANCH  11  12
ENDBRANCH  10  11
ENDBRANCH   9  10
ENDBRANCH   8   9
ENDBRANCH   7   8
ENDBRANCH   6   7
ENDBRANCH   5   6
ENDBRANCH   4   5
ENDBRANCH   3   4
ENDBRANCH   2   3
ENDBRANCH   1   2
BRANCH   1  15
ATOM     15  C   UNL     1      41.282  27.803  19.037  1.00  0.00     0.000 C 
BRANCH  15  16
ATOM     16  C   UNL     1      41.311  28.972  18.040  1.00  0.00     0.000 C 
BRANCH  16  17
ATOM     17  C   UNL     1      42.302  28.744  16.889  1.00  0.00     0.000 C 
BRANCH  17  18
ATOM     18  C   UNL     1      42.268  29.874  15.849  1.00  0.00    -0.000 C 
BRANCH  18  19
ATOM     19  C   UNL     1      42.349  31.249  16.528  1.00  0.00    -0.000 C 
BRANCH  19  20
ATOM     20  C   UNL     1      43.204  32.253  15.736  1.00  0.00    -0.000 C 
BRANCH  20  21
ATOM     21  C   UNL     1      44.631  31.738  15.479  1.00  0.00    -0.000 C 
BRANCH  21  22
ATOM     22  C   UNL     1      45.459  31.633  16.771  1.00  0.00    -0.000 C 
BRANCH  22  23
ATOM     23  C   UNL     1      46.708  30.751  16.600  1.00  0.00    -0.000 C 
BRANCH  23  24
ATOM     24  C   UNL     1      46.952  30.338  15.137  1.00  0.00    -0.000 C 
BRANCH  24  25
ATOM     25  C   UNL     1      48.260  29.566  14.890  1.00  0.00    -0.003 C 
ATOM     26  C   UNL     1      49.487  30.475  14.830  1.00  0.00     0.004 C 
ENDBRANCH  24  25
ENDBRANCH  23  24
ENDBRANCH  22  23
ENDBRANCH  21  22
ENDBRANCH  20  21
ENDBRANCH  19  20
ENDBRANCH  18  19
ENDBRANCH  17  18
ENDBRANCH  16  17
ENDBRANCH  15  16
ENDBRANCH   1  15
TORSDOF 22
ENDMDL
MODEL 7
REMARK VINA RESULT:    -1.853      1.183      2.384
REMARK INTER + INTRA:          -5.397
REMARK INTER:                  -4.325
REMARK INTRA:                  -1.072
REMARK UNBOUND:                -1.162
REMARK SMILES CCCCCCCCCCCCCCCCCCCCCCCC(=O)[O-]
REMARK SMILES IDX 13 1 14 2 15 3 16 4 17 5 18 6 19 7 20 8 21 9 22 10 23 11
REMARK SMILES IDX 24 12 25 13 26 14 12 15 11 16 10 17 9 18 8 19 7 20 6 21 5 22
REMARK SMILES IDX 4 23 3 24 2 25 1 26
REMARK H PARENT
REMARK Flexibility Score: inf
ROOT
ATOM      1  C   UNL     1      41.950  26.644  20.060  1.00  0.00     0.000 C 
ENDROOT
BRANCH   1   2
ATOM      2  C   UNL     1      41.924  25.500  19.025  1.00  0.00     0.000 C 
BRANCH   2   3
ATOM      3  C   UNL     1      42.682  25.866  17.738  1.00  0.00     0.000 C 
BRANCH   3   4
ATOM      4  C   UNL     1      41.754  26.017  16.520  1.00  0.00     0.000 C 
BRANCH   4   5
ATOM      5  C   UNL     1      41.371  27.479  16.216  1.00  0.00     0.000 C 
BRANCH   5   6
ATOM      6  C   UNL     1      42.222  28.486  17.004  1.00  0.00     0.000 C 
BRANCH   6   7
ATOM      7  C   UNL     1      41.754  29.925  16.736  1.00  0.00     0.000 C 
BRANCH   7   8
ATOM      8  C   UNL     1      42.522  30.605  15.589  1.00  0.00     0.000 C 
BRANCH   8   9
ATOM      9  C   UNL     1      43.323  31.856  15.994  1.00  0.00     0.000 C 
BRANCH   9  10
ATOM     10  C   UNL     1      44.745  31.873  15.411  1.00  0.00     0.006 C 
BRANCH  10  11
ATOM     11  C   UNL     1      45.720  31.124  16.326  1.00  0.00     0.053 C 
BRANCH  11  12
ATOM     12  C   UNL     1      46.790  30.448  15.524  1.00  0.00     0.041 C 
ATOM     13  O   UNL     1      46.580  30.131  14.322  1.00  0.00    -0.550 OA
ATOM     14  O   UNL     1      48.018  30.156  16.109  1.00  0.00    -0.550 OA
ENDBRANCH  11  12
ENDBRANCH  10  11
ENDBRANCH   9  10
ENDBRANCH   8   9
ENDBRANCH   7   8
ENDBRANCH   6   7
ENDBRANCH   5   6
ENDBRANCH   4   5
ENDBRANCH   3   4
ENDBRANCH   2   3
ENDBRANCH   1   2
BRANCH   1  15
ATOM     15  C   UNL     1      40.600  27.368  20.212  1.00  0.00     0.000 C 
BRANCH  15  16
ATOM     16  C   UNL     1      39.424  26.569  19.628  1.00  0.00     0.000 C 
BRANCH  16  17
ATOM     17  C   UNL     1      39.116  26.948  18.171  1.00  0.00     0.000 C 
BRANCH  17  18
ATOM     18  C   UNL     1      38.564  25.767  17.359  1.00  0.00    -0.000 C 
BRANCH  18  19
ATOM     19  C   UNL     1      37.574  26.252  16.289  1.00  0.00    -0.000 C 
BRANCH  19  20
ATOM     20  C   UNL     1      36.163  25.669  16.480  1.00  0.00    -0.000 C 
BRANCH  20  21
ATOM     21  C   UNL     1      35.133  26.294  15.522  1.00  0.00    -0.000 C 
BRANCH  21  22
ATOM     22  C   UNL     1      35.004  27.815  15.709  1.00  0.00    -0.000 C 
BRANCH  22  23
ATOM     23  C   UNL     1      35.061  28.579  14.375  1.00  0.00    -0.000 C 
BRANCH  23  24
ATOM     24  C   UNL     1      34.981  30.105  14.557  1.00  0.00    -0.000 C 
BRANCH  24  25
ATOM     25  C   UNL     1      34.495  30.882  13.321  1.00  0.00    -0.003 C 
ATOM     26  C   UNL     1      33.322  31.813  13.625  1.00  0.00     0.004 C 
ENDBRANCH  24  25
ENDBRANCH  23  24
ENDBRANCH  22  23
ENDBRANCH  21  22
ENDBRANCH  20  21
ENDBRANCH  19  20
ENDBRANCH  18  19
ENDBRANCH  17  18
ENDBRANCH  16  17
ENDBRANCH  15  16
ENDBRANCH   1  15
TORSDOF 22
ENDMDL
MODEL 8
REMARK VINA RESULT:    -1.816      4.752      6.482
REMARK INTER + INTRA:          -5.313
REMARK INTER:                  -4.727
REMARK INTRA:                  -0.586
REMARK UNBOUND:                -1.162
REMARK SMILES CCCCCCCCCCCCCCCCCCCCCCCC(=O)[O-]
REMARK SMILES IDX 13 1 14 2 15 3 16 4 17 5 18 6 19 7 20 8 21 9 22 10 23 11
REMARK SMILES IDX 24 12 25 13 26 14 12 15 11 16 10 17 9 18 8 19 7 20 6 21 5 22
REMARK SMILES IDX 4 23 3 24 2 25 1 26
REMARK H PARENT
REMARK Flexibility Score: inf
ROOT
ATOM      1  C   UNL     1      41.457  27.737  19.764  1.00  0.00     0.000 C 
ENDROOT
BRANCH   1   2
ATOM      2  C   UNL     1      41.239  28.669  18.554  1.00  0.00     0.000 C 
BRANCH   2   3
ATOM      3  C   UNL     1      42.119  28.277  17.355  1.00  0.00     0.000 C 
BRANCH   3   4
ATOM      4  C   UNL     1      41.351  27.484  16.284  1.00  0.00     0.000 C 
BRANCH   4   5
ATOM      5  C   UNL     1      41.635  25.968  16.317  1.00  0.00     0.000 C 
BRANCH   5   6
ATOM      6  C   UNL     1      42.688  25.591  17.370  1.00  0.00     0.000 C 
BRANCH   6   7
ATOM      7  C   UNL     1      42.829  24.065  17.480  1.00  0.00     0.000 C 
BRANCH   7   8
ATOM      8  C   UNL     1      44.140  23.536  16.873  1.00  0.00     0.000 C 
BRANCH   8   9
ATOM      9  C   UNL     1      44.660  22.225  17.491  1.00  0.00     0.000 C 
BRANCH   9  10
ATOM     10  C   UNL     1      44.087  20.972  16.811  1.00  0.00     0.006 C 
BRANCH  10  11
ATOM     11  C   UNL     1      43.050  20.288  17.709  1.00  0.00     0.053 C 
BRANCH  11  12
ATOM     12  C   UNL     1      41.933  19.715  16.891  1.00  0.00     0.041 C 
ATOM     13  O   UNL     1      41.997  19.721  15.633  1.00  0.00    -0.550 OA
ATOM     14  O   UNL     1      40.811  19.184  17.522  1.00  0.00    -0.550 OA
ENDBRANCH  11  12
ENDBRANCH  10  11
ENDBRANCH   9  10
ENDBRANCH   8   9
ENDBRANCH   7   8
ENDBRANCH   6   7
ENDBRANCH   5   6
ENDBRANCH   4   5
ENDBRANCH   3   4
ENDBRANCH   2   3
ENDBRANCH   1   2
BRANCH   1  15
ATOM     15  C   UNL     1      40.149  27.195  20.368  1.00  0.00     0.000 C 
BRANCH  15  16
ATOM     16  C   UNL     1      39.489  26.117  19.495  1.00  0.00     0.000 C 
BRANCH  16  17
ATOM     17  C   UNL     1      39.095  26.640  18.105  1.00  0.00     0.000 C 
BRANCH  17  18
ATOM     18  C   UNL     1      38.321  25.600  17.281  1.00  0.00    -0.000 C 
BRANCH  18  19
ATOM     19  C   UNL     1      37.378  26.284  16.279  1.00  0.00    -0.000 C 
BRANCH  19  20
ATOM     20  C   UNL     1      35.965  25.677  16.286  1.00  0.00    -0.000 C 
BRANCH  20  21
ATOM     21  C   UNL     1      34.965  26.502  15.456  1.00  0.00    -0.000 C 
BRANCH  21  22
ATOM     22  C   UNL     1      35.104  28.014  15.702  1.00  0.00    -0.000 C 
BRANCH  22  23
ATOM     23  C   UNL     1      35.265  28.810  14.396  1.00  0.00    -0.000 C 
BRANCH  23  24
ATOM     24  C   UNL     1      34.806  30.273  14.528  1.00  0.00    -0.000 C 
BRANCH  24  25
ATOM     25  C   UNL     1      34.137  30.860  13.273  1.00  0.00    -0.003 C 
ATOM     26  C   UNL     1      33.101  31.935  13.597  1.00  0.00     0.004 C 
ENDBRANCH  24  25
ENDBRANCH  23  24
ENDBRANCH  22  23
ENDBRANCH  21  22
ENDBRANCH  20  21
ENDBRANCH  19  20
ENDBRANCH  18  19
ENDBRANCH  17  18
ENDBRANCH  16  17
ENDBRANCH  15  16
ENDBRANCH   1  15
TORSDOF 22
ENDMDL
MODEL 9
REMARK VINA RESULT:    -1.779     13.773     16.746
REMARK INTER + INTRA:          -5.229
REMARK INTER:                  -4.088
REMARK INTRA:                  -1.141
REMARK UNBOUND:                -1.162
REMARK SMILES CCCCCCCCCCCCCCCCCCCCCCCC(=O)[O-]
REMARK SMILES IDX 13 1 14 2 15 3 16 4 17 5 18 6 19 7 20 8 21 9 22 10 23 11
REMARK SMILES IDX 24 12 25 13 26 14 12 15 11 16 10 17 9 18 8 19 7 20 6 21 5 22
REMARK SMILES IDX 4 23 3 24 2 25 1 26
REMARK H PARENT
REMARK Flexibility Score: inf
ROOT
ATOM      1  C   UNL     1      43.065  30.951  29.531  1.00  0.00     0.000 C 
ENDROOT
BRANCH   1   2
ATOM      2  C   UNL     1      43.145  32.051  28.452  1.00  0.00     0.000 C 
BRANCH   2   3
ATOM      3  C   UNL     1      41.780  32.714  28.198  1.00  0.00     0.000 C 
BRANCH   3   4
ATOM      4  C   UNL     1      41.182  33.353  29.463  1.00  0.00     0.000 C 
BRANCH   4   5
ATOM      5  C   UNL     1      40.064  32.508  30.110  1.00  0.00     0.000 C 
BRANCH   5   6
ATOM      6  C   UNL     1      39.326  31.630  29.088  1.00  0.00     0.000 C 
BRANCH   6   7
ATOM      7  C   UNL     1      38.016  32.297  28.642  1.00  0.00     0.000 C 
BRANCH   7   8
ATOM      8  C   UNL     1      36.799  31.851  29.473  1.00  0.00     0.000 C 
BRANCH   8   9
ATOM      9  C   UNL     1      36.845  30.392  29.962  1.00  0.00     0.000 C 
BRANCH   9  10
ATOM     10  C   UNL     1      36.433  29.383  28.879  1.00  0.00     0.006 C 
BRANCH  10  11
ATOM     11  C   UNL     1      34.909  29.334  28.726  1.00  0.00     0.053 C 
BRANCH  11  12
ATOM     12  C   UNL     1      34.382  27.973  29.062  1.00  0.00     0.041 C 
ATOM     13  O   UNL     1      33.203  27.651  28.752  1.00  0.00    -0.550 OA
ATOM     14  O   UNL     1      35.192  27.060  29.731  1.00  0.00    -0.550 OA
ENDBRANCH  11  12
ENDBRANCH  10  11
ENDBRANCH   9  10
ENDBRANCH   8   9
ENDBRANCH   7   8
ENDBRANCH   6   7
ENDBRANCH   5   6
ENDBRANCH   4   5
ENDBRANCH   3   4
ENDBRANCH   2   3
ENDBRANCH   1   2
BRANCH   1  15
ATOM     15  C   UNL     1      44.440  30.507  30.061  1.00  0.00     0.000 C 
BRANCH  15  16
ATOM     16  C   UNL     1      45.060  29.370  29.236  1.00  0.00     0.000 C 
BRANCH  16  17
ATOM     17  C   UNL     1      45.107  28.039  30.002  1.00  0.00     0.000 C 
BRANCH  17  18
ATOM     18  C   UNL     1      43.757  27.306  29.991  1.00  0.00    -0.000 C 
BRANCH  18  19
ATOM     19  C   UNL     1      43.912  25.877  29.449  1.00  0.00    -0.000 C 
BRANCH  19  20
ATOM     20  C   UNL     1      42.665  25.011  29.695  1.00  0.00    -0.000 C 
BRANCH  20  21
ATOM     21  C   UNL     1      43.020  23.575  30.123  1.00  0.00    -0.000 C 
BRANCH  21  22
ATOM     22  C   UNL     1      43.914  22.860  29.095  1.00  0.00    -0.000 C 
BRANCH  22  23
ATOM     23  C   UNL     1      44.522  21.560  29.648  1.00  0.00    -0.000 C 
BRANCH  23  24
ATOM     24  C   UNL     1      45.626  20.985  28.743  1.00  0.00    -0.000 C 
BRANCH  24  25
ATOM     25  C   UNL     1      46.913  20.566  29.474  1.00  0.00    -0.003 C 
ATOM     26  C   UNL     1      46.952  19.074  29.806  1.00  0.00     0.004 C 
ENDBRANCH  24  25
ENDBRANCH  23  24
ENDBRANCH  22  23
ENDBRANCH  21  22
ENDBRANCH  20  21
ENDBRANCH  19  20
ENDBRANCH  18  19
ENDBRANCH  17  18
ENDBRANCH  16  17
ENDBRANCH  15  16
ENDBRANCH   1  15
TORSDOF 22
ENDMDL
