MODEL 1
REMARK VINA RESULT:    -7.187      0.000      0.000
REMARK INTER + INTRA:         -12.296
REMARK INTER:                 -10.549
REMARK INTRA:                  -1.747
REMARK UNBOUND:                -1.747
REMARK SMILES O=c1c(O[C@@H]2O[C@H](CO)[C@@H](O)[C@H](O)[C@@H]2O)c(-c2ccc(O)c(O)c2)oc2cc(O)cc(O)c12
REMARK SMILES IDX 4 1 3 2 16 3 25 4 2 5 26 6 1 7 33 8 27 9 31 10 28 11 30 12
REMARK SMILES IDX 17 13 18 14 19 15 20 16 24 17 22 18 21 19 23 21 32 23 29 25
REMARK SMILES IDX 5 27 14 28 6 29 12 30 7 31 10 32 15 33 13 35 8 37 9 38 11 40
REMARK H PARENT 21 20 23 22 32 24 29 26 15 34 13 36 9 39 11 41
REMARK Flexibility Score: inf
ROOT
ATOM      1  O   UNL     1      14.970 -43.328  30.540  1.00  0.00    -0.454 OA
ENDROOT
BRANCH   1   2
ATOM      2  C   UNL     1      13.990 -42.652  29.805  1.00  0.00     0.214 A 
ATOM      3  C   UNL     1      14.257 -42.228  28.493  1.00  0.00     0.180 A 
ATOM      4  O   UNL     1      13.287 -41.678  27.770  1.00  0.00    -0.452 OA
ATOM      5  C   UNL     1      12.725 -42.411  30.357  1.00  0.00     0.239 A 
ATOM      6  C   UNL     1      12.064 -41.453  28.238  1.00  0.00     0.146 A 
ATOM      7  O   UNL     1      12.497 -42.802  31.531  1.00  0.00    -0.285 OA
ATOM      8  C   UNL     1      11.729 -41.771  29.582  1.00  0.00     0.111 A 
ATOM      9  C   UNL     1      11.112 -40.901  27.379  1.00  0.00     0.094 A 
ATOM     10  C   UNL     1      10.412 -41.465  30.043  1.00  0.00     0.134 A 
ATOM     11  C   UNL     1       9.816 -40.659  27.823  1.00  0.00     0.123 A 
ATOM     12  C   UNL     1       9.470 -40.944  29.147  1.00  0.00     0.093 A 
BRANCH   3  13
ATOM     13  C   UNL     1      15.587 -42.399  27.870  1.00  0.00     0.025 A 
ATOM     14  C   UNL     1      16.419 -41.282  27.691  1.00  0.00     0.016 A 
ATOM     15  C   UNL     1      17.681 -41.425  27.108  1.00  0.00     0.051 A 
ATOM     16  C   UNL     1      18.135 -42.690  26.709  1.00  0.00     0.157 A 
ATOM     17  C   UNL     1      16.057 -43.670  27.494  1.00  0.00     0.062 A 
ATOM     18  C   UNL     1      17.320 -43.818  26.908  1.00  0.00     0.158 A 
BRANCH  16  19
ATOM     19  O   UNL     1      19.392 -42.830  26.123  1.00  0.00    -0.504 OA
ATOM     20  H   UNL     1      19.553 -43.475  25.358  1.00  0.00     0.293 HD
ENDBRANCH  16  19
BRANCH  18  21
ATOM     21  O   UNL     1      17.747 -45.091  26.533  1.00  0.00    -0.504 OA
ATOM     22  H   UNL     1      17.271 -45.930  26.843  1.00  0.00     0.293 HD
ENDBRANCH  18  21
ENDBRANCH   3  13
BRANCH  10  23
ATOM     23  O   UNL     1       9.990 -41.630  31.365  1.00  0.00    -0.507 OA
ATOM     24  H   UNL     1       9.862 -42.521  31.820  1.00  0.00     0.293 HD
ENDBRANCH  10  23
BRANCH  11  25
ATOM     25  O   UNL     1       8.875 -40.126  26.942  1.00  0.00    -0.508 OA
ATOM     26  H   UNL     1       8.989 -39.203  26.538  1.00  0.00     0.293 HD
ENDBRANCH  11  25
ENDBRANCH   1   2
BRANCH   1  27
ATOM     27  C   UNL     1      15.868 -42.644  31.416  1.00  0.00     0.339 C 
ATOM     28  C   UNL     1      15.840 -43.304  32.810  1.00  0.00     0.214 C 
ATOM     29  O   UNL     1      17.164 -42.589  30.824  1.00  0.00    -0.332 OA
ATOM     30  C   UNL     1      16.338 -44.759  32.719  1.00  0.00     0.180 C 
ATOM     31  C   UNL     1      18.097 -43.548  31.314  1.00  0.00     0.179 C 
ATOM     32  C   UNL     1      17.437 -44.916  31.637  1.00  0.00     0.177 C 
BRANCH  28  33
ATOM     33  O   UNL     1      14.546 -43.263  33.354  1.00  0.00    -0.384 OA
ATOM     34  H   UNL     1      13.953 -42.880  32.656  1.00  0.00     0.211 HD
ENDBRANCH  28  33
BRANCH  30  35
ATOM     35  O   UNL     1      15.262 -45.616  32.428  1.00  0.00    -0.387 OA
ATOM     36  H   UNL     1      15.560 -46.214  31.692  1.00  0.00     0.211 HD
ENDBRANCH  30  35
BRANCH  31  37
ATOM     37  C   UNL     1      19.207 -43.695  30.262  1.00  0.00     0.191 C 
BRANCH  37  38
ATOM     38  O   UNL     1      20.412 -44.088  30.868  1.00  0.00    -0.394 OA
ATOM     39  H   UNL     1      20.223 -44.239  31.831  1.00  0.00     0.210 HD
ENDBRANCH  37  38
ENDBRANCH  31  37
BRANCH  32  40
ATOM     40  O   UNL     1      18.408 -45.827  32.086  1.00  0.00    -0.387 OA
ATOM     41  H   UNL     1      18.699 -46.350  31.293  1.00  0.00     0.211 HD
ENDBRANCH  32  40
ENDBRANCH   1  27
TORSDOF 12
ENDMDL
MODEL 2
REMARK VINA RESULT:    -7.174      2.139      3.253
REMARK INTER + INTRA:         -12.276
REMARK INTER:                 -10.644
REMARK INTRA:                  -1.632
REMARK UNBOUND:                -1.747
REMARK SMILES O=c1c(O[C@@H]2O[C@H](CO)[C@@H](O)[C@H](O)[C@@H]2O)c(-c2ccc(O)c(O)c2)oc2cc(O)cc(O)c12
REMARK SMILES IDX 4 1 3 2 16 3 25 4 2 5 26 6 1 7 33 8 27 9 31 10 28 11 30 12
REMARK SMILES IDX 17 13 18 14 19 15 20 16 24 17 22 18 21 19 23 21 32 23 29 25
REMARK SMILES IDX 5 27 14 28 6 29 12 30 7 31 10 32 15 33 13 35 8 37 9 38 11 40
REMARK H PARENT 21 20 23 22 32 24 29 26 15 34 13 36 9 39 11 41
REMARK Flexibility Score: inf
ROOT
ATOM      1  O   UNL     1      15.824 -42.341  29.681  1.00  0.00    -0.454 OA
ENDROOT
BRANCH   1   2
ATOM      2  C   UNL     1      14.666 -42.778  29.028  1.00  0.00     0.214 A 
ATOM      3  C   UNL     1      14.702 -43.091  27.659  1.00  0.00     0.180 A 
ATOM      4  O   UNL     1      13.624 -43.601  27.073  1.00  0.00    -0.452 OA
ATOM      5  C   UNL     1      13.466 -42.932  29.732  1.00  0.00     0.239 A 
ATOM      6  C   UNL     1      12.470 -43.792  27.704  1.00  0.00     0.146 A 
ATOM      7  O   UNL     1      13.449 -42.655  30.960  1.00  0.00    -0.285 OA
ATOM      8  C   UNL     1      12.316 -43.423  29.068  1.00  0.00     0.111 A 
ATOM      9  C   UNL     1      11.411 -44.366  26.999  1.00  0.00     0.094 A 
ATOM     10  C   UNL     1      11.040 -43.609  29.681  1.00  0.00     0.134 A 
ATOM     11  C   UNL     1      10.188 -44.595  27.623  1.00  0.00     0.123 A 
ATOM     12  C   UNL     1      10.009 -44.221  28.958  1.00  0.00     0.093 A 
BRANCH   3  13
ATOM     13  C   UNL     1      15.920 -42.898  26.843  1.00  0.00     0.025 A 
ATOM     14  C   UNL     1      16.716 -44.005  26.509  1.00  0.00     0.016 A 
ATOM     15  C   UNL     1      17.868 -43.842  25.736  1.00  0.00     0.051 A 
ATOM     16  C   UNL     1      18.233 -42.570  25.273  1.00  0.00     0.157 A 
ATOM     17  C   UNL     1      16.274 -41.627  26.353  1.00  0.00     0.062 A 
ATOM     18  C   UNL     1      17.429 -41.459  25.580  1.00  0.00     0.158 A 
BRANCH  16  19
ATOM     19  O   UNL     1      19.386 -42.409  24.507  1.00  0.00    -0.504 OA
ATOM     20  H   UNL     1      19.681 -43.109  23.837  1.00  0.00     0.293 HD
ENDBRANCH  16  19
BRANCH  18  21
ATOM     21  O   UNL     1      17.759 -40.183  25.126  1.00  0.00    -0.504 OA
ATOM     22  H   UNL     1      17.247 -39.731  24.377  1.00  0.00     0.293 HD
ENDBRANCH  18  21
ENDBRANCH   3  13
BRANCH  10  23
ATOM     23  O   UNL     1      10.730 -43.193  30.979  1.00  0.00    -0.507 OA
ATOM     24  H   UNL     1      11.326 -43.323  31.782  1.00  0.00     0.293 HD
ENDBRANCH  10  23
BRANCH  11  25
ATOM     25  O   UNL     1       9.151 -45.189  26.906  1.00  0.00    -0.508 OA
ATOM     26  H   UNL     1       8.539 -45.879  27.329  1.00  0.00     0.293 HD
ENDBRANCH  11  25
ENDBRANCH   1   2
BRANCH   1  27
ATOM     27  C   UNL     1      16.807 -43.253  30.172  1.00  0.00     0.339 C 
ATOM     28  C   UNL     1      17.963 -42.469  30.828  1.00  0.00     0.214 C 
ATOM     29  O   UNL     1      16.189 -44.206  31.034  1.00  0.00    -0.332 OA
ATOM     30  C   UNL     1      17.447 -41.681  32.047  1.00  0.00     0.180 C 
ATOM     31  C   UNL     1      16.345 -43.956  32.427  1.00  0.00     0.179 C 
ATOM     32  C   UNL     1      16.309 -42.442  32.774  1.00  0.00     0.177 C 
BRANCH  28  33
ATOM     33  O   UNL     1      18.563 -41.600  29.902  1.00  0.00    -0.384 OA
ATOM     34  H   UNL     1      18.834 -42.153  29.123  1.00  0.00     0.211 HD
ENDBRANCH  28  33
BRANCH  30  35
ATOM     35  O   UNL     1      16.984 -40.417  31.639  1.00  0.00    -0.387 OA
ATOM     36  H   UNL     1      15.991 -40.463  31.624  1.00  0.00     0.211 HD
ENDBRANCH  30  35
BRANCH  31  37
ATOM     37  C   UNL     1      15.238 -44.726  33.165  1.00  0.00     0.191 C 
BRANCH  37  38
ATOM     38  O   UNL     1      14.204 -43.857  33.551  1.00  0.00    -0.394 OA
ATOM     39  H   UNL     1      14.269 -43.739  34.535  1.00  0.00     0.210 HD
ENDBRANCH  37  38
ENDBRANCH  31  37
BRANCH  32  40
ATOM     40  O   UNL     1      16.437 -42.261  34.161  1.00  0.00    -0.387 OA
ATOM     41  H   UNL     1      16.845 -43.091  34.522  1.00  0.00     0.211 HD
ENDBRANCH  32  40
ENDBRANCH   1  27
TORSDOF 12
ENDMDL
MODEL 3
REMARK VINA RESULT:    -7.171      2.909      5.288
REMARK INTER + INTRA:         -12.272
REMARK INTER:                 -10.444
REMARK INTRA:                  -1.828
REMARK UNBOUND:                -1.747
REMARK SMILES O=c1c(O[C@@H]2O[C@H](CO)[C@@H](O)[C@H](O)[C@@H]2O)c(-c2ccc(O)c(O)c2)oc2cc(O)cc(O)c12
REMARK SMILES IDX 4 1 3 2 16 3 25 4 2 5 26 6 1 7 33 8 27 9 31 10 28 11 30 12
REMARK SMILES IDX 17 13 18 14 19 15 20 16 24 17 22 18 21 19 23 21 32 23 29 25
REMARK SMILES IDX 5 27 14 28 6 29 12 30 7 31 10 32 15 33 13 35 8 37 9 38 11 40
REMARK H PARENT 21 20 23 22 32 24 29 26 15 34 13 36 9 39 11 41
REMARK Flexibility Score: inf
ROOT
ATOM      1  O   UNL     1      14.497 -41.907  28.587  1.00  0.00    -0.454 OA
ENDROOT
BRANCH   1   2
ATOM      2  C   UNL     1      13.689 -43.021  28.337  1.00  0.00     0.214 A 
ATOM      3  C   UNL     1      13.784 -44.162  29.152  1.00  0.00     0.180 A 
ATOM      4  O   UNL     1      12.943 -45.173  28.968  1.00  0.00    -0.452 OA
ATOM      5  C   UNL     1      12.760 -43.007  27.290  1.00  0.00     0.239 A 
ATOM      6  C   UNL     1      12.026 -45.195  28.007  1.00  0.00     0.146 A 
ATOM      7  O   UNL     1      12.679 -41.976  26.571  1.00  0.00    -0.285 OA
ATOM      8  C   UNL     1      11.915 -44.123  27.081  1.00  0.00     0.111 A 
ATOM      9  C   UNL     1      11.171 -46.296  27.927  1.00  0.00     0.094 A 
ATOM     10  C   UNL     1      10.941 -44.223  26.041  1.00  0.00     0.134 A 
ATOM     11  C   UNL     1      10.188 -46.357  26.943  1.00  0.00     0.123 A 
ATOM     12  C   UNL     1      10.075 -45.323  26.010  1.00  0.00     0.093 A 
BRANCH   3  13
ATOM     13  C   UNL     1      14.783 -44.266  30.239  1.00  0.00     0.025 A 
ATOM     14  C   UNL     1      15.994 -44.938  30.007  1.00  0.00     0.016 A 
ATOM     15  C   UNL     1      16.950 -45.042  31.021  1.00  0.00     0.051 A 
ATOM     16  C   UNL     1      16.714 -44.464  32.276  1.00  0.00     0.157 A 
ATOM     17  C   UNL     1      14.562 -43.663  31.490  1.00  0.00     0.062 A 
ATOM     18  C   UNL     1      15.516 -43.767  32.509  1.00  0.00     0.158 A 
BRANCH  16  19
ATOM     19  O   UNL     1      17.668 -44.574  33.287  1.00  0.00    -0.504 OA
ATOM     20  H   UNL     1      17.507 -44.195  34.213  1.00  0.00     0.293 HD
ENDBRANCH  16  19
BRANCH  18  21
ATOM     21  O   UNL     1      15.257 -43.171  33.743  1.00  0.00    -0.504 OA
ATOM     22  H   UNL     1      14.912 -42.222  33.818  1.00  0.00     0.293 HD
ENDBRANCH  18  21
ENDBRANCH   3  13
BRANCH  10  23
ATOM     23  O   UNL     1      10.802 -43.289  25.011  1.00  0.00    -0.507 OA
ATOM     24  H   UNL     1      11.249 -43.357  24.109  1.00  0.00     0.293 HD
ENDBRANCH  10  23
BRANCH  11  25
ATOM     25  O   UNL     1       9.331 -47.455  26.895  1.00  0.00    -0.508 OA
ATOM     26  H   UNL     1       9.006 -47.914  27.739  1.00  0.00     0.293 HD
ENDBRANCH  11  25
ENDBRANCH   1   2
BRANCH   1  27
ATOM     27  C   UNL     1      15.749 -41.714  27.928  1.00  0.00     0.339 C 
ATOM     28  C   UNL     1      15.788 -40.313  27.283  1.00  0.00     0.214 C 
ATOM     29  O   UNL     1      16.815 -41.963  28.842  1.00  0.00    -0.332 OA
ATOM     30  C   UNL     1      15.692 -39.225  28.368  1.00  0.00     0.180 C 
ATOM     31  C   UNL     1      17.419 -40.801  29.402  1.00  0.00     0.179 C 
ATOM     32  C   UNL     1      16.395 -39.666  29.678  1.00  0.00     0.177 C 
BRANCH  28  33
ATOM     33  O   UNL     1      14.749 -40.167  26.349  1.00  0.00    -0.384 OA
ATOM     34  H   UNL     1      14.013 -39.686  26.811  1.00  0.00     0.211 HD
ENDBRANCH  28  33
BRANCH  30  35
ATOM     35  O   UNL     1      14.343 -38.930  28.632  1.00  0.00    -0.387 OA
ATOM     36  H   UNL     1      14.204 -39.058  29.609  1.00  0.00     0.211 HD
ENDBRANCH  30  35
BRANCH  31  37
ATOM     37  C   UNL     1      18.142 -41.228  30.689  1.00  0.00     0.191 C 
BRANCH  37  38
ATOM     38  O   UNL     1      17.423 -40.812  31.822  1.00  0.00    -0.394 OA
ATOM     39  H   UNL     1      17.592 -41.477  32.540  1.00  0.00     0.210 HD
ENDBRANCH  37  38
ENDBRANCH  31  37
BRANCH  32  40
ATOM     40  O   UNL     1      17.042 -38.561  30.256  1.00  0.00    -0.387 OA
ATOM     41  H   UNL     1      17.984 -38.584  29.942  1.00  0.00     0.211 HD
ENDBRANCH  32  40
ENDBRANCH   1  27
TORSDOF 12
ENDMDL
MODEL 4
REMARK VINA RESULT:    -7.139      2.516      3.698
REMARK INTER + INTRA:         -12.224
REMARK INTER:                 -11.169
REMARK INTRA:                  -1.056
REMARK UNBOUND:                -1.747
REMARK SMILES O=c1c(O[C@@H]2O[C@H](CO)[C@@H](O)[C@H](O)[C@@H]2O)c(-c2ccc(O)c(O)c2)oc2cc(O)cc(O)c12
REMARK SMILES IDX 4 1 3 2 16 3 25 4 2 5 26 6 1 7 33 8 27 9 31 10 28 11 30 12
REMARK SMILES IDX 17 13 18 14 19 15 20 16 24 17 22 18 21 19 23 21 32 23 29 25
REMARK SMILES IDX 5 27 14 28 6 29 12 30 7 31 10 32 15 33 13 35 8 37 9 38 11 40
REMARK H PARENT 21 20 23 22 32 24 29 26 15 34 13 36 9 39 11 41
REMARK Flexibility Score: inf
ROOT
ATOM      1  O   UNL     1      16.280 -43.631  29.423  1.00  0.00    -0.454 OA
ENDROOT
BRANCH   1   2
ATOM      2  C   UNL     1      15.070 -43.440  28.746  1.00  0.00     0.214 A 
ATOM      3  C   UNL     1      14.840 -42.255  28.027  1.00  0.00     0.180 A 
ATOM      4  O   UNL     1      13.731 -42.129  27.307  1.00  0.00    -0.452 OA
ATOM      5  C   UNL     1      14.085 -44.435  28.755  1.00  0.00     0.239 A 
ATOM      6  C   UNL     1      12.780 -43.055  27.261  1.00  0.00     0.146 A 
ATOM      7  O   UNL     1      14.306 -45.495  29.397  1.00  0.00    -0.285 OA
ATOM      8  C   UNL     1      12.887 -44.248  28.024  1.00  0.00     0.111 A 
ATOM      9  C   UNL     1      11.671 -42.831  26.443  1.00  0.00     0.094 A 
ATOM     10  C   UNL     1      11.812 -45.187  27.971  1.00  0.00     0.134 A 
ATOM     11  C   UNL     1      10.655 -43.779  26.355  1.00  0.00     0.123 A 
ATOM     12  C   UNL     1      10.731 -44.950  27.113  1.00  0.00     0.093 A 
BRANCH   3  13
ATOM     13  C   UNL     1      15.813 -41.141  28.022  1.00  0.00     0.025 A 
ATOM     14  C   UNL     1      16.556 -40.874  26.861  1.00  0.00     0.016 A 
ATOM     15  C   UNL     1      17.477 -39.823  26.837  1.00  0.00     0.051 A 
ATOM     16  C   UNL     1      17.658 -39.017  27.969  1.00  0.00     0.157 A 
ATOM     17  C   UNL     1      15.977 -40.313  29.147  1.00  0.00     0.062 A 
ATOM     18  C   UNL     1      16.901 -39.261  29.128  1.00  0.00     0.158 A 
BRANCH  16  19
ATOM     19  O   UNL     1      18.582 -37.972  27.944  1.00  0.00    -0.504 OA
ATOM     20  H   UNL     1      19.161 -37.795  27.133  1.00  0.00     0.293 HD
ENDBRANCH  16  19
BRANCH  18  21
ATOM     21  O   UNL     1      17.049 -38.469  30.266  1.00  0.00    -0.504 OA
ATOM     22  H   UNL     1      16.345 -37.798  30.548  1.00  0.00     0.293 HD
ENDBRANCH  18  21
ENDBRANCH   3  13
BRANCH  10  23
ATOM     23  O   UNL     1      11.748 -46.345  28.751  1.00  0.00    -0.507 OA
ATOM     24  H   UNL     1      11.458 -47.250  28.414  1.00  0.00     0.293 HD
ENDBRANCH  10  23
BRANCH  11  25
ATOM     25  O   UNL     1       9.567 -43.544  25.516  1.00  0.00    -0.508 OA
ATOM     26  H   UNL     1       9.620 -43.714  24.517  1.00  0.00     0.293 HD
ENDBRANCH  11  25
ENDBRANCH   1   2
BRANCH   1  27
ATOM     27  C   UNL     1      16.355 -44.346  30.657  1.00  0.00     0.339 C 
ATOM     28  C   UNL     1      17.720 -45.056  30.765  1.00  0.00     0.214 C 
ATOM     29  O   UNL     1      16.072 -43.462  31.739  1.00  0.00    -0.332 OA
ATOM     30  C   UNL     1      18.859 -44.020  30.789  1.00  0.00     0.180 C 
ATOM     31  C   UNL     1      17.212 -42.980  32.444  1.00  0.00     0.179 C 
ATOM     32  C   UNL     1      18.427 -42.719  31.513  1.00  0.00     0.177 C 
BRANCH  28  33
ATOM     33  O   UNL     1      17.898 -45.956  29.701  1.00  0.00    -0.384 OA
ATOM     34  H   UNL     1      17.290 -45.663  28.973  1.00  0.00     0.211 HD
ENDBRANCH  28  33
BRANCH  30  35
ATOM     35  O   UNL     1      19.259 -43.718  29.475  1.00  0.00    -0.387 OA
ATOM     36  H   UNL     1      20.223 -43.951  29.405  1.00  0.00     0.211 HD
ENDBRANCH  30  35
BRANCH  31  37
ATOM     37  C   UNL     1      16.792 -41.703  33.190  1.00  0.00     0.191 C 
BRANCH  37  38
ATOM     38  O   UNL     1      17.100 -40.563  32.429  1.00  0.00    -0.394 OA
ATOM     39  H   UNL     1      16.747 -40.715  31.513  1.00  0.00     0.210 HD
ENDBRANCH  37  38
ENDBRANCH  31  37
BRANCH  32  40
ATOM     40  O   UNL     1      19.508 -42.218  32.258  1.00  0.00    -0.387 OA
ATOM     41  H   UNL     1      20.325 -42.366  31.713  1.00  0.00     0.211 HD
ENDBRANCH  32  40
ENDBRANCH   1  27
TORSDOF 12
ENDMDL
MODEL 5
REMARK VINA RESULT:    -7.130      2.044      6.604
REMARK INTER + INTRA:         -12.212
REMARK INTER:                 -10.491
REMARK INTRA:                  -1.721
REMARK UNBOUND:                -1.747
REMARK SMILES O=c1c(O[C@@H]2O[C@H](CO)[C@@H](O)[C@H](O)[C@@H]2O)c(-c2ccc(O)c(O)c2)oc2cc(O)cc(O)c12
REMARK SMILES IDX 4 1 3 2 16 3 25 4 2 5 26 6 1 7 33 8 27 9 31 10 28 11 30 12
REMARK SMILES IDX 17 13 18 14 19 15 20 16 24 17 22 18 21 19 23 21 32 23 29 25
REMARK SMILES IDX 5 27 14 28 6 29 12 30 7 31 10 32 15 33 13 35 8 37 9 38 11 40
REMARK H PARENT 21 20 23 22 32 24 29 26 15 34 13 36 9 39 11 41
REMARK Flexibility Score: inf
ROOT
ATOM      1  O   UNL     1      15.208 -42.953  28.492  1.00  0.00    -0.454 OA
ENDROOT
BRANCH   1   2
ATOM      2  C   UNL     1      16.314 -43.341  29.255  1.00  0.00     0.214 A 
ATOM      3  C   UNL     1      17.609 -42.953  28.873  1.00  0.00     0.180 A 
ATOM      4  O   UNL     1      18.640 -43.240  29.659  1.00  0.00    -0.452 OA
ATOM      5  C   UNL     1      16.145 -44.098  30.421  1.00  0.00     0.239 A 
ATOM      6  C   UNL     1      18.528 -43.932  30.788  1.00  0.00     0.146 A 
ATOM      7  O   UNL     1      14.979 -44.433  30.756  1.00  0.00    -0.285 OA
ATOM      8  C   UNL     1      17.270 -44.440  31.209  1.00  0.00     0.111 A 
ATOM      9  C   UNL     1      19.676 -44.147  31.554  1.00  0.00     0.094 A 
ATOM     10  C   UNL     1      17.218 -45.215  32.408  1.00  0.00     0.134 A 
ATOM     11  C   UNL     1      19.603 -44.857  32.750  1.00  0.00     0.123 A 
ATOM     12  C   UNL     1      18.379 -45.383  33.172  1.00  0.00     0.093 A 
BRANCH   3  13
ATOM     13  C   UNL     1      17.864 -42.202  27.624  1.00  0.00     0.025 A 
ATOM     14  C   UNL     1      17.909 -42.886  26.399  1.00  0.00     0.016 A 
ATOM     15  C   UNL     1      18.145 -42.192  25.209  1.00  0.00     0.051 A 
ATOM     16  C   UNL     1      18.325 -40.802  25.226  1.00  0.00     0.157 A 
ATOM     17  C   UNL     1      18.017 -40.804  27.634  1.00  0.00     0.062 A 
ATOM     18  C   UNL     1      18.256 -40.105  26.445  1.00  0.00     0.158 A 
BRANCH  16  19
ATOM     19  O   UNL     1      18.566 -40.113  24.038  1.00  0.00    -0.504 OA
ATOM     20  H   UNL     1      17.813 -39.697  23.503  1.00  0.00     0.293 HD
ENDBRANCH  16  19
BRANCH  18  21
ATOM     21  O   UNL     1      18.419 -38.721  26.494  1.00  0.00    -0.504 OA
ATOM     22  H   UNL     1      18.851 -38.205  25.737  1.00  0.00     0.293 HD
ENDBRANCH  18  21
ENDBRANCH   3  13
BRANCH  10  23
ATOM     23  O   UNL     1      16.066 -45.856  32.873  1.00  0.00    -0.507 OA
ATOM     24  H   UNL     1      15.813 -46.808  32.661  1.00  0.00     0.293 HD
ENDBRANCH  10  23
BRANCH  11  25
ATOM     25  O   UNL     1      20.757 -45.042  33.510  1.00  0.00    -0.508 OA
ATOM     26  H   UNL     1      21.180 -44.280  34.028  1.00  0.00     0.293 HD
ENDBRANCH  11  25
ENDBRANCH   1   2
BRANCH   1  27
ATOM     27  C   UNL     1      14.633 -41.649  28.597  1.00  0.00     0.339 C 
ATOM     28  C   UNL     1      13.654 -41.417  27.428  1.00  0.00     0.214 C 
ATOM     29  O   UNL     1      14.049 -41.486  29.886  1.00  0.00    -0.332 OA
ATOM     30  C   UNL     1      12.486 -42.418  27.505  1.00  0.00     0.180 C 
ATOM     31  C   UNL     1      12.634 -41.645  29.937  1.00  0.00     0.179 C 
ATOM     32  C   UNL     1      12.120 -42.750  28.975  1.00  0.00     0.177 C 
BRANCH  28  33
ATOM     33  O   UNL     1      14.315 -41.531  26.194  1.00  0.00    -0.384 OA
ATOM     34  H   UNL     1      14.321 -40.625  25.787  1.00  0.00     0.211 HD
ENDBRANCH  28  33
BRANCH  30  35
ATOM     35  O   UNL     1      12.824 -43.601  26.824  1.00  0.00    -0.387 OA
ATOM     36  H   UNL     1      12.313 -43.600  25.971  1.00  0.00     0.211 HD
ENDBRANCH  30  35
BRANCH  31  37
ATOM     37  C   UNL     1      12.252 -41.949  31.395  1.00  0.00     0.191 C 
BRANCH  37  38
ATOM     38  O   UNL     1      12.260 -43.334  31.629  1.00  0.00    -0.394 OA
ATOM     39  H   UNL     1      11.491 -43.538  32.225  1.00  0.00     0.210 HD
ENDBRANCH  37  38
ENDBRANCH  31  37
BRANCH  32  40
ATOM     40  O   UNL     1      10.725 -42.881  29.091  1.00  0.00    -0.387 OA
ATOM     41  H   UNL     1      10.424 -43.434  28.322  1.00  0.00     0.211 HD
ENDBRANCH  32  40
ENDBRANCH   1  27
TORSDOF 12
ENDMDL
MODEL 6
REMARK VINA RESULT:    -7.093      2.093      7.469
REMARK INTER + INTRA:         -12.158
REMARK INTER:                 -10.429
REMARK INTRA:                  -1.728
REMARK UNBOUND:                -1.747
REMARK SMILES O=c1c(O[C@@H]2O[C@H](CO)[C@@H](O)[C@H](O)[C@@H]2O)c(-c2ccc(O)c(O)c2)oc2cc(O)cc(O)c12
REMARK SMILES IDX 4 1 3 2 16 3 25 4 2 5 26 6 1 7 33 8 27 9 31 10 28 11 30 12
REMARK SMILES IDX 17 13 18 14 19 15 20 16 24 17 22 18 21 19 23 21 32 23 29 25
REMARK SMILES IDX 5 27 14 28 6 29 12 30 7 31 10 32 15 33 13 35 8 37 9 38 11 40
REMARK H PARENT 21 20 23 22 32 24 29 26 15 34 13 36 9 39 11 41
REMARK Flexibility Score: inf
ROOT
ATOM      1  O   UNL     1      15.611 -42.820  28.604  1.00  0.00    -0.454 OA
ENDROOT
BRANCH   1   2
ATOM      2  C   UNL     1      16.088 -43.494  29.734  1.00  0.00     0.214 A 
ATOM      3  C   UNL     1      15.192 -44.133  30.607  1.00  0.00     0.180 A 
ATOM      4  O   UNL     1      15.663 -44.853  31.619  1.00  0.00    -0.452 OA
ATOM      5  C   UNL     1      17.462 -43.560  29.996  1.00  0.00     0.239 A 
ATOM      6  C   UNL     1      16.958 -44.970  31.894  1.00  0.00     0.146 A 
ATOM      7  O   UNL     1      18.254 -42.989  29.202  1.00  0.00    -0.285 OA
ATOM      8  C   UNL     1      17.932 -44.288  31.116  1.00  0.00     0.111 A 
ATOM      9  C   UNL     1      17.342 -45.782  32.963  1.00  0.00     0.094 A 
ATOM     10  C   UNL     1      19.305 -44.414  31.486  1.00  0.00     0.134 A 
ATOM     11  C   UNL     1      18.688 -45.942  33.279  1.00  0.00     0.123 A 
ATOM     12  C   UNL     1      19.661 -45.264  32.541  1.00  0.00     0.093 A 
BRANCH   3  13
ATOM     13  C   UNL     1      13.727 -44.054  30.421  1.00  0.00     0.025 A 
ATOM     14  C   UNL     1      13.061 -45.071  29.718  1.00  0.00     0.016 A 
ATOM     15  C   UNL     1      11.677 -45.015  29.536  1.00  0.00     0.051 A 
ATOM     16  C   UNL     1      10.937 -43.949  30.066  1.00  0.00     0.157 A 
ATOM     17  C   UNL     1      12.978 -43.001  30.976  1.00  0.00     0.062 A 
ATOM     18  C   UNL     1      11.591 -42.940  30.794  1.00  0.00     0.158 A 
BRANCH  16  19
ATOM     19  O   UNL     1       9.557 -43.893  29.879  1.00  0.00    -0.504 OA
ATOM     20  H   UNL     1       8.947 -44.641  30.189  1.00  0.00     0.293 HD
ENDBRANCH  16  19
BRANCH  18  21
ATOM     21  O   UNL     1      10.883 -41.873  31.344  1.00  0.00    -0.504 OA
ATOM     22  H   UNL     1      10.699 -41.807  32.338  1.00  0.00     0.293 HD
ENDBRANCH  18  21
ENDBRANCH   3  13
BRANCH  10  23
ATOM     23  O   UNL     1      20.347 -43.714  30.870  1.00  0.00    -0.507 OA
ATOM     24  H   UNL     1      21.273 -43.607  31.253  1.00  0.00     0.293 HD
ENDBRANCH  10  23
BRANCH  11  25
ATOM     25  O   UNL     1      19.051 -46.774  34.338  1.00  0.00    -0.508 OA
ATOM     26  H   UNL     1      18.358 -47.169  34.965  1.00  0.00     0.293 HD
ENDBRANCH  11  25
ENDBRANCH   1   2
BRANCH   1  27
ATOM     27  C   UNL     1      15.243 -43.511  27.409  1.00  0.00     0.339 C 
ATOM     28  C   UNL     1      14.337 -42.609  26.545  1.00  0.00     0.214 C 
ATOM     29  O   UNL     1      16.415 -43.969  26.740  1.00  0.00    -0.332 OA
ATOM     30  C   UNL     1      15.106 -41.349  26.104  1.00  0.00     0.180 C 
ATOM     31  C   UNL     1      16.837 -43.172  25.638  1.00  0.00     0.179 C 
ATOM     32  C   UNL     1      16.609 -41.653  25.874  1.00  0.00     0.177 C 
BRANCH  28  33
ATOM     33  O   UNL     1      13.174 -42.252  27.248  1.00  0.00    -0.384 OA
ATOM     34  H   UNL     1      12.411 -42.389  26.627  1.00  0.00     0.211 HD
ENDBRANCH  28  33
BRANCH  30  35
ATOM     35  O   UNL     1      14.972 -40.342  27.077  1.00  0.00    -0.387 OA
ATOM     36  H   UNL     1      15.408 -39.527  26.711  1.00  0.00     0.211 HD
ENDBRANCH  30  35
BRANCH  31  37
ATOM     37  C   UNL     1      18.320 -43.482  25.380  1.00  0.00     0.191 C 
BRANCH  37  38
ATOM     38  O   UNL     1      19.137 -42.759  26.265  1.00  0.00    -0.394 OA
ATOM     39  H   UNL     1      20.022 -42.647  25.826  1.00  0.00     0.210 HD
ENDBRANCH  37  38
ENDBRANCH  31  37
BRANCH  32  40
ATOM     40  O   UNL     1      17.070 -40.918  24.769  1.00  0.00    -0.387 OA
ATOM     41  H   UNL     1      17.138 -39.972  25.063  1.00  0.00     0.211 HD
ENDBRANCH  32  40
ENDBRANCH   1  27
TORSDOF 12
ENDMDL
MODEL 7
REMARK VINA RESULT:    -7.083      2.188      6.774
REMARK INTER + INTRA:         -12.142
REMARK INTER:                 -10.387
REMARK INTRA:                  -1.756
REMARK UNBOUND:                -1.747
REMARK SMILES O=c1c(O[C@@H]2O[C@H](CO)[C@@H](O)[C@H](O)[C@@H]2O)c(-c2ccc(O)c(O)c2)oc2cc(O)cc(O)c12
REMARK SMILES IDX 4 1 3 2 16 3 25 4 2 5 26 6 1 7 33 8 27 9 31 10 28 11 30 12
REMARK SMILES IDX 17 13 18 14 19 15 20 16 24 17 22 18 21 19 23 21 32 23 29 25
REMARK SMILES IDX 5 27 14 28 6 29 12 30 7 31 10 32 15 33 13 35 8 37 9 38 11 40
REMARK H PARENT 21 20 23 22 32 24 29 26 15 34 13 36 9 39 11 41
REMARK Flexibility Score: inf
ROOT
ATOM      1  O   UNL     1      15.242 -42.369  28.738  1.00  0.00    -0.454 OA
ENDROOT
BRANCH   1   2
ATOM      2  C   UNL     1      16.321 -42.949  29.413  1.00  0.00     0.214 A 
ATOM      3  C   UNL     1      17.636 -42.713  28.980  1.00  0.00     0.180 A 
ATOM      4  O   UNL     1      18.656 -43.186  29.689  1.00  0.00    -0.452 OA
ATOM      5  C   UNL     1      16.107 -43.752  30.541  1.00  0.00     0.239 A 
ATOM      6  C   UNL     1      18.506 -43.928  30.780  1.00  0.00     0.146 A 
ATOM      7  O   UNL     1      14.924 -43.951  30.922  1.00  0.00    -0.285 OA
ATOM      8  C   UNL     1      17.212 -44.290  31.242  1.00  0.00     0.111 A 
ATOM      9  C   UNL     1      19.649 -44.344  31.466  1.00  0.00     0.094 A 
ATOM     10  C   UNL     1      17.114 -45.129  32.394  1.00  0.00     0.134 A 
ATOM     11  C   UNL     1      19.539 -45.114  32.620  1.00  0.00     0.123 A 
ATOM     12  C   UNL     1      18.277 -45.499  33.081  1.00  0.00     0.093 A 
BRANCH   3  13
ATOM     13  C   UNL     1      17.930 -41.922  27.765  1.00  0.00     0.025 A 
ATOM     14  C   UNL     1      18.314 -42.580  26.585  1.00  0.00     0.016 A 
ATOM     15  C   UNL     1      18.592 -41.850  25.426  1.00  0.00     0.051 A 
ATOM     16  C   UNL     1      18.476 -40.453  25.428  1.00  0.00     0.157 A 
ATOM     17  C   UNL     1      17.788 -40.523  27.755  1.00  0.00     0.062 A 
ATOM     18  C   UNL     1      18.067 -39.787  26.597  1.00  0.00     0.158 A 
BRANCH  16  19
ATOM     19  O   UNL     1      18.758 -39.726  24.272  1.00  0.00    -0.504 OA
ATOM     20  H   UNL     1      18.367 -39.983  23.374  1.00  0.00     0.293 HD
ENDBRANCH  16  19
BRANCH  18  21
ATOM     21  O   UNL     1      17.931 -38.400  26.627  1.00  0.00    -0.504 OA
ATOM     22  H   UNL     1      18.042 -37.869  27.481  1.00  0.00     0.293 HD
ENDBRANCH  18  21
ENDBRANCH   3  13
BRANCH  10  23
ATOM     23  O   UNL     1      15.909 -45.639  32.887  1.00  0.00    -0.507 OA
ATOM     24  H   UNL     1      15.703 -46.620  32.997  1.00  0.00     0.293 HD
ENDBRANCH  10  23
BRANCH  11  25
ATOM     25  O   UNL     1      20.693 -45.500  33.301  1.00  0.00    -0.508 OA
ATOM     26  H   UNL     1      20.675 -45.731  34.289  1.00  0.00     0.293 HD
ENDBRANCH  11  25
ENDBRANCH   1   2
BRANCH   1  27
ATOM     27  C   UNL     1      14.451 -43.101  27.800  1.00  0.00     0.339 C 
ATOM     28  C   UNL     1      12.955 -42.810  28.041  1.00  0.00     0.214 C 
ATOM     29  O   UNL     1      14.893 -42.815  26.475  1.00  0.00    -0.332 OA
ATOM     30  C   UNL     1      12.657 -41.319  27.797  1.00  0.00     0.180 C 
ATOM     31  C   UNL     1      14.098 -41.874  25.760  1.00  0.00     0.179 C 
ATOM     32  C   UNL     1      13.547 -40.740  26.667  1.00  0.00     0.177 C 
BRANCH  28  33
ATOM     33  O   UNL     1      12.581 -43.177  29.344  1.00  0.00    -0.384 OA
ATOM     34  H   UNL     1      12.728 -44.157  29.420  1.00  0.00     0.211 HD
ENDBRANCH  28  33
BRANCH  30  35
ATOM     35  O   UNL     1      12.863 -40.590  28.981  1.00  0.00    -0.387 OA
ATOM     36  H   UNL     1      12.456 -39.693  28.844  1.00  0.00     0.211 HD
ENDBRANCH  30  35
BRANCH  31  37
ATOM     37  C   UNL     1      14.960 -41.309  24.619  1.00  0.00     0.191 C 
BRANCH  37  38
ATOM     38  O   UNL     1      14.184 -41.113  23.464  1.00  0.00    -0.394 OA
ATOM     39  H   UNL     1      13.522 -41.853  23.423  1.00  0.00     0.210 HD
ENDBRANCH  37  38
ENDBRANCH  31  37
BRANCH  32  40
ATOM     40  O   UNL     1      12.799 -39.829  25.903  1.00  0.00    -0.387 OA
ATOM     41  H   UNL     1      12.479 -39.126  26.527  1.00  0.00     0.211 HD
ENDBRANCH  32  40
ENDBRANCH   1  27
TORSDOF 12
ENDMDL
MODEL 8
REMARK VINA RESULT:    -6.994      1.760      2.209
REMARK INTER + INTRA:         -12.012
REMARK INTER:                 -10.755
REMARK INTRA:                  -1.257
REMARK UNBOUND:                -1.747
REMARK SMILES O=c1c(O[C@@H]2O[C@H](CO)[C@@H](O)[C@H](O)[C@@H]2O)c(-c2ccc(O)c(O)c2)oc2cc(O)cc(O)c12
REMARK SMILES IDX 4 1 3 2 16 3 25 4 2 5 26 6 1 7 33 8 27 9 31 10 28 11 30 12
REMARK SMILES IDX 17 13 18 14 19 15 20 16 24 17 22 18 21 19 23 21 32 23 29 25
REMARK SMILES IDX 5 27 14 28 6 29 12 30 7 31 10 32 15 33 13 35 8 37 9 38 11 40
REMARK H PARENT 21 20 23 22 32 24 29 26 15 34 13 36 9 39 11 41
REMARK Flexibility Score: inf
ROOT
ATOM      1  O   UNL     1      16.056 -42.689  30.562  1.00  0.00    -0.454 OA
ENDROOT
BRANCH   1   2
ATOM      2  C   UNL     1      14.849 -42.088  30.189  1.00  0.00     0.214 A 
ATOM      3  C   UNL     1      14.852 -40.913  29.419  1.00  0.00     0.180 A 
ATOM      4  O   UNL     1      13.702 -40.409  28.985  1.00  0.00    -0.452 OA
ATOM      5  C   UNL     1      13.625 -42.661  30.555  1.00  0.00     0.239 A 
ATOM      6  C   UNL     1      12.517 -40.931  29.283  1.00  0.00     0.146 A 
ATOM      7  O   UNL     1      13.636 -43.718  31.239  1.00  0.00    -0.285 OA
ATOM      8  C   UNL     1      12.413 -42.069  30.127  1.00  0.00     0.111 A 
ATOM      9  C   UNL     1      11.373 -40.337  28.744  1.00  0.00     0.094 A 
ATOM     10  C   UNL     1      11.110 -42.558  30.449  1.00  0.00     0.134 A 
ATOM     11  C   UNL     1      10.112 -40.858  29.020  1.00  0.00     0.123 A 
ATOM     12  C   UNL     1       9.985 -41.964  29.864  1.00  0.00     0.093 A 
BRANCH   3  13
ATOM     13  C   UNL     1      16.107 -40.225  29.046  1.00  0.00     0.025 A 
ATOM     14  C   UNL     1      16.634 -39.235  29.891  1.00  0.00     0.016 A 
ATOM     15  C   UNL     1      17.821 -38.577  29.557  1.00  0.00     0.051 A 
ATOM     16  C   UNL     1      18.504 -38.909  28.379  1.00  0.00     0.157 A 
ATOM     17  C   UNL     1      16.810 -40.575  27.879  1.00  0.00     0.062 A 
ATOM     18  C   UNL     1      17.998 -39.917  27.539  1.00  0.00     0.158 A 
BRANCH  16  19
ATOM     19  O   UNL     1      19.685 -38.248  28.045  1.00  0.00    -0.504 OA
ATOM     20  H   UNL     1      20.368 -37.993  28.748  1.00  0.00     0.293 HD
ENDBRANCH  16  19
BRANCH  18  21
ATOM     21  O   UNL     1      18.661 -40.278  26.367  1.00  0.00    -0.504 OA
ATOM     22  H   UNL     1      19.625 -40.021  26.194  1.00  0.00     0.293 HD
ENDBRANCH  18  21
ENDBRANCH   3  13
BRANCH  10  23
ATOM     23  O   UNL     1      10.869 -43.601  31.347  1.00  0.00    -0.507 OA
ATOM     24  H   UNL     1       9.971 -43.815  31.752  1.00  0.00     0.293 HD
ENDBRANCH  10  23
BRANCH  11  25
ATOM     25  O   UNL     1       8.984 -40.262  28.454  1.00  0.00    -0.508 OA
ATOM     26  H   UNL     1       8.173 -40.022  29.014  1.00  0.00     0.293 HD
ENDBRANCH  11  25
ENDBRANCH   1   2
BRANCH   1  27
ATOM     27  C   UNL     1      16.861 -42.177  31.625  1.00  0.00     0.339 C 
ATOM     28  C   UNL     1      16.606 -42.992  32.910  1.00  0.00     0.214 C 
ATOM     29  O   UNL     1      18.227 -42.146  31.218  1.00  0.00    -0.332 OA
ATOM     30  C   UNL     1      17.032 -44.458  32.703  1.00  0.00     0.180 C 
ATOM     31  C   UNL     1      19.030 -43.219  31.701  1.00  0.00     0.179 C 
ATOM     32  C   UNL     1      18.258 -44.565  31.762  1.00  0.00     0.177 C 
BRANCH  28  33
ATOM     33  O   UNL     1      15.253 -42.923  33.282  1.00  0.00    -0.384 OA
ATOM     34  H   UNL     1      15.143 -43.515  34.072  1.00  0.00     0.211 HD
ENDBRANCH  28  33
BRANCH  30  35
ATOM     35  O   UNL     1      15.961 -45.197  32.170  1.00  0.00    -0.387 OA
ATOM     36  H   UNL     1      15.790 -45.951  32.794  1.00  0.00     0.211 HD
ENDBRANCH  30  35
BRANCH  31  37
ATOM     37  C   UNL     1      20.265 -43.321  30.792  1.00  0.00     0.191 C 
BRANCH  37  38
ATOM     38  O   UNL     1      20.394 -44.622  30.278  1.00  0.00    -0.394 OA
ATOM     39  H   UNL     1      19.549 -45.104  30.480  1.00  0.00     0.210 HD
ENDBRANCH  37  38
ENDBRANCH  31  37
BRANCH  32  40
ATOM     40  O   UNL     1      19.108 -45.589  32.215  1.00  0.00    -0.387 OA
ATOM     41  H   UNL     1      18.800 -46.429  31.783  1.00  0.00     0.211 HD
ENDBRANCH  32  40
ENDBRANCH   1  27
TORSDOF 12
ENDMDL
MODEL 9
REMARK VINA RESULT:    -6.909      2.312      7.162
REMARK INTER + INTRA:         -11.888
REMARK INTER:                 -10.304
REMARK INTRA:                  -1.584
REMARK UNBOUND:                -1.747
REMARK SMILES O=c1c(O[C@@H]2O[C@H](CO)[C@@H](O)[C@H](O)[C@@H]2O)c(-c2ccc(O)c(O)c2)oc2cc(O)cc(O)c12
REMARK SMILES IDX 4 1 3 2 16 3 25 4 2 5 26 6 1 7 33 8 27 9 31 10 28 11 30 12
REMARK SMILES IDX 17 13 18 14 19 15 20 16 24 17 22 18 21 19 23 21 32 23 29 25
REMARK SMILES IDX 5 27 14 28 6 29 12 30 7 31 10 32 15 33 13 35 8 37 9 38 11 40
REMARK H PARENT 21 20 23 22 32 24 29 26 15 34 13 36 9 39 11 41
REMARK Flexibility Score: inf
ROOT
ATOM      1  O   UNL     1      15.368 -41.676  29.826  1.00  0.00    -0.454 OA
ENDROOT
BRANCH   1   2
ATOM      2  C   UNL     1      15.989 -42.640  30.626  1.00  0.00     0.214 A 
ATOM      3  C   UNL     1      15.341 -43.856  30.903  1.00  0.00     0.180 A 
ATOM      4  O   UNL     1      15.981 -44.803  31.579  1.00  0.00    -0.452 OA
ATOM      5  C   UNL     1      17.272 -42.418  31.142  1.00  0.00     0.239 A 
ATOM      6  C   UNL     1      17.209 -44.651  32.065  1.00  0.00     0.146 A 
ATOM      7  O   UNL     1      17.845 -41.329  30.881  1.00  0.00    -0.285 OA
ATOM      8  C   UNL     1      17.908 -43.425  31.909  1.00  0.00     0.111 A 
ATOM      9  C   UNL     1      17.799 -45.727  32.732  1.00  0.00     0.094 A 
ATOM     10  C   UNL     1      19.206 -43.304  32.492  1.00  0.00     0.134 A 
ATOM     11  C   UNL     1      19.087 -45.616  33.247  1.00  0.00     0.123 A 
ATOM     12  C   UNL     1      19.785 -44.412  33.123  1.00  0.00     0.093 A 
BRANCH   3  13
ATOM     13  C   UNL     1      13.964 -44.132  30.438  1.00  0.00     0.025 A 
ATOM     14  C   UNL     1      13.749 -45.092  29.437  1.00  0.00     0.016 A 
ATOM     15  C   UNL     1      12.455 -45.369  28.988  1.00  0.00     0.051 A 
ATOM     16  C   UNL     1      11.356 -44.699  29.544  1.00  0.00     0.157 A 
ATOM     17  C   UNL     1      12.857 -43.482  31.013  1.00  0.00     0.062 A 
ATOM     18  C   UNL     1      11.559 -43.754  30.565  1.00  0.00     0.158 A 
BRANCH  16  19
ATOM     19  O   UNL     1      10.067 -44.973  29.092  1.00  0.00    -0.504 OA
ATOM     20  H   UNL     1       9.370 -45.395  29.694  1.00  0.00     0.293 HD
ENDBRANCH  16  19
BRANCH  18  21
ATOM     21  O   UNL     1      10.487 -43.080  31.147  1.00  0.00    -0.504 OA
ATOM     22  H   UNL     1      10.330 -43.083  32.147  1.00  0.00     0.293 HD
ENDBRANCH  18  21
ENDBRANCH   3  13
BRANCH  10  23
ATOM     23  O   UNL     1      19.951 -42.122  32.499  1.00  0.00    -0.507 OA
ATOM     24  H   UNL     1      20.312 -41.665  31.676  1.00  0.00     0.293 HD
ENDBRANCH  10  23
BRANCH  11  25
ATOM     25  O   UNL     1      19.666 -46.710  33.891  1.00  0.00    -0.508 OA
ATOM     26  H   UNL     1      19.454 -47.663  33.614  1.00  0.00     0.293 HD
ENDBRANCH  11  25
ENDBRANCH   1   2
BRANCH   1  27
ATOM     27  C   UNL     1      15.187 -41.859  28.420  1.00  0.00     0.339 C 
ATOM     28  C   UNL     1      14.912 -40.498  27.749  1.00  0.00     0.214 C 
ATOM     29  O   UNL     1      16.307 -42.557  27.881  1.00  0.00    -0.332 OA
ATOM     30  C   UNL     1      16.127 -39.566  27.918  1.00  0.00     0.180 C 
ATOM     31  C   UNL     1      17.269 -41.743  27.217  1.00  0.00     0.179 C 
ATOM     32  C   UNL     1      17.458 -40.360  27.899  1.00  0.00     0.177 C 
BRANCH  28  33
ATOM     33  O   UNL     1      13.759 -39.902  28.288  1.00  0.00    -0.384 OA
ATOM     34  H   UNL     1      13.604 -40.324  29.173  1.00  0.00     0.211 HD
ENDBRANCH  28  33
BRANCH  30  35
ATOM     35  O   UNL     1      16.019 -38.853  29.125  1.00  0.00    -0.387 OA
ATOM     36  H   UNL     1      15.229 -39.217  29.607  1.00  0.00     0.211 HD
ENDBRANCH  30  35
BRANCH  31  37
ATOM     37  C   UNL     1      18.589 -42.529  27.167  1.00  0.00     0.191 C 
BRANCH  37  38
ATOM     38  O   UNL     1      19.270 -42.429  28.392  1.00  0.00    -0.394 OA
ATOM     39  H   UNL     1      18.711 -42.880  29.078  1.00  0.00     0.210 HD
ENDBRANCH  37  38
ENDBRANCH  31  37
BRANCH  32  40
ATOM     40  O   UNL     1      18.437 -39.616  27.220  1.00  0.00    -0.387 OA
ATOM     41  H   UNL     1      18.325 -38.670  27.502  1.00  0.00     0.211 HD
ENDBRANCH  32  40
ENDBRANCH   1  27
TORSDOF 12
ENDMDL
