MODEL 1
REMARK VINA RESULT:    -3.963      0.000      0.000
REMARK INTER + INTRA:          -5.642
REMARK INTER:                  -5.584
REMARK INTRA:                  -0.058
REMARK UNBOUND:                -0.058
REMARK SMILES CC1=CCC(=C(C)C)C(=O)CC(C)=CCC1
REMARK SMILES IDX 12 1 14 2 13 3 15 4 16 5 2 6 1 7 3 8 11 10 9 11 10 12 5 13
REMARK SMILES IDX 6 14 7 15 8 16 4 17
REMARK H PARENT
REMARK Flexibility Score: 60.00
ROOT
ATOM      1  C   UNL     1      -6.267  37.284  -2.809  1.00  0.00    -0.070 C 
ATOM      2  C   UNL     1      -7.148  37.484  -3.816  1.00  0.00    -0.027 C 
ATOM      3  C   UNL     1      -4.913  36.717  -3.152  1.00  0.00     0.039 C 
ENDROOT
BRANCH   2   4
ATOM      4  C   UNL     1      -8.480  38.173  -3.673  1.00  0.00     0.032 C 
BRANCH   4   5
ATOM      5  C   UNL     1      -9.614  37.158  -3.863  1.00  0.00     0.034 C 
BRANCH   5   6
ATOM      6  C   UNL     1     -10.655  37.240  -2.765  1.00  0.00    -0.077 C 
ATOM      7  C   UNL     1     -11.851  38.136  -2.968  1.00  0.00     0.039 C 
ATOM      8  C   UNL     1     -10.537  36.607  -1.571  1.00  0.00    -0.023 CG0
ATOM      9  G   UNL     1      -9.466  35.615  -1.154  1.00  0.00     0.000 G0
ENDBRANCH   5   6
ENDBRANCH   4   5
ENDBRANCH   2   4
BRANCH   1  10
ATOM     10  C   UNL     1      -6.579  37.580  -1.356  1.00  0.00     0.111 C 
BRANCH  10  11
ATOM     11  C   UNL     1      -7.022  36.343  -0.612  1.00  0.00     0.163 C 
ATOM     12  O   UNL     1      -6.154  35.451  -0.415  1.00  0.00    -0.294 OA
BRANCH  11  13
ATOM     13  C   UNL     1      -8.425  36.119  -0.125  1.00  0.00    -0.002 C 
ATOM     14  C   UNL     1      -8.720  36.206   1.209  1.00  0.00    -0.069 C 
ATOM     15  C   UNL     1     -10.054  35.764   1.765  1.00  0.00     0.039 C 
ATOM     16  C   UNL     1      -7.742  36.802   2.196  1.00  0.00     0.039 C 
BRANCH  13  17
ATOM     17  C   UNL     1      -9.455  35.615  -1.130  1.00  0.00     0.066 CG0
ATOM     18  G   UNL     1     -10.528  36.603  -1.551  1.00  0.00     0.000 G0
ENDBRANCH  13  17
ENDBRANCH  11  13
ENDBRANCH  10  11
ENDBRANCH   1  10
TORSDOF 0
ENDMDL
MODEL 2
REMARK VINA RESULT:    -3.590      2.049      4.572
REMARK INTER + INTRA:          -5.117
REMARK INTER:                  -5.213
REMARK INTRA:                   0.096
REMARK UNBOUND:                -0.058
REMARK SMILES CC1=CCC(=C(C)C)C(=O)CC(C)=CCC1
REMARK SMILES IDX 12 1 14 2 13 3 15 4 16 5 2 6 1 7 3 8 11 10 9 11 10 12 5 13
REMARK SMILES IDX 6 14 7 15 8 16 4 17
REMARK H PARENT
REMARK Flexibility Score: 60.00
ROOT
ATOM      1  C   UNL     1      -8.857  35.736   0.446  1.00  0.00    -0.070 C 
ATOM      2  C   UNL     1      -7.554  35.766   0.810  1.00  0.00    -0.027 C 
ATOM      3  C   UNL     1      -9.887  36.151   1.465  1.00  0.00     0.039 C 
ENDROOT
BRANCH   2   4
ATOM      4  C   UNL     1      -6.393  35.526  -0.120  1.00  0.00     0.032 C 
BRANCH   4   5
ATOM      5  C   UNL     1      -5.777  36.866  -0.541  1.00  0.00     0.034 C 
BRANCH   5   6
ATOM      6  C   UNL     1      -6.136  37.247  -1.963  1.00  0.00    -0.077 C 
ATOM      7  C   UNL     1      -5.242  36.778  -3.084  1.00  0.00     0.039 C 
ATOM      8  C   UNL     1      -7.180  38.051  -2.284  1.00  0.00    -0.023 CG0
ATOM      9  G   UNL     1      -8.246  38.596  -1.350  1.00  0.00     0.000 G0
ENDBRANCH   5   6
ENDBRANCH   4   5
ENDBRANCH   2   4
BRANCH   1  10
ATOM     10  C   UNL     1      -9.332  35.286  -0.921  1.00  0.00     0.111 C 
BRANCH  10  11
ATOM     11  C   UNL     1      -9.633  36.458  -1.825  1.00  0.00     0.163 C 
ATOM     12  O   UNL     1      -9.902  36.199  -3.029  1.00  0.00    -0.294 OA
BRANCH  11  13
ATOM     13  C   UNL     1      -9.607  37.890  -1.373  1.00  0.00    -0.002 C 
ATOM     14  C   UNL     1     -10.773  38.565  -1.136  1.00  0.00    -0.069 C 
ATOM     15  C   UNL     1     -10.802  40.059  -0.907  1.00  0.00     0.039 C 
ATOM     16  C   UNL     1     -12.098  37.843  -1.036  1.00  0.00     0.039 C 
BRANCH  13  17
ATOM     17  C   UNL     1      -8.263  38.610  -1.368  1.00  0.00     0.066 CG0
ATOM     18  G   UNL     1      -7.190  38.044  -2.281  1.00  0.00     0.000 G0
ENDBRANCH  13  17
ENDBRANCH  11  13
ENDBRANCH  10  11
ENDBRANCH   1  10
TORSDOF 0
ENDMDL
MODEL 3
REMARK VINA RESULT:    -3.573      2.109      4.854
REMARK INTER + INTRA:          -5.093
REMARK INTER:                  -5.206
REMARK INTRA:                   0.112
REMARK UNBOUND:                -0.058
REMARK SMILES CC1=CCC(=C(C)C)C(=O)CC(C)=CCC1
REMARK SMILES IDX 12 1 14 2 13 3 15 4 16 5 2 6 1 7 3 8 11 10 9 11 10 12 5 13
REMARK SMILES IDX 6 14 7 15 8 16 4 17
REMARK H PARENT
REMARK Flexibility Score: 60.00
ROOT
ATOM      1  C   UNL     1      -9.157  35.526  -0.405  1.00  0.00    -0.070 C 
ATOM      2  C   UNL     1      -7.808  35.482  -0.499  1.00  0.00    -0.027 C 
ATOM      3  C   UNL     1      -9.893  34.238  -0.138  1.00  0.00     0.039 C 
ENDROOT
BRANCH   2   4
ATOM      4  C   UNL     1      -6.912  36.687  -0.616  1.00  0.00     0.032 C 
BRANCH   4   5
ATOM      5  C   UNL     1      -6.434  36.841  -2.065  1.00  0.00     0.034 C 
BRANCH   5   6
ATOM      6  C   UNL     1      -6.768  38.200  -2.644  1.00  0.00    -0.077 C 
ATOM      7  C   UNL     1      -5.810  39.342  -2.410  1.00  0.00     0.039 C 
ATOM      8  C   UNL     1      -7.922  38.472  -3.304  1.00  0.00    -0.023 CG0
ATOM      9  G   UNL     1      -9.006  37.490  -3.710  1.00  0.00     0.000 G0
ENDBRANCH   5   6
ENDBRANCH   4   5
ENDBRANCH   2   4
BRANCH   1  10
ATOM     10  C   UNL     1      -9.965  36.797  -0.577  1.00  0.00     0.111 C 
BRANCH  10  11
ATOM     11  C   UNL     1     -10.723  36.810  -1.883  1.00  0.00     0.163 C 
ATOM     12  O   UNL     1     -11.683  36.001  -1.996  1.00  0.00    -0.294 OA
BRANCH  11  13
ATOM     13  C   UNL     1     -10.382  37.707  -3.038  1.00  0.00    -0.002 C 
ATOM     14  C   UNL     1     -11.319  38.556  -3.561  1.00  0.00    -0.069 C 
ATOM     15  C   UNL     1     -11.094  39.299  -4.857  1.00  0.00     0.039 C 
ATOM     16  C   UNL     1     -12.618  38.837  -2.839  1.00  0.00     0.039 C 
BRANCH  13  17
ATOM     17  C   UNL     1      -9.030  37.509  -3.717  1.00  0.00     0.066 CG0
ATOM     18  G   UNL     1      -7.924  38.467  -3.314  1.00  0.00     0.000 G0
ENDBRANCH  13  17
ENDBRANCH  11  13
ENDBRANCH  10  11
ENDBRANCH   1  10
TORSDOF 0
ENDMDL
MODEL 4
REMARK VINA RESULT:    -3.525      3.002      5.398
REMARK INTER + INTRA:          -5.025
REMARK INTER:                  -5.255
REMARK INTRA:                   0.230
REMARK UNBOUND:                -0.058
REMARK SMILES CC1=CCC(=C(C)C)C(=O)CC(C)=CCC1
REMARK SMILES IDX 12 1 14 2 13 3 15 4 16 5 2 6 1 7 3 8 11 10 9 11 10 12 5 13
REMARK SMILES IDX 6 14 7 15 8 16 4 17
REMARK H PARENT
REMARK Flexibility Score: 60.00
ROOT
ATOM      1  C   UNL     1     -10.884  38.447  -4.739  1.00  0.00    -0.070 C 
ATOM      2  C   UNL     1      -9.769  38.345  -3.980  1.00  0.00    -0.027 C 
ATOM      3  C   UNL     1     -11.201  39.784  -5.359  1.00  0.00     0.039 C 
ENDROOT
BRANCH   2   4
ATOM      4  C   UNL     1      -9.228  37.060  -3.410  1.00  0.00     0.032 C 
BRANCH   4   5
ATOM      5  C   UNL     1      -9.226  37.130  -1.878  1.00  0.00     0.034 C 
BRANCH   5   6
ATOM      6  C   UNL     1     -10.305  36.267  -1.257  1.00  0.00    -0.077 C 
ATOM      7  C   UNL     1      -9.948  34.869  -0.816  1.00  0.00     0.039 C 
ATOM      8  C   UNL     1     -11.601  36.653  -1.141  1.00  0.00    -0.023 CG0
ATOM      9  G   UNL     1     -12.189  38.016  -1.457  1.00  0.00     0.000 G0
ENDBRANCH   5   6
ENDBRANCH   4   5
ENDBRANCH   2   4
BRANCH   1  10
ATOM     10  C   UNL     1     -11.839  37.295  -4.979  1.00  0.00     0.111 C 
BRANCH  10  11
ATOM     11  C   UNL     1     -12.775  37.087  -3.813  1.00  0.00     0.163 C 
ATOM     12  O   UNL     1     -13.393  35.990  -3.761  1.00  0.00    -0.294 OA
BRANCH  11  13
ATOM     13  C   UNL     1     -13.017  38.114  -2.744  1.00  0.00    -0.002 C 
ATOM     14  C   UNL     1     -13.823  39.193  -2.985  1.00  0.00    -0.069 C 
ATOM     15  C   UNL     1     -13.910  40.360  -2.028  1.00  0.00     0.039 C 
ATOM     16  C   UNL     1     -14.716  39.254  -4.204  1.00  0.00     0.039 C 
BRANCH  13  17
ATOM     17  C   UNL     1     -12.200  38.011  -1.460  1.00  0.00     0.066 CG0
ATOM     18  G   UNL     1     -11.606  36.650  -1.145  1.00  0.00     0.000 G0
ENDBRANCH  13  17
ENDBRANCH  11  13
ENDBRANCH  10  11
ENDBRANCH   1  10
TORSDOF 0
ENDMDL
MODEL 5
REMARK VINA RESULT:    -3.521      7.351     10.159
REMARK INTER + INTRA:          -5.019
REMARK INTER:                  -5.007
REMARK INTRA:                  -0.012
REMARK UNBOUND:                -0.058
REMARK SMILES CC1=CCC(=C(C)C)C(=O)CC(C)=CCC1
REMARK SMILES IDX 12 1 14 2 13 3 15 4 16 5 2 6 1 7 3 8 11 10 9 11 10 12 5 13
REMARK SMILES IDX 6 14 7 15 8 16 4 17
REMARK H PARENT
REMARK Flexibility Score: 60.00
ROOT
ATOM      1  C   UNL     1      -4.670  33.235   5.474  1.00  0.00    -0.070 C 
ATOM      2  C   UNL     1      -4.701  33.247   6.827  1.00  0.00    -0.027 C 
ATOM      3  C   UNL     1      -4.587  31.900   4.779  1.00  0.00     0.039 C 
ENDROOT
BRANCH   2   4
ATOM      4  C   UNL     1      -4.928  34.473   7.674  1.00  0.00     0.032 C 
BRANCH   4   5
ATOM      5  C   UNL     1      -3.614  34.893   8.344  1.00  0.00     0.034 C 
BRANCH   5   6
ATOM      6  C   UNL     1      -3.475  36.398   8.455  1.00  0.00    -0.077 C 
ATOM      7  C   UNL     1      -4.087  37.094   9.645  1.00  0.00     0.039 C 
ATOM      8  C   UNL     1      -2.893  37.170   7.503  1.00  0.00    -0.023 CG0
ATOM      9  G   UNL     1      -2.163  36.704   6.256  1.00  0.00     0.000 G0
ENDBRANCH   5   6
ENDBRANCH   4   5
ENDBRANCH   2   4
BRANCH   1  10
ATOM     10  C   UNL     1      -4.692  34.492   4.628  1.00  0.00     0.111 C 
BRANCH  10  11
ATOM     11  C   UNL     1      -3.328  35.131   4.533  1.00  0.00     0.163 C 
ATOM     12  O   UNL     1      -2.397  34.428   4.054  1.00  0.00    -0.294 OA
BRANCH  11  13
ATOM     13  C   UNL     1      -3.026  36.528   4.993  1.00  0.00    -0.002 C 
ATOM     14  C   UNL     1      -3.375  37.605   4.224  1.00  0.00    -0.069 C 
ATOM     15  C   UNL     1      -2.889  39.003   4.533  1.00  0.00     0.039 C 
ATOM     16  C   UNL     1      -4.312  37.463   3.046  1.00  0.00     0.039 C 
BRANCH  13  17
ATOM     17  C   UNL     1      -2.165  36.696   6.241  1.00  0.00     0.066 CG0
ATOM     18  G   UNL     1      -2.880  37.162   7.497  1.00  0.00     0.000 G0
ENDBRANCH  13  17
ENDBRANCH  11  13
ENDBRANCH  10  11
ENDBRANCH   1  10
TORSDOF 0
ENDMDL
MODEL 6
REMARK VINA RESULT:    -3.411      1.828      3.944
REMARK INTER + INTRA:          -4.865
REMARK INTER:                  -4.979
REMARK INTRA:                   0.114
REMARK UNBOUND:                -0.058
REMARK SMILES CC1=CCC(=C(C)C)C(=O)CC(C)=CCC1
REMARK SMILES IDX 12 1 14 2 13 3 15 4 16 5 2 6 1 7 3 8 11 10 9 11 10 12 5 13
REMARK SMILES IDX 6 14 7 15 8 16 4 17
REMARK H PARENT
REMARK Flexibility Score: 60.00
ROOT
ATOM      1  C   UNL     1      -9.186  37.566  -2.967  1.00  0.00    -0.070 C 
ATOM      2  C   UNL     1     -10.128  36.745  -2.447  1.00  0.00    -0.027 C 
ATOM      3  C   UNL     1      -9.062  37.642  -4.468  1.00  0.00     0.039 C 
ENDROOT
BRANCH   2   4
ATOM      4  C   UNL     1     -10.484  36.657  -0.985  1.00  0.00     0.032 C 
BRANCH   4   5
ATOM      5  C   UNL     1      -9.835  35.414  -0.365  1.00  0.00     0.034 C 
BRANCH   5   6
ATOM      6  C   UNL     1      -8.986  35.746   0.845  1.00  0.00    -0.077 C 
ATOM      7  C   UNL     1      -9.659  35.869   2.189  1.00  0.00     0.039 C 
ATOM      8  C   UNL     1      -7.657  36.013   0.779  1.00  0.00    -0.023 CG0
ATOM      9  G   UNL     1      -6.753  35.900  -0.436  1.00  0.00     0.000 G0
ENDBRANCH   5   6
ENDBRANCH   4   5
ENDBRANCH   2   4
BRANCH   1  10
ATOM     10  C   UNL     1      -8.239  38.392  -2.120  1.00  0.00     0.111 C 
BRANCH  10  11
ATOM     11  C   UNL     1      -6.832  37.843  -2.151  1.00  0.00     0.163 C 
ATOM     12  O   UNL     1      -6.212  37.916  -3.246  1.00  0.00    -0.294 OA
BRANCH  11  13
ATOM     13  C   UNL     1      -6.158  37.207  -0.969  1.00  0.00    -0.002 C 
ATOM     14  C   UNL     1      -4.971  37.699  -0.498  1.00  0.00    -0.069 C 
ATOM     15  C   UNL     1      -4.147  36.958   0.531  1.00  0.00     0.039 C 
ATOM     16  C   UNL     1      -4.441  39.043  -0.944  1.00  0.00     0.039 C 
BRANCH  13  17
ATOM     17  C   UNL     1      -6.738  35.901  -0.437  1.00  0.00     0.066 CG0
ATOM     18  G   UNL     1      -7.638  36.008   0.781  1.00  0.00     0.000 G0
ENDBRANCH  13  17
ENDBRANCH  11  13
ENDBRANCH  10  11
ENDBRANCH   1  10
TORSDOF 0
ENDMDL
MODEL 7
REMARK VINA RESULT:    -3.356      1.913      4.047
REMARK INTER + INTRA:          -4.786
REMARK INTER:                  -5.009
REMARK INTRA:                   0.223
REMARK UNBOUND:                -0.058
REMARK SMILES CC1=CCC(=C(C)C)C(=O)CC(C)=CCC1
REMARK SMILES IDX 12 1 14 2 13 3 15 4 16 5 2 6 1 7 3 8 11 10 9 11 10 12 5 13
REMARK SMILES IDX 6 14 7 15 8 16 4 17
REMARK H PARENT
REMARK Flexibility Score: 60.00
ROOT
ATOM      1  C   UNL     1      -7.365  38.152  -2.443  1.00  0.00    -0.070 C 
ATOM      2  C   UNL     1      -7.107  37.463  -1.307  1.00  0.00    -0.027 C 
ATOM      3  C   UNL     1      -7.001  39.614  -2.485  1.00  0.00     0.039 C 
ENDROOT
BRANCH   2   4
ATOM      4  C   UNL     1      -7.271  35.974  -1.144  1.00  0.00     0.032 C 
BRANCH   4   5
ATOM      5  C   UNL     1      -8.247  35.680   0.002  1.00  0.00     0.034 C 
BRANCH   5   6
ATOM      6  C   UNL     1      -9.593  35.195  -0.494  1.00  0.00    -0.077 C 
ATOM      7  C   UNL     1      -9.874  33.713  -0.491  1.00  0.00     0.039 C 
ATOM      8  C   UNL     1     -10.542  36.015  -1.013  1.00  0.00    -0.023 CG0
ATOM      9  G   UNL     1     -10.519  37.532  -1.071  1.00  0.00     0.000 G0
ENDBRANCH   5   6
ENDBRANCH   4   5
ENDBRANCH   2   4
BRANCH   1  10
ATOM     10  C   UNL     1      -8.020  37.534  -3.663  1.00  0.00     0.111 C 
BRANCH  10  11
ATOM     11  C   UNL     1      -9.509  37.364  -3.476  1.00  0.00     0.163 C 
ATOM     12  O   UNL     1     -10.088  36.529  -4.222  1.00  0.00    -0.294 OA
BRANCH  11  13
ATOM     13  C   UNL     1     -10.321  38.142  -2.481  1.00  0.00    -0.002 C 
ATOM     14  C   UNL     1     -10.724  39.420  -2.758  1.00  0.00    -0.069 C 
ATOM     15  C   UNL     1     -11.336  40.314  -1.705  1.00  0.00     0.039 C 
ATOM     16  C   UNL     1     -10.627  39.992  -4.154  1.00  0.00     0.039 C 
BRANCH  13  17
ATOM     17  C   UNL     1     -10.519  37.535  -1.095  1.00  0.00     0.066 CG0
ATOM     18  G   UNL     1     -10.531  36.019  -1.017  1.00  0.00     0.000 G0
ENDBRANCH  13  17
ENDBRANCH  11  13
ENDBRANCH  10  11
ENDBRANCH   1  10
TORSDOF 0
ENDMDL
MODEL 8
REMARK VINA RESULT:    -3.347      2.084      3.981
REMARK INTER + INTRA:          -4.775
REMARK INTER:                  -4.797
REMARK INTRA:                   0.022
REMARK UNBOUND:                -0.058
REMARK SMILES CC1=CCC(=C(C)C)C(=O)CC(C)=CCC1
REMARK SMILES IDX 12 1 14 2 13 3 15 4 16 5 2 6 1 7 3 8 11 10 9 11 10 12 5 13
REMARK SMILES IDX 6 14 7 15 8 16 4 17
REMARK H PARENT
REMARK Flexibility Score: 60.00
ROOT
ATOM      1  C   UNL     1      -9.734  37.540  -4.255  1.00  0.00    -0.070 C 
ATOM      2  C   UNL     1      -8.484  37.980  -4.530  1.00  0.00    -0.027 C 
ATOM      3  C   UNL     1     -10.865  38.028  -5.124  1.00  0.00     0.039 C 
ENDROOT
BRANCH   2   4
ATOM      4  C   UNL     1      -7.229  37.483  -3.861  1.00  0.00     0.032 C 
BRANCH   4   5
ATOM      5  C   UNL     1      -6.599  38.611  -3.034  1.00  0.00     0.034 C 
BRANCH   5   6
ATOM      6  C   UNL     1      -6.010  38.113  -1.730  1.00  0.00    -0.077 C 
ATOM      7  C   UNL     1      -4.548  37.742  -1.692  1.00  0.00     0.039 C 
ATOM      8  C   UNL     1      -6.740  37.911  -0.605  1.00  0.00    -0.023 CG0
ATOM      9  G   UNL     1      -8.201  38.258  -0.378  1.00  0.00     0.000 G0
ENDBRANCH   5   6
ENDBRANCH   4   5
ENDBRANCH   2   4
BRANCH   1  10
ATOM     10  C   UNL     1     -10.056  36.601  -3.110  1.00  0.00     0.111 C 
BRANCH  10  11
ATOM     11  C   UNL     1     -10.161  37.334  -1.794  1.00  0.00     0.163 C 
ATOM     12  O   UNL     1     -11.097  38.170  -1.676  1.00  0.00    -0.294 OA
BRANCH  11  13
ATOM     13  C   UNL     1      -9.210  37.135  -0.649  1.00  0.00    -0.002 C 
ATOM     14  C   UNL     1      -9.359  36.075   0.204  1.00  0.00    -0.069 C 
ATOM     15  C   UNL     1      -8.576  35.965   1.492  1.00  0.00     0.039 C 
ATOM     16  C   UNL     1     -10.282  34.923  -0.124  1.00  0.00     0.039 C 
BRANCH  13  17
ATOM     17  C   UNL     1      -8.200  38.241  -0.363  1.00  0.00     0.066 CG0
ATOM     18  G   UNL     1      -6.739  37.900  -0.597  1.00  0.00     0.000 G0
ENDBRANCH  13  17
ENDBRANCH  11  13
ENDBRANCH  10  11
ENDBRANCH   1  10
TORSDOF 0
ENDMDL
MODEL 9
REMARK VINA RESULT:    -3.282      2.140      4.854
REMARK INTER + INTRA:          -4.682
REMARK INTER:                  -4.594
REMARK INTRA:                  -0.088
REMARK UNBOUND:                -0.058
REMARK SMILES CC1=CCC(=C(C)C)C(=O)CC(C)=CCC1
REMARK SMILES IDX 12 1 14 2 13 3 15 4 16 5 2 6 1 7 3 8 11 10 9 11 10 12 5 13
REMARK SMILES IDX 6 14 7 15 8 16 4 17
REMARK H PARENT
REMARK Flexibility Score: 60.00
ROOT
ATOM      1  C   UNL     1     -10.530  37.454  -2.528  1.00  0.00    -0.070 C 
ATOM      2  C   UNL     1     -10.641  36.464  -1.612  1.00  0.00    -0.027 C 
ATOM      3  C   UNL     1     -11.394  37.379  -3.762  1.00  0.00     0.039 C 
ENDROOT
BRANCH   2   4
ATOM      4  C   UNL     1      -9.967  36.456  -0.265  1.00  0.00     0.032 C 
BRANCH   4   5
ATOM      5  C   UNL     1      -8.786  35.478  -0.280  1.00  0.00     0.034 C 
BRANCH   5   6
ATOM      6  C   UNL     1      -7.546  36.058   0.369  1.00  0.00    -0.077 C 
ATOM      7  C   UNL     1      -7.398  35.957   1.867  1.00  0.00     0.039 C 
ATOM      8  C   UNL     1      -6.587  36.733  -0.314  1.00  0.00    -0.023 CG0
ATOM      9  G   UNL     1      -6.482  36.916  -1.818  1.00  0.00     0.000 G0
ENDBRANCH   5   6
ENDBRANCH   4   5
ENDBRANCH   2   4
BRANCH   1  10
ATOM     10  C   UNL     1      -9.570  38.618  -2.388  1.00  0.00     0.111 C 
BRANCH  10  11
ATOM     11  C   UNL     1      -8.253  38.347  -3.075  1.00  0.00     0.163 C 
ATOM     12  O   UNL     1      -8.285  38.153  -4.320  1.00  0.00    -0.294 OA
BRANCH  11  13
ATOM     13  C   UNL     1      -6.935  38.277  -2.358  1.00  0.00    -0.002 C 
ATOM     14  C   UNL     1      -6.097  39.358  -2.336  1.00  0.00    -0.069 C 
ATOM     15  C   UNL     1      -4.675  39.260  -1.832  1.00  0.00     0.039 C 
ATOM     16  C   UNL     1      -6.566  40.729  -2.769  1.00  0.00     0.039 C 
BRANCH  13  17
ATOM     17  C   UNL     1      -6.489  36.920  -1.822  1.00  0.00     0.066 CG0
ATOM     18  G   UNL     1      -6.584  36.723  -0.320  1.00  0.00     0.000 G0
ENDBRANCH  13  17
ENDBRANCH  11  13
ENDBRANCH  10  11
ENDBRANCH   1  10
TORSDOF 0
ENDMDL
