MODEL 1
REMARK VINA RESULT:    -2.108      0.000      0.000
REMARK INTER + INTRA:          -3.022
REMARK INTER:                  -2.848
REMARK INTRA:                  -0.174
REMARK UNBOUND:                -0.174
REMARK SMILES COc1ccc(-c2cc(=O)c3c(OC)c(OC)c(OC)c(OC)c3o2)cc1
REMARK SMILES IDX 7 1 8 2 9 3 10 4 11 5 24 6 25 7 21 8 18 9 15 10 12 11 6 12
REMARK SMILES IDX 3 13 4 14 27 15 5 16 26 17 2 18 1 19 22 20 23 21 13 22 14 23
REMARK SMILES IDX 19 24 20 25 16 26 17 27
REMARK H PARENT
REMARK Flexibility Score: inf
ROOT
ATOM      1  C   UNL     1      47.917 -27.296  -5.045  1.00  0.00     0.138 A 
ATOM      2  C   UNL     1      46.620 -26.803  -4.886  1.00  0.00     0.100 A 
ATOM      3  C   UNL     1      46.255 -26.228  -3.673  1.00  0.00     0.197 A 
ATOM      4  O   UNL     1      45.079 -25.792  -3.549  1.00  0.00    -0.289 OA
ATOM      5  C   UNL     1      47.198 -26.147  -2.617  1.00  0.00     0.115 A 
ATOM      6  C   UNL     1      48.489 -26.673  -2.852  1.00  0.00     0.188 A 
ATOM      7  O   UNL     1      48.776 -27.216  -4.033  1.00  0.00    -0.452 OA
ATOM      8  C   UNL     1      49.482 -26.614  -1.846  1.00  0.00     0.209 A 
ATOM      9  C   UNL     1      49.183 -25.996  -0.605  1.00  0.00     0.211 A 
ATOM     10  C   UNL     1      47.876 -25.500  -0.353  1.00  0.00     0.208 A 
ATOM     11  C   UNL     1      46.883 -25.571  -1.364  1.00  0.00     0.179 A 
ENDROOT
BRANCH   1  12
ATOM     12  C   UNL     1      48.357 -27.918  -6.318  1.00  0.00     0.018 A 
ATOM     13  C   UNL     1      49.204 -29.057  -8.758  1.00  0.00     0.118 A 
ATOM     14  C   UNL     1      49.766 -27.862  -8.300  1.00  0.00     0.047 A 
ATOM     15  C   UNL     1      48.206 -29.684  -7.990  1.00  0.00     0.047 A 
ATOM     16  C   UNL     1      49.346 -27.294  -7.094  1.00  0.00     0.016 A 
ATOM     17  C   UNL     1      47.786 -29.118  -6.782  1.00  0.00     0.016 A 
BRANCH  13  18
ATOM     18  O   UNL     1      49.660 -29.585  -9.976  1.00  0.00    -0.497 OA
ATOM     19  C   UNL     1      50.513 -28.895 -10.882  1.00  0.00     0.278 C 
ENDBRANCH  13  18
ENDBRANCH   1  12
BRANCH   8  20
ATOM     20  O   UNL     1      50.770 -27.150  -2.032  1.00  0.00    -0.490 OA
ATOM     21  C   UNL     1      51.114 -28.512  -2.265  1.00  0.00     0.278 C 
ENDBRANCH   8  20
BRANCH  11  22
ATOM     22  O   UNL     1      45.570 -25.085  -1.177  1.00  0.00    -0.492 OA
ATOM     23  C   UNL     1      44.514 -25.676  -0.426  1.00  0.00     0.278 C 
ENDBRANCH  11  22
BRANCH   9  24
ATOM     24  O   UNL     1      50.151 -25.853   0.411  1.00  0.00    -0.490 OA
ATOM     25  C   UNL     1      50.751 -24.651   0.884  1.00  0.00     0.279 C 
ENDBRANCH   9  24
BRANCH  10  26
ATOM     26  O   UNL     1      47.519 -24.915   0.879  1.00  0.00    -0.490 OA
ATOM     27  C   UNL     1      47.086 -23.580   1.124  1.00  0.00     0.278 C 
ENDBRANCH  10  26
TORSDOF 6
ENDMDL
