MODEL 1
REMARK VINA RESULT:    -4.934      0.000      0.000
REMARK INTER + INTRA:          -5.078
REMARK INTER:                  -5.078
REMARK INTRA:                   0.000
REMARK UNBOUND:                 0.000
REMARK SMILES Oc1ccc2[nH]ccc2c1
REMARK SMILES IDX 3 1 4 2 5 3 9 4 8 5 7 6 6 7 10 8 2 9 1 11
REMARK H PARENT 6 10 1 12
REMARK Flexibility Score: inf
ROOT
ATOM      1  C   UNL     1     147.767 150.266 145.598  1.00  0.00     0.048 A 
ATOM      2  C   UNL     1     148.232 148.937 145.597  1.00  0.00     0.030 A 
ATOM      3  C   UNL     1     149.605 148.728 145.485  1.00  0.00     0.046 A 
ATOM      4  C   UNL     1     150.487 149.771 145.379  1.00  0.00     0.003 A 
ATOM      5  C   UNL     1     151.752 149.235 145.287  1.00  0.00     0.028 A 
ATOM      6  C   UNL     1     151.567 147.857 145.344  1.00  0.00     0.083 A 
ATOM      7  N   UNL     1     150.254 147.552 145.464  1.00  0.00    -0.361 N 
ATOM      8  C   UNL     1     150.060 151.098 145.376  1.00  0.00     0.056 A 
ATOM      9  C   UNL     1     148.678 151.346 145.486  1.00  0.00     0.116 A 
ATOM     10  H   UNL     1     149.836 146.598 145.529  1.00  0.00     0.166 HD
ENDROOT
BRANCH   9  11
ATOM     11  O   UNL     1     148.217 152.660 145.487  1.00  0.00    -0.508 OA
ATOM     12  H   UNL     1     148.538 153.333 146.173  1.00  0.00     0.293 HD
ENDBRANCH   9  11
TORSDOF 1
ENDMDL
MODEL 2
REMARK VINA RESULT:    -4.906      2.321      3.368
REMARK INTER + INTRA:          -5.049
REMARK INTER:                  -5.049
REMARK INTRA:                   0.000
REMARK UNBOUND:                 0.000
REMARK SMILES Oc1ccc2[nH]ccc2c1
REMARK SMILES IDX 3 1 4 2 5 3 9 4 8 5 7 6 6 7 10 8 2 9 1 11
REMARK H PARENT 6 10 1 12
REMARK Flexibility Score: inf
ROOT
ATOM      1  C   UNL     1     150.906 147.762 145.710  1.00  0.00     0.048 A 
ATOM      2  C   UNL     1     152.246 148.176 145.598  1.00  0.00     0.030 A 
ATOM      3  C   UNL     1     152.500 149.543 145.512  1.00  0.00     0.046 A 
ATOM      4  C   UNL     1     151.489 150.467 145.535  1.00  0.00     0.003 A 
ATOM      5  C   UNL     1     152.066 151.714 145.434  1.00  0.00     0.028 A 
ATOM      6  C   UNL     1     153.434 151.475 145.353  1.00  0.00     0.083 A 
ATOM      7  N   UNL     1     153.695 150.147 145.401  1.00  0.00    -0.361 N 
ATOM      8  C   UNL     1     150.151 150.091 145.644  1.00  0.00     0.056 A 
ATOM      9  C   UNL     1     149.858 148.716 145.732  1.00  0.00     0.116 A 
ATOM     10  H   UNL     1     154.633 149.691 145.361  1.00  0.00     0.166 HD
ENDROOT
BRANCH   9  11
ATOM     11  O   UNL     1     148.532 148.306 145.843  1.00  0.00    -0.508 OA
ATOM     12  H   UNL     1     147.826 148.613 145.185  1.00  0.00     0.293 HD
ENDBRANCH   9  11
TORSDOF 1
ENDMDL
MODEL 3
REMARK VINA RESULT:    -4.900      3.276      4.824
REMARK INTER + INTRA:          -5.043
REMARK INTER:                  -5.043
REMARK INTRA:                   0.000
REMARK UNBOUND:                 0.000
REMARK SMILES Oc1ccc2[nH]ccc2c1
REMARK SMILES IDX 3 1 4 2 5 3 9 4 8 5 7 6 6 7 10 8 2 9 1 11
REMARK H PARENT 6 10 1 12
REMARK Flexibility Score: inf
ROOT
ATOM      1  C   UNL     1     153.451 150.941 145.667  1.00  0.00     0.048 A 
ATOM      2  C   UNL     1     153.020 152.276 145.564  1.00  0.00     0.030 A 
ATOM      3  C   UNL     1     151.649 152.516 145.504  1.00  0.00     0.046 A 
ATOM      4  C   UNL     1     150.737 151.495 145.542  1.00  0.00     0.003 A 
ATOM      5  C   UNL     1     149.482 152.059 145.463  1.00  0.00     0.028 A 
ATOM      6  C   UNL     1     149.705 153.430 145.380  1.00  0.00     0.083 A 
ATOM      7  N   UNL     1     151.030 153.704 145.405  1.00  0.00    -0.361 N 
ATOM      8  C   UNL     1     151.129 150.161 145.643  1.00  0.00     0.056 A 
ATOM      9  C   UNL     1     152.508 149.883 145.705  1.00  0.00     0.116 A 
ATOM     10  H   UNL     1     151.476 154.647 145.358  1.00  0.00     0.166 HD
ENDROOT
BRANCH   9  11
ATOM     11  O   UNL     1     152.935 148.561 145.807  1.00  0.00    -0.508 OA
ATOM     12  H   UNL     1     152.339 147.790 145.531  1.00  0.00     0.293 HD
ENDBRANCH   9  11
TORSDOF 1
ENDMDL
MODEL 4
REMARK VINA RESULT:    -4.898      2.403      3.492
REMARK INTER + INTRA:          -5.041
REMARK INTER:                  -5.041
REMARK INTRA:                   0.000
REMARK UNBOUND:                 0.000
REMARK SMILES Oc1ccc2[nH]ccc2c1
REMARK SMILES IDX 3 1 4 2 5 3 9 4 8 5 7 6 6 7 10 8 2 9 1 11
REMARK H PARENT 6 10 1 12
REMARK Flexibility Score: inf
ROOT
ATOM      1  C   UNL     1     150.453 153.450 145.715  1.00  0.00     0.048 A 
ATOM      2  C   UNL     1     149.117 153.052 145.527  1.00  0.00     0.030 A 
ATOM      3  C   UNL     1     148.831 151.689 145.570  1.00  0.00     0.046 A 
ATOM      4  C   UNL     1     149.810 150.755 145.786  1.00  0.00     0.003 A 
ATOM      5  C   UNL     1     149.207 149.516 145.769  1.00  0.00     0.028 A 
ATOM      6  C   UNL     1     147.859 149.770 145.538  1.00  0.00     0.083 A 
ATOM      7  N   UNL     1     147.634 151.100 145.416  1.00  0.00    -0.361 N 
ATOM      8  C   UNL     1     151.142 151.115 145.975  1.00  0.00     0.056 A 
ATOM      9  C   UNL     1     151.466 152.485 145.938  1.00  0.00     0.116 A 
ATOM     10  H   UNL     1     146.717 151.566 145.241  1.00  0.00     0.166 HD
ENDROOT
BRANCH   9  11
ATOM     11  O   UNL     1     152.789 152.879 146.124  1.00  0.00    -0.508 OA
ATOM     12  H   UNL     1     153.271 152.718 147.000  1.00  0.00     0.293 HD
ENDBRANCH   9  11
TORSDOF 1
ENDMDL
MODEL 5
REMARK VINA RESULT:    -4.884      2.090      3.274
REMARK INTER + INTRA:          -5.027
REMARK INTER:                  -5.027
REMARK INTRA:                   0.000
REMARK UNBOUND:                 0.000
REMARK SMILES Oc1ccc2[nH]ccc2c1
REMARK SMILES IDX 3 1 4 2 5 3 9 4 8 5 7 6 6 7 10 8 2 9 1 11
REMARK H PARENT 6 10 1 12
REMARK Flexibility Score: inf
ROOT
ATOM      1  C   UNL     1     153.049 152.302 145.486  1.00  0.00     0.048 A 
ATOM      2  C   UNL     1     153.581 150.999 145.526  1.00  0.00     0.030 A 
ATOM      3  C   UNL     1     152.687 149.931 145.562  1.00  0.00     0.046 A 
ATOM      4  C   UNL     1     151.331 150.127 145.560  1.00  0.00     0.003 A 
ATOM      5  C   UNL     1     150.736 148.885 145.602  1.00  0.00     0.028 A 
ATOM      6  C   UNL     1     151.790 147.977 145.627  1.00  0.00     0.083 A 
ATOM      7  N   UNL     1     152.981 148.621 145.603  1.00  0.00    -0.361 N 
ATOM      8  C   UNL     1     150.771 151.402 145.522  1.00  0.00     0.056 A 
ATOM      9  C   UNL     1     151.646 152.505 145.485  1.00  0.00     0.116 A 
ATOM     10  H   UNL     1     153.929 148.185 145.613  1.00  0.00     0.166 HD
ENDROOT
BRANCH   9  11
ATOM     11  O   UNL     1     151.120 153.794 145.445  1.00  0.00    -0.508 OA
ATOM     12  H   UNL     1     151.706 154.609 145.574  1.00  0.00     0.293 HD
ENDBRANCH   9  11
TORSDOF 1
ENDMDL
MODEL 6
REMARK VINA RESULT:    -4.882      2.148      3.454
REMARK INTER + INTRA:          -5.025
REMARK INTER:                  -5.025
REMARK INTRA:                   0.000
REMARK UNBOUND:                 0.000
REMARK SMILES Oc1ccc2[nH]ccc2c1
REMARK SMILES IDX 3 1 4 2 5 3 9 4 8 5 7 6 6 7 10 8 2 9 1 11
REMARK H PARENT 6 10 1 12
REMARK Flexibility Score: inf
ROOT
ATOM      1  C   UNL     1     152.115 148.380 145.591  1.00  0.00     0.048 A 
ATOM      2  C   UNL     1     150.799 147.913 145.766  1.00  0.00     0.030 A 
ATOM      3  C   UNL     1     149.784 148.859 145.889  1.00  0.00     0.046 A 
ATOM      4  C   UNL     1     150.042 150.203 145.843  1.00  0.00     0.003 A 
ATOM      5  C   UNL     1     148.840 150.860 145.992  1.00  0.00     0.028 A 
ATOM      6  C   UNL     1     147.890 149.852 146.125  1.00  0.00     0.083 A 
ATOM      7  N   UNL     1     148.471 148.631 146.062  1.00  0.00    -0.361 N 
ATOM      8  C   UNL     1     151.333 150.699 145.671  1.00  0.00     0.056 A 
ATOM      9  C   UNL     1     152.384 149.771 145.544  1.00  0.00     0.116 A 
ATOM     10  H   UNL     1     147.994 147.706 146.132  1.00  0.00     0.166 HD
ENDROOT
BRANCH   9  11
ATOM     11  O   UNL     1     153.686 150.232 145.370  1.00  0.00    -0.508 OA
ATOM     12  H   UNL     1     154.006 150.593 144.480  1.00  0.00     0.293 HD
ENDBRANCH   9  11
TORSDOF 1
ENDMDL
MODEL 7
REMARK VINA RESULT:    -4.738      2.772      3.990
REMARK INTER + INTRA:          -4.877
REMARK INTER:                  -4.877
REMARK INTRA:                   0.000
REMARK UNBOUND:                 0.000
REMARK SMILES Oc1ccc2[nH]ccc2c1
REMARK SMILES IDX 3 1 4 2 5 3 9 4 8 5 7 6 6 7 10 8 2 9 1 11
REMARK H PARENT 6 10 1 12
REMARK Flexibility Score: inf
ROOT
ATOM      1  C   UNL     1     150.822 149.347 145.119  1.00  0.00     0.048 A 
ATOM      2  C   UNL     1     149.559 149.969 145.119  1.00  0.00     0.030 A 
ATOM      3  C   UNL     1     149.512 151.347 145.315  1.00  0.00     0.046 A 
ATOM      4  C   UNL     1     150.649 152.087 145.504  1.00  0.00     0.003 A 
ATOM      5  C   UNL     1     150.265 153.400 145.666  1.00  0.00     0.028 A 
ATOM      6  C   UNL     1     148.877 153.388 145.564  1.00  0.00     0.083 A 
ATOM      7  N   UNL     1     148.422 152.131 145.350  1.00  0.00    -0.361 N 
ATOM      8  C   UNL     1     151.914 151.503 145.510  1.00  0.00     0.056 A 
ATOM      9  C   UNL     1     151.999 150.111 145.316  1.00  0.00     0.116 A 
ATOM     10  H   UNL     1     147.427 151.837 145.235  1.00  0.00     0.166 HD
ENDROOT
BRANCH   9  11
ATOM     11  O   UNL     1     153.248 149.495 145.316  1.00  0.00    -0.508 OA
ATOM     12  H   UNL     1     153.667 149.149 144.462  1.00  0.00     0.293 HD
ENDBRANCH   9  11
TORSDOF 1
ENDMDL
MODEL 8
REMARK VINA RESULT:    -4.736      2.687      4.104
REMARK INTER + INTRA:          -4.874
REMARK INTER:                  -4.874
REMARK INTRA:                   0.000
REMARK UNBOUND:                 0.000
REMARK SMILES Oc1ccc2[nH]ccc2c1
REMARK SMILES IDX 3 1 4 2 5 3 9 4 8 5 7 6 6 7 10 8 2 9 1 11
REMARK H PARENT 6 10 1 12
REMARK Flexibility Score: inf
ROOT
ATOM      1  C   UNL     1     151.408 149.476 145.365  1.00  0.00     0.048 A 
ATOM      2  C   UNL     1     151.941 150.778 145.409  1.00  0.00     0.030 A 
ATOM      3  C   UNL     1     151.047 151.846 145.467  1.00  0.00     0.046 A 
ATOM      4  C   UNL     1     149.692 151.650 145.481  1.00  0.00     0.003 A 
ATOM      5  C   UNL     1     149.096 152.891 145.541  1.00  0.00     0.028 A 
ATOM      6  C   UNL     1     150.151 153.799 145.561  1.00  0.00     0.083 A 
ATOM      7  N   UNL     1     151.341 153.156 145.515  1.00  0.00    -0.361 N 
ATOM      8  C   UNL     1     149.132 150.375 145.438  1.00  0.00     0.056 A 
ATOM      9  C   UNL     1     150.006 149.273 145.378  1.00  0.00     0.116 A 
ATOM     10  H   UNL     1     152.289 153.591 145.519  1.00  0.00     0.166 HD
ENDROOT
BRANCH   9  11
ATOM     11  O   UNL     1     149.480 147.984 145.335  1.00  0.00    -0.508 OA
ATOM     12  H   UNL     1     148.978 147.590 146.121  1.00  0.00     0.293 HD
ENDBRANCH   9  11
TORSDOF 1
ENDMDL
MODEL 9
REMARK VINA RESULT:    -4.727      2.807      3.516
REMARK INTER + INTRA:          -4.866
REMARK INTER:                  -4.866
REMARK INTRA:                   0.000
REMARK UNBOUND:                 0.000
REMARK SMILES Oc1ccc2[nH]ccc2c1
REMARK SMILES IDX 3 1 4 2 5 3 9 4 8 5 7 6 6 7 10 8 2 9 1 11
REMARK H PARENT 6 10 1 12
REMARK Flexibility Score: inf
ROOT
ATOM      1  C   UNL     1     149.283 150.439 145.187  1.00  0.00     0.048 A 
ATOM      2  C   UNL     1     149.898 151.705 145.188  1.00  0.00     0.030 A 
ATOM      3  C   UNL     1     151.281 151.758 145.347  1.00  0.00     0.046 A 
ATOM      4  C   UNL     1     152.031 150.622 145.499  1.00  0.00     0.003 A 
ATOM      5  C   UNL     1     153.346 151.012 145.632  1.00  0.00     0.028 A 
ATOM      6  C   UNL     1     153.323 152.401 145.550  1.00  0.00     0.083 A 
ATOM      7  N   UNL     1     152.059 152.852 145.377  1.00  0.00    -0.361 N 
ATOM      8  C   UNL     1     151.455 149.354 145.504  1.00  0.00     0.056 A 
ATOM      9  C   UNL     1     150.059 149.264 145.345  1.00  0.00     0.116 A 
ATOM     10  H   UNL     1     151.756 153.846 145.284  1.00  0.00     0.166 HD
ENDROOT
BRANCH   9  11
ATOM     11  O   UNL     1     149.450 148.011 145.345  1.00  0.00    -0.508 OA
ATOM     12  H   UNL     1     148.449 147.910 145.232  1.00  0.00     0.293 HD
ENDBRANCH   9  11
TORSDOF 1
ENDMDL
