MODEL 1
REMARK VINA RESULT:     0.000      0.000      0.000
REMARK INTER + INTRA:          -0.567
REMARK INTER:                   0.000
REMARK INTRA:                  -0.567
REMARK UNBOUND:                -0.567
REMARK SMILES CCC=Cc1oc(O)c2ccccc12
REMARK SMILES IDX 7 1 6 2 5 3 14 4 13 5 12 6 11 7 10 8 9 9 8 10 4 12 3 13 2 14
REMARK SMILES IDX 1 15
REMARK H PARENT 8 11
REMARK Flexibility Score: inf
ROOT
ATOM      1  C   UNL     1       5.496  48.154  32.871  1.00  0.00     0.290 A 
ATOM      2  O   UNL     1       6.792  48.125  32.629  1.00  0.00    -0.425 OA
ATOM      3  C   UNL     1       7.269  49.356  32.699  1.00  0.00     0.138 A 
ATOM      4  C   UNL     1       6.227  50.220  32.996  1.00  0.00     0.032 A 
ATOM      5  C   UNL     1       6.188  51.604  33.179  1.00  0.00     0.013 A 
ATOM      6  C   UNL     1       4.945  52.192  33.479  1.00  0.00     0.001 A 
ATOM      7  C   UNL     1       3.783  51.396  33.590  1.00  0.00     0.001 A 
ATOM      8  C   UNL     1       3.852  50.003  33.402  1.00  0.00     0.016 A 
ATOM      9  C   UNL     1       5.098  49.451  33.106  1.00  0.00     0.066 A 
ENDROOT
BRANCH   1  10
ATOM     10  O   UNL     1       4.685  47.023  32.876  1.00  0.00    -0.480 OA
ATOM     11  H   UNL     1       4.780  46.313  33.592  1.00  0.00     0.297 HD
ENDBRANCH   1  10
BRANCH   3  12
ATOM     12  C   UNL     1       8.680  49.746  32.481  1.00  0.00     0.043 C 
ATOM     13  C   UNL     1       9.201  50.186  31.325  1.00  0.00    -0.023 C 
BRANCH  13  14
ATOM     14  C   UNL     1       8.456  50.324  30.025  1.00  0.00     0.024 C 
ATOM     15  C   UNL     1       7.916  51.740  29.839  1.00  0.00     0.008 C 
ENDBRANCH  13  14
ENDBRANCH   3  12
TORSDOF 3
ENDMDL
MODEL 2
REMARK VINA RESULT:     0.000      6.408      8.333
REMARK INTER + INTRA:          -0.567
REMARK INTER:                   0.000
REMARK INTRA:                  -0.567
REMARK UNBOUND:                -0.567
REMARK SMILES CCC=Cc1oc(O)c2ccccc12
REMARK SMILES IDX 7 1 6 2 5 3 14 4 13 5 12 6 11 7 10 8 9 9 8 10 4 12 3 13 2 14
REMARK SMILES IDX 1 15
REMARK H PARENT 8 11
REMARK Flexibility Score: inf
ROOT
ATOM      1  C   UNL     1      12.761  51.367  35.119  1.00  0.00     0.290 A 
ATOM      2  O   UNL     1      11.970  50.546  34.457  1.00  0.00    -0.425 OA
ATOM      3  C   UNL     1      12.710  49.742  33.713  1.00  0.00     0.138 A 
ATOM      4  C   UNL     1      14.045  50.064  33.904  1.00  0.00     0.032 A 
ATOM      5  C   UNL     1      15.217  49.530  33.367  1.00  0.00     0.013 A 
ATOM      6  C   UNL     1      16.442  50.092  33.775  1.00  0.00     0.001 A 
ATOM      7  C   UNL     1      16.468  51.160  34.699  1.00  0.00     0.001 A 
ATOM      8  C   UNL     1      15.270  51.677  35.226  1.00  0.00     0.016 A 
ATOM      9  C   UNL     1      14.074  51.099  34.802  1.00  0.00     0.066 A 
ENDROOT
BRANCH   1  10
ATOM     10  O   UNL     1      12.302  52.344  35.998  1.00  0.00    -0.480 OA
ATOM     11  H   UNL     1      12.926  52.789  36.659  1.00  0.00     0.297 HD
ENDBRANCH   1  10
BRANCH   3  12
ATOM     12  C   UNL     1      12.196  48.684  32.816  1.00  0.00     0.043 C 
ATOM     13  C   UNL     1      11.974  48.815  31.498  1.00  0.00    -0.023 C 
BRANCH  13  14
ATOM     14  C   UNL     1      12.166  50.074  30.698  1.00  0.00     0.024 C 
ATOM     15  C   UNL     1      13.546  50.117  30.047  1.00  0.00     0.008 C 
ENDBRANCH  13  14
ENDBRANCH   3  12
TORSDOF 3
ENDMDL
MODEL 3
REMARK VINA RESULT:     0.000      6.728      8.710
REMARK INTER + INTRA:          -0.567
REMARK INTER:                   0.000
REMARK INTRA:                  -0.567
REMARK UNBOUND:                -0.567
REMARK SMILES CCC=Cc1oc(O)c2ccccc12
REMARK SMILES IDX 7 1 6 2 5 3 14 4 13 5 12 6 11 7 10 8 9 9 8 10 4 12 3 13 2 14
REMARK SMILES IDX 1 15
REMARK H PARENT 8 11
REMARK Flexibility Score: inf
ROOT
ATOM      1  C   UNL     1       7.630  46.854  36.832  1.00  0.00     0.290 A 
ATOM      2  O   UNL     1       6.743  47.548  37.518  1.00  0.00    -0.425 OA
ATOM      3  C   UNL     1       6.637  47.031  38.730  1.00  0.00     0.138 A 
ATOM      4  C   UNL     1       7.495  45.946  38.826  1.00  0.00     0.032 A 
ATOM      5  C   UNL     1       7.766  45.064  39.873  1.00  0.00     0.013 A 
ATOM      6  C   UNL     1       8.713  44.048  39.648  1.00  0.00     0.001 A 
ATOM      7  C   UNL     1       9.362  43.937  38.398  1.00  0.00     0.001 A 
ATOM      8  C   UNL     1       9.070  44.842  37.360  1.00  0.00     0.016 A 
ATOM      9  C   UNL     1       8.128  45.837  37.616  1.00  0.00     0.066 A 
ENDROOT
BRANCH   1  10
ATOM     10  O   UNL     1       7.982  47.136  35.515  1.00  0.00    -0.480 OA
ATOM     11  H   UNL     1       7.471  47.819  34.970  1.00  0.00     0.297 HD
ENDBRANCH   1  10
BRANCH   3  12
ATOM     12  C   UNL     1       5.739  47.521  39.799  1.00  0.00     0.043 C 
ATOM     13  C   UNL     1       4.515  47.043  40.073  1.00  0.00    -0.023 C 
BRANCH  13  14
ATOM     14  C   UNL     1       3.811  45.949  39.316  1.00  0.00     0.024 C 
ATOM     15  C   UNL     1       4.035  44.587  39.969  1.00  0.00     0.008 C 
ENDBRANCH  13  14
ENDBRANCH   3  12
TORSDOF 3
ENDMDL
MODEL 4
REMARK VINA RESULT:     0.000      9.353     10.608
REMARK INTER + INTRA:          -0.567
REMARK INTER:                   0.000
REMARK INTRA:                  -0.567
REMARK UNBOUND:                -0.567
REMARK SMILES CCC=Cc1oc(O)c2ccccc12
REMARK SMILES IDX 7 1 6 2 5 3 14 4 13 5 12 6 11 7 10 8 9 9 8 10 4 12 3 13 2 14
REMARK SMILES IDX 1 15
REMARK H PARENT 8 11
REMARK Flexibility Score: inf
ROOT
ATOM      1  C   UNL     1       9.270  41.040  38.138  1.00  0.00     0.290 A 
ATOM      2  O   UNL     1       9.810  40.933  39.336  1.00  0.00    -0.425 OA
ATOM      3  C   UNL     1       9.750  42.106  39.941  1.00  0.00     0.138 A 
ATOM      4  C   UNL     1       9.145  43.016  39.088  1.00  0.00     0.032 A 
ATOM      5  C   UNL     1       8.842  44.370  39.234  1.00  0.00     0.013 A 
ATOM      6  C   UNL     1       8.210  45.022  38.159  1.00  0.00     0.001 A 
ATOM      7  C   UNL     1       7.898  44.315  36.976  1.00  0.00     0.001 A 
ATOM      8  C   UNL     1       8.214  42.949  36.856  1.00  0.00     0.016 A 
ATOM      9  C   UNL     1       8.839  42.333  37.939  1.00  0.00     0.066 A 
ENDROOT
BRANCH   1  10
ATOM     10  O   UNL     1       9.171  39.985  37.236  1.00  0.00    -0.480 OA
ATOM     11  H   UNL     1       9.537  39.068  37.460  1.00  0.00     0.297 HD
ENDBRANCH   1  10
BRANCH   3  12
ATOM     12  C   UNL     1      10.259  42.401  41.299  1.00  0.00     0.043 C 
ATOM     13  C   UNL     1      11.463  42.918  41.589  1.00  0.00    -0.023 C 
BRANCH  13  14
ATOM     14  C   UNL     1      12.536  43.253  40.589  1.00  0.00     0.024 C 
ATOM     15  C   UNL     1      12.470  44.720  40.170  1.00  0.00     0.008 C 
ENDBRANCH  13  14
ENDBRANCH   3  12
TORSDOF 3
ENDMDL
MODEL 5
REMARK VINA RESULT:     0.000      8.258      9.422
REMARK INTER + INTRA:          -0.567
REMARK INTER:                   0.000
REMARK INTRA:                  -0.567
REMARK UNBOUND:                -0.567
REMARK SMILES CCC=Cc1oc(O)c2ccccc12
REMARK SMILES IDX 7 1 6 2 5 3 14 4 13 5 12 6 11 7 10 8 9 9 8 10 4 12 3 13 2 14
REMARK SMILES IDX 1 15
REMARK H PARENT 8 11
REMARK Flexibility Score: inf
ROOT
ATOM      1  C   UNL     1       6.756  53.590  41.506  1.00  0.00     0.290 A 
ATOM      2  O   UNL     1       6.648  54.903  41.440  1.00  0.00    -0.425 OA
ATOM      3  C   UNL     1       5.545  55.210  40.780  1.00  0.00     0.138 A 
ATOM      4  C   UNL     1       4.914  54.037  40.398  1.00  0.00     0.032 A 
ATOM      5  C   UNL     1       3.734  53.802  39.690  1.00  0.00     0.013 A 
ATOM      6  C   UNL     1       3.360  52.465  39.464  1.00  0.00     0.001 A 
ATOM      7  C   UNL     1       4.161  51.404  39.943  1.00  0.00     0.001 A 
ATOM      8  C   UNL     1       5.345  51.671  40.656  1.00  0.00     0.016 A 
ATOM      9  C   UNL     1       5.688  53.006  40.863  1.00  0.00     0.066 A 
ENDROOT
BRANCH   1  10
ATOM     10  O   UNL     1       7.807  52.931  42.138  1.00  0.00    -0.480 OA
ATOM     11  H   UNL     1       8.144  52.038  41.800  1.00  0.00     0.297 HD
ENDBRANCH   1  10
BRANCH   3  12
ATOM     12  C   UNL     1       5.072  56.582  40.486  1.00  0.00     0.043 C 
ATOM     13  C   UNL     1       5.298  57.261  39.350  1.00  0.00    -0.023 C 
BRANCH  13  14
ATOM     14  C   UNL     1       6.111  56.770  38.183  1.00  0.00     0.024 C 
ATOM     15  C   UNL     1       5.227  56.114  37.124  1.00  0.00     0.008 C 
ENDBRANCH  13  14
ENDBRANCH   3  12
TORSDOF 3
ENDMDL
MODEL 6
REMARK VINA RESULT:     0.000      4.858      5.904
REMARK INTER + INTRA:          -0.567
REMARK INTER:                   0.000
REMARK INTRA:                  -0.567
REMARK UNBOUND:                -0.567
REMARK SMILES CCC=Cc1oc(O)c2ccccc12
REMARK SMILES IDX 7 1 6 2 5 3 14 4 13 5 12 6 11 7 10 8 9 9 8 10 4 12 3 13 2 14
REMARK SMILES IDX 1 15
REMARK H PARENT 8 11
REMARK Flexibility Score: inf
ROOT
ATOM      1  C   UNL     1       3.185  49.828  36.349  1.00  0.00     0.290 A 
ATOM      2  O   UNL     1       4.050  48.940  35.898  1.00  0.00    -0.425 OA
ATOM      3  C   UNL     1       4.822  48.547  36.896  1.00  0.00     0.138 A 
ATOM      4  C   UNL     1       4.439  49.219  38.046  1.00  0.00     0.032 A 
ATOM      5  C   UNL     1       4.919  49.174  39.355  1.00  0.00     0.013 A 
ATOM      6  C   UNL     1       4.298  49.997  40.312  1.00  0.00     0.001 A 
ATOM      7  C   UNL     1       3.222  50.838  39.946  1.00  0.00     0.001 A 
ATOM      8  C   UNL     1       2.757  50.862  38.618  1.00  0.00     0.016 A 
ATOM      9  C   UNL     1       3.394  50.034  37.694  1.00  0.00     0.066 A 
ENDROOT
BRANCH   1  10
ATOM     10  O   UNL     1       2.223  50.444  35.554  1.00  0.00    -0.480 OA
ATOM     11  H   UNL     1       2.005  51.427  35.661  1.00  0.00     0.297 HD
ENDBRANCH   1  10
BRANCH   3  12
ATOM     12  C   UNL     1       5.923  47.563  36.797  1.00  0.00     0.043 C 
ATOM     13  C   UNL     1       7.221  47.856  36.619  1.00  0.00    -0.023 C 
BRANCH  13  14
ATOM     14  C   UNL     1       7.791  49.237  36.444  1.00  0.00     0.024 C 
ATOM     15  C   UNL     1       8.272  49.814  37.773  1.00  0.00     0.008 C 
ENDBRANCH  13  14
ENDBRANCH   3  12
TORSDOF 3
ENDMDL
MODEL 7
REMARK VINA RESULT:     0.000      3.905      4.488
REMARK INTER + INTRA:          -0.567
REMARK INTER:                   0.000
REMARK INTRA:                  -0.567
REMARK UNBOUND:                -0.567
REMARK SMILES CCC=Cc1oc(O)c2ccccc12
REMARK SMILES IDX 7 1 6 2 5 3 14 4 13 5 12 6 11 7 10 8 9 9 8 10 4 12 3 13 2 14
REMARK SMILES IDX 1 15
REMARK H PARENT 8 11
REMARK Flexibility Score: inf
ROOT
ATOM      1  C   UNL     1       5.114  49.685  35.571  1.00  0.00     0.290 A 
ATOM      2  O   UNL     1       5.789  48.894  34.760  1.00  0.00    -0.425 OA
ATOM      3  C   UNL     1       6.881  48.477  35.377  1.00  0.00     0.138 A 
ATOM      4  C   UNL     1       6.913  49.031  36.647  1.00  0.00     0.032 A 
ATOM      5  C   UNL     1       7.833  48.915  37.691  1.00  0.00     0.013 A 
ATOM      6  C   UNL     1       7.568  49.618  38.881  1.00  0.00     0.001 A 
ATOM      7  C   UNL     1       6.404  50.411  39.002  1.00  0.00     0.001 A 
ATOM      8  C   UNL     1       5.493  50.507  37.934  1.00  0.00     0.016 A 
ATOM      9  C   UNL     1       5.784  49.799  36.769  1.00  0.00     0.066 A 
ENDROOT
BRANCH   1  10
ATOM     10  O   UNL     1       3.910  50.295  35.233  1.00  0.00    -0.480 OA
ATOM     11  H   UNL     1       3.305  50.690  35.942  1.00  0.00     0.297 HD
ENDBRANCH   1  10
BRANCH   3  12
ATOM     12  C   UNL     1       7.907  47.579  34.799  1.00  0.00     0.043 C 
ATOM     13  C   UNL     1       9.043  47.972  34.203  1.00  0.00    -0.023 C 
BRANCH  13  14
ATOM     14  C   UNL     1       9.465  49.397  33.972  1.00  0.00     0.024 C 
ATOM     15  C   UNL     1      10.371  49.900  35.093  1.00  0.00     0.008 C 
ENDBRANCH  13  14
ENDBRANCH   3  12
TORSDOF 3
ENDMDL
MODEL 8
REMARK VINA RESULT:     0.000      6.670      9.167
REMARK INTER + INTRA:          -0.567
REMARK INTER:                   0.000
REMARK INTRA:                  -0.567
REMARK UNBOUND:                -0.567
REMARK SMILES CCC=Cc1oc(O)c2ccccc12
REMARK SMILES IDX 7 1 6 2 5 3 14 4 13 5 12 6 11 7 10 8 9 9 8 10 4 12 3 13 2 14
REMARK SMILES IDX 1 15
REMARK H PARENT 8 11
REMARK Flexibility Score: inf
ROOT
ATOM      1  C   UNL     1      11.838  44.659  26.279  1.00  0.00     0.290 A 
ATOM      2  O   UNL     1      11.307  45.862  26.184  1.00  0.00    -0.425 OA
ATOM      3  C   UNL     1      11.581  46.541  27.285  1.00  0.00     0.138 A 
ATOM      4  C   UNL     1      12.321  45.733  28.132  1.00  0.00     0.032 A 
ATOM      5  C   UNL     1      12.859  45.960  29.401  1.00  0.00     0.013 A 
ATOM      6  C   UNL     1      13.578  44.912  30.006  1.00  0.00     0.001 A 
ATOM      7  C   UNL     1      13.744  43.677  29.340  1.00  0.00     0.001 A 
ATOM      8  C   UNL     1      13.192  43.477  28.061  1.00  0.00     0.016 A 
ATOM      9  C   UNL     1      12.485  44.534  27.488  1.00  0.00     0.066 A 
ENDROOT
BRANCH   1  10
ATOM     10  O   UNL     1      11.738  43.688  25.287  1.00  0.00    -0.480 OA
ATOM     11  H   UNL     1      12.537  43.127  25.020  1.00  0.00     0.297 HD
ENDBRANCH   1  10
BRANCH   3  12
ATOM     12  C   UNL     1      11.153  47.930  27.568  1.00  0.00     0.043 C 
ATOM     13  C   UNL     1      10.062  48.285  28.265  1.00  0.00    -0.023 C 
BRANCH  13  14
ATOM     14  C   UNL     1       9.048  47.339  28.849  1.00  0.00     0.024 C 
ATOM     15  C   UNL     1       9.363  47.016  30.308  1.00  0.00     0.008 C 
ENDBRANCH  13  14
ENDBRANCH   3  12
TORSDOF 3
ENDMDL
MODEL 9
REMARK VINA RESULT:     0.000      3.660      4.997
REMARK INTER + INTRA:          -0.567
REMARK INTER:                   0.000
REMARK INTRA:                  -0.567
REMARK UNBOUND:                -0.567
REMARK SMILES CCC=Cc1oc(O)c2ccccc12
REMARK SMILES IDX 7 1 6 2 5 3 14 4 13 5 12 6 11 7 10 8 9 9 8 10 4 12 3 13 2 14
REMARK SMILES IDX 1 15
REMARK H PARENT 8 11
REMARK Flexibility Score: inf
ROOT
ATOM      1  C   UNL     1       4.127  53.643  30.837  1.00  0.00     0.290 A 
ATOM      2  O   UNL     1       5.233  53.021  31.197  1.00  0.00    -0.425 OA
ATOM      3  C   UNL     1       5.012  51.718  31.199  1.00  0.00     0.138 A 
ATOM      4  C   UNL     1       3.697  51.490  30.825  1.00  0.00     0.032 A 
ATOM      5  C   UNL     1       2.964  50.312  30.669  1.00  0.00     0.013 A 
ATOM      6  C   UNL     1       1.620  50.423  30.267  1.00  0.00     0.001 A 
ATOM      7  C   UNL     1       1.044  51.692  30.031  1.00  0.00     0.001 A 
ATOM      8  C   UNL     1       1.808  52.863  30.194  1.00  0.00     0.016 A 
ATOM      9  C   UNL     1       3.136  52.719  30.593  1.00  0.00     0.066 A 
ENDROOT
BRANCH   1  10
ATOM     10  O   UNL     1       4.017  55.026  30.731  1.00  0.00    -0.480 OA
ATOM     11  H   UNL     1       3.146  55.500  30.939  1.00  0.00     0.297 HD
ENDBRANCH   1  10
BRANCH   3  12
ATOM     12  C   UNL     1       6.002  50.678  31.556  1.00  0.00     0.043 C 
ATOM     13  C   UNL     1       6.141  50.111  32.765  1.00  0.00    -0.023 C 
BRANCH  13  14
ATOM     14  C   UNL     1       5.344  50.460  33.993  1.00  0.00     0.024 C 
ATOM     15  C   UNL     1       4.140  49.534  34.158  1.00  0.00     0.008 C 
ENDBRANCH  13  14
ENDBRANCH   3  12
TORSDOF 3
ENDMDL
