MODEL 1
REMARK VINA RESULT:    -2.547      0.000      0.000
REMARK INTER + INTRA:          -2.547
REMARK INTER:                  -2.547
REMARK INTRA:                   0.000
REMARK UNBOUND:                 0.000
REMARK SMILES CC(=O)[O-]
REMARK SMILES IDX 1 1 2 2 3 3 4 4
REMARK H PARENT
REMARK Flexibility Score: inf
ROOT
ATOM      1  C   UNL     1      -0.405   2.620   6.314  1.00  0.00     0.063 C 
ATOM      2  C   UNL     1      -1.443   2.739   5.251  1.00  0.00     0.038 C 
ATOM      3  O   UNL     1      -1.173   3.316   4.165  1.00  0.00    -0.550 OA
ATOM      4  O   UNL     1      -2.696   2.168   5.435  1.00  0.00    -0.550 OA
ENDROOT
TORSDOF 0
ENDMDL
MODEL 2
REMARK VINA RESULT:    -2.489      0.141      1.626
REMARK INTER + INTRA:          -2.489
REMARK INTER:                  -2.489
REMARK INTRA:                   0.000
REMARK UNBOUND:                 0.000
REMARK SMILES CC(=O)[O-]
REMARK SMILES IDX 1 1 2 2 3 3 4 4
REMARK H PARENT
REMARK Flexibility Score: inf
ROOT
ATOM      1  C   UNL     1      -0.582   2.669   6.485  1.00  0.00     0.063 C 
ATOM      2  C   UNL     1      -1.526   2.695   5.332  1.00  0.00     0.038 C 
ATOM      3  O   UNL     1      -2.673   2.189   5.444  1.00  0.00    -0.550 OA
ATOM      4  O   UNL     1      -1.162   3.323   4.148  1.00  0.00    -0.550 OA
ENDROOT
TORSDOF 0
ENDMDL
MODEL 3
REMARK VINA RESULT:    -2.471     11.460     11.999
REMARK INTER + INTRA:          -2.471
REMARK INTER:                  -2.471
REMARK INTRA:                   0.000
REMARK UNBOUND:                 0.000
REMARK SMILES CC(=O)[O-]
REMARK SMILES IDX 1 1 2 2 3 3 4 4
REMARK H PARENT
REMARK Flexibility Score: inf
ROOT
ATOM      1  C   UNL     1      -5.803   7.362  -4.575  1.00  0.00     0.063 C 
ATOM      2  C   UNL     1      -7.171   7.370  -3.982  1.00  0.00     0.038 C 
ATOM      3  O   UNL     1      -7.453   6.592  -3.033  1.00  0.00    -0.550 OA
ATOM      4  O   UNL     1      -8.122   8.274  -4.438  1.00  0.00    -0.550 OA
ENDROOT
TORSDOF 0
ENDMDL
MODEL 4
REMARK VINA RESULT:    -2.272      1.536      1.844
REMARK INTER + INTRA:          -2.272
REMARK INTER:                  -2.272
REMARK INTRA:                   0.000
REMARK UNBOUND:                 0.000
REMARK SMILES CC(=O)[O-]
REMARK SMILES IDX 1 1 2 2 3 3 4 4
REMARK H PARENT
REMARK Flexibility Score: inf
ROOT
ATOM      1  C   UNL     1      -3.165   2.451   5.989  1.00  0.00     0.063 C 
ATOM      2  C   UNL     1      -1.730   2.664   5.646  1.00  0.00     0.038 C 
ATOM      3  O   UNL     1      -1.401   2.986   4.475  1.00  0.00    -0.550 OA
ATOM      4  O   UNL     1      -0.757   2.559   6.631  1.00  0.00    -0.550 OA
ENDROOT
TORSDOF 0
ENDMDL
MODEL 5
REMARK VINA RESULT:    -2.194      4.827      5.220
REMARK INTER + INTRA:          -2.194
REMARK INTER:                  -2.194
REMARK INTRA:                   0.000
REMARK UNBOUND:                 0.000
REMARK SMILES CC(=O)[O-]
REMARK SMILES IDX 1 1 2 2 3 3 4 4
REMARK H PARENT
REMARK Flexibility Score: inf
ROOT
ATOM      1  C   UNL     1       1.536   0.687   7.345  1.00  0.00     0.063 C 
ATOM      2  C   UNL     1       2.585   0.193   6.409  1.00  0.00     0.038 C 
ATOM      3  O   UNL     1       2.379  -0.838   5.716  1.00  0.00    -0.550 OA
ATOM      4  O   UNL     1       3.772   0.899   6.258  1.00  0.00    -0.550 OA
ENDROOT
TORSDOF 0
ENDMDL
MODEL 6
REMARK VINA RESULT:    -2.189      5.036      5.137
REMARK INTER + INTRA:          -2.189
REMARK INTER:                  -2.189
REMARK INTRA:                   0.000
REMARK UNBOUND:                 0.000
REMARK SMILES CC(=O)[O-]
REMARK SMILES IDX 1 1 2 2 3 3 4 4
REMARK H PARENT
REMARK Flexibility Score: inf
ROOT
ATOM      1  C   UNL     1       1.700   0.390   7.581  1.00  0.00     0.063 C 
ATOM      2  C   UNL     1       2.614   0.085   6.443  1.00  0.00     0.038 C 
ATOM      3  O   UNL     1       3.617   0.814   6.225  1.00  0.00    -0.550 OA
ATOM      4  O   UNL     1       2.390  -1.035   5.652  1.00  0.00    -0.550 OA
ENDROOT
TORSDOF 0
ENDMDL
MODEL 7
REMARK VINA RESULT:    -2.185      2.668      3.112
REMARK INTER + INTRA:          -2.185
REMARK INTER:                  -2.185
REMARK INTRA:                   0.000
REMARK UNBOUND:                 0.000
REMARK SMILES CC(=O)[O-]
REMARK SMILES IDX 1 1 2 2 3 3 4 4
REMARK H PARENT
REMARK Flexibility Score: inf
ROOT
ATOM      1  C   UNL     1      -4.397   3.661   6.081  1.00  0.00     0.063 C 
ATOM      2  C   UNL     1      -3.756   2.338   6.330  1.00  0.00     0.038 C 
ATOM      3  O   UNL     1      -3.449   1.593   5.362  1.00  0.00    -0.550 OA
ATOM      4  O   UNL     1      -3.449   1.946   7.626  1.00  0.00    -0.550 OA
ENDROOT
TORSDOF 0
ENDMDL
MODEL 8
REMARK VINA RESULT:    -2.108      2.285      2.764
REMARK INTER + INTRA:          -2.108
REMARK INTER:                  -2.108
REMARK INTRA:                   0.000
REMARK UNBOUND:                 0.000
REMARK SMILES CC(=O)[O-]
REMARK SMILES IDX 1 1 2 2 3 3 4 4
REMARK H PARENT
REMARK Flexibility Score: inf
ROOT
ATOM      1  C   UNL     1      -2.444   3.808   5.841  1.00  0.00     0.063 C 
ATOM      2  C   UNL     1      -3.719   3.042   5.938  1.00  0.00     0.038 C 
ATOM      3  O   UNL     1      -4.776   3.618   6.308  1.00  0.00    -0.550 OA
ATOM      4  O   UNL     1      -3.757   1.703   5.569  1.00  0.00    -0.550 OA
ENDROOT
TORSDOF 0
ENDMDL
