MODEL 1
REMARK VINA RESULT:    -3.455      0.000      0.000
REMARK INTER + INTRA:          -4.022
REMARK INTER:                  -3.960
REMARK INTRA:                  -0.062
REMARK UNBOUND:                -0.062
REMARK SMILES CC(C)[C@@H]([NH3+])C(=O)[O-]
REMARK SMILES IDX 4 1 5 2 6 6 7 7 8 8 2 9 1 10 3 11
REMARK H PARENT 5 3 5 4 5 5
REMARK Flexibility Score: inf
ROOT
ATOM      1  C   UNL     1     163.659 177.495 183.333  1.00  0.00     0.230 C 
ENDROOT
BRANCH   1   2
ATOM      2  N   UNL     1     163.116 177.663 184.690  1.00  0.00    -0.350 N 
ATOM      3  H   UNL     1     163.535 178.507 185.144  1.00  0.00     0.345 HD
ATOM      4  H   UNL     1     162.083 177.816 184.650  1.00  0.00     0.345 HD
ATOM      5  H   UNL     1     163.323 176.823 185.278  1.00  0.00     0.345 HD
ENDBRANCH   1   2
BRANCH   1   6
ATOM      6  C   UNL     1     163.775 178.846 182.669  1.00  0.00     0.099 C 
ATOM      7  O   UNL     1     164.901 179.392 182.524  1.00  0.00    -0.544 OA
ATOM      8  O   UNL     1     162.635 179.491 182.204  1.00  0.00    -0.544 OA
ENDBRANCH   1   6
BRANCH   1   9
ATOM      9  C   UNL     1     165.036 176.762 183.344  1.00  0.00     0.047 C 
ATOM     10  C   UNL     1     165.065 175.616 182.318  1.00  0.00     0.014 C 
ATOM     11  C   UNL     1     165.375 176.201 184.735  1.00  0.00     0.014 C 
ENDBRANCH   1   9
TORSDOF 3
ENDMDL
MODEL 2
REMARK VINA RESULT:    -3.372     18.726     19.488
REMARK INTER + INTRA:          -3.927
REMARK INTER:                  -3.874
REMARK INTRA:                  -0.052
REMARK UNBOUND:                -0.062
REMARK SMILES CC(C)[C@@H]([NH3+])C(=O)[O-]
REMARK SMILES IDX 4 1 5 2 6 6 7 7 8 8 2 9 1 10 3 11
REMARK H PARENT 5 3 5 4 5 5
REMARK Flexibility Score: inf
ROOT
ATOM      1  C   UNL     1     180.775 167.309 183.642  1.00  0.00     0.230 C 
ENDROOT
BRANCH   1   2
ATOM      2  N   UNL     1     181.145 166.731 184.944  1.00  0.00    -0.350 N 
ATOM      3  H   UNL     1     181.046 165.690 184.916  1.00  0.00     0.345 HD
ATOM      4  H   UNL     1     182.146 166.940 185.161  1.00  0.00     0.345 HD
ATOM      5  H   UNL     1     180.535 167.110 185.704  1.00  0.00     0.345 HD
ENDBRANCH   1   2
BRANCH   1   6
ATOM      6  C   UNL     1     180.983 166.280 182.558  1.00  0.00     0.099 C 
ATOM      7  O   UNL     1     181.703 166.543 181.558  1.00  0.00    -0.544 OA
ATOM      8  O   UNL     1     180.385 165.030 182.663  1.00  0.00    -0.544 OA
ENDBRANCH   1   6
BRANCH   1   9
ATOM      9  C   UNL     1     179.307 167.835 183.635  1.00  0.00     0.047 C 
ATOM     10  C   UNL     1     179.151 169.039 182.689  1.00  0.00     0.014 C 
ATOM     11  C   UNL     1     178.836 168.237 185.042  1.00  0.00     0.014 C 
ENDBRANCH   1   9
TORSDOF 3
ENDMDL
MODEL 3
REMARK VINA RESULT:    -3.289     17.634     18.611
REMARK INTER + INTRA:          -3.832
REMARK INTER:                  -3.770
REMARK INTRA:                  -0.062
REMARK UNBOUND:                -0.062
REMARK SMILES CC(C)[C@@H]([NH3+])C(=O)[O-]
REMARK SMILES IDX 4 1 5 2 6 6 7 7 8 8 2 9 1 10 3 11
REMARK H PARENT 5 3 5 4 5 5
REMARK Flexibility Score: inf
ROOT
ATOM      1  C   UNL     1     179.844 167.542 183.601  1.00  0.00     0.230 C 
ENDROOT
BRANCH   1   2
ATOM      2  N   UNL     1     180.627 167.242 184.809  1.00  0.00    -0.350 N 
ATOM      3  H   UNL     1     181.519 167.789 184.806  1.00  0.00     0.345 HD
ATOM      4  H   UNL     1     180.096 167.524 185.664  1.00  0.00     0.345 HD
ATOM      5  H   UNL     1     180.855 166.222 184.859  1.00  0.00     0.345 HD
ENDBRANCH   1   2
BRANCH   1   6
ATOM      6  C   UNL     1     179.625 166.272 182.815  1.00  0.00     0.099 C 
ATOM      7  O   UNL     1     178.504 166.028 182.295  1.00  0.00    -0.544 OA
ATOM      8  O   UNL     1     180.667 165.366 182.656  1.00  0.00    -0.544 OA
ENDBRANCH   1   6
BRANCH   1   9
ATOM      9  C   UNL     1     178.484 168.224 183.944  1.00  0.00     0.047 C 
ATOM     10  C   UNL     1     178.373 169.611 183.285  1.00  0.00     0.014 C 
ATOM     11  C   UNL     1     178.284 168.372 185.462  1.00  0.00     0.014 C 
ENDBRANCH   1   9
TORSDOF 3
ENDMDL
MODEL 4
REMARK VINA RESULT:    -3.280     13.823     14.711
REMARK INTER + INTRA:          -3.821
REMARK INTER:                  -3.765
REMARK INTRA:                  -0.056
REMARK UNBOUND:                -0.062
REMARK SMILES CC(C)[C@@H]([NH3+])C(=O)[O-]
REMARK SMILES IDX 4 1 5 2 6 6 7 7 8 8 2 9 1 10 3 11
REMARK H PARENT 5 3 5 4 5 5
REMARK Flexibility Score: inf
ROOT
ATOM      1  C   UNL     1     176.185 170.643 185.739  1.00  0.00     0.230 C 
ENDROOT
BRANCH   1   2
ATOM      2  N   UNL     1     175.436 170.916 186.976  1.00  0.00    -0.350 N 
ATOM      3  H   UNL     1     174.837 171.765 186.854  1.00  0.00     0.345 HD
ATOM      4  H   UNL     1     174.798 170.118 187.196  1.00  0.00     0.345 HD
ATOM      5  H   UNL     1     176.089 171.074 187.777  1.00  0.00     0.345 HD
ENDBRANCH   1   2
BRANCH   1   6
ATOM      6  C   UNL     1     177.451 169.894 186.075  1.00  0.00     0.099 C 
ATOM      7  O   UNL     1     178.377 170.459 186.716  1.00  0.00    -0.544 OA
ATOM      8  O   UNL     1     177.599 168.569 185.684  1.00  0.00    -0.544 OA
ENDBRANCH   1   6
BRANCH   1   9
ATOM      9  C   UNL     1     175.329 169.851 184.704  1.00  0.00     0.047 C 
ATOM     10  C   UNL     1     175.631 170.308 183.265  1.00  0.00     0.014 C 
ATOM     11  C   UNL     1     173.822 170.000 184.973  1.00  0.00     0.014 C 
ENDBRANCH   1   9
TORSDOF 3
ENDMDL
MODEL 5
REMARK VINA RESULT:    -3.259     14.580     15.533
REMARK INTER + INTRA:          -3.798
REMARK INTER:                  -3.730
REMARK INTRA:                  -0.068
REMARK UNBOUND:                -0.062
REMARK SMILES CC(C)[C@@H]([NH3+])C(=O)[O-]
REMARK SMILES IDX 4 1 5 2 6 6 7 7 8 8 2 9 1 10 3 11
REMARK H PARENT 5 3 5 4 5 5
REMARK Flexibility Score: inf
ROOT
ATOM      1  C   UNL     1     177.442 169.630 185.912  1.00  0.00     0.230 C 
ENDROOT
BRANCH   1   2
ATOM      2  N   UNL     1     178.565 170.380 186.496  1.00  0.00    -0.350 N 
ATOM      3  H   UNL     1     178.209 171.087 187.180  1.00  0.00     0.345 HD
ATOM      4  H   UNL     1     179.197 169.734 187.022  1.00  0.00     0.345 HD
ATOM      5  H   UNL     1     179.109 170.873 185.751  1.00  0.00     0.345 HD
ENDBRANCH   1   2
BRANCH   1   6
ATOM      6  C   UNL     1     176.270 170.558 185.709  1.00  0.00     0.099 C 
ATOM      7  O   UNL     1     176.386 171.792 185.936  1.00  0.00    -0.544 OA
ATOM      8  O   UNL     1     175.054 170.055 185.261  1.00  0.00    -0.544 OA
ENDBRANCH   1   6
BRANCH   1   9
ATOM      9  C   UNL     1     177.840 168.936 184.573  1.00  0.00     0.047 C 
ATOM     10  C   UNL     1     179.097 168.065 184.748  1.00  0.00     0.014 C 
ATOM     11  C   UNL     1     178.089 169.958 183.451  1.00  0.00     0.014 C 
ENDBRANCH   1   9
TORSDOF 3
ENDMDL
MODEL 6
REMARK VINA RESULT:    -3.255      4.673      5.674
REMARK INTER + INTRA:          -3.793
REMARK INTER:                  -3.726
REMARK INTRA:                  -0.067
REMARK UNBOUND:                -0.062
REMARK SMILES CC(C)[C@@H]([NH3+])C(=O)[O-]
REMARK SMILES IDX 4 1 5 2 6 6 7 7 8 8 2 9 1 10 3 11
REMARK H PARENT 5 3 5 4 5 5
REMARK Flexibility Score: inf
ROOT
ATOM      1  C   UNL     1     166.781 174.750 185.773  1.00  0.00     0.230 C 
ENDROOT
BRANCH   1   2
ATOM      2  N   UNL     1     165.638 173.942 186.224  1.00  0.00    -0.350 N 
ATOM      3  H   UNL     1     164.838 174.563 186.484  1.00  0.00     0.345 HD
ATOM      4  H   UNL     1     165.307 173.320 185.452  1.00  0.00     0.345 HD
ATOM      5  H   UNL     1     165.900 173.361 187.054  1.00  0.00     0.345 HD
ENDBRANCH   1   2
BRANCH   1   6
ATOM      6  C   UNL     1     167.994 173.864 185.622  1.00  0.00     0.099 C 
ATOM      7  O   UNL     1     167.900 172.620 185.792  1.00  0.00    -0.544 OA
ATOM      8  O   UNL     1     169.222 174.420 185.285  1.00  0.00    -0.544 OA
ENDBRANCH   1   6
BRANCH   1   9
ATOM      9  C   UNL     1     166.473 175.502 184.441  1.00  0.00     0.047 C 
ATOM     10  C   UNL     1     165.179 176.328 184.555  1.00  0.00     0.014 C 
ATOM     11  C   UNL     1     166.348 174.533 183.253  1.00  0.00     0.014 C 
ENDBRANCH   1   9
TORSDOF 3
ENDMDL
MODEL 7
REMARK VINA RESULT:    -3.169     12.898     13.832
REMARK INTER + INTRA:          -3.694
REMARK INTER:                  -3.640
REMARK INTRA:                  -0.054
REMARK UNBOUND:                -0.062
REMARK SMILES CC(C)[C@@H]([NH3+])C(=O)[O-]
REMARK SMILES IDX 4 1 5 2 6 6 7 7 8 8 2 9 1 10 3 11
REMARK H PARENT 5 3 5 4 5 5
REMARK Flexibility Score: inf
ROOT
ATOM      1  C   UNL     1     175.945 171.360 185.604  1.00  0.00     0.230 C 
ENDROOT
BRANCH   1   2
ATOM      2  N   UNL     1     175.532 170.993 186.968  1.00  0.00    -0.350 N 
ATOM      3  H   UNL     1     175.882 170.036 187.205  1.00  0.00     0.345 HD
ATOM      4  H   UNL     1     175.949 171.653 187.662  1.00  0.00     0.345 HD
ATOM      5  H   UNL     1     174.490 171.004 187.055  1.00  0.00     0.345 HD
ENDBRANCH   1   2
BRANCH   1   6
ATOM      6  C   UNL     1     175.684 172.830 185.380  1.00  0.00     0.099 C 
ATOM      7  O   UNL     1     176.375 173.482 184.553  1.00  0.00    -0.544 OA
ATOM      8  O   UNL     1     174.670 173.470 186.082  1.00  0.00    -0.544 OA
ENDBRANCH   1   6
BRANCH   1   9
ATOM      9  C   UNL     1     177.443 171.015 185.337  1.00  0.00     0.047 C 
ATOM     10  C   UNL     1     177.596 170.136 184.083  1.00  0.00     0.014 C 
ATOM     11  C   UNL     1     178.088 170.299 186.535  1.00  0.00     0.014 C 
ENDBRANCH   1   9
TORSDOF 3
ENDMDL
MODEL 8
REMARK VINA RESULT:    -3.122      7.073      8.069
REMARK INTER + INTRA:          -3.640
REMARK INTER:                  -3.590
REMARK INTRA:                  -0.050
REMARK UNBOUND:                -0.062
REMARK SMILES CC(C)[C@@H]([NH3+])C(=O)[O-]
REMARK SMILES IDX 4 1 5 2 6 6 7 7 8 8 2 9 1 10 3 11
REMARK H PARENT 5 3 5 4 5 5
REMARK Flexibility Score: inf
ROOT
ATOM      1  C   UNL     1     169.652 173.443 185.639  1.00  0.00     0.230 C 
ENDROOT
BRANCH   1   2
ATOM      2  N   UNL     1     169.739 174.907 185.518  1.00  0.00    -0.350 N 
ATOM      3  H   UNL     1     168.786 175.332 185.593  1.00  0.00     0.345 HD
ATOM      4  H   UNL     1     170.314 175.301 186.297  1.00  0.00     0.345 HD
ATOM      5  H   UNL     1     170.160 175.179 184.600  1.00  0.00     0.345 HD
ENDBRANCH   1   2
BRANCH   1   6
ATOM      6  C   UNL     1     170.527 172.982 186.780  1.00  0.00     0.099 C 
ATOM      7  O   UNL     1     170.139 173.107 187.972  1.00  0.00    -0.544 OA
ATOM      8  O   UNL     1     171.765 172.408 186.518  1.00  0.00    -0.544 OA
ENDBRANCH   1   6
BRANCH   1   9
ATOM      9  C   UNL     1     168.182 172.962 185.836  1.00  0.00     0.047 C 
ATOM     10  C   UNL     1     167.753 172.006 184.708  1.00  0.00     0.014 C 
ATOM     11  C   UNL     1     167.197 174.141 185.897  1.00  0.00     0.014 C 
ENDBRANCH   1   9
TORSDOF 3
ENDMDL
MODEL 9
REMARK VINA RESULT:    -3.083      4.057      4.655
REMARK INTER + INTRA:          -3.596
REMARK INTER:                  -3.550
REMARK INTRA:                  -0.046
REMARK UNBOUND:                -0.062
REMARK SMILES CC(C)[C@@H]([NH3+])C(=O)[O-]
REMARK SMILES IDX 4 1 5 2 6 6 7 7 8 8 2 9 1 10 3 11
REMARK H PARENT 5 3 5 4 5 5
REMARK Flexibility Score: inf
ROOT
ATOM      1  C   UNL     1     166.435 175.522 184.656  1.00  0.00     0.230 C 
ENDROOT
BRANCH   1   2
ATOM      2  N   UNL     1     166.382 176.466 185.784  1.00  0.00    -0.350 N 
ATOM      3  H   UNL     1     166.924 176.088 186.595  1.00  0.00     0.345 HD
ATOM      4  H   UNL     1     166.823 177.374 185.515  1.00  0.00     0.345 HD
ATOM      5  H   UNL     1     165.394 176.631 186.083  1.00  0.00     0.345 HD
ENDBRANCH   1   2
BRANCH   1   6
ATOM      6  C   UNL     1     166.391 174.108 185.183  1.00  0.00     0.099 C 
ATOM      7  O   UNL     1     166.755 173.145 184.457  1.00  0.00    -0.544 OA
ATOM      8  O   UNL     1     165.954 173.863 186.479  1.00  0.00    -0.544 OA
ENDBRANCH   1   6
BRANCH   1   9
ATOM      9  C   UNL     1     165.282 175.770 183.635  1.00  0.00     0.047 C 
ATOM     10  C   UNL     1     165.835 176.163 182.254  1.00  0.00     0.014 C 
ATOM     11  C   UNL     1     164.315 176.864 184.119  1.00  0.00     0.014 C 
ENDBRANCH   1   9
TORSDOF 3
ENDMDL
