MODEL 1
REMARK VINA RESULT:    -3.947      0.000      0.000
REMARK INTER + INTRA:          -7.781
REMARK INTER:                  -6.139
REMARK INTRA:                  -1.642
REMARK UNBOUND:                -1.642
REMARK SMILES COc1cc(CNC(=O)CCCCC=CC(C)C)ccc1O
REMARK SMILES IDX 11 1 12 2 13 3 14 4 15 5 16 6 17 7 18 8 10 9 8 10 9 11 7 12
REMARK SMILES IDX 6 14 5 15 4 16 19 17 3 18 20 19 21 20 2 21 1 22 22 23
REMARK H PARENT 7 13 22 24
REMARK Flexibility Score: inf
ROOT
ATOM      1  C   UNL     1     129.704 132.547 145.447  1.00  0.00     0.010 C 
ENDROOT
BRANCH   1   2
ATOM      2  C   UNL     1     130.071 132.985 144.021  1.00  0.00     0.005 C 
BRANCH   2   3
ATOM      3  C   UNL     1     128.810 133.241 143.186  1.00  0.00     0.027 C 
BRANCH   3   4
ATOM      4  C   UNL     1     128.992 134.414 142.264  1.00  0.00    -0.031 C 
ATOM      5  C   UNL     1     130.153 135.084 142.207  1.00  0.00    -0.028 C 
BRANCH   5   6
ATOM      6  C   UNL     1     130.371 136.265 141.290  1.00  0.00     0.005 C 
ATOM      7  C   UNL     1     131.747 136.896 141.516  1.00  0.00     0.012 C 
ATOM      8  C   UNL     1     129.252 137.303 141.438  1.00  0.00     0.012 C 
ENDBRANCH   5   6
ENDBRANCH   3   4
ENDBRANCH   2   3
ENDBRANCH   1   2
BRANCH   1   9
ATOM      9  C   UNL     1     130.900 131.958 146.208  1.00  0.00     0.100 C 
BRANCH   9  10
ATOM     10  C   UNL     1     131.858 133.026 146.651  1.00  0.00     0.220 C 
ATOM     11  O   UNL     1     133.047 133.007 146.228  1.00  0.00    -0.275 OA
ATOM     12  N   UNL     1     131.418 134.071 147.532  1.00  0.00    -0.352 N 
ATOM     13  H   UNL     1     130.441 134.042 147.902  1.00  0.00     0.163 HD
BRANCH  12  14
ATOM     14  C   UNL     1     132.199 135.281 147.765  1.00  0.00     0.151 C 
BRANCH  14  15
ATOM     15  C   UNL     1     131.829 136.326 146.750  1.00  0.00    -0.025 A 
ATOM     16  C   UNL     1     132.821 136.966 145.990  1.00  0.00     0.056 A 
ATOM     17  C   UNL     1     130.480 136.631 146.520  1.00  0.00     0.009 A 
ATOM     18  C   UNL     1     132.471 137.939 145.032  1.00  0.00     0.160 A 
ATOM     19  C   UNL     1     130.126 137.598 145.576  1.00  0.00     0.050 A 
ATOM     20  C   UNL     1     131.117 138.260 144.841  1.00  0.00     0.157 A 
BRANCH  18  21
ATOM     21  O   UNL     1     133.432 138.604 144.254  1.00  0.00    -0.493 OA
ATOM     22  C   UNL     1     134.490 139.397 144.785  1.00  0.00     0.278 C 
ENDBRANCH  18  21
BRANCH  20  23
ATOM     23  O   UNL     1     130.763 139.239 143.911  1.00  0.00    -0.504 OA
ATOM     24  H   UNL     1     131.192 140.156 143.913  1.00  0.00     0.293 HD
ENDBRANCH  20  23
ENDBRANCH  14  15
ENDBRANCH  12  14
ENDBRANCH   9  10
ENDBRANCH   1   9
TORSDOF 10
ENDMDL
MODEL 2
REMARK VINA RESULT:    -3.916     11.650     15.281
REMARK INTER + INTRA:          -7.733
REMARK INTER:                  -5.637
REMARK INTRA:                  -2.095
REMARK UNBOUND:                -1.642
REMARK SMILES COc1cc(CNC(=O)CCCCC=CC(C)C)ccc1O
REMARK SMILES IDX 11 1 12 2 13 3 14 4 15 5 16 6 17 7 18 8 10 9 8 10 9 11 7 12
REMARK SMILES IDX 6 14 5 15 4 16 19 17 3 18 20 19 21 20 2 21 1 22 22 23
REMARK H PARENT 7 13 22 24
REMARK Flexibility Score: inf
ROOT
ATOM      1  C   UNL     1     143.349 143.308 147.166  1.00  0.00     0.010 C 
ENDROOT
BRANCH   1   2
ATOM      2  C   UNL     1     143.694 142.235 148.210  1.00  0.00     0.005 C 
BRANCH   2   3
ATOM      3  C   UNL     1     143.465 140.828 147.645  1.00  0.00     0.027 C 
BRANCH   3   4
ATOM      4  C   UNL     1     142.794 140.880 146.300  1.00  0.00    -0.031 C 
ATOM      5  C   UNL     1     142.495 139.760 145.625  1.00  0.00    -0.028 C 
BRANCH   5   6
ATOM      6  C   UNL     1     141.820 139.776 144.274  1.00  0.00     0.005 C 
ATOM      7  C   UNL     1     140.354 140.204 144.390  1.00  0.00     0.012 C 
ATOM      8  C   UNL     1     141.949 138.422 143.567  1.00  0.00     0.012 C 
ENDBRANCH   5   6
ENDBRANCH   3   4
ENDBRANCH   2   3
ENDBRANCH   1   2
BRANCH   1   9
ATOM      9  C   UNL     1     144.402 144.422 147.098  1.00  0.00     0.100 C 
BRANCH   9  10
ATOM     10  C   UNL     1     145.452 144.133 146.064  1.00  0.00     0.220 C 
ATOM     11  O   UNL     1     146.648 144.470 146.286  1.00  0.00    -0.275 OA
ATOM     12  N   UNL     1     145.101 143.461 144.846  1.00  0.00    -0.352 N 
ATOM     13  H   UNL     1     144.097 143.229 144.667  1.00  0.00     0.163 HD
BRANCH  12  14
ATOM     14  C   UNL     1     146.101 142.897 143.945  1.00  0.00     0.151 C 
BRANCH  14  15
ATOM     15  C   UNL     1     145.968 141.400 143.914  1.00  0.00    -0.025 A 
ATOM     16  C   UNL     1     146.123 140.645 145.087  1.00  0.00     0.056 A 
ATOM     17  C   UNL     1     145.633 140.752 142.716  1.00  0.00     0.009 A 
ATOM     18  C   UNL     1     145.988 139.242 145.057  1.00  0.00     0.160 A 
ATOM     19  C   UNL     1     145.503 139.362 142.678  1.00  0.00     0.050 A 
ATOM     20  C   UNL     1     145.690 138.605 143.841  1.00  0.00     0.157 A 
BRANCH  18  21
ATOM     21  O   UNL     1     146.138 138.450 146.206  1.00  0.00    -0.493 OA
ATOM     22  C   UNL     1     147.382 138.194 146.851  1.00  0.00     0.278 C 
ENDBRANCH  18  21
BRANCH  20  23
ATOM     23  O   UNL     1     145.578 137.215 143.798  1.00  0.00    -0.504 OA
ATOM     24  H   UNL     1     144.762 136.734 144.153  1.00  0.00     0.293 HD
ENDBRANCH  20  23
ENDBRANCH  14  15
ENDBRANCH  12  14
ENDBRANCH   9  10
ENDBRANCH   1   9
TORSDOF 10
ENDMDL
MODEL 3
REMARK VINA RESULT:    -3.833      2.283      4.560
REMARK INTER + INTRA:          -7.604
REMARK INTER:                  -5.736
REMARK INTRA:                  -1.868
REMARK UNBOUND:                -1.642
REMARK SMILES COc1cc(CNC(=O)CCCCC=CC(C)C)ccc1O
REMARK SMILES IDX 11 1 12 2 13 3 14 4 15 5 16 6 17 7 18 8 10 9 8 10 9 11 7 12
REMARK SMILES IDX 6 14 5 15 4 16 19 17 3 18 20 19 21 20 2 21 1 22 22 23
REMARK H PARENT 7 13 22 24
REMARK Flexibility Score: inf
ROOT
ATOM      1  C   UNL     1     129.696 132.696 144.460  1.00  0.00     0.010 C 
ENDROOT
BRANCH   1   2
ATOM      2  C   UNL     1     129.218 133.396 145.742  1.00  0.00     0.005 C 
BRANCH   2   3
ATOM      3  C   UNL     1     130.059 134.646 146.028  1.00  0.00     0.027 C 
BRANCH   3   4
ATOM      4  C   UNL     1     131.519 134.310 146.144  1.00  0.00    -0.031 C 
ATOM      5  C   UNL     1     132.465 135.111 145.631  1.00  0.00    -0.028 C 
BRANCH   5   6
ATOM      6  C   UNL     1     133.940 134.804 145.732  1.00  0.00     0.005 C 
ATOM      7  C   UNL     1     134.201 133.640 146.693  1.00  0.00     0.012 C 
ATOM      8  C   UNL     1     134.744 136.046 146.132  1.00  0.00     0.012 C 
ENDBRANCH   5   6
ENDBRANCH   3   4
ENDBRANCH   2   3
ENDBRANCH   1   2
BRANCH   1   9
ATOM      9  C   UNL     1     128.628 132.697 143.357  1.00  0.00     0.100 C 
BRANCH   9  10
ATOM     10  C   UNL     1     128.834 133.822 142.384  1.00  0.00     0.220 C 
ATOM     11  O   UNL     1     127.876 134.187 141.648  1.00  0.00    -0.275 OA
ATOM     12  N   UNL     1     130.102 134.490 142.310  1.00  0.00    -0.352 N 
ATOM     13  H   UNL     1     130.892 134.144 142.901  1.00  0.00     0.163 HD
BRANCH  12  14
ATOM     14  C   UNL     1     130.280 135.758 141.611  1.00  0.00     0.151 C 
BRANCH  14  15
ATOM     15  C   UNL     1     131.149 136.671 142.431  1.00  0.00    -0.025 A 
ATOM     16  C   UNL     1     130.602 137.418 143.487  1.00  0.00     0.056 A 
ATOM     17  C   UNL     1     132.526 136.742 142.177  1.00  0.00     0.009 A 
ATOM     18  C   UNL     1     131.420 138.266 144.261  1.00  0.00     0.160 A 
ATOM     19  C   UNL     1     133.341 137.583 142.937  1.00  0.00     0.050 A 
ATOM     20  C   UNL     1     132.791 138.353 143.969  1.00  0.00     0.157 A 
BRANCH  18  21
ATOM     21  O   UNL     1     130.912 139.031 145.322  1.00  0.00    -0.493 OA
ATOM     22  C   UNL     1     131.053 138.692 146.699  1.00  0.00     0.278 C 
ENDBRANCH  18  21
BRANCH  20  23
ATOM     23  O   UNL     1     133.604 139.208 144.715  1.00  0.00    -0.504 OA
ATOM     24  H   UNL     1     133.941 138.955 145.635  1.00  0.00     0.293 HD
ENDBRANCH  20  23
ENDBRANCH  14  15
ENDBRANCH  12  14
ENDBRANCH   9  10
ENDBRANCH   1   9
TORSDOF 10
ENDMDL
MODEL 4
REMARK VINA RESULT:    -3.818     12.027     15.159
REMARK INTER + INTRA:          -7.581
REMARK INTER:                  -5.499
REMARK INTRA:                  -2.082
REMARK UNBOUND:                -1.642
REMARK SMILES COc1cc(CNC(=O)CCCCC=CC(C)C)ccc1O
REMARK SMILES IDX 11 1 12 2 13 3 14 4 15 5 16 6 17 7 18 8 10 9 8 10 9 11 7 12
REMARK SMILES IDX 6 14 5 15 4 16 19 17 3 18 20 19 21 20 2 21 1 22 22 23
REMARK H PARENT 7 13 22 24
REMARK Flexibility Score: inf
ROOT
ATOM      1  C   UNL     1     143.748 143.241 148.614  1.00  0.00     0.010 C 
ENDROOT
BRANCH   1   2
ATOM      2  C   UNL     1     144.113 141.821 148.157  1.00  0.00     0.005 C 
BRANCH   2   3
ATOM      3  C   UNL     1     142.853 141.010 147.830  1.00  0.00     0.027 C 
BRANCH   3   4
ATOM      4  C   UNL     1     142.724 140.772 146.351  1.00  0.00    -0.031 C 
ATOM      5  C   UNL     1     142.455 139.552 145.861  1.00  0.00    -0.028 C 
BRANCH   5   6
ATOM      6  C   UNL     1     142.316 139.278 144.383  1.00  0.00     0.005 C 
ATOM      7  C   UNL     1     141.028 139.888 143.823  1.00  0.00     0.012 C 
ATOM      8  C   UNL     1     142.397 137.777 144.082  1.00  0.00     0.012 C 
ENDBRANCH   5   6
ENDBRANCH   3   4
ENDBRANCH   2   3
ENDBRANCH   1   2
BRANCH   1   9
ATOM      9  C   UNL     1     143.683 144.236 147.447  1.00  0.00     0.100 C 
BRANCH   9  10
ATOM     10  C   UNL     1     144.891 144.134 146.561  1.00  0.00     0.220 C 
ATOM     11  O   UNL     1     146.012 144.521 146.995  1.00  0.00    -0.275 OA
ATOM     12  N   UNL     1     144.776 143.582 145.241  1.00  0.00    -0.352 N 
ATOM     13  H   UNL     1     143.830 143.308 144.889  1.00  0.00     0.163 HD
BRANCH  12  14
ATOM     14  C   UNL     1     145.937 143.190 144.451  1.00  0.00     0.151 C 
BRANCH  14  15
ATOM     15  C   UNL     1     145.905 141.707 144.205  1.00  0.00    -0.025 A 
ATOM     16  C   UNL     1     145.671 141.202 142.916  1.00  0.00     0.056 A 
ATOM     17  C   UNL     1     146.165 140.818 145.258  1.00  0.00     0.009 A 
ATOM     18  C   UNL     1     145.651 139.812 142.686  1.00  0.00     0.160 A 
ATOM     19  C   UNL     1     146.142 139.439 145.037  1.00  0.00     0.050 A 
ATOM     20  C   UNL     1     145.875 138.934 143.759  1.00  0.00     0.157 A 
BRANCH  18  21
ATOM     21  O   UNL     1     145.417 139.267 141.414  1.00  0.00    -0.493 OA
ATOM     22  C   UNL     1     144.125 139.005 140.875  1.00  0.00     0.278 C 
ENDBRANCH  18  21
BRANCH  20  23
ATOM     23  O   UNL     1     145.834 137.555 143.545  1.00  0.00    -0.504 OA
ATOM     24  H   UNL     1     144.961 137.044 143.528  1.00  0.00     0.293 HD
ENDBRANCH  20  23
ENDBRANCH  14  15
ENDBRANCH  12  14
ENDBRANCH   9  10
ENDBRANCH   1   9
TORSDOF 10
ENDMDL
MODEL 5
REMARK VINA RESULT:    -3.760      5.139      8.076
REMARK INTER + INTRA:          -7.491
REMARK INTER:                  -6.661
REMARK INTRA:                  -0.830
REMARK UNBOUND:                -1.642
REMARK SMILES COc1cc(CNC(=O)CCCCC=CC(C)C)ccc1O
REMARK SMILES IDX 11 1 12 2 13 3 14 4 15 5 16 6 17 7 18 8 10 9 8 10 9 11 7 12
REMARK SMILES IDX 6 14 5 15 4 16 19 17 3 18 20 19 21 20 2 21 1 22 22 23
REMARK H PARENT 7 13 22 24
REMARK Flexibility Score: inf
ROOT
ATOM      1  C   UNL     1     136.247 138.560 143.660  1.00  0.00     0.010 C 
ENDROOT
BRANCH   1   2
ATOM      2  C   UNL     1     134.738 138.371 143.444  1.00  0.00     0.005 C 
BRANCH   2   3
ATOM      3  C   UNL     1     134.437 137.997 141.987  1.00  0.00     0.027 C 
BRANCH   3   4
ATOM      4  C   UNL     1     132.997 137.606 141.808  1.00  0.00    -0.031 C 
ATOM      5  C   UNL     1     132.256 137.175 142.840  1.00  0.00    -0.028 C 
BRANCH   5   6
ATOM      6  C   UNL     1     130.807 136.776 142.696  1.00  0.00     0.005 C 
ATOM      7  C   UNL     1     130.507 135.485 143.463  1.00  0.00     0.012 C 
ATOM      8  C   UNL     1     130.404 136.654 141.222  1.00  0.00     0.012 C 
ENDBRANCH   5   6
ENDBRANCH   3   4
ENDBRANCH   2   3
ENDBRANCH   1   2
BRANCH   1   9
ATOM      9  C   UNL     1     136.995 138.858 142.353  1.00  0.00     0.100 C 
BRANCH   9  10
ATOM     10  C   UNL     1     137.891 140.056 142.484  1.00  0.00     0.220 C 
ATOM     11  O   UNL     1     138.768 140.274 141.603  1.00  0.00    -0.275 OA
ATOM     12  N   UNL     1     137.735 140.957 143.590  1.00  0.00    -0.352 N 
ATOM     13  H   UNL     1     137.029 140.733 144.330  1.00  0.00     0.163 HD
BRANCH  12  14
ATOM     14  C   UNL     1     138.361 142.274 143.624  1.00  0.00     0.151 C 
BRANCH  14  15
ATOM     15  C   UNL     1     137.384 143.312 143.147  1.00  0.00    -0.025 A 
ATOM     16  C   UNL     1     136.298 143.693 143.951  1.00  0.00     0.056 A 
ATOM     17  C   UNL     1     137.585 143.948 141.913  1.00  0.00     0.009 A 
ATOM     18  C   UNL     1     135.389 144.674 143.506  1.00  0.00     0.160 A 
ATOM     19  C   UNL     1     136.686 144.917 141.464  1.00  0.00     0.050 A 
ATOM     20  C   UNL     1     135.583 145.273 142.250  1.00  0.00     0.157 A 
BRANCH  18  21
ATOM     21  O   UNL     1     134.289 145.080 144.277  1.00  0.00    -0.493 OA
ATOM     22  C   UNL     1     134.313 146.153 145.213  1.00  0.00     0.278 C 
ENDBRANCH  18  21
BRANCH  20  23
ATOM     23  O   UNL     1     134.675 146.228 141.791  1.00  0.00    -0.504 OA
ATOM     24  H   UNL     1     134.828 147.219 141.929  1.00  0.00     0.293 HD
ENDBRANCH  20  23
ENDBRANCH  14  15
ENDBRANCH  12  14
ENDBRANCH   9  10
ENDBRANCH   1   9
TORSDOF 10
ENDMDL
MODEL 6
REMARK VINA RESULT:    -3.743     11.610     14.251
REMARK INTER + INTRA:          -7.465
REMARK INTER:                  -5.205
REMARK INTRA:                  -2.259
REMARK UNBOUND:                -1.642
REMARK SMILES COc1cc(CNC(=O)CCCCC=CC(C)C)ccc1O
REMARK SMILES IDX 11 1 12 2 13 3 14 4 15 5 16 6 17 7 18 8 10 9 8 10 9 11 7 12
REMARK SMILES IDX 6 14 5 15 4 16 19 17 3 18 20 19 21 20 2 21 1 22 22 23
REMARK H PARENT 7 13 22 24
REMARK Flexibility Score: inf
ROOT
ATOM      1  C   UNL     1     141.277 138.564 142.995  1.00  0.00     0.010 C 
ENDROOT
BRANCH   1   2
ATOM      2  C   UNL     1     142.037 137.594 143.913  1.00  0.00     0.005 C 
BRANCH   2   3
ATOM      3  C   UNL     1     142.566 138.319 145.157  1.00  0.00     0.027 C 
BRANCH   3   4
ATOM      4  C   UNL     1     142.317 139.800 145.076  1.00  0.00    -0.031 C 
ATOM      5  C   UNL     1     142.473 140.594 146.145  1.00  0.00    -0.028 C 
BRANCH   5   6
ATOM      6  C   UNL     1     142.234 142.084 146.098  1.00  0.00     0.005 C 
ATOM      7  C   UNL     1     143.051 142.812 147.169  1.00  0.00     0.012 C 
ATOM      8  C   UNL     1     140.742 142.416 146.216  1.00  0.00     0.012 C 
ENDBRANCH   5   6
ENDBRANCH   3   4
ENDBRANCH   2   3
ENDBRANCH   1   2
BRANCH   1   9
ATOM      9  C   UNL     1     141.757 138.493 141.539  1.00  0.00     0.100 C 
BRANCH   9  10
ATOM     10  C   UNL     1     143.016 139.284 141.328  1.00  0.00     0.220 C 
ATOM     11  O   UNL     1     142.937 140.488 140.961  1.00  0.00    -0.275 OA
ATOM     12  N   UNL     1     144.296 138.680 141.565  1.00  0.00    -0.352 N 
ATOM     13  H   UNL     1     144.338 137.669 141.829  1.00  0.00     0.163 HD
BRANCH  12  14
ATOM     14  C   UNL     1     145.525 139.460 141.663  1.00  0.00     0.151 C 
BRANCH  14  15
ATOM     15  C   UNL     1     145.709 139.941 143.075  1.00  0.00    -0.025 A 
ATOM     16  C   UNL     1     146.055 139.042 144.097  1.00  0.00     0.056 A 
ATOM     17  C   UNL     1     145.589 141.307 143.370  1.00  0.00     0.009 A 
ATOM     18  C   UNL     1     146.236 139.497 145.418  1.00  0.00     0.160 A 
ATOM     19  C   UNL     1     145.763 141.764 144.678  1.00  0.00     0.050 A 
ATOM     20  C   UNL     1     146.074 140.863 145.704  1.00  0.00     0.157 A 
BRANCH  18  21
ATOM     21  O   UNL     1     146.578 138.631 146.468  1.00  0.00    -0.493 OA
ATOM     22  C   UNL     1     145.647 137.822 147.181  1.00  0.00     0.278 C 
ENDBRANCH  18  21
BRANCH  20  23
ATOM     23  O   UNL     1     146.229 141.319 147.014  1.00  0.00    -0.504 OA
ATOM     24  H   UNL     1     146.630 142.225 147.219  1.00  0.00     0.293 HD
ENDBRANCH  20  23
ENDBRANCH  14  15
ENDBRANCH  12  14
ENDBRANCH   9  10
ENDBRANCH   1   9
TORSDOF 10
ENDMDL
MODEL 7
REMARK VINA RESULT:    -3.735      2.327      4.300
REMARK INTER + INTRA:          -7.452
REMARK INTER:                  -5.312
REMARK INTRA:                  -2.139
REMARK UNBOUND:                -1.642
REMARK SMILES COc1cc(CNC(=O)CCCCC=CC(C)C)ccc1O
REMARK SMILES IDX 11 1 12 2 13 3 14 4 15 5 16 6 17 7 18 8 10 9 8 10 9 11 7 12
REMARK SMILES IDX 6 14 5 15 4 16 19 17 3 18 20 19 21 20 2 21 1 22 22 23
REMARK H PARENT 7 13 22 24
REMARK Flexibility Score: inf
ROOT
ATOM      1  C   UNL     1     129.907 132.589 144.986  1.00  0.00     0.010 C 
ENDROOT
BRANCH   1   2
ATOM      2  C   UNL     1     129.277 133.267 146.212  1.00  0.00     0.005 C 
BRANCH   2   3
ATOM      3  C   UNL     1     129.687 134.743 146.291  1.00  0.00     0.027 C 
BRANCH   3   4
ATOM      4  C   UNL     1     131.158 134.918 146.034  1.00  0.00    -0.031 C 
ATOM      5  C   UNL     1     131.901 135.757 146.770  1.00  0.00    -0.028 C 
BRANCH   5   6
ATOM      6  C   UNL     1     133.380 135.955 146.539  1.00  0.00     0.005 C 
ATOM      7  C   UNL     1     133.966 134.826 145.687  1.00  0.00     0.012 C 
ATOM      8  C   UNL     1     134.139 136.103 147.864  1.00  0.00     0.012 C 
ENDBRANCH   5   6
ENDBRANCH   3   4
ENDBRANCH   2   3
ENDBRANCH   1   2
BRANCH   1   9
ATOM      9  C   UNL     1     128.894 132.364 143.855  1.00  0.00     0.100 C 
BRANCH   9  10
ATOM     10  C   UNL     1     128.916 133.485 142.856  1.00  0.00     0.220 C 
ATOM     11  O   UNL     1     127.875 133.742 142.191  1.00  0.00    -0.275 OA
ATOM     12  N   UNL     1     130.104 134.270 142.677  1.00  0.00    -0.352 N 
ATOM     13  H   UNL     1     130.967 134.011 143.210  1.00  0.00     0.163 HD
BRANCH  12  14
ATOM     14  C   UNL     1     130.107 135.535 141.952  1.00  0.00     0.151 C 
BRANCH  14  15
ATOM     15  C   UNL     1     130.948 136.540 142.688  1.00  0.00    -0.025 A 
ATOM     16  C   UNL     1     132.339 136.578 142.505  1.00  0.00     0.056 A 
ATOM     17  C   UNL     1     130.337 137.484 143.527  1.00  0.00     0.009 A 
ATOM     18  C   UNL     1     133.125 137.527 143.189  1.00  0.00     0.160 A 
ATOM     19  C   UNL     1     131.110 138.425 144.211  1.00  0.00     0.050 A 
ATOM     20  C   UNL     1     132.501 138.442 144.054  1.00  0.00     0.157 A 
BRANCH  18  21
ATOM     21  O   UNL     1     134.518 137.597 143.036  1.00  0.00    -0.493 OA
ATOM     22  C   UNL     1     135.272 136.781 142.144  1.00  0.00     0.278 C 
ENDBRANCH  18  21
BRANCH  20  23
ATOM     23  O   UNL     1     133.273 139.370 144.754  1.00  0.00    -0.504 OA
ATOM     24  H   UNL     1     133.609 139.186 145.690  1.00  0.00     0.293 HD
ENDBRANCH  20  23
ENDBRANCH  14  15
ENDBRANCH  12  14
ENDBRANCH   9  10
ENDBRANCH   1   9
TORSDOF 10
ENDMDL
MODEL 8
REMARK VINA RESULT:    -3.727      9.496     13.300
REMARK INTER + INTRA:          -7.438
REMARK INTER:                  -6.747
REMARK INTRA:                  -0.691
REMARK UNBOUND:                -1.642
REMARK SMILES COc1cc(CNC(=O)CCCCC=CC(C)C)ccc1O
REMARK SMILES IDX 11 1 12 2 13 3 14 4 15 5 16 6 17 7 18 8 10 9 8 10 9 11 7 12
REMARK SMILES IDX 6 14 5 15 4 16 19 17 3 18 20 19 21 20 2 21 1 22 22 23
REMARK H PARENT 7 13 22 24
REMARK Flexibility Score: inf
ROOT
ATOM      1  C   UNL     1     144.105 138.835 141.790  1.00  0.00     0.010 C 
ENDROOT
BRANCH   1   2
ATOM      2  C   UNL     1     145.056 139.471 142.815  1.00  0.00     0.005 C 
BRANCH   2   3
ATOM      3  C   UNL     1     146.198 140.215 142.113  1.00  0.00     0.027 C 
BRANCH   3   4
ATOM      4  C   UNL     1     146.436 141.564 142.732  1.00  0.00    -0.031 C 
ATOM      5  C   UNL     1     145.756 141.965 143.816  1.00  0.00    -0.028 C 
BRANCH   5   6
ATOM      6  C   UNL     1     145.971 143.312 144.464  1.00  0.00     0.005 C 
ATOM      7  C   UNL     1     147.431 143.500 144.884  1.00  0.00     0.012 C 
ATOM      8  C   UNL     1     145.020 143.521 145.649  1.00  0.00     0.012 C 
ENDBRANCH   5   6
ENDBRANCH   3   4
ENDBRANCH   2   3
ENDBRANCH   1   2
BRANCH   1   9
ATOM      9  C   UNL     1     142.993 139.796 141.345  1.00  0.00     0.100 C 
BRANCH   9  10
ATOM     10  C   UNL     1     141.749 139.627 142.169  1.00  0.00     0.220 C 
ATOM     11  O   UNL     1     141.845 139.222 143.360  1.00  0.00    -0.275 OA
ATOM     12  N   UNL     1     140.465 139.946 141.612  1.00  0.00    -0.352 N 
ATOM     13  H   UNL     1     140.407 140.240 140.610  1.00  0.00     0.163 HD
BRANCH  12  14
ATOM     14  C   UNL     1     139.266 140.084 142.432  1.00  0.00     0.151 C 
BRANCH  14  15
ATOM     15  C   UNL     1     138.666 141.446 142.226  1.00  0.00    -0.025 A 
ATOM     16  C   UNL     1     137.837 142.016 143.206  1.00  0.00     0.056 A 
ATOM     17  C   UNL     1     138.975 142.181 141.072  1.00  0.00     0.009 A 
ATOM     18  C   UNL     1     137.282 143.298 143.015  1.00  0.00     0.160 A 
ATOM     19  C   UNL     1     138.425 143.449 140.875  1.00  0.00     0.050 A 
ATOM     20  C   UNL     1     137.572 144.004 141.836  1.00  0.00     0.157 A 
BRANCH  18  21
ATOM     21  O   UNL     1     136.447 143.901 143.968  1.00  0.00    -0.493 OA
ATOM     22  C   UNL     1     135.706 143.191 144.956  1.00  0.00     0.278 C 
ENDBRANCH  18  21
BRANCH  20  23
ATOM     23  O   UNL     1     137.008 145.264 141.629  1.00  0.00    -0.504 OA
ATOM     24  H   UNL     1     136.006 145.408 141.639  1.00  0.00     0.293 HD
ENDBRANCH  20  23
ENDBRANCH  14  15
ENDBRANCH  12  14
ENDBRANCH   9  10
ENDBRANCH   1   9
TORSDOF 10
ENDMDL
MODEL 9
REMARK VINA RESULT:    -3.606      2.141      3.913
REMARK INTER + INTRA:          -7.251
REMARK INTER:                  -4.927
REMARK INTRA:                  -2.324
REMARK UNBOUND:                -1.642
REMARK SMILES COc1cc(CNC(=O)CCCCC=CC(C)C)ccc1O
REMARK SMILES IDX 11 1 12 2 13 3 14 4 15 5 16 6 17 7 18 8 10 9 8 10 9 11 7 12
REMARK SMILES IDX 6 14 5 15 4 16 19 17 3 18 20 19 21 20 2 21 1 22 22 23
REMARK H PARENT 7 13 22 24
REMARK Flexibility Score: inf
ROOT
ATOM      1  C   UNL     1     134.429 133.810 146.755  1.00  0.00     0.010 C 
ENDROOT
BRANCH   1   2
ATOM      2  C   UNL     1     134.211 135.069 147.608  1.00  0.00     0.005 C 
BRANCH   2   3
ATOM      3  C   UNL     1     133.897 136.281 146.722  1.00  0.00     0.027 C 
BRANCH   3   4
ATOM      4  C   UNL     1     134.079 135.958 145.265  1.00  0.00    -0.031 C 
ATOM      5  C   UNL     1     134.398 136.908 144.374  1.00  0.00    -0.028 C 
BRANCH   5   6
ATOM      6  C   UNL     1     134.591 136.617 142.904  1.00  0.00     0.005 C 
ATOM      7  C   UNL     1     135.983 136.043 142.629  1.00  0.00     0.012 C 
ATOM      8  C   UNL     1     134.323 137.861 142.048  1.00  0.00     0.012 C 
ENDBRANCH   5   6
ENDBRANCH   3   4
ENDBRANCH   2   3
ENDBRANCH   1   2
BRANCH   1   9
ATOM      9  C   UNL     1     133.537 132.640 147.194  1.00  0.00     0.100 C 
BRANCH   9  10
ATOM     10  C   UNL     1     132.089 132.902 146.896  1.00  0.00     0.220 C 
ATOM     11  O   UNL     1     131.256 132.932 147.844  1.00  0.00    -0.275 OA
ATOM     12  N   UNL     1     131.660 133.138 145.546  1.00  0.00    -0.352 N 
ATOM     13  H   UNL     1     132.361 133.067 144.773  1.00  0.00     0.163 HD
BRANCH  12  14
ATOM     14  C   UNL     1     130.344 133.679 145.224  1.00  0.00     0.151 C 
BRANCH  14  15
ATOM     15  C   UNL     1     130.463 135.142 144.899  1.00  0.00    -0.025 A 
ATOM     16  C   UNL     1     130.320 136.111 145.906  1.00  0.00     0.056 A 
ATOM     17  C   UNL     1     130.773 135.546 143.592  1.00  0.00     0.009 A 
ATOM     18  C   UNL     1     130.441 137.481 145.601  1.00  0.00     0.160 A 
ATOM     19  C   UNL     1     130.890 136.902 143.282  1.00  0.00     0.050 A 
ATOM     20  C   UNL     1     130.714 137.870 144.279  1.00  0.00     0.157 A 
BRANCH  18  21
ATOM     21  O   UNL     1     130.302 138.481 146.576  1.00  0.00    -0.493 OA
ATOM     22  C   UNL     1     131.351 138.926 147.429  1.00  0.00     0.278 C 
ENDBRANCH  18  21
BRANCH  20  23
ATOM     23  O   UNL     1     130.812 139.226 143.963  1.00  0.00    -0.504 OA
ATOM     24  H   UNL     1     131.264 139.887 144.583  1.00  0.00     0.293 HD
ENDBRANCH  20  23
ENDBRANCH  14  15
ENDBRANCH  12  14
ENDBRANCH   9  10
ENDBRANCH   1   9
TORSDOF 10
ENDMDL
