MODEL 1
REMARK VINA RESULT:    -5.274      0.000      0.000
REMARK INTER + INTRA:          -5.929
REMARK INTER:                  -5.736
REMARK INTRA:                  -0.193
REMARK UNBOUND:                -0.193
REMARK SMILES Cc1ccc(C(C)C)c(O)c1
REMARK SMILES IDX 1 1 2 2 11 3 9 4 5 5 4 6 3 7 10 8 6 10 7 11 8 12
REMARK H PARENT 10 9
REMARK Flexibility Score: inf
ROOT
ATOM      1  C   UNL     1      39.594 -26.388   2.637  1.00  0.00     0.044 C 
ATOM      2  C   UNL     1      39.634 -25.319   1.586  1.00  0.00    -0.047 A 
ATOM      3  C   UNL     1      40.761 -25.176   0.766  1.00  0.00     0.049 A 
ATOM      4  C   UNL     1      40.793 -24.203  -0.245  1.00  0.00     0.119 A 
ATOM      5  C   UNL     1      39.674 -23.361  -0.451  1.00  0.00    -0.004 A 
ATOM      6  C   UNL     1      38.542 -23.529   0.367  1.00  0.00     0.008 A 
ATOM      7  C   UNL     1      38.519 -24.501   1.369  1.00  0.00     0.004 A 
ENDROOT
BRANCH   4   8
ATOM      8  O   UNL     1      41.933 -24.080  -1.037  1.00  0.00    -0.508 OA
ATOM      9  H   UNL     1      42.058 -23.303  -1.675  1.00  0.00     0.293 HD
ENDBRANCH   4   8
BRANCH   5  10
ATOM     10  C   UNL     1      39.649 -22.287  -1.531  1.00  0.00     0.017 C 
ATOM     11  C   UNL     1      38.421 -22.420  -2.439  1.00  0.00     0.012 C 
ATOM     12  C   UNL     1      39.761 -20.878  -0.936  1.00  0.00     0.012 C 
ENDBRANCH   5  10
TORSDOF 2
ENDMDL
MODEL 2
REMARK VINA RESULT:    -5.028      9.885     10.914
REMARK INTER + INTRA:          -5.662
REMARK INTER:                  -5.477
REMARK INTRA:                  -0.185
REMARK UNBOUND:                -0.193
REMARK SMILES Cc1ccc(C(C)C)c(O)c1
REMARK SMILES IDX 1 1 2 2 11 3 9 4 5 5 4 6 3 7 10 8 6 10 7 11 8 12
REMARK H PARENT 10 9
REMARK Flexibility Score: inf
ROOT
ATOM      1  C   UNL     1      43.886 -28.545   8.266  1.00  0.00     0.044 C 
ATOM      2  C   UNL     1      45.150 -28.109   7.585  1.00  0.00    -0.047 A 
ATOM      3  C   UNL     1      46.278 -27.767   8.341  1.00  0.00     0.049 A 
ATOM      4  C   UNL     1      47.476 -27.393   7.713  1.00  0.00     0.119 A 
ATOM      5  C   UNL     1      47.556 -27.372   6.299  1.00  0.00    -0.004 A 
ATOM      6  C   UNL     1      46.421 -27.738   5.553  1.00  0.00     0.008 A 
ATOM      7  C   UNL     1      45.234 -28.109   6.187  1.00  0.00     0.004 A 
ENDROOT
BRANCH   4   8
ATOM      8  O   UNL     1      48.577 -27.048   8.493  1.00  0.00    -0.508 OA
ATOM      9  H   UNL     1      48.476 -26.534   9.361  1.00  0.00     0.293 HD
ENDBRANCH   4   8
BRANCH   5  10
ATOM     10  C   UNL     1      48.827 -26.976   5.560  1.00  0.00     0.017 C 
ATOM     11  C   UNL     1      49.791 -28.159   5.409  1.00  0.00     0.012 C 
ATOM     12  C   UNL     1      48.519 -26.322   4.207  1.00  0.00     0.012 C 
ENDBRANCH   5  10
TORSDOF 2
ENDMDL
MODEL 3
REMARK VINA RESULT:    -4.937      1.702      2.093
REMARK INTER + INTRA:          -5.563
REMARK INTER:                  -5.369
REMARK INTRA:                  -0.195
REMARK UNBOUND:                -0.193
REMARK SMILES Cc1ccc(C(C)C)c(O)c1
REMARK SMILES IDX 1 1 2 2 11 3 9 4 5 5 4 6 3 7 10 8 6 10 7 11 8 12
REMARK H PARENT 10 9
REMARK Flexibility Score: inf
ROOT
ATOM      1  C   UNL     1      39.649 -25.877   2.323  1.00  0.00     0.044 C 
ATOM      2  C   UNL     1      39.529 -25.361   0.920  1.00  0.00    -0.047 A 
ATOM      3  C   UNL     1      40.555 -24.590   0.360  1.00  0.00     0.049 A 
ATOM      4  C   UNL     1      40.469 -24.134  -0.964  1.00  0.00     0.119 A 
ATOM      5  C   UNL     1      39.340 -24.463  -1.753  1.00  0.00    -0.004 A 
ATOM      6  C   UNL     1      38.326 -25.255  -1.184  1.00  0.00     0.008 A 
ATOM      7  C   UNL     1      38.422 -25.705   0.134  1.00  0.00     0.004 A 
ENDROOT
BRANCH   4   8
ATOM      8  O   UNL     1      41.502 -23.360  -1.488  1.00  0.00    -0.508 OA
ATOM      9  H   UNL     1      42.436 -23.732  -1.613  1.00  0.00     0.293 HD
ENDBRANCH   4   8
BRANCH   5  10
ATOM     10  C   UNL     1      39.188 -23.998  -3.195  1.00  0.00     0.017 C 
ATOM     11  C   UNL     1      39.500 -25.121  -4.192  1.00  0.00     0.012 C 
ATOM     12  C   UNL     1      37.808 -23.381  -3.453  1.00  0.00     0.012 C 
ENDBRANCH   5  10
TORSDOF 2
ENDMDL
MODEL 4
REMARK VINA RESULT:    -4.927      6.192      7.896
REMARK INTER + INTRA:          -5.552
REMARK INTER:                  -5.361
REMARK INTRA:                  -0.191
REMARK UNBOUND:                -0.193
REMARK SMILES Cc1ccc(C(C)C)c(O)c1
REMARK SMILES IDX 1 1 2 2 11 3 9 4 5 5 4 6 3 7 10 8 6 10 7 11 8 12
REMARK H PARENT 10 9
REMARK Flexibility Score: inf
ROOT
ATOM      1  C   UNL     1      37.317 -24.509  -4.853  1.00  0.00     0.044 C 
ATOM      2  C   UNL     1      38.483 -24.642  -5.787  1.00  0.00    -0.047 A 
ATOM      3  C   UNL     1      38.420 -24.102  -7.078  1.00  0.00     0.049 A 
ATOM      4  C   UNL     1      39.518 -24.190  -7.946  1.00  0.00     0.119 A 
ATOM      5  C   UNL     1      40.712 -24.818  -7.516  1.00  0.00    -0.004 A 
ATOM      6  C   UNL     1      40.768 -25.339  -6.210  1.00  0.00     0.008 A 
ATOM      7  C   UNL     1      39.670 -25.246  -5.353  1.00  0.00     0.004 A 
ENDROOT
BRANCH   4   8
ATOM      8  O   UNL     1      39.420 -23.652  -9.228  1.00  0.00    -0.508 OA
ATOM      9  H   UNL     1      39.588 -24.211 -10.056  1.00  0.00     0.293 HD
ENDBRANCH   4   8
BRANCH   5  10
ATOM     10  C   UNL     1      41.936 -24.945  -8.412  1.00  0.00     0.017 C 
ATOM     11  C   UNL     1      43.108 -24.099  -7.898  1.00  0.00     0.012 C 
ATOM     12  C   UNL     1      42.345 -26.409  -8.616  1.00  0.00     0.012 C 
ENDBRANCH   5  10
TORSDOF 2
ENDMDL
MODEL 5
REMARK VINA RESULT:    -4.897      9.671     11.918
REMARK INTER + INTRA:          -5.520
REMARK INTER:                  -5.328
REMARK INTRA:                  -0.192
REMARK UNBOUND:                -0.193
REMARK SMILES Cc1ccc(C(C)C)c(O)c1
REMARK SMILES IDX 1 1 2 2 11 3 9 4 5 5 4 6 3 7 10 8 6 10 7 11 8 12
REMARK H PARENT 10 9
REMARK Flexibility Score: inf
ROOT
ATOM      1  C   UNL     1      45.285 -28.961   4.928  1.00  0.00     0.044 C 
ATOM      2  C   UNL     1      45.863 -28.383   6.186  1.00  0.00    -0.047 A 
ATOM      3  C   UNL     1      45.282 -28.671   7.427  1.00  0.00     0.049 A 
ATOM      4  C   UNL     1      45.836 -28.165   8.613  1.00  0.00     0.119 A 
ATOM      5  C   UNL     1      47.003 -27.364   8.562  1.00  0.00    -0.004 A 
ATOM      6  C   UNL     1      47.588 -27.100   7.310  1.00  0.00     0.008 A 
ATOM      7  C   UNL     1      47.029 -27.609   6.136  1.00  0.00     0.004 A 
ENDROOT
BRANCH   4   8
ATOM      8  O   UNL     1      45.229 -28.461   9.831  1.00  0.00    -0.508 OA
ATOM      9  H   UNL     1      44.224 -28.558   9.916  1.00  0.00     0.293 HD
ENDBRANCH   4   8
BRANCH   5  10
ATOM     10  C   UNL     1      47.651 -26.787   9.813  1.00  0.00     0.017 C 
ATOM     11  C   UNL     1      48.992 -27.462  10.125  1.00  0.00     0.012 C 
ATOM     12  C   UNL     1      47.794 -25.262   9.729  1.00  0.00     0.012 C 
ENDBRANCH   5  10
TORSDOF 2
ENDMDL
MODEL 6
REMARK VINA RESULT:    -4.888     16.337     17.446
REMARK INTER + INTRA:          -5.509
REMARK INTER:                  -5.313
REMARK INTRA:                  -0.196
REMARK UNBOUND:                -0.193
REMARK SMILES Cc1ccc(C(C)C)c(O)c1
REMARK SMILES IDX 1 1 2 2 11 3 9 4 5 5 4 6 3 7 10 8 6 10 7 11 8 12
REMARK H PARENT 10 9
REMARK Flexibility Score: inf
ROOT
ATOM      1  C   UNL     1      50.728 -38.404  -7.297  1.00  0.00     0.044 C 
ATOM      2  C   UNL     1      50.730 -36.913  -7.461  1.00  0.00    -0.047 A 
ATOM      3  C   UNL     1      51.591 -36.306  -8.385  1.00  0.00     0.049 A 
ATOM      4  C   UNL     1      51.574 -34.915  -8.573  1.00  0.00     0.119 A 
ATOM      5  C   UNL     1      50.673 -34.112  -7.833  1.00  0.00    -0.004 A 
ATOM      6  C   UNL     1      49.801 -34.739  -6.923  1.00  0.00     0.008 A 
ATOM      7  C   UNL     1      49.824 -36.123  -6.745  1.00  0.00     0.004 A 
ENDROOT
BRANCH   4   8
ATOM      8  O   UNL     1      52.450 -34.341  -9.491  1.00  0.00    -0.508 OA
ATOM      9  H   UNL     1      52.857 -34.878 -10.248  1.00  0.00     0.293 HD
ENDBRANCH   4   8
BRANCH   5  10
ATOM     10  C   UNL     1      50.608 -32.600  -7.992  1.00  0.00     0.017 C 
ATOM     11  C   UNL     1      49.173 -32.074  -7.868  1.00  0.00     0.012 C 
ATOM     12  C   UNL     1      51.557 -31.883  -7.022  1.00  0.00     0.012 C 
ENDBRANCH   5  10
TORSDOF 2
ENDMDL
MODEL 7
REMARK VINA RESULT:    -4.824      1.685      2.465
REMARK INTER + INTRA:          -5.440
REMARK INTER:                  -5.249
REMARK INTRA:                  -0.191
REMARK UNBOUND:                -0.193
REMARK SMILES Cc1ccc(C(C)C)c(O)c1
REMARK SMILES IDX 1 1 2 2 11 3 9 4 5 5 4 6 3 7 10 8 6 10 7 11 8 12
REMARK H PARENT 10 9
REMARK Flexibility Score: inf
ROOT
ATOM      1  C   UNL     1      39.953 -26.386   2.347  1.00  0.00     0.044 C 
ATOM      2  C   UNL     1      39.678 -25.263   1.391  1.00  0.00    -0.047 A 
ATOM      3  C   UNL     1      38.488 -24.530   1.486  1.00  0.00     0.049 A 
ATOM      4  C   UNL     1      38.238 -23.455   0.620  1.00  0.00     0.119 A 
ATOM      5  C   UNL     1      39.199 -23.093  -0.354  1.00  0.00    -0.004 A 
ATOM      6  C   UNL     1      40.398 -23.826  -0.425  1.00  0.00     0.008 A 
ATOM      7  C   UNL     1      40.638 -24.894   0.442  1.00  0.00     0.004 A 
ENDROOT
BRANCH   4   8
ATOM      8  O   UNL     1      37.040 -22.752   0.734  1.00  0.00    -0.508 OA
ATOM      9  H   UNL     1      36.196 -23.189   1.084  1.00  0.00     0.293 HD
ENDBRANCH   4   8
BRANCH   5  10
ATOM     10  C   UNL     1      38.985 -21.937  -1.322  1.00  0.00     0.017 C 
ATOM     11  C   UNL     1      39.993 -20.805  -1.089  1.00  0.00     0.012 C 
ATOM     12  C   UNL     1      38.992 -22.407  -2.782  1.00  0.00     0.012 C 
ENDBRANCH   5  10
TORSDOF 2
ENDMDL
MODEL 8
REMARK VINA RESULT:    -4.820      6.739      8.331
REMARK INTER + INTRA:          -5.435
REMARK INTER:                  -5.244
REMARK INTRA:                  -0.191
REMARK UNBOUND:                -0.193
REMARK SMILES Cc1ccc(C(C)C)c(O)c1
REMARK SMILES IDX 1 1 2 2 11 3 9 4 5 5 4 6 3 7 10 8 6 10 7 11 8 12
REMARK H PARENT 10 9
REMARK Flexibility Score: inf
ROOT
ATOM      1  C   UNL     1      36.536 -23.393  -7.627  1.00  0.00     0.044 C 
ATOM      2  C   UNL     1      37.975 -23.819  -7.600  1.00  0.00    -0.047 A 
ATOM      3  C   UNL     1      38.534 -24.347  -6.429  1.00  0.00     0.049 A 
ATOM      4  C   UNL     1      39.867 -24.782  -6.405  1.00  0.00     0.119 A 
ATOM      5  C   UNL     1      40.659 -24.701  -7.576  1.00  0.00    -0.004 A 
ATOM      6  C   UNL     1      40.078 -24.187  -8.750  1.00  0.00     0.008 A 
ATOM      7  C   UNL     1      38.750 -23.757  -8.764  1.00  0.00     0.004 A 
ENDROOT
BRANCH   4   8
ATOM      8  O   UNL     1      40.396 -25.293  -5.222  1.00  0.00    -0.508 OA
ATOM      9  H   UNL     1      40.663 -24.690  -4.452  1.00  0.00     0.293 HD
ENDBRANCH   4   8
BRANCH   5  10
ATOM     10  C   UNL     1      42.112 -25.156  -7.612  1.00  0.00     0.017 C 
ATOM     11  C   UNL     1      42.299 -26.396  -8.495  1.00  0.00     0.012 C 
ATOM     12  C   UNL     1      43.055 -24.021  -8.026  1.00  0.00     0.012 C 
ENDBRANCH   5  10
TORSDOF 2
ENDMDL
MODEL 9
REMARK VINA RESULT:    -4.806     10.259     11.304
REMARK INTER + INTRA:          -5.421
REMARK INTER:                  -5.224
REMARK INTRA:                  -0.196
REMARK UNBOUND:                -0.193
REMARK SMILES Cc1ccc(C(C)C)c(O)c1
REMARK SMILES IDX 1 1 2 2 11 3 9 4 5 5 4 6 3 7 10 8 6 10 7 11 8 12
REMARK H PARENT 10 9
REMARK Flexibility Score: inf
ROOT
ATOM      1  C   UNL     1      44.906 -27.850  10.125  1.00  0.00     0.044 C 
ATOM      2  C   UNL     1      45.841 -27.878   8.952  1.00  0.00    -0.047 A 
ATOM      3  C   UNL     1      45.502 -28.592   7.795  1.00  0.00     0.049 A 
ATOM      4  C   UNL     1      46.353 -28.595   6.680  1.00  0.00     0.119 A 
ATOM      5  C   UNL     1      47.563 -27.860   6.712  1.00  0.00    -0.004 A 
ATOM      6  C   UNL     1      47.881 -27.132   7.873  1.00  0.00     0.008 A 
ATOM      7  C   UNL     1      47.027 -27.135   8.977  1.00  0.00     0.004 A 
ENDROOT
BRANCH   4   8
ATOM      8  O   UNL     1      45.991 -29.322   5.548  1.00  0.00    -0.508 OA
ATOM      9  H   UNL     1      45.348 -28.952   4.859  1.00  0.00     0.293 HD
ENDBRANCH   4   8
BRANCH   5  10
ATOM     10  C   UNL     1      48.527 -27.825   5.534  1.00  0.00     0.017 C 
ATOM     11  C   UNL     1      48.218 -26.665   4.579  1.00  0.00     0.012 C 
ATOM     12  C   UNL     1      49.990 -27.802   5.994  1.00  0.00     0.012 C 
ENDBRANCH   5  10
TORSDOF 2
ENDMDL
