MODEL 1
REMARK VINA RESULT:    -3.468      0.000      0.000
REMARK INTER + INTRA:          -4.022
REMARK INTER:                  -3.975
REMARK INTRA:                  -0.047
REMARK UNBOUND:                -0.047
REMARK SMILES O=C([O-])c1cc(O)c(O)c(O)c1
REMARK SMILES IDX 4 1 5 2 12 3 6 4 10 5 8 6 2 7 1 8 3 9 7 10 11 12 9 14
REMARK H PARENT 7 11 11 13 9 15
REMARK Flexibility Score: inf
ROOT
ATOM      1  C   UNL     1     -14.494  -2.085  19.317  1.00  0.00     0.005 A 
ATOM      2  C   UNL     1     -15.655  -1.393  18.930  1.00  0.00     0.060 A 
ATOM      3  C   UNL     1     -13.740  -2.754  18.338  1.00  0.00     0.060 A 
ATOM      4  C   UNL     1     -16.055  -1.369  17.588  1.00  0.00     0.162 A 
ATOM      5  C   UNL     1     -14.137  -2.733  16.994  1.00  0.00     0.162 A 
ATOM      6  C   UNL     1     -15.299  -2.038  16.618  1.00  0.00     0.200 A 
ENDROOT
BRANCH   1   7
ATOM      7  C   UNL     1     -14.068  -2.112  20.735  1.00  0.00     0.072 C 
ATOM      8  O   UNL     1     -12.912  -1.733  21.063  1.00  0.00    -0.545 OA
ATOM      9  O   UNL     1     -14.938  -2.556  21.723  1.00  0.00    -0.545 OA
ENDBRANCH   1   7
BRANCH   4  10
ATOM     10  O   UNL     1     -17.208  -0.680  17.210  1.00  0.00    -0.504 OA
ATOM     11  H   UNL     1     -17.339   0.299  17.436  1.00  0.00     0.293 HD
ENDBRANCH   4  10
BRANCH   5  12
ATOM     12  O   UNL     1     -13.382  -3.399  16.030  1.00  0.00    -0.504 OA
ATOM     13  H   UNL     1     -12.399  -3.601  16.172  1.00  0.00     0.293 HD
ENDBRANCH   5  12
BRANCH   6  14
ATOM     14  O   UNL     1     -15.715  -2.001  15.286  1.00  0.00    -0.502 OA
ATOM     15  H   UNL     1     -16.268  -1.238  14.915  1.00  0.00     0.293 HD
ENDBRANCH   6  14
TORSDOF 4
ENDMDL
MODEL 2
REMARK VINA RESULT:    -3.441      0.043      2.422
REMARK INTER + INTRA:          -3.991
REMARK INTER:                  -3.944
REMARK INTRA:                  -0.047
REMARK UNBOUND:                -0.047
REMARK SMILES O=C([O-])c1cc(O)c(O)c(O)c1
REMARK SMILES IDX 4 1 5 2 12 3 6 4 10 5 8 6 2 7 1 8 3 9 7 10 11 12 9 14
REMARK H PARENT 7 11 11 13 9 15
REMARK Flexibility Score: inf
ROOT
ATOM      1  C   UNL     1     -14.479  -2.058  19.333  1.00  0.00     0.005 A 
ATOM      2  C   UNL     1     -13.732  -2.744  18.360  1.00  0.00     0.060 A 
ATOM      3  C   UNL     1     -15.630  -1.356  18.939  1.00  0.00     0.060 A 
ATOM      4  C   UNL     1     -14.129  -2.730  17.016  1.00  0.00     0.162 A 
ATOM      5  C   UNL     1     -16.031  -1.339  17.596  1.00  0.00     0.162 A 
ATOM      6  C   UNL     1     -15.277  -2.028  16.631  1.00  0.00     0.200 A 
ENDROOT
BRANCH   1   7
ATOM      7  C   UNL     1     -14.063  -2.071  20.754  1.00  0.00     0.072 C 
ATOM      8  O   UNL     1     -12.912  -1.682  21.088  1.00  0.00    -0.545 OA
ATOM      9  O   UNL     1     -14.936  -2.514  21.740  1.00  0.00    -0.545 OA
ENDBRANCH   1   7
BRANCH   4  10
ATOM     10  O   UNL     1     -13.383  -3.413  16.056  1.00  0.00    -0.504 OA
ATOM     11  H   UNL     1     -12.720  -4.135  16.312  1.00  0.00     0.293 HD
ENDBRANCH   4  10
BRANCH   5  12
ATOM     12  O   UNL     1     -17.176  -0.640  17.216  1.00  0.00    -0.504 OA
ATOM     13  H   UNL     1     -18.087  -0.865  17.598  1.00  0.00     0.293 HD
ENDBRANCH   5  12
BRANCH   6  14
ATOM     14  O   UNL     1     -15.656  -2.026  15.289  1.00  0.00    -0.502 OA
ATOM     15  H   UNL     1     -15.770  -1.168  14.762  1.00  0.00     0.293 HD
ENDBRANCH   6  14
TORSDOF 4
ENDMDL
MODEL 3
REMARK VINA RESULT:    -3.362      2.549      3.680
REMARK INTER + INTRA:          -3.901
REMARK INTER:                  -3.851
REMARK INTRA:                  -0.050
REMARK UNBOUND:                -0.047
REMARK SMILES O=C([O-])c1cc(O)c(O)c(O)c1
REMARK SMILES IDX 4 1 5 2 12 3 6 4 10 5 8 6 2 7 1 8 3 9 7 10 11 12 9 14
REMARK H PARENT 7 11 11 13 9 15
REMARK Flexibility Score: inf
ROOT
ATOM      1  C   UNL     1     -15.833  -1.362  16.813  1.00  0.00     0.005 A 
ATOM      2  C   UNL     1     -16.521  -2.306  16.030  1.00  0.00     0.060 A 
ATOM      3  C   UNL     1     -14.515  -1.636  17.212  1.00  0.00     0.060 A 
ATOM      4  C   UNL     1     -15.900  -3.504  15.652  1.00  0.00     0.162 A 
ATOM      5  C   UNL     1     -13.890  -2.834  16.836  1.00  0.00     0.162 A 
ATOM      6  C   UNL     1     -14.586  -3.771  16.053  1.00  0.00     0.200 A 
ENDROOT
BRANCH   1   7
ATOM      7  C   UNL     1     -16.486  -0.095  17.213  1.00  0.00     0.072 C 
ATOM      8  O   UNL     1     -17.723  -0.059  17.453  1.00  0.00    -0.545 OA
ATOM      9  O   UNL     1     -15.744   1.074  17.332  1.00  0.00    -0.545 OA
ENDBRANCH   1   7
BRANCH   4  10
ATOM     10  O   UNL     1     -16.586  -4.437  14.875  1.00  0.00    -0.504 OA
ATOM     11  H   UNL     1     -17.589  -4.560  14.955  1.00  0.00     0.293 HD
ENDBRANCH   4  10
BRANCH   5  12
ATOM     12  O   UNL     1     -12.581  -3.096  17.236  1.00  0.00    -0.504 OA
ATOM     13  H   UNL     1     -12.203  -2.716  18.096  1.00  0.00     0.293 HD
ENDBRANCH   5  12
BRANCH   6  14
ATOM     14  O   UNL     1     -13.985  -4.969  15.666  1.00  0.00    -0.502 OA
ATOM     15  H   UNL     1     -13.150  -5.323  16.117  1.00  0.00     0.293 HD
ENDBRANCH   6  14
TORSDOF 4
ENDMDL
MODEL 4
REMARK VINA RESULT:    -3.204      2.608      4.000
REMARK INTER + INTRA:          -3.719
REMARK INTER:                  -3.670
REMARK INTRA:                  -0.049
REMARK UNBOUND:                -0.047
REMARK SMILES O=C([O-])c1cc(O)c(O)c(O)c1
REMARK SMILES IDX 4 1 5 2 12 3 6 4 10 5 8 6 2 7 1 8 3 9 7 10 11 12 9 14
REMARK H PARENT 7 11 11 13 9 15
REMARK Flexibility Score: inf
ROOT
ATOM      1  C   UNL     1     -15.787  -1.384  16.757  1.00  0.00     0.005 A 
ATOM      2  C   UNL     1     -14.458  -1.649  17.131  1.00  0.00     0.060 A 
ATOM      3  C   UNL     1     -16.487  -2.338  16.002  1.00  0.00     0.060 A 
ATOM      4  C   UNL     1     -13.839  -2.850  16.757  1.00  0.00     0.162 A 
ATOM      5  C   UNL     1     -15.872  -3.540  15.624  1.00  0.00     0.162 A 
ATOM      6  C   UNL     1     -14.543  -3.796  16.003  1.00  0.00     0.200 A 
ENDROOT
BRANCH   1   7
ATOM      7  C   UNL     1     -16.443  -0.116  17.152  1.00  0.00     0.072 C 
ATOM      8  O   UNL     1     -17.656  -0.103  17.495  1.00  0.00    -0.545 OA
ATOM      9  O   UNL     1     -15.730   1.076  17.150  1.00  0.00    -0.545 OA
ENDBRANCH   1   7
BRANCH   4  10
ATOM     10  O   UNL     1     -12.521  -3.108  17.130  1.00  0.00    -0.504 OA
ATOM     11  H   UNL     1     -11.913  -3.691  16.567  1.00  0.00     0.293 HD
ENDBRANCH   4  10
BRANCH   5  12
ATOM     12  O   UNL     1     -16.576  -4.482  14.875  1.00  0.00    -0.504 OA
ATOM     13  H   UNL     1     -17.588  -4.470  14.822  1.00  0.00     0.293 HD
ENDBRANCH   5  12
BRANCH   6  14
ATOM     14  O   UNL     1     -13.910  -4.985  15.640  1.00  0.00    -0.502 OA
ATOM     15  H   UNL     1     -12.920  -5.025  15.424  1.00  0.00     0.293 HD
ENDBRANCH   6  14
TORSDOF 4
ENDMDL
MODEL 5
REMARK VINA RESULT:    -1.109      1.931      5.066
REMARK INTER + INTRA:          -1.319
REMARK INTER:                  -1.266
REMARK INTRA:                  -0.053
REMARK UNBOUND:                -0.047
REMARK SMILES O=C([O-])c1cc(O)c(O)c(O)c1
REMARK SMILES IDX 4 1 5 2 12 3 6 4 10 5 8 6 2 7 1 8 3 9 7 10 11 12 9 14
REMARK H PARENT 7 11 11 13 9 15
REMARK Flexibility Score: inf
ROOT
ATOM      1  C   UNL     1     -14.342  -2.032  20.109  1.00  0.00     0.005 A 
ATOM      2  C   UNL     1     -15.139  -1.375  21.062  1.00  0.00     0.060 A 
ATOM      3  C   UNL     1     -13.113  -2.582  20.510  1.00  0.00     0.060 A 
ATOM      4  C   UNL     1     -14.716  -1.269  22.394  1.00  0.00     0.162 A 
ATOM      5  C   UNL     1     -12.685  -2.479  21.841  1.00  0.00     0.162 A 
ATOM      6  C   UNL     1     -13.490  -1.819  22.786  1.00  0.00     0.200 A 
ENDROOT
BRANCH   1   7
ATOM      7  C   UNL     1     -14.787  -2.145  18.701  1.00  0.00     0.072 C 
ATOM      8  O   UNL     1     -15.914  -1.706  18.349  1.00  0.00    -0.545 OA
ATOM      9  O   UNL     1     -13.967  -2.738  17.749  1.00  0.00    -0.545 OA
ENDBRANCH   1   7
BRANCH   4  10
ATOM     10  O   UNL     1     -15.511  -0.616  23.335  1.00  0.00    -0.504 OA
ATOM     11  H   UNL     1     -15.185   0.209  23.825  1.00  0.00     0.293 HD
ENDBRANCH   4  10
BRANCH   5  12
ATOM     12  O   UNL     1     -11.464  -3.028  22.229  1.00  0.00    -0.504 OA
ATOM     13  H   UNL     1     -11.401  -3.967  22.605  1.00  0.00     0.293 HD
ENDBRANCH   5  12
BRANCH   6  14
ATOM     14  O   UNL     1     -13.086  -1.704  24.117  1.00  0.00    -0.502 OA
ATOM     15  H   UNL     1     -13.462  -2.298  24.847  1.00  0.00     0.293 HD
ENDBRANCH   6  14
TORSDOF 4
ENDMDL
MODEL 6
REMARK VINA RESULT:    -1.109      1.917      5.599
REMARK INTER + INTRA:          -1.318
REMARK INTER:                  -1.265
REMARK INTRA:                  -0.053
REMARK UNBOUND:                -0.047
REMARK SMILES O=C([O-])c1cc(O)c(O)c(O)c1
REMARK SMILES IDX 4 1 5 2 12 3 6 4 10 5 8 6 2 7 1 8 3 9 7 10 11 12 9 14
REMARK H PARENT 7 11 11 13 9 15
REMARK Flexibility Score: inf
ROOT
ATOM      1  C   UNL     1     -14.362  -2.041  20.087  1.00  0.00     0.005 A 
ATOM      2  C   UNL     1     -13.133  -2.593  20.487  1.00  0.00     0.060 A 
ATOM      3  C   UNL     1     -15.159  -1.387  21.041  1.00  0.00     0.060 A 
ATOM      4  C   UNL     1     -12.707  -2.493  21.819  1.00  0.00     0.162 A 
ATOM      5  C   UNL     1     -14.737  -1.284  22.374  1.00  0.00     0.162 A 
ATOM      6  C   UNL     1     -13.507  -1.840  22.764  1.00  0.00     0.200 A 
ENDROOT
BRANCH   1   7
ATOM      7  C   UNL     1     -14.815  -2.146  18.681  1.00  0.00     0.072 C 
ATOM      8  O   UNL     1     -15.929  -1.673  18.330  1.00  0.00    -0.545 OA
ATOM      9  O   UNL     1     -14.016  -2.767  17.729  1.00  0.00    -0.545 OA
ENDBRANCH   1   7
BRANCH   4  10
ATOM     10  O   UNL     1     -11.486  -3.042  22.210  1.00  0.00    -0.504 OA
ATOM     11  H   UNL     1     -10.674  -2.462  22.384  1.00  0.00     0.293 HD
ENDBRANCH   4  10
BRANCH   5  12
ATOM     12  O   UNL     1     -15.536  -0.633  23.312  1.00  0.00    -0.504 OA
ATOM     13  H   UNL     1     -16.522  -0.846  23.410  1.00  0.00     0.293 HD
ENDBRANCH   5  12
BRANCH   6  14
ATOM     14  O   UNL     1     -13.065  -1.750  24.084  1.00  0.00    -0.502 OA
ATOM     15  H   UNL     1     -13.096  -2.540  24.718  1.00  0.00     0.293 HD
ENDBRANCH   6  14
TORSDOF 4
ENDMDL
MODEL 7
REMARK VINA RESULT:    -0.848      1.093      4.022
REMARK INTER + INTRA:          -1.019
REMARK INTER:                  -0.970
REMARK INTRA:                  -0.049
REMARK UNBOUND:                -0.047
REMARK SMILES O=C([O-])c1cc(O)c(O)c(O)c1
REMARK SMILES IDX 4 1 5 2 12 3 6 4 10 5 8 6 2 7 1 8 3 9 7 10 11 12 9 14
REMARK H PARENT 7 11 11 13 9 15
REMARK Flexibility Score: inf
ROOT
ATOM      1  C   UNL     1     -15.686  -1.532  17.269  1.00  0.00     0.005 A 
ATOM      2  C   UNL     1     -15.890  -1.493  18.659  1.00  0.00     0.060 A 
ATOM      3  C   UNL     1     -14.523  -2.139  16.767  1.00  0.00     0.060 A 
ATOM      4  C   UNL     1     -14.948  -2.052  19.534  1.00  0.00     0.162 A 
ATOM      5  C   UNL     1     -13.577  -2.699  17.637  1.00  0.00     0.162 A 
ATOM      6  C   UNL     1     -13.791  -2.655  19.026  1.00  0.00     0.200 A 
ENDROOT
BRANCH   1   7
ATOM      7  C   UNL     1     -16.680  -0.943  16.343  1.00  0.00     0.072 C 
ATOM      8  O   UNL     1     -17.008  -1.547  15.287  1.00  0.00    -0.545 OA
ATOM      9  O   UNL     1     -17.264   0.286  16.626  1.00  0.00    -0.545 OA
ENDBRANCH   1   7
BRANCH   4  10
ATOM     10  O   UNL     1     -15.156  -2.010  20.912  1.00  0.00    -0.504 OA
ATOM     11  H   UNL     1     -14.521  -1.518  21.530  1.00  0.00     0.293 HD
ENDBRANCH   4  10
BRANCH   5  12
ATOM     12  O   UNL     1     -12.427  -3.300  17.129  1.00  0.00    -0.504 OA
ATOM     13  H   UNL     1     -12.445  -3.841  16.272  1.00  0.00     0.293 HD
ENDBRANCH   5  12
BRANCH   6  14
ATOM     14  O   UNL     1     -12.865  -3.206  19.912  1.00  0.00    -0.502 OA
ATOM     15  H   UNL     1     -12.665  -4.199  19.933  1.00  0.00     0.293 HD
ENDBRANCH   6  14
TORSDOF 4
ENDMDL
MODEL 8
REMARK VINA RESULT:    -0.748      1.572      3.746
REMARK INTER + INTRA:          -0.905
REMARK INTER:                  -0.854
REMARK INTRA:                  -0.051
REMARK UNBOUND:                -0.047
REMARK SMILES O=C([O-])c1cc(O)c(O)c(O)c1
REMARK SMILES IDX 4 1 5 2 12 3 6 4 10 5 8 6 2 7 1 8 3 9 7 10 11 12 9 14
REMARK H PARENT 7 11 11 13 9 15
REMARK Flexibility Score: inf
ROOT
ATOM      1  C   UNL     1     -13.740  -2.704  16.498  1.00  0.00     0.005 A 
ATOM      2  C   UNL     1     -14.740  -2.340  15.579  1.00  0.00     0.060 A 
ATOM      3  C   UNL     1     -13.951  -2.463  17.866  1.00  0.00     0.060 A 
ATOM      4  C   UNL     1     -15.930  -1.746  16.019  1.00  0.00     0.162 A 
ATOM      5  C   UNL     1     -15.140  -1.869  18.311  1.00  0.00     0.162 A 
ATOM      6  C   UNL     1     -16.133  -1.509  17.384  1.00  0.00     0.200 A 
ENDROOT
BRANCH   1   7
ATOM      7  C   UNL     1     -12.481  -3.332  16.036  1.00  0.00     0.072 C 
ATOM      8  O   UNL     1     -12.044  -3.110  14.875  1.00  0.00    -0.545 OA
ATOM      9  O   UNL     1     -11.765  -4.175  16.876  1.00  0.00    -0.545 OA
ENDBRANCH   1   7
BRANCH   4  10
ATOM     10  O   UNL     1     -16.918  -1.387  15.103  1.00  0.00    -0.504 OA
ATOM     11  H   UNL     1     -17.356  -0.474  15.124  1.00  0.00     0.293 HD
ENDBRANCH   4  10
BRANCH   5  12
ATOM     12  O   UNL     1     -15.340  -1.636  19.671  1.00  0.00    -0.504 OA
ATOM     13  H   UNL     1     -15.920  -0.872  19.998  1.00  0.00     0.293 HD
ENDBRANCH   5  12
BRANCH   6  14
ATOM     14  O   UNL     1     -17.325  -0.917  17.802  1.00  0.00    -0.502 OA
ATOM     15  H   UNL     1     -17.375  -0.331  18.627  1.00  0.00     0.293 HD
ENDBRANCH   6  14
TORSDOF 4
ENDMDL
MODEL 9
REMARK VINA RESULT:    -0.711      1.106      4.559
REMARK INTER + INTRA:          -0.861
REMARK INTER:                  -0.813
REMARK INTRA:                  -0.048
REMARK UNBOUND:                -0.047
REMARK SMILES O=C([O-])c1cc(O)c(O)c(O)c1
REMARK SMILES IDX 4 1 5 2 12 3 6 4 10 5 8 6 2 7 1 8 3 9 7 10 11 12 9 14
REMARK H PARENT 7 11 11 13 9 15
REMARK Flexibility Score: inf
ROOT
ATOM      1  C   UNL     1     -15.715  -1.502  17.298  1.00  0.00     0.005 A 
ATOM      2  C   UNL     1     -14.525  -2.062  16.801  1.00  0.00     0.060 A 
ATOM      3  C   UNL     1     -15.946  -1.510  18.683  1.00  0.00     0.060 A 
ATOM      4  C   UNL     1     -13.581  -2.620  17.674  1.00  0.00     0.162 A 
ATOM      5  C   UNL     1     -15.005  -2.067  19.561  1.00  0.00     0.162 A 
ATOM      6  C   UNL     1     -13.818  -2.624  19.054  1.00  0.00     0.200 A 
ENDROOT
BRANCH   1   7
ATOM      7  C   UNL     1     -16.713  -0.911  16.378  1.00  0.00     0.072 C 
ATOM      8  O   UNL     1     -17.223   0.214  16.623  1.00  0.00    -0.545 OA
ATOM      9  O   UNL     1     -17.101  -1.591  15.230  1.00  0.00    -0.545 OA
ENDBRANCH   1   7
BRANCH   4  10
ATOM     10  O   UNL     1     -12.403  -3.174  17.175  1.00  0.00    -0.504 OA
ATOM     11  H   UNL     1     -11.622  -3.396  17.782  1.00  0.00     0.293 HD
ENDBRANCH   4  10
BRANCH   5  12
ATOM     12  O   UNL     1     -15.243  -2.069  20.934  1.00  0.00    -0.504 OA
ATOM     13  H   UNL     1     -15.681  -1.281  21.398  1.00  0.00     0.293 HD
ENDBRANCH   5  12
BRANCH   6  14
ATOM     14  O   UNL     1     -12.867  -3.184  19.906  1.00  0.00    -0.502 OA
ATOM     15  H   UNL     1     -11.880  -3.202  19.675  1.00  0.00     0.293 HD
ENDBRANCH   6  14
TORSDOF 4
ENDMDL
