MODEL 1
REMARK VINA RESULT:    -0.915      0.000      0.000
REMARK INTER + INTRA:          -6.076
REMARK INTER:                  -2.412
REMARK INTRA:                  -3.664
REMARK UNBOUND:                -3.664
REMARK SMILES CCCCCCCCCCCCCCCCCCCCCCCCCCCCCC(=O)[O-]
REMARK SMILES IDX 16 1 17 2 18 3 19 4 20 5 21 6 22 7 23 8 24 9 25 10 26 11
REMARK SMILES IDX 27 12 28 13 29 14 30 15 31 16 32 17 15 18 14 19 13 20 12 21
REMARK SMILES IDX 11 22 10 23 9 24 8 25 7 26 6 27 5 28 4 29 3 30 2 31 1 32
REMARK H PARENT
REMARK Flexibility Score: inf
ROOT
ATOM      1  C   UNL     1     -26.041  67.514  85.008  1.00  0.00     0.000 C 
ENDROOT
BRANCH   1   2
ATOM      2  C   UNL     1     -27.028  66.584  84.287  1.00  0.00     0.000 C 
BRANCH   2   3
ATOM      3  C   UNL     1     -28.292  67.317  83.804  1.00  0.00     0.000 C 
BRANCH   3   4
ATOM      4  C   UNL     1     -28.745  66.959  82.374  1.00  0.00     0.000 C 
BRANCH   4   5
ATOM      5  C   UNL     1     -27.815  65.991  81.614  1.00  0.00     0.000 C 
BRANCH   5   6
ATOM      6  C   UNL     1     -28.466  64.662  81.188  1.00  0.00     0.000 C 
BRANCH   6   7
ATOM      7  C   UNL     1     -29.756  64.355  81.962  1.00  0.00     0.000 C 
BRANCH   7   8
ATOM      8  C   UNL     1     -29.603  63.079  82.803  1.00  0.00     0.000 C 
BRANCH   8   9
ATOM      9  C   UNL     1     -28.302  63.061  83.623  1.00  0.00     0.000 C 
BRANCH   9  10
ATOM     10  C   UNL     1     -28.188  61.826  84.530  1.00  0.00     0.000 C 
BRANCH  10  11
ATOM     11  C   UNL     1     -27.225  60.789  83.933  1.00  0.00     0.000 C 
BRANCH  11  12
ATOM     12  C   UNL     1     -27.860  59.980  82.790  1.00  0.00     0.000 C 
BRANCH  12  13
ATOM     13  C   UNL     1     -27.141  58.643  82.535  1.00  0.00     0.006 C 
BRANCH  13  14
ATOM     14  C   UNL     1     -26.368  58.156  83.769  1.00  0.00     0.053 C 
BRANCH  14  15
ATOM     15  C   UNL     1     -26.105  56.680  83.722  1.00  0.00     0.041 C 
ATOM     16  O   UNL     1     -27.045  55.875  83.488  1.00  0.00    -0.550 OA
ATOM     17  O   UNL     1     -24.825  56.195  83.956  1.00  0.00    -0.550 OA
ENDBRANCH  14  15
ENDBRANCH  13  14
ENDBRANCH  12  13
ENDBRANCH  11  12
ENDBRANCH  10  11
ENDBRANCH   9  10
ENDBRANCH   8   9
ENDBRANCH   7   8
ENDBRANCH   6   7
ENDBRANCH   5   6
ENDBRANCH   4   5
ENDBRANCH   3   4
ENDBRANCH   2   3
ENDBRANCH   1   2
BRANCH   1  18
ATOM     18  C   UNL     1     -26.725  68.818  85.434  1.00  0.00     0.000 C 
BRANCH  18  19
ATOM     19  C   UNL     1     -26.461  69.117  86.917  1.00  0.00     0.000 C 
BRANCH  19  20
ATOM     20  C   UNL     1     -27.687  68.850  87.808  1.00  0.00     0.000 C 
BRANCH  20  21
ATOM     21  C   UNL     1     -28.643  67.752  87.299  1.00  0.00     0.000 C 
BRANCH  21  22
ATOM     22  C   UNL     1     -28.305  66.320  87.755  1.00  0.00     0.000 C 
BRANCH  22  23
ATOM     23  C   UNL     1     -28.548  65.271  86.657  1.00  0.00     0.000 C 
BRANCH  23  24
ATOM     24  C   UNL     1     -29.853  64.482  86.863  1.00  0.00    -0.000 C 
BRANCH  24  25
ATOM     25  C   UNL     1     -30.838  64.518  85.678  1.00  0.00    -0.000 C 
BRANCH  25  26
ATOM     26  C   UNL     1     -30.887  65.850  84.907  1.00  0.00    -0.000 C 
BRANCH  26  27
ATOM     27  C   UNL     1     -32.098  66.716  85.283  1.00  0.00    -0.000 C 
BRANCH  27  28
ATOM     28  C   UNL     1     -32.398  66.618  86.787  1.00  0.00    -0.000 C 
BRANCH  28  29
ATOM     29  C   UNL     1     -32.119  67.930  87.542  1.00  0.00    -0.000 C 
BRANCH  29  30
ATOM     30  C   UNL     1     -32.300  69.213  86.708  1.00  0.00    -0.000 C 
BRANCH  30  31
ATOM     31  C   UNL     1     -31.018  69.740  86.042  1.00  0.00    -0.003 C 
ATOM     32  C   UNL     1     -31.011  71.261  85.880  1.00  0.00     0.004 C 
ENDBRANCH  30  31
ENDBRANCH  29  30
ENDBRANCH  28  29
ENDBRANCH  27  28
ENDBRANCH  26  27
ENDBRANCH  25  26
ENDBRANCH  24  25
ENDBRANCH  23  24
ENDBRANCH  22  23
ENDBRANCH  21  22
ENDBRANCH  20  21
ENDBRANCH  19  20
ENDBRANCH  18  19
ENDBRANCH   1  18
TORSDOF 28
ENDMDL
MODEL 2
REMARK VINA RESULT:    -0.895      3.999      9.301
REMARK INTER + INTRA:          -6.025
REMARK INTER:                  -4.460
REMARK INTRA:                  -1.565
REMARK UNBOUND:                -3.664
REMARK SMILES CCCCCCCCCCCCCCCCCCCCCCCCCCCCCC(=O)[O-]
REMARK SMILES IDX 16 1 17 2 18 3 19 4 20 5 21 6 22 7 23 8 24 9 25 10 26 11
REMARK SMILES IDX 27 12 28 13 29 14 30 15 31 16 32 17 15 18 14 19 13 20 12 21
REMARK SMILES IDX 11 22 10 23 9 24 8 25 7 26 6 27 5 28 4 29 3 30 2 31 1 32
REMARK H PARENT
REMARK Flexibility Score: inf
ROOT
ATOM      1  C   UNL     1     -29.796  67.489  83.468  1.00  0.00     0.000 C 
ENDROOT
BRANCH   1   2
ATOM      2  C   UNL     1     -30.637  66.255  83.827  1.00  0.00     0.000 C 
BRANCH   2   3
ATOM      3  C   UNL     1     -31.558  66.494  85.037  1.00  0.00     0.000 C 
BRANCH   3   4
ATOM      4  C   UNL     1     -30.941  66.136  86.404  1.00  0.00     0.000 C 
BRANCH   4   5
ATOM      5  C   UNL     1     -30.433  64.685  86.535  1.00  0.00     0.000 C 
BRANCH   5   6
ATOM      6  C   UNL     1     -28.901  64.526  86.507  1.00  0.00     0.000 C 
BRANCH   6   7
ATOM      7  C   UNL     1     -28.161  65.868  86.598  1.00  0.00     0.000 C 
BRANCH   7   8
ATOM      8  C   UNL     1     -27.288  66.101  85.356  1.00  0.00     0.000 C 
BRANCH   8   9
ATOM      9  C   UNL     1     -26.305  67.272  85.532  1.00  0.00     0.000 C 
BRANCH   9  10
ATOM     10  C   UNL     1     -27.015  68.613  85.768  1.00  0.00     0.000 C 
BRANCH  10  11
ATOM     11  C   UNL     1     -26.821  69.093  87.214  1.00  0.00     0.000 C 
BRANCH  11  12
ATOM     12  C   UNL     1     -28.148  69.211  87.983  1.00  0.00     0.000 C 
BRANCH  12  13
ATOM     13  C   UNL     1     -29.366  68.806  87.133  1.00  0.00     0.006 C 
BRANCH  13  14
ATOM     14  C   UNL     1     -29.731  69.876  86.094  1.00  0.00     0.053 C 
BRANCH  14  15
ATOM     15  C   UNL     1     -31.174  70.273  86.178  1.00  0.00     0.041 C 
ATOM     16  O   UNL     1     -31.542  71.415  85.794  1.00  0.00    -0.550 OA
ATOM     17  O   UNL     1     -32.110  69.387  86.696  1.00  0.00    -0.550 OA
ENDBRANCH  14  15
ENDBRANCH  13  14
ENDBRANCH  12  13
ENDBRANCH  11  12
ENDBRANCH  10  11
ENDBRANCH   9  10
ENDBRANCH   8   9
ENDBRANCH   7   8
ENDBRANCH   6   7
ENDBRANCH   5   6
ENDBRANCH   4   5
ENDBRANCH   3   4
ENDBRANCH   2   3
ENDBRANCH   1   2
BRANCH   1  18
ATOM     18  C   UNL     1     -28.374  67.086  83.059  1.00  0.00     0.000 C 
BRANCH  18  19
ATOM     19  C   UNL     1     -28.299  66.785  81.555  1.00  0.00     0.000 C 
BRANCH  19  20
ATOM     20  C   UNL     1     -28.210  65.279  81.250  1.00  0.00     0.000 C 
BRANCH  20  21
ATOM     21  C   UNL     1     -29.564  64.562  81.074  1.00  0.00     0.000 C 
BRANCH  21  22
ATOM     22  C   UNL     1     -29.734  63.265  81.885  1.00  0.00     0.000 C 
BRANCH  22  23
ATOM     23  C   UNL     1     -29.447  63.455  83.384  1.00  0.00     0.000 C 
BRANCH  23  24
ATOM     24  C   UNL     1     -28.065  62.918  83.800  1.00  0.00    -0.000 C 
BRANCH  24  25
ATOM     25  C   UNL     1     -28.074  61.527  84.466  1.00  0.00    -0.000 C 
BRANCH  25  26
ATOM     26  C   UNL     1     -27.139  60.487  83.823  1.00  0.00    -0.000 C 
BRANCH  26  27
ATOM     27  C   UNL     1     -27.814  59.691  82.696  1.00  0.00    -0.000 C 
BRANCH  27  28
ATOM     28  C   UNL     1     -26.947  58.497  82.272  1.00  0.00    -0.000 C 
BRANCH  28  29
ATOM     29  C   UNL     1     -27.730  57.172  82.228  1.00  0.00    -0.000 C 
BRANCH  29  30
ATOM     30  C   UNL     1     -27.132  56.033  83.077  1.00  0.00    -0.000 C 
BRANCH  30  31
ATOM     31  C   UNL     1     -26.259  56.492  84.257  1.00  0.00    -0.003 C 
ATOM     32  C   UNL     1     -24.763  56.299  84.004  1.00  0.00     0.004 C 
ENDBRANCH  30  31
ENDBRANCH  29  30
ENDBRANCH  28  29
ENDBRANCH  27  28
ENDBRANCH  26  27
ENDBRANCH  25  26
ENDBRANCH  24  25
ENDBRANCH  23  24
ENDBRANCH  22  23
ENDBRANCH  21  22
ENDBRANCH  20  21
ENDBRANCH  19  20
ENDBRANCH  18  19
ENDBRANCH   1  18
TORSDOF 28
ENDMDL
MODEL 3
REMARK VINA RESULT:    -0.693      3.047      6.669
REMARK INTER + INTRA:          -5.493
REMARK INTER:                  -2.716
REMARK INTRA:                  -2.777
REMARK UNBOUND:                -3.664
REMARK SMILES CCCCCCCCCCCCCCCCCCCCCCCCCCCCCC(=O)[O-]
REMARK SMILES IDX 16 1 17 2 18 3 19 4 20 5 21 6 22 7 23 8 24 9 25 10 26 11
REMARK SMILES IDX 27 12 28 13 29 14 30 15 31 16 32 17 15 18 14 19 13 20 12 21
REMARK SMILES IDX 11 22 10 23 9 24 8 25 7 26 6 27 5 28 4 29 3 30 2 31 1 32
REMARK H PARENT
REMARK Flexibility Score: inf
ROOT
ATOM      1  C   UNL     1     -27.606  68.407  87.310  1.00  0.00     0.000 C 
ENDROOT
BRANCH   1   2
ATOM      2  C   UNL     1     -28.914  69.184  87.518  1.00  0.00     0.000 C 
BRANCH   2   3
ATOM      3  C   UNL     1     -29.734  69.327  86.223  1.00  0.00     0.000 C 
BRANCH   3   4
ATOM      4  C   UNL     1     -31.046  70.125  86.370  1.00  0.00     0.000 C 
BRANCH   4   5
ATOM      5  C   UNL     1     -32.297  69.279  86.684  1.00  0.00     0.000 C 
BRANCH   5   6
ATOM      6  C   UNL     1     -32.009  67.875  87.247  1.00  0.00     0.000 C 
BRANCH   6   7
ATOM      7  C   UNL     1     -32.458  66.750  86.303  1.00  0.00     0.000 C 
BRANCH   7   8
ATOM      8  C   UNL     1     -31.248  66.036  85.682  1.00  0.00     0.000 C 
BRANCH   8   9
ATOM      9  C   UNL     1     -30.099  65.833  86.684  1.00  0.00     0.000 C 
BRANCH   9  10
ATOM     10  C   UNL     1     -29.735  64.353  86.877  1.00  0.00     0.000 C 
BRANCH  10  11
ATOM     11  C   UNL     1     -30.642  63.447  86.032  1.00  0.00     0.000 C 
BRANCH  11  12
ATOM     12  C   UNL     1     -30.156  63.311  84.579  1.00  0.00     0.000 C 
BRANCH  12  13
ATOM     13  C   UNL     1     -28.633  63.111  84.477  1.00  0.00     0.006 C 
BRANCH  13  14
ATOM     14  C   UNL     1     -28.242  62.231  83.281  1.00  0.00     0.053 C 
BRANCH  14  15
ATOM     15  C   UNL     1     -27.452  61.028  83.701  1.00  0.00     0.041 C 
ATOM     16  O   UNL     1     -27.621  59.923  83.121  1.00  0.00    -0.550 OA
ATOM     17  O   UNL     1     -26.541  61.125  84.746  1.00  0.00    -0.550 OA
ENDBRANCH  14  15
ENDBRANCH  13  14
ENDBRANCH  12  13
ENDBRANCH  11  12
ENDBRANCH  10  11
ENDBRANCH   9  10
ENDBRANCH   8   9
ENDBRANCH   7   8
ENDBRANCH   6   7
ENDBRANCH   5   6
ENDBRANCH   4   5
ENDBRANCH   3   4
ENDBRANCH   2   3
ENDBRANCH   1   2
BRANCH   1  18
ATOM     18  C   UNL     1     -27.024  68.673  85.916  1.00  0.00     0.000 C 
BRANCH  18  19
ATOM     19  C   UNL     1     -26.319  67.423  85.368  1.00  0.00     0.000 C 
BRANCH  19  20
ATOM     20  C   UNL     1     -27.301  66.388  84.790  1.00  0.00     0.000 C 
BRANCH  20  21
ATOM     21  C   UNL     1     -28.451  66.973  83.945  1.00  0.00     0.000 C 
BRANCH  21  22
ATOM     22  C   UNL     1     -28.910  66.099  82.762  1.00  0.00     0.000 C 
BRANCH  22  23
ATOM     23  C   UNL     1     -27.878  66.045  81.624  1.00  0.00     0.000 C 
BRANCH  23  24
ATOM     24  C   UNL     1     -27.455  67.442  81.134  1.00  0.00    -0.000 C 
BRANCH  24  25
ATOM     25  C   UNL     1     -25.939  67.724  81.182  1.00  0.00    -0.000 C 
BRANCH  25  26
ATOM     26  C   UNL     1     -25.489  69.007  80.459  1.00  0.00    -0.000 C 
BRANCH  26  27
ATOM     27  C   UNL     1     -24.130  68.854  79.761  1.00  0.00    -0.000 C 
BRANCH  27  28
ATOM     28  C   UNL     1     -23.480  70.224  79.517  1.00  0.00    -0.000 C 
BRANCH  28  29
ATOM     29  C   UNL     1     -22.787  70.792  80.768  1.00  0.00    -0.000 C 
BRANCH  29  30
ATOM     30  C   UNL     1     -22.672  69.811  81.952  1.00  0.00    -0.000 C 
BRANCH  30  31
ATOM     31  C   UNL     1     -21.362  69.006  82.002  1.00  0.00    -0.003 C 
ATOM     32  C   UNL     1     -20.880  68.564  80.619  1.00  0.00     0.004 C 
ENDBRANCH  30  31
ENDBRANCH  29  30
ENDBRANCH  28  29
ENDBRANCH  27  28
ENDBRANCH  26  27
ENDBRANCH  25  26
ENDBRANCH  24  25
ENDBRANCH  23  24
ENDBRANCH  22  23
ENDBRANCH  21  22
ENDBRANCH  20  21
ENDBRANCH  19  20
ENDBRANCH  18  19
ENDBRANCH   1  18
TORSDOF 28
ENDMDL
MODEL 4
REMARK VINA RESULT:    -0.627      3.712      7.228
REMARK INTER + INTRA:          -5.316
REMARK INTER:                  -2.359
REMARK INTRA:                  -2.957
REMARK UNBOUND:                -3.664
REMARK SMILES CCCCCCCCCCCCCCCCCCCCCCCCCCCCCC(=O)[O-]
REMARK SMILES IDX 16 1 17 2 18 3 19 4 20 5 21 6 22 7 23 8 24 9 25 10 26 11
REMARK SMILES IDX 27 12 28 13 29 14 30 15 31 16 32 17 15 18 14 19 13 20 12 21
REMARK SMILES IDX 11 22 10 23 9 24 8 25 7 26 6 27 5 28 4 29 3 30 2 31 1 32
REMARK H PARENT
REMARK Flexibility Score: inf
ROOT
ATOM      1  C   UNL     1     -27.173  68.645  87.412  1.00  0.00     0.000 C 
ENDROOT
BRANCH   1   2
ATOM      2  C   UNL     1     -28.681  68.791  87.662  1.00  0.00     0.000 C 
BRANCH   2   3
ATOM      3  C   UNL     1     -29.477  69.047  86.370  1.00  0.00     0.000 C 
BRANCH   3   4
ATOM      4  C   UNL     1     -30.747  69.904  86.548  1.00  0.00     0.000 C 
BRANCH   4   5
ATOM      5  C   UNL     1     -32.063  69.109  86.669  1.00  0.00     0.000 C 
BRANCH   5   6
ATOM      6  C   UNL     1     -31.894  67.618  87.016  1.00  0.00     0.000 C 
BRANCH   6   7
ATOM      7  C   UNL     1     -32.314  66.688  85.869  1.00  0.00     0.000 C 
BRANCH   7   8
ATOM      8  C   UNL     1     -31.131  65.830  85.394  1.00  0.00     0.000 C 
BRANCH   8   9
ATOM      9  C   UNL     1     -30.139  65.508  86.525  1.00  0.00     0.000 C 
BRANCH   9  10
ATOM     10  C   UNL     1     -29.871  64.002  86.669  1.00  0.00     0.000 C 
BRANCH  10  11
ATOM     11  C   UNL     1     -30.066  63.277  85.329  1.00  0.00     0.000 C 
BRANCH  11  12
ATOM     12  C   UNL     1     -28.766  63.184  84.512  1.00  0.00     0.000 C 
BRANCH  12  13
ATOM     13  C   UNL     1     -28.917  63.746  83.087  1.00  0.00     0.006 C 
BRANCH  13  14
ATOM     14  C   UNL     1     -30.349  63.603  82.554  1.00  0.00     0.053 C 
BRANCH  14  15
ATOM     15  C   UNL     1     -30.452  63.978  81.106  1.00  0.00     0.041 C 
ATOM     16  O   UNL     1     -29.412  64.205  80.433  1.00  0.00    -0.550 OA
ATOM     17  O   UNL     1     -31.700  64.095  80.506  1.00  0.00    -0.550 OA
ENDBRANCH  14  15
ENDBRANCH  13  14
ENDBRANCH  12  13
ENDBRANCH  11  12
ENDBRANCH  10  11
ENDBRANCH   9  10
ENDBRANCH   8   9
ENDBRANCH   7   8
ENDBRANCH   6   7
ENDBRANCH   5   6
ENDBRANCH   4   5
ENDBRANCH   3   4
ENDBRANCH   2   3
ENDBRANCH   1   2
BRANCH   1  18
ATOM     18  C   UNL     1     -26.845  68.806  85.922  1.00  0.00     0.000 C 
BRANCH  18  19
ATOM     19  C   UNL     1     -26.313  67.492  85.332  1.00  0.00     0.000 C 
BRANCH  19  20
ATOM     20  C   UNL     1     -27.416  66.641  84.678  1.00  0.00     0.000 C 
BRANCH  20  21
ATOM     21  C   UNL     1     -28.387  67.415  83.762  1.00  0.00     0.000 C 
BRANCH  21  22
ATOM     22  C   UNL     1     -28.613  66.798  82.369  1.00  0.00     0.000 C 
BRANCH  22  23
ATOM     23  C   UNL     1     -27.339  66.785  81.508  1.00  0.00     0.000 C 
BRANCH  23  24
ATOM     24  C   UNL     1     -26.816  68.198  81.193  1.00  0.00    -0.000 C 
BRANCH  24  25
ATOM     25  C   UNL     1     -25.315  68.282  80.847  1.00  0.00    -0.000 C 
BRANCH  25  26
ATOM     26  C   UNL     1     -24.944  69.346  79.798  1.00  0.00    -0.000 C 
BRANCH  26  27
ATOM     27  C   UNL     1     -23.641  69.021  79.052  1.00  0.00    -0.000 C 
BRANCH  27  28
ATOM     28  C   UNL     1     -22.839  67.941  79.793  1.00  0.00    -0.000 C 
BRANCH  28  29
ATOM     29  C   UNL     1     -21.428  68.409  80.193  1.00  0.00    -0.000 C 
BRANCH  29  30
ATOM     30  C   UNL     1     -21.305  68.960  81.627  1.00  0.00    -0.000 C 
BRANCH  30  31
ATOM     31  C   UNL     1     -22.609  69.518  82.221  1.00  0.00    -0.003 C 
ATOM     32  C   UNL     1     -22.904  70.951  81.773  1.00  0.00     0.004 C 
ENDBRANCH  30  31
ENDBRANCH  29  30
ENDBRANCH  28  29
ENDBRANCH  27  28
ENDBRANCH  26  27
ENDBRANCH  25  26
ENDBRANCH  24  25
ENDBRANCH  23  24
ENDBRANCH  22  23
ENDBRANCH  21  22
ENDBRANCH  20  21
ENDBRANCH  19  20
ENDBRANCH  18  19
ENDBRANCH   1  18
TORSDOF 28
ENDMDL
MODEL 5
REMARK VINA RESULT:    -0.523      4.368      8.540
REMARK INTER + INTRA:          -5.042
REMARK INTER:                  -1.903
REMARK INTRA:                  -3.139
REMARK UNBOUND:                -3.664
REMARK SMILES CCCCCCCCCCCCCCCCCCCCCCCCCCCCCC(=O)[O-]
REMARK SMILES IDX 16 1 17 2 18 3 19 4 20 5 21 6 22 7 23 8 24 9 25 10 26 11
REMARK SMILES IDX 27 12 28 13 29 14 30 15 31 16 32 17 15 18 14 19 13 20 12 21
REMARK SMILES IDX 11 22 10 23 9 24 8 25 7 26 6 27 5 28 4 29 3 30 2 31 1 32
REMARK H PARENT
REMARK Flexibility Score: inf
ROOT
ATOM      1  C   UNL     1     -29.753  63.526  82.455  1.00  0.00     0.000 C 
ENDROOT
BRANCH   1   2
ATOM      2  C   UNL     1     -28.687  63.572  83.560  1.00  0.00     0.000 C 
BRANCH   2   3
ATOM      3  C   UNL     1     -28.445  62.199  84.212  1.00  0.00     0.000 C 
BRANCH   3   4
ATOM      4  C   UNL     1     -29.385  61.865  85.389  1.00  0.00     0.000 C 
BRANCH   4   5
ATOM      5  C   UNL     1     -30.480  62.913  85.672  1.00  0.00     0.000 C 
BRANCH   5   6
ATOM      6  C   UNL     1     -30.205  63.834  86.876  1.00  0.00     0.000 C 
BRANCH   6   7
ATOM      7  C   UNL     1     -30.129  65.318  86.486  1.00  0.00     0.000 C 
BRANCH   7   8
ATOM      8  C   UNL     1     -30.925  65.592  85.202  1.00  0.00     0.000 C 
BRANCH   8   9
ATOM      9  C   UNL     1     -31.922  66.753  85.356  1.00  0.00     0.000 C 
BRANCH   9  10
ATOM     10  C   UNL     1     -32.276  67.040  86.823  1.00  0.00     0.000 C 
BRANCH  10  11
ATOM     11  C   UNL     1     -31.972  68.502  87.188  1.00  0.00     0.000 C 
BRANCH  11  12
ATOM     12  C   UNL     1     -31.051  69.188  86.164  1.00  0.00     0.000 C 
BRANCH  12  13
ATOM     13  C   UNL     1     -29.696  69.602  86.765  1.00  0.00     0.006 C 
BRANCH  13  14
ATOM     14  C   UNL     1     -28.958  68.417  87.404  1.00  0.00     0.053 C 
BRANCH  14  15
ATOM     15  C   UNL     1     -27.740  68.854  88.162  1.00  0.00     0.041 C 
ATOM     16  O   UNL     1     -27.754  68.886  89.422  1.00  0.00    -0.550 OA
ATOM     17  O   UNL     1     -26.597  69.243  87.476  1.00  0.00    -0.550 OA
ENDBRANCH  14  15
ENDBRANCH  13  14
ENDBRANCH  12  13
ENDBRANCH  11  12
ENDBRANCH  10  11
ENDBRANCH   9  10
ENDBRANCH   8   9
ENDBRANCH   7   8
ENDBRANCH   6   7
ENDBRANCH   5   6
ENDBRANCH   4   5
ENDBRANCH   3   4
ENDBRANCH   2   3
ENDBRANCH   1   2
BRANCH   1  18
ATOM     18  C   UNL     1     -29.524  64.637  81.424  1.00  0.00     0.000 C 
BRANCH  18  19
ATOM     19  C   UNL     1     -28.089  65.178  81.508  1.00  0.00     0.000 C 
BRANCH  19  20
ATOM     20  C   UNL     1     -28.035  66.681  81.837  1.00  0.00     0.000 C 
BRANCH  20  21
ATOM     21  C   UNL     1     -29.027  67.152  82.921  1.00  0.00     0.000 C 
BRANCH  21  22
ATOM     22  C   UNL     1     -28.390  67.585  84.254  1.00  0.00     0.000 C 
BRANCH  22  23
ATOM     23  C   UNL     1     -27.302  66.613  84.740  1.00  0.00     0.000 C 
BRANCH  23  24
ATOM     24  C   UNL     1     -25.947  67.303  84.979  1.00  0.00    -0.000 C 
BRANCH  24  25
ATOM     25  C   UNL     1     -25.528  68.321  83.898  1.00  0.00    -0.000 C 
BRANCH  25  26
ATOM     26  C   UNL     1     -24.017  68.385  83.609  1.00  0.00    -0.000 C 
BRANCH  26  27
ATOM     27  C   UNL     1     -23.698  68.958  82.220  1.00  0.00    -0.000 C 
BRANCH  27  28
ATOM     28  C   UNL     1     -22.190  68.903  81.937  1.00  0.00    -0.000 C 
BRANCH  28  29
ATOM     29  C   UNL     1     -21.862  68.849  80.434  1.00  0.00    -0.000 C 
BRANCH  29  30
ATOM     30  C   UNL     1     -23.059  68.531  79.516  1.00  0.00    -0.000 C 
BRANCH  30  31
ATOM     31  C   UNL     1     -23.931  69.743  79.144  1.00  0.00    -0.003 C 
ATOM     32  C   UNL     1     -23.237  71.081  79.408  1.00  0.00     0.004 C 
ENDBRANCH  30  31
ENDBRANCH  29  30
ENDBRANCH  28  29
ENDBRANCH  27  28
ENDBRANCH  26  27
ENDBRANCH  25  26
ENDBRANCH  24  25
ENDBRANCH  23  24
ENDBRANCH  22  23
ENDBRANCH  21  22
ENDBRANCH  20  21
ENDBRANCH  19  20
ENDBRANCH  18  19
ENDBRANCH   1  18
TORSDOF 28
ENDMDL
MODEL 6
REMARK VINA RESULT:    -0.362      4.860      8.544
REMARK INTER + INTRA:          -4.618
REMARK INTER:                  -1.758
REMARK INTRA:                  -2.860
REMARK UNBOUND:                -3.664
REMARK SMILES CCCCCCCCCCCCCCCCCCCCCCCCCCCCCC(=O)[O-]
REMARK SMILES IDX 16 1 17 2 18 3 19 4 20 5 21 6 22 7 23 8 24 9 25 10 26 11
REMARK SMILES IDX 27 12 28 13 29 14 30 15 31 16 32 17 15 18 14 19 13 20 12 21
REMARK SMILES IDX 11 22 10 23 9 24 8 25 7 26 6 27 5 28 4 29 3 30 2 31 1 32
REMARK H PARENT
REMARK Flexibility Score: inf
ROOT
ATOM      1  C   UNL     1     -28.830  64.184  84.843  1.00  0.00     0.000 C 
ENDROOT
BRANCH   1   2
ATOM      2  C   UNL     1     -28.706  62.750  84.306  1.00  0.00     0.000 C 
BRANCH   2   3
ATOM      3  C   UNL     1     -29.110  62.631  82.826  1.00  0.00     0.000 C 
BRANCH   3   4
ATOM      4  C   UNL     1     -29.903  63.831  82.271  1.00  0.00     0.000 C 
BRANCH   4   5
ATOM      5  C   UNL     1     -29.234  64.572  81.094  1.00  0.00     0.000 C 
BRANCH   5   6
ATOM      6  C   UNL     1     -27.912  65.283  81.440  1.00  0.00     0.000 C 
BRANCH   6   7
ATOM      7  C   UNL     1     -28.066  66.807  81.550  1.00  0.00     0.000 C 
BRANCH   7   8
ATOM      8  C   UNL     1     -28.547  67.213  82.952  1.00  0.00     0.000 C 
BRANCH   8   9
ATOM      9  C   UNL     1     -30.074  67.114  83.108  1.00  0.00     0.000 C 
BRANCH   9  10
ATOM     10  C   UNL     1     -30.543  67.379  84.546  1.00  0.00     0.000 C 
BRANCH  10  11
ATOM     11  C   UNL     1     -31.697  66.442  84.932  1.00  0.00     0.000 C 
BRANCH  11  12
ATOM     12  C   UNL     1     -32.413  66.883  86.220  1.00  0.00     0.000 C 
BRANCH  12  13
ATOM     13  C   UNL     1     -31.633  67.958  86.997  1.00  0.00     0.006 C 
BRANCH  13  14
ATOM     14  C   UNL     1     -32.240  69.357  86.820  1.00  0.00     0.053 C 
BRANCH  14  15
ATOM     15  C   UNL     1     -31.237  70.345  86.305  1.00  0.00     0.041 C 
ATOM     16  O   UNL     1     -31.603  71.294  85.562  1.00  0.00    -0.550 OA
ATOM     17  O   UNL     1     -29.894  70.207  86.634  1.00  0.00    -0.550 OA
ENDBRANCH  14  15
ENDBRANCH  13  14
ENDBRANCH  12  13
ENDBRANCH  11  12
ENDBRANCH  10  11
ENDBRANCH   9  10
ENDBRANCH   8   9
ENDBRANCH   7   8
ENDBRANCH   6   7
ENDBRANCH   5   6
ENDBRANCH   4   5
ENDBRANCH   3   4
ENDBRANCH   2   3
ENDBRANCH   1   2
BRANCH   1  18
ATOM     18  C   UNL     1     -29.393  64.191  86.269  1.00  0.00     0.000 C 
BRANCH  18  19
ATOM     19  C   UNL     1     -28.846  65.381  87.070  1.00  0.00     0.000 C 
BRANCH  19  20
ATOM     20  C   UNL     1     -27.878  66.256  86.254  1.00  0.00     0.000 C 
BRANCH  20  21
ATOM     21  C   UNL     1     -27.781  67.727  86.707  1.00  0.00     0.000 C 
BRANCH  21  22
ATOM     22  C   UNL     1     -26.863  68.621  85.852  1.00  0.00     0.000 C 
BRANCH  22  23
ATOM     23  C   UNL     1     -25.815  67.819  85.062  1.00  0.00     0.000 C 
BRANCH  23  24
ATOM     24  C   UNL     1     -25.359  68.535  83.778  1.00  0.00    -0.000 C 
BRANCH  24  25
ATOM     25  C   UNL     1     -23.912  68.238  83.338  1.00  0.00    -0.000 C 
BRANCH  25  26
ATOM     26  C   UNL     1     -23.331  69.210  82.295  1.00  0.00    -0.000 C 
BRANCH  26  27
ATOM     27  C   UNL     1     -21.823  69.018  82.072  1.00  0.00    -0.000 C 
BRANCH  27  28
ATOM     28  C   UNL     1     -21.529  68.624  80.618  1.00  0.00    -0.000 C 
BRANCH  28  29
ATOM     29  C   UNL     1     -22.711  67.909  79.938  1.00  0.00    -0.000 C 
BRANCH  29  30
ATOM     30  C   UNL     1     -23.485  68.758  78.911  1.00  0.00    -0.000 C 
BRANCH  30  31
ATOM     31  C   UNL     1     -24.120  70.040  79.477  1.00  0.00    -0.003 C 
ATOM     32  C   UNL     1     -23.178  71.244  79.431  1.00  0.00     0.004 C 
ENDBRANCH  30  31
ENDBRANCH  29  30
ENDBRANCH  28  29
ENDBRANCH  27  28
ENDBRANCH  26  27
ENDBRANCH  25  26
ENDBRANCH  24  25
ENDBRANCH  23  24
ENDBRANCH  22  23
ENDBRANCH  21  22
ENDBRANCH  20  21
ENDBRANCH  19  20
ENDBRANCH  18  19
ENDBRANCH   1  18
TORSDOF 28
ENDMDL
MODEL 7
REMARK VINA RESULT:    -0.257      4.617      8.487
REMARK INTER + INTRA:          -4.342
REMARK INTER:                  -2.256
REMARK INTRA:                  -2.086
REMARK UNBOUND:                -3.664
REMARK SMILES CCCCCCCCCCCCCCCCCCCCCCCCCCCCCC(=O)[O-]
REMARK SMILES IDX 16 1 17 2 18 3 19 4 20 5 21 6 22 7 23 8 24 9 25 10 26 11
REMARK SMILES IDX 27 12 28 13 29 14 30 15 31 16 32 17 15 18 14 19 13 20 12 21
REMARK SMILES IDX 11 22 10 23 9 24 8 25 7 26 6 27 5 28 4 29 3 30 2 31 1 32
REMARK H PARENT
REMARK Flexibility Score: inf
ROOT
ATOM      1  C   UNL     1     -28.002  65.239  81.593  1.00  0.00     0.000 C 
ENDROOT
BRANCH   1   2
ATOM      2  C   UNL     1     -29.374  64.575  81.400  1.00  0.00     0.000 C 
BRANCH   2   3
ATOM      3  C   UNL     1     -29.830  63.781  82.636  1.00  0.00     0.000 C 
BRANCH   3   4
ATOM      4  C   UNL     1     -28.696  63.081  83.414  1.00  0.00     0.000 C 
BRANCH   4   5
ATOM      5  C   UNL     1     -28.794  63.184  84.950  1.00  0.00     0.000 C 
BRANCH   5   6
ATOM      6  C   UNL     1     -30.223  63.109  85.518  1.00  0.00     0.000 C 
BRANCH   6   7
ATOM      7  C   UNL     1     -30.406  63.953  86.788  1.00  0.00     0.000 C 
BRANCH   7   8
ATOM      8  C   UNL     1     -30.212  65.448  86.489  1.00  0.00     0.000 C 
BRANCH   8   9
ATOM      9  C   UNL     1     -31.252  65.995  85.497  1.00  0.00     0.000 C 
BRANCH   9  10
ATOM     10  C   UNL     1     -32.380  66.775  86.190  1.00  0.00     0.000 C 
BRANCH  10  11
ATOM     11  C   UNL     1     -31.827  68.001  86.933  1.00  0.00     0.000 C 
BRANCH  11  12
ATOM     12  C   UNL     1     -30.705  68.709  86.154  1.00  0.00     0.000 C 
BRANCH  12  13
ATOM     13  C   UNL     1     -29.625  69.304  87.074  1.00  0.00     0.006 C 
BRANCH  13  14
ATOM     14  C   UNL     1     -28.708  68.225  87.667  1.00  0.00     0.053 C 
BRANCH  14  15
ATOM     15  C   UNL     1     -27.516  68.817  88.360  1.00  0.00     0.041 C 
ATOM     16  O   UNL     1     -26.637  69.431  87.698  1.00  0.00    -0.550 OA
ATOM     17  O   UNL     1     -27.370  68.674  89.734  1.00  0.00    -0.550 OA
ENDBRANCH  14  15
ENDBRANCH  13  14
ENDBRANCH  12  13
ENDBRANCH  11  12
ENDBRANCH  10  11
ENDBRANCH   9  10
ENDBRANCH   8   9
ENDBRANCH   7   8
ENDBRANCH   6   7
ENDBRANCH   5   6
ENDBRANCH   4   5
ENDBRANCH   3   4
ENDBRANCH   2   3
ENDBRANCH   1   2
BRANCH   1  18
ATOM     18  C   UNL     1     -28.143  66.760  81.733  1.00  0.00     0.000 C 
BRANCH  18  19
ATOM     19  C   UNL     1     -29.075  67.121  82.898  1.00  0.00     0.000 C 
BRANCH  19  20
ATOM     20  C   UNL     1     -28.316  67.645  84.131  1.00  0.00     0.000 C 
BRANCH  20  21
ATOM     21  C   UNL     1     -27.267  66.678  84.716  1.00  0.00     0.000 C 
BRANCH  21  22
ATOM     22  C   UNL     1     -25.916  67.317  85.089  1.00  0.00     0.000 C 
BRANCH  22  23
ATOM     23  C   UNL     1     -25.422  68.324  84.038  1.00  0.00     0.000 C 
BRANCH  23  24
ATOM     24  C   UNL     1     -23.905  68.233  83.790  1.00  0.00    -0.000 C 
BRANCH  24  25
ATOM     25  C   UNL     1     -23.431  68.744  82.415  1.00  0.00    -0.000 C 
BRANCH  25  26
ATOM     26  C   UNL     1     -21.907  68.722  82.197  1.00  0.00    -0.000 C 
BRANCH  26  27
ATOM     27  C   UNL     1     -21.514  68.774  80.713  1.00  0.00    -0.000 C 
BRANCH  27  28
ATOM     28  C   UNL     1     -22.569  68.077  79.841  1.00  0.00    -0.000 C 
BRANCH  28  29
ATOM     29  C   UNL     1     -23.952  68.747  79.921  1.00  0.00    -0.000 C 
BRANCH  29  30
ATOM     30  C   UNL     1     -24.140  69.968  79.000  1.00  0.00    -0.000 C 
BRANCH  30  31
ATOM     31  C   UNL     1     -23.346  71.220  79.413  1.00  0.00    -0.003 C 
ATOM     32  C   UNL     1     -23.549  71.599  80.880  1.00  0.00     0.004 C 
ENDBRANCH  30  31
ENDBRANCH  29  30
ENDBRANCH  28  29
ENDBRANCH  27  28
ENDBRANCH  26  27
ENDBRANCH  25  26
ENDBRANCH  24  25
ENDBRANCH  23  24
ENDBRANCH  22  23
ENDBRANCH  21  22
ENDBRANCH  20  21
ENDBRANCH  19  20
ENDBRANCH  18  19
ENDBRANCH   1  18
TORSDOF 28
ENDMDL
MODEL 8
REMARK VINA RESULT:    -0.205      4.448      7.226
REMARK INTER + INTRA:          -4.205
REMARK INTER:                  -1.261
REMARK INTRA:                  -2.944
REMARK UNBOUND:                -3.664
REMARK SMILES CCCCCCCCCCCCCCCCCCCCCCCCCCCCCC(=O)[O-]
REMARK SMILES IDX 16 1 17 2 18 3 19 4 20 5 21 6 22 7 23 8 24 9 25 10 26 11
REMARK SMILES IDX 27 12 28 13 29 14 30 15 31 16 32 17 15 18 14 19 13 20 12 21
REMARK SMILES IDX 11 22 10 23 9 24 8 25 7 26 6 27 5 28 4 29 3 30 2 31 1 32
REMARK H PARENT
REMARK Flexibility Score: inf
ROOT
ATOM      1  C   UNL     1     -29.741  63.620  82.475  1.00  0.00     0.000 C 
ENDROOT
BRANCH   1   2
ATOM      2  C   UNL     1     -29.564  64.737  81.436  1.00  0.00     0.000 C 
BRANCH   2   3
ATOM      3  C   UNL     1     -28.107  65.218  81.321  1.00  0.00     0.000 C 
BRANCH   3   4
ATOM      4  C   UNL     1     -27.859  66.662  81.801  1.00  0.00     0.000 C 
BRANCH   4   5
ATOM      5  C   UNL     1     -28.893  67.205  82.809  1.00  0.00     0.000 C 
BRANCH   5   6
ATOM      6  C   UNL     1     -28.308  67.676  84.153  1.00  0.00     0.000 C 
BRANCH   6   7
ATOM      7  C   UNL     1     -27.239  66.722  84.705  1.00  0.00     0.000 C 
BRANCH   7   8
ATOM      8  C   UNL     1     -26.002  67.497  85.183  1.00  0.00     0.000 C 
BRANCH   8   9
ATOM      9  C   UNL     1     -25.503  68.518  84.146  1.00  0.00     0.000 C 
BRANCH   9  10
ATOM     10  C   UNL     1     -24.107  68.178  83.602  1.00  0.00     0.000 C 
BRANCH  10  11
ATOM     11  C   UNL     1     -23.832  68.920  82.285  1.00  0.00     0.000 C 
BRANCH  11  12
ATOM     12  C   UNL     1     -22.335  69.183  82.054  1.00  0.00     0.000 C 
BRANCH  12  13
ATOM     13  C   UNL     1     -21.821  68.582  80.734  1.00  0.00     0.006 C 
BRANCH  13  14
ATOM     14  C   UNL     1     -22.915  68.523  79.658  1.00  0.00     0.053 C 
BRANCH  14  15
ATOM     15  C   UNL     1     -23.534  69.866  79.409  1.00  0.00     0.041 C 
ATOM     16  O   UNL     1     -24.784  69.979  79.298  1.00  0.00    -0.550 OA
ATOM     17  O   UNL     1     -22.727  70.990  79.283  1.00  0.00    -0.550 OA
ENDBRANCH  14  15
ENDBRANCH  13  14
ENDBRANCH  12  13
ENDBRANCH  11  12
ENDBRANCH  10  11
ENDBRANCH   9  10
ENDBRANCH   8   9
ENDBRANCH   7   8
ENDBRANCH   6   7
ENDBRANCH   5   6
ENDBRANCH   4   5
ENDBRANCH   3   4
ENDBRANCH   2   3
ENDBRANCH   1   2
BRANCH   1  18
ATOM     18  C   UNL     1     -28.736  63.773  83.623  1.00  0.00     0.000 C 
BRANCH  18  19
ATOM     19  C   UNL     1     -28.419  62.412  84.261  1.00  0.00     0.000 C 
BRANCH  19  20
ATOM     20  C   UNL     1     -29.422  62.020  85.361  1.00  0.00     0.000 C 
BRANCH  20  21
ATOM     21  C   UNL     1     -30.520  63.063  85.651  1.00  0.00     0.000 C 
BRANCH  21  22
ATOM     22  C   UNL     1     -30.266  63.965  86.874  1.00  0.00     0.000 C 
BRANCH  22  23
ATOM     23  C   UNL     1     -29.938  65.416  86.487  1.00  0.00     0.000 C 
BRANCH  23  24
ATOM     24  C   UNL     1     -30.947  66.012  85.490  1.00  0.00    -0.000 C 
BRANCH  24  25
ATOM     25  C   UNL     1     -32.228  66.596  86.120  1.00  0.00    -0.000 C 
BRANCH  25  26
ATOM     26  C   UNL     1     -32.000  67.731  87.134  1.00  0.00    -0.000 C 
BRANCH  26  27
ATOM     27  C   UNL     1     -32.049  69.126  86.492  1.00  0.00    -0.000 C 
BRANCH  27  28
ATOM     28  C   UNL     1     -30.645  69.586  86.072  1.00  0.00    -0.000 C 
BRANCH  28  29
ATOM     29  C   UNL     1     -29.682  69.740  87.262  1.00  0.00    -0.000 C 
BRANCH  29  30
ATOM     30  C   UNL     1     -28.739  68.544  87.497  1.00  0.00    -0.000 C 
BRANCH  30  31
ATOM     31  C   UNL     1     -27.410  68.891  88.189  1.00  0.00    -0.003 C 
ATOM     32  C   UNL     1     -27.425  68.602  89.690  1.00  0.00     0.004 C 
ENDBRANCH  30  31
ENDBRANCH  29  30
ENDBRANCH  28  29
ENDBRANCH  27  28
ENDBRANCH  26  27
ENDBRANCH  25  26
ENDBRANCH  24  25
ENDBRANCH  23  24
ENDBRANCH  22  23
ENDBRANCH  21  22
ENDBRANCH  20  21
ENDBRANCH  19  20
ENDBRANCH  18  19
ENDBRANCH   1  18
TORSDOF 28
ENDMDL
MODEL 9
REMARK VINA RESULT:    -0.202      2.746      6.538
REMARK INTER + INTRA:          -4.196
REMARK INTER:                  -1.935
REMARK INTRA:                  -2.261
REMARK UNBOUND:                -3.664
REMARK SMILES CCCCCCCCCCCCCCCCCCCCCCCCCCCCCC(=O)[O-]
REMARK SMILES IDX 16 1 17 2 18 3 19 4 20 5 21 6 22 7 23 8 24 9 25 10 26 11
REMARK SMILES IDX 27 12 28 13 29 14 30 15 31 16 32 17 15 18 14 19 13 20 12 21
REMARK SMILES IDX 11 22 10 23 9 24 8 25 7 26 6 27 5 28 4 29 3 30 2 31 1 32
REMARK H PARENT
REMARK Flexibility Score: inf
ROOT
ATOM      1  C   UNL     1     -31.776  69.358  86.575  1.00  0.00     0.000 C 
ENDROOT
BRANCH   1   2
ATOM      2  C   UNL     1     -30.291  69.729  86.455  1.00  0.00     0.000 C 
BRANCH   2   3
ATOM      3  C   UNL     1     -29.355  68.587  86.889  1.00  0.00     0.000 C 
BRANCH   3   4
ATOM      4  C   UNL     1     -28.130  69.030  87.715  1.00  0.00     0.000 C 
BRANCH   4   5
ATOM      5  C   UNL     1     -26.796  69.073  86.941  1.00  0.00     0.000 C 
BRANCH   5   6
ATOM      6  C   UNL     1     -26.862  68.529  85.501  1.00  0.00     0.000 C 
BRANCH   6   7
ATOM      7  C   UNL     1     -26.288  67.110  85.373  1.00  0.00     0.000 C 
BRANCH   7   8
ATOM      8  C   UNL     1     -27.410  66.076  85.200  1.00  0.00     0.000 C 
BRANCH   8   9
ATOM      9  C   UNL     1     -27.870  65.468  86.536  1.00  0.00     0.000 C 
BRANCH   9  10
ATOM     10  C   UNL     1     -29.390  65.258  86.602  1.00  0.00     0.000 C 
BRANCH  10  11
ATOM     11  C   UNL     1     -29.740  63.762  86.615  1.00  0.00     0.000 C 
BRANCH  11  12
ATOM     12  C   UNL     1     -29.919  63.183  85.201  1.00  0.00     0.000 C 
BRANCH  12  13
ATOM     13  C   UNL     1     -28.596  63.106  84.418  1.00  0.00     0.006 C 
BRANCH  13  14
ATOM     14  C   UNL     1     -28.590  61.956  83.401  1.00  0.00     0.053 C 
BRANCH  14  15
ATOM     15  C   UNL     1     -27.534  60.936  83.709  1.00  0.00     0.041 C 
ATOM     16  O   UNL     1     -26.722  61.128  84.653  1.00  0.00    -0.550 OA
ATOM     17  O   UNL     1     -27.437  59.783  82.941  1.00  0.00    -0.550 OA
ENDBRANCH  14  15
ENDBRANCH  13  14
ENDBRANCH  12  13
ENDBRANCH  11  12
ENDBRANCH  10  11
ENDBRANCH   9  10
ENDBRANCH   8   9
ENDBRANCH   7   8
ENDBRANCH   6   7
ENDBRANCH   5   6
ENDBRANCH   4   5
ENDBRANCH   3   4
ENDBRANCH   2   3
ENDBRANCH   1   2
BRANCH   1  18
ATOM     18  C   UNL     1     -31.945  67.935  87.121  1.00  0.00     0.000 C 
BRANCH  18  19
ATOM     19  C   UNL     1     -32.592  67.017  86.074  1.00  0.00     0.000 C 
BRANCH  19  20
ATOM     20  C   UNL     1     -31.562  66.346  85.149  1.00  0.00     0.000 C 
BRANCH  20  21
ATOM     21  C   UNL     1     -31.110  67.195  83.943  1.00  0.00     0.000 C 
BRANCH  21  22
ATOM     22  C   UNL     1     -29.634  67.030  83.536  1.00  0.00     0.000 C 
BRANCH  22  23
ATOM     23  C   UNL     1     -29.403  65.836  82.596  1.00  0.00     0.000 C 
BRANCH  23  24
ATOM     24  C   UNL     1     -28.037  65.888  81.889  1.00  0.00    -0.000 C 
BRANCH  24  25
ATOM     25  C   UNL     1     -27.673  67.249  81.261  1.00  0.00    -0.000 C 
BRANCH  25  26
ATOM     26  C   UNL     1     -26.323  67.837  81.711  1.00  0.00    -0.000 C 
BRANCH  26  27
ATOM     27  C   UNL     1     -25.271  67.844  80.592  1.00  0.00    -0.000 C 
BRANCH  27  28
ATOM     28  C   UNL     1     -24.815  69.276  80.276  1.00  0.00    -0.000 C 
BRANCH  28  29
ATOM     29  C   UNL     1     -23.530  69.323  79.430  1.00  0.00    -0.000 C 
BRANCH  29  30
ATOM     30  C   UNL     1     -22.505  68.213  79.736  1.00  0.00    -0.000 C 
BRANCH  30  31
ATOM     31  C   UNL     1     -21.446  68.580  80.789  1.00  0.00    -0.003 C 
ATOM     32  C   UNL     1     -22.054  69.126  82.082  1.00  0.00     0.004 C 
ENDBRANCH  30  31
ENDBRANCH  29  30
ENDBRANCH  28  29
ENDBRANCH  27  28
ENDBRANCH  26  27
ENDBRANCH  25  26
ENDBRANCH  24  25
ENDBRANCH  23  24
ENDBRANCH  22  23
ENDBRANCH  21  22
ENDBRANCH  20  21
ENDBRANCH  19  20
ENDBRANCH  18  19
ENDBRANCH   1  18
TORSDOF 28
ENDMDL
