MODEL 1
REMARK VINA RESULT:    -2.878      0.000      0.000
REMARK INTER + INTRA:          -2.878
REMARK INTER:                  -2.878
REMARK INTRA:                   0.000
REMARK UNBOUND:                 0.000
REMARK SMILES CC(=O)[O-]
REMARK SMILES IDX 1 1 2 2 3 3 4 4
REMARK H PARENT
REMARK Flexibility Score: inf
ROOT
ATOM      1  C   UNL     1       7.244  -7.857  21.513  1.00  0.00     0.063 C 
ATOM      2  C   UNL     1       6.927  -8.837  22.590  1.00  0.00     0.038 C 
ATOM      3  O   UNL     1       6.296  -9.892  22.317  1.00  0.00    -0.550 OA
ATOM      4  O   UNL     1       7.278  -8.565  23.905  1.00  0.00    -0.550 OA
ENDROOT
TORSDOF 0
ENDMDL
MODEL 2
REMARK VINA RESULT:    -2.796      6.133      6.581
REMARK INTER + INTRA:          -2.796
REMARK INTER:                  -2.796
REMARK INTRA:                   0.000
REMARK UNBOUND:                 0.000
REMARK SMILES CC(=O)[O-]
REMARK SMILES IDX 1 1 2 2 3 3 4 4
REMARK H PARENT
REMARK Flexibility Score: inf
ROOT
ATOM      1  C   UNL     1       6.182  -1.212  21.031  1.00  0.00     0.063 C 
ATOM      2  C   UNL     1       6.056  -2.444  21.860  1.00  0.00     0.038 C 
ATOM      3  O   UNL     1       6.901  -3.370  21.747  1.00  0.00    -0.550 OA
ATOM      4  O   UNL     1       4.975  -2.597  22.718  1.00  0.00    -0.550 OA
ENDROOT
TORSDOF 0
ENDMDL
MODEL 3
REMARK VINA RESULT:    -2.779      6.165      6.673
REMARK INTER + INTRA:          -2.779
REMARK INTER:                  -2.779
REMARK INTRA:                   0.000
REMARK UNBOUND:                 0.000
REMARK SMILES CC(=O)[O-]
REMARK SMILES IDX 1 1 2 2 3 3 4 4
REMARK H PARENT
REMARK Flexibility Score: inf
ROOT
ATOM      1  C   UNL     1       6.848  -3.511  21.358  1.00  0.00     0.063 C 
ATOM      2  C   UNL     1       5.965  -2.423  21.866  1.00  0.00     0.038 C 
ATOM      3  O   UNL     1       6.139  -1.237  21.481  1.00  0.00    -0.550 OA
ATOM      4  O   UNL     1       4.984  -2.706  22.806  1.00  0.00    -0.550 OA
ENDROOT
TORSDOF 0
ENDMDL
MODEL 4
REMARK VINA RESULT:    -2.770      6.092      6.565
REMARK INTER + INTRA:          -2.770
REMARK INTER:                  -2.770
REMARK INTRA:                   0.000
REMARK UNBOUND:                 0.000
REMARK SMILES CC(=O)[O-]
REMARK SMILES IDX 1 1 2 2 3 3 4 4
REMARK H PARENT
REMARK Flexibility Score: inf
ROOT
ATOM      1  C   UNL     1       6.165  -1.215  21.113  1.00  0.00     0.063 C 
ATOM      2  C   UNL     1       5.992  -2.482  21.879  1.00  0.00     0.038 C 
ATOM      3  O   UNL     1       5.036  -2.604  22.689  1.00  0.00    -0.550 OA
ATOM      4  O   UNL     1       6.916  -3.509  21.743  1.00  0.00    -0.550 OA
ENDROOT
TORSDOF 0
ENDMDL
MODEL 5
REMARK VINA RESULT:    -2.761      6.602      7.107
REMARK INTER + INTRA:          -2.761
REMARK INTER:                  -2.761
REMARK INTRA:                   0.000
REMARK UNBOUND:                 0.000
REMARK SMILES CC(=O)[O-]
REMARK SMILES IDX 1 1 2 2 3 3 4 4
REMARK H PARENT
REMARK Flexibility Score: inf
ROOT
ATOM      1  C   UNL     1       5.647  -2.699  22.370  1.00  0.00     0.063 C 
ATOM      2  C   UNL     1       6.435  -2.143  21.234  1.00  0.00     0.038 C 
ATOM      3  O   UNL     1       6.324  -0.929  20.922  1.00  0.00    -0.550 OA
ATOM      4  O   UNL     1       7.254  -2.975  20.482  1.00  0.00    -0.550 OA
ENDROOT
TORSDOF 0
ENDMDL
MODEL 6
REMARK VINA RESULT:    -2.738      3.664      4.046
REMARK INTER + INTRA:          -2.738
REMARK INTER:                  -2.738
REMARK INTRA:                   0.000
REMARK UNBOUND:                 0.000
REMARK SMILES CC(=O)[O-]
REMARK SMILES IDX 1 1 2 2 3 3 4 4
REMARK H PARENT
REMARK Flexibility Score: inf
ROOT
ATOM      1  C   UNL     1       7.070  -7.061  21.307  1.00  0.00     0.063 C 
ATOM      2  C   UNL     1       6.958  -5.582  21.163  1.00  0.00     0.038 C 
ATOM      3  O   UNL     1       7.993  -4.882  21.013  1.00  0.00    -0.550 OA
ATOM      4  O   UNL     1       5.716  -4.967  21.248  1.00  0.00    -0.550 OA
ENDROOT
TORSDOF 0
ENDMDL
MODEL 7
REMARK VINA RESULT:    -2.682      3.990      4.301
REMARK INTER + INTRA:          -2.682
REMARK INTER:                  -2.682
REMARK INTRA:                   0.000
REMARK UNBOUND:                 0.000
REMARK SMILES CC(=O)[O-]
REMARK SMILES IDX 1 1 2 2 3 3 4 4
REMARK H PARENT
REMARK Flexibility Score: inf
ROOT
ATOM      1  C   UNL     1       7.555  -4.157  20.394  1.00  0.00     0.063 C 
ATOM      2  C   UNL     1       6.523  -5.022  21.032  1.00  0.00     0.038 C 
ATOM      3  O   UNL     1       6.762  -6.240  21.242  1.00  0.00    -0.550 OA
ATOM      4  O   UNL     1       5.275  -4.500  21.347  1.00  0.00    -0.550 OA
ENDROOT
TORSDOF 0
ENDMDL
MODEL 8
REMARK VINA RESULT:    -2.614      9.369      9.663
REMARK INTER + INTRA:          -2.614
REMARK INTER:                  -2.614
REMARK INTRA:                   0.000
REMARK UNBOUND:                 0.000
REMARK SMILES CC(=O)[O-]
REMARK SMILES IDX 1 1 2 2 3 3 4 4
REMARK H PARENT
REMARK Flexibility Score: inf
ROOT
ATOM      1  C   UNL     1      15.589  -7.873  20.681  1.00  0.00     0.063 C 
ATOM      2  C   UNL     1      16.526  -8.513  21.647  1.00  0.00     0.038 C 
ATOM      3  O   UNL     1      17.604  -9.020  21.239  1.00  0.00    -0.550 OA
ATOM      4  O   UNL     1      16.188  -8.601  22.991  1.00  0.00    -0.550 OA
ENDROOT
TORSDOF 0
ENDMDL
MODEL 9
REMARK VINA RESULT:    -2.613      9.347      9.681
REMARK INTER + INTRA:          -2.613
REMARK INTER:                  -2.613
REMARK INTRA:                   0.000
REMARK UNBOUND:                 0.000
REMARK SMILES CC(=O)[O-]
REMARK SMILES IDX 1 1 2 2 3 3 4 4
REMARK H PARENT
REMARK Flexibility Score: inf
ROOT
ATOM      1  C   UNL     1      15.592  -7.828  20.660  1.00  0.00     0.063 C 
ATOM      2  C   UNL     1      16.448  -8.522  21.663  1.00  0.00     0.038 C 
ATOM      3  O   UNL     1      16.066  -8.622  22.859  1.00  0.00    -0.550 OA
ATOM      4  O   UNL     1      17.694  -9.012  21.295  1.00  0.00    -0.550 OA
ENDROOT
TORSDOF 0
ENDMDL
