MODEL 1
REMARK VINA RESULT:    -0.632      0.000      0.000
REMARK INTER + INTRA:          -2.745
REMARK INTER:                  -0.928
REMARK INTRA:                  -1.817
REMARK UNBOUND:                -1.817
REMARK SMILES Cc1cc2c(C(C)C)c(O)c(O)c(C=O)c2c(O)c1-c1c(C)cc2c(C(C)C)c(O)c(O)c(C=O)c2c1O
REMARK SMILES IDX 1 1 2 2 3 3 4 4 16 5 13 6 11 7 9 8 5 9 17 10 19 11 20 12
REMARK SMILES IDX 37 13 21 14 36 15 23 16 22 17 24 18 33 19 25 20 31 21 29 22
REMARK SMILES IDX 38 23 34 25 35 26 26 27 27 28 28 29 32 30 30 32 18 34 6 36
REMARK SMILES IDX 7 37 8 38 14 39 15 40 10 41 12 43
REMARK H PARENT 38 24 32 31 30 33 18 35 10 42 12 44
REMARK Flexibility Score: inf
ROOT
ATOM      1  C   UNL     1     109.898 100.491  84.570  1.00  0.00     0.045 C 
ATOM      2  C   UNL     1     111.068  99.541  84.529  1.00  0.00    -0.039 A 
ATOM      3  C   UNL     1     111.415  98.931  83.320  1.00  0.00     0.013 A 
ATOM      4  C   UNL     1     112.505  98.042  83.216  1.00  0.00    -0.006 A 
ATOM      5  C   UNL     1     113.327  97.850  84.364  1.00  0.00     0.039 A 
ATOM      6  C   UNL     1     114.563  97.162  84.223  1.00  0.00     0.072 A 
ATOM      7  C   UNL     1     114.883  96.530  83.012  1.00  0.00     0.169 A 
ATOM      8  C   UNL     1     113.988  96.577  81.925  1.00  0.00     0.162 A 
ATOM      9  C   UNL     1     112.796  97.338  82.003  1.00  0.00     0.008 A 
ATOM     10  C   UNL     1     112.873  98.330  85.626  1.00  0.00     0.132 A 
ATOM     11  C   UNL     1     111.769  99.202  85.698  1.00  0.00     0.031 A 
ENDROOT
BRANCH  11  12
ATOM     12  C   UNL     1     111.341  99.761  87.007  1.00  0.00     0.031 A 
ATOM     13  C   UNL     1     110.404  99.069  87.803  1.00  0.00     0.132 A 
ATOM     14  C   UNL     1     111.898 100.964  87.465  1.00  0.00    -0.039 A 
ATOM     15  C   UNL     1     109.972  99.611  89.053  1.00  0.00     0.039 A 
ATOM     16  C   UNL     1     111.501 101.480  88.699  1.00  0.00     0.013 A 
ATOM     17  C   UNL     1     112.959 101.684  86.670  1.00  0.00     0.045 C 
ATOM     18  C   UNL     1     110.509 100.865  89.485  1.00  0.00    -0.006 A 
ATOM     19  C   UNL     1     109.052  98.927  89.903  1.00  0.00     0.072 A 
ATOM     20  C   UNL     1     110.071 101.452  90.714  1.00  0.00     0.008 A 
ATOM     21  C   UNL     1     108.762  99.444  91.181  1.00  0.00     0.169 A 
ATOM     22  C   UNL     1     109.303 100.656  91.598  1.00  0.00     0.162 A 
BRANCH  13  23
ATOM     23  O   UNL     1     109.920  97.831  87.361  1.00  0.00    -0.507 OA
ATOM     24  H   UNL     1     108.968  97.670  87.059  1.00  0.00     0.293 HD
ENDBRANCH  13  23
BRANCH  19  25
ATOM     25  C   UNL     1     108.391  97.672  89.494  1.00  0.00     0.264 C 
ATOM     26  O   UNL     1     108.757  96.567  89.979  1.00  0.00    -0.298 OA
ENDBRANCH  19  25
BRANCH  20  27
ATOM     27  C   UNL     1     110.303 102.930  91.087  1.00  0.00     0.017 C 
ATOM     28  C   UNL     1     111.279 103.147  92.260  1.00  0.00     0.012 C 
ATOM     29  C   UNL     1     108.993 103.716  91.244  1.00  0.00     0.012 C 
ENDBRANCH  20  27
BRANCH  21  30
ATOM     30  O   UNL     1     107.909  98.781  92.072  1.00  0.00    -0.504 OA
ATOM     31  H   UNL     1     107.771  99.058  93.036  1.00  0.00     0.293 HD
ENDBRANCH  21  30
BRANCH  22  32
ATOM     32  O   UNL     1     109.045 101.044  92.918  1.00  0.00    -0.504 OA
ATOM     33  H   UNL     1     108.120 101.066  93.328  1.00  0.00     0.293 HD
ENDBRANCH  22  32
ENDBRANCH  11  12
BRANCH  10  34
ATOM     34  O   UNL     1     113.485  97.890  86.806  1.00  0.00    -0.507 OA
ATOM     35  H   UNL     1     113.234  97.036  87.284  1.00  0.00     0.293 HD
ENDBRANCH  10  34
BRANCH   9  36
ATOM     36  C   UNL     1     111.856  97.325  80.778  1.00  0.00     0.017 C 
ATOM     37  C   UNL     1     111.810  98.684  80.067  1.00  0.00     0.012 C 
ATOM     38  C   UNL     1     110.457  96.738  81.061  1.00  0.00     0.012 C 
ENDBRANCH   9  36
BRANCH   6  39
ATOM     39  C   UNL     1     115.623  97.194  85.258  1.00  0.00     0.264 C 
ATOM     40  O   UNL     1     115.890  96.171  85.942  1.00  0.00    -0.298 OA
ENDBRANCH   6  39
BRANCH   8  41
ATOM     41  O   UNL     1     114.269  95.875  80.745  1.00  0.00    -0.504 OA
ATOM     42  H   UNL     1     113.582  95.626  80.048  1.00  0.00     0.293 HD
ENDBRANCH   8  41
BRANCH   7  43
ATOM     43  O   UNL     1     116.125  95.889  82.910  1.00  0.00    -0.504 OA
ATOM     44  H   UNL     1     117.015  96.363  82.862  1.00  0.00     0.293 HD
ENDBRANCH   7  43
TORSDOF 11
ENDMDL
MODEL 2
REMARK VINA RESULT:    -0.612      3.914      6.599
REMARK INTER + INTRA:          -2.716
REMARK INTER:                  -0.892
REMARK INTRA:                  -1.824
REMARK UNBOUND:                -1.817
REMARK SMILES Cc1cc2c(C(C)C)c(O)c(O)c(C=O)c2c(O)c1-c1c(C)cc2c(C(C)C)c(O)c(O)c(C=O)c2c1O
REMARK SMILES IDX 1 1 2 2 3 3 4 4 16 5 13 6 11 7 9 8 5 9 17 10 19 11 20 12
REMARK SMILES IDX 37 13 21 14 36 15 23 16 22 17 24 18 33 19 25 20 31 21 29 22
REMARK SMILES IDX 38 23 34 25 35 26 26 27 27 28 28 29 32 30 30 32 18 34 6 36
REMARK SMILES IDX 7 37 8 38 14 39 15 40 10 41 12 43
REMARK H PARENT 38 24 32 31 30 33 18 35 10 42 12 44
REMARK Flexibility Score: inf
ROOT
ATOM      1  C   UNL     1     110.473  99.671  86.786  1.00  0.00     0.045 C 
ATOM      2  C   UNL     1     111.182  99.153  85.560  1.00  0.00    -0.039 A 
ATOM      3  C   UNL     1     112.342  98.389  85.709  1.00  0.00     0.013 A 
ATOM      4  C   UNL     1     113.042  97.867  84.601  1.00  0.00    -0.006 A 
ATOM      5  C   UNL     1     112.481  98.050  83.304  1.00  0.00     0.039 A 
ATOM      6  C   UNL     1     113.026  97.331  82.206  1.00  0.00     0.072 A 
ATOM      7  C   UNL     1     114.208  96.592  82.366  1.00  0.00     0.169 A 
ATOM      8  C   UNL     1     114.860  96.549  83.614  1.00  0.00     0.162 A 
ATOM      9  C   UNL     1     114.287  97.173  84.750  1.00  0.00     0.008 A 
ATOM     10  C   UNL     1     111.405  98.969  83.142  1.00  0.00     0.132 A 
ATOM     11  C   UNL     1     110.737  99.487  84.270  1.00  0.00     0.031 A 
ENDROOT
BRANCH  11  12
ATOM     12  C   UNL     1     109.568 100.388  84.099  1.00  0.00     0.031 A 
ATOM     13  C   UNL     1     109.750 101.787  84.050  1.00  0.00     0.132 A 
ATOM     14  C   UNL     1     108.285  99.842  83.951  1.00  0.00    -0.039 A 
ATOM     15  C   UNL     1     108.628 102.660  83.907  1.00  0.00     0.039 A 
ATOM     16  C   UNL     1     107.191 100.691  83.780  1.00  0.00     0.013 A 
ATOM     17  C   UNL     1     108.073  98.348  83.921  1.00  0.00     0.045 C 
ATOM     18  C   UNL     1     107.318 102.092  83.809  1.00  0.00    -0.006 A 
ATOM     19  C   UNL     1     108.772 104.077  83.820  1.00  0.00     0.072 A 
ATOM     20  C   UNL     1     106.171 102.941  83.702  1.00  0.00     0.008 A 
ATOM     21  C   UNL     1     107.646 104.880  83.548  1.00  0.00     0.169 A 
ATOM     22  C   UNL     1     106.379 104.316  83.439  1.00  0.00     0.162 A 
BRANCH  13  23
ATOM     23  O   UNL     1     111.049 102.305  84.121  1.00  0.00    -0.507 OA
ATOM     24  H   UNL     1     111.869 101.831  83.765  1.00  0.00     0.293 HD
ENDBRANCH  13  23
BRANCH  19  25
ATOM     25  C   UNL     1     110.077 104.745  83.994  1.00  0.00     0.264 C 
ATOM     26  O   UNL     1     110.698 105.209  82.999  1.00  0.00    -0.298 OA
ENDBRANCH  19  25
BRANCH  20  27
ATOM     27  C   UNL     1     104.727 102.462  83.951  1.00  0.00     0.017 C 
ATOM     28  C   UNL     1     104.510 101.763  85.308  1.00  0.00     0.012 C 
ATOM     29  C   UNL     1     104.152 101.666  82.770  1.00  0.00     0.012 C 
ENDBRANCH  20  27
BRANCH  21  30
ATOM     30  O   UNL     1     107.746 106.269  83.399  1.00  0.00    -0.504 OA
ATOM     31  H   UNL     1     106.981 106.863  83.104  1.00  0.00     0.293 HD
ENDBRANCH  21  30
BRANCH  22  32
ATOM     32  O   UNL     1     105.335 105.171  83.066  1.00  0.00    -0.504 OA
ATOM     33  H   UNL     1     105.468 106.140  82.805  1.00  0.00     0.293 HD
ENDBRANCH  22  32
ENDBRANCH  11  12
BRANCH  10  34
ATOM     34  O   UNL     1     111.044  99.408  81.863  1.00  0.00    -0.507 OA
ATOM     35  H   UNL     1     110.133  99.781  81.633  1.00  0.00     0.293 HD
ENDBRANCH  10  34
BRANCH   9  36
ATOM     36  C   UNL     1     115.069  97.100  86.079  1.00  0.00     0.017 C 
ATOM     37  C   UNL     1     114.348  96.249  87.132  1.00  0.00     0.012 C 
ATOM     38  C   UNL     1     115.532  98.471  86.616  1.00  0.00     0.012 C 
ENDBRANCH   9  36
BRANCH   6  39
ATOM     39  C   UNL     1     112.326  97.196  80.907  1.00  0.00     0.264 C 
ATOM     40  O   UNL     1     112.762  97.773  79.875  1.00  0.00    -0.298 OA
ENDBRANCH   6  39
BRANCH   8  41
ATOM     41  O   UNL     1     116.084  95.882  83.752  1.00  0.00    -0.504 OA
ATOM     42  H   UNL     1     116.423  95.476  84.612  1.00  0.00     0.293 HD
ENDBRANCH   8  41
BRANCH   7  43
ATOM     43  O   UNL     1     114.693  95.876  81.263  1.00  0.00    -0.504 OA
ATOM     44  H   UNL     1     114.377  94.957  80.990  1.00  0.00     0.293 HD
ENDBRANCH   7  43
TORSDOF 11
ENDMDL
MODEL 3
REMARK VINA RESULT:    -0.610      4.000      6.986
REMARK INTER + INTRA:          -2.712
REMARK INTER:                  -0.886
REMARK INTRA:                  -1.826
REMARK UNBOUND:                -1.817
REMARK SMILES Cc1cc2c(C(C)C)c(O)c(O)c(C=O)c2c(O)c1-c1c(C)cc2c(C(C)C)c(O)c(O)c(C=O)c2c1O
REMARK SMILES IDX 1 1 2 2 3 3 4 4 16 5 13 6 11 7 9 8 5 9 17 10 19 11 20 12
REMARK SMILES IDX 37 13 21 14 36 15 23 16 22 17 24 18 33 19 25 20 31 21 29 22
REMARK SMILES IDX 38 23 34 25 35 26 26 27 27 28 28 29 32 30 30 32 18 34 6 36
REMARK SMILES IDX 7 37 8 38 14 39 15 40 10 41 12 43
REMARK H PARENT 38 24 32 31 30 33 18 35 10 42 12 44
REMARK Flexibility Score: inf
ROOT
ATOM      1  C   UNL     1     109.088  98.427  86.711  1.00  0.00     0.045 C 
ATOM      2  C   UNL     1     110.373  98.132  85.980  1.00  0.00    -0.039 A 
ATOM      3  C   UNL     1     111.462  97.617  86.687  1.00  0.00     0.013 A 
ATOM      4  C   UNL     1     112.687  97.310  86.057  1.00  0.00    -0.006 A 
ATOM      5  C   UNL     1     112.765  97.441  84.640  1.00  0.00     0.039 A 
ATOM      6  C   UNL     1     113.892  96.910  83.957  1.00  0.00     0.072 A 
ATOM      7  C   UNL     1     114.990  96.423  84.683  1.00  0.00     0.169 A 
ATOM      8  C   UNL     1     114.983  96.451  86.092  1.00  0.00     0.162 A 
ATOM      9  C   UNL     1     113.834  96.882  86.800  1.00  0.00     0.008 A 
ATOM     10  C   UNL     1     111.722  98.126  83.953  1.00  0.00     0.132 A 
ATOM     11  C   UNL     1     110.518  98.435  84.616  1.00  0.00     0.031 A 
ENDROOT
BRANCH  11  12
ATOM     12  C   UNL     1     109.402  99.082  83.878  1.00  0.00     0.031 A 
ATOM     13  C   UNL     1     108.422  98.296  83.237  1.00  0.00     0.132 A 
ATOM     14  C   UNL     1     109.307 100.482  83.851  1.00  0.00    -0.039 A 
ATOM     15  C   UNL     1     107.358  98.912  82.509  1.00  0.00     0.039 A 
ATOM     16  C   UNL     1     108.252 101.086  83.167  1.00  0.00     0.013 A 
ATOM     17  C   UNL     1     110.297 101.345  84.594  1.00  0.00     0.045 C 
ATOM     18  C   UNL     1     107.301 100.340  82.445  1.00  0.00    -0.006 A 
ATOM     19  C   UNL     1     106.329  98.154  81.875  1.00  0.00     0.072 A 
ATOM     20  C   UNL     1     106.270 100.988  81.694  1.00  0.00     0.008 A 
ATOM     21  C   UNL     1     105.235  98.815  81.283  1.00  0.00     0.169 A 
ATOM     22  C   UNL     1     105.181 100.205  81.240  1.00  0.00     0.162 A 
BRANCH  13  23
ATOM     23  O   UNL     1     108.495  96.901  83.344  1.00  0.00    -0.507 OA
ATOM     24  H   UNL     1     109.052  96.315  82.737  1.00  0.00     0.293 HD
ENDBRANCH  13  23
BRANCH  19  25
ATOM     25  C   UNL     1     106.360  96.679  81.825  1.00  0.00     0.264 C 
ATOM     26  O   UNL     1     105.581  95.996  82.545  1.00  0.00    -0.298 OA
ENDBRANCH  19  25
BRANCH  20  27
ATOM     27  C   UNL     1     106.323 102.468  81.267  1.00  0.00     0.017 C 
ATOM     28  C   UNL     1     107.579 102.857  80.462  1.00  0.00     0.012 C 
ATOM     29  C   UNL     1     106.035 103.432  82.428  1.00  0.00     0.012 C 
ENDBRANCH  20  27
BRANCH  21  30
ATOM     30  O   UNL     1     104.174  98.113  80.697  1.00  0.00    -0.504 OA
ATOM     31  H   UNL     1     103.824  98.291  79.764  1.00  0.00     0.293 HD
ENDBRANCH  21  30
BRANCH  22  32
ATOM     32  O   UNL     1     104.012 100.778  80.727  1.00  0.00    -0.504 OA
ATOM     33  H   UNL     1     103.756 100.752  79.748  1.00  0.00     0.293 HD
ENDBRANCH  22  32
ENDBRANCH  11  12
BRANCH  10  34
ATOM     34  O   UNL     1     111.912  98.548  82.632  1.00  0.00    -0.507 OA
ATOM     35  H   UNL     1     111.309  98.281  81.865  1.00  0.00     0.293 HD
ENDBRANCH  10  34
BRANCH   9  36
ATOM     36  C   UNL     1     113.909  96.902  88.342  1.00  0.00     0.017 C 
ATOM     37  C   UNL     1     112.966  95.876  88.983  1.00  0.00     0.012 C 
ATOM     38  C   UNL     1     113.790  98.311  88.962  1.00  0.00     0.012 C 
ENDBRANCH   9  36
BRANCH   6  39
ATOM     39  C   UNL     1     113.918  96.702  82.490  1.00  0.00     0.264 C 
ATOM     40  O   UNL     1     114.610  97.445  81.744  1.00  0.00    -0.298 OA
ENDBRANCH   6  39
BRANCH   8  41
ATOM     41  O   UNL     1     116.113  96.044  86.814  1.00  0.00    -0.504 OA
ATOM     42  H   UNL     1     116.746  96.671  87.289  1.00  0.00     0.293 HD
ENDBRANCH   8  41
BRANCH   7  43
ATOM     43  O   UNL     1     116.067  95.882  83.967  1.00  0.00    -0.504 OA
ATOM     44  H   UNL     1     116.865  95.427  84.387  1.00  0.00     0.293 HD
ENDBRANCH   7  43
TORSDOF 11
ENDMDL
MODEL 4
REMARK VINA RESULT:    -0.593      2.211      2.774
REMARK INTER + INTRA:          -2.688
REMARK INTER:                  -0.938
REMARK INTRA:                  -1.749
REMARK UNBOUND:                -1.817
REMARK SMILES Cc1cc2c(C(C)C)c(O)c(O)c(C=O)c2c(O)c1-c1c(C)cc2c(C(C)C)c(O)c(O)c(C=O)c2c1O
REMARK SMILES IDX 1 1 2 2 3 3 4 4 16 5 13 6 11 7 9 8 5 9 17 10 19 11 20 12
REMARK SMILES IDX 37 13 21 14 36 15 23 16 22 17 24 18 33 19 25 20 31 21 29 22
REMARK SMILES IDX 38 23 34 25 35 26 26 27 27 28 28 29 32 30 30 32 18 34 6 36
REMARK SMILES IDX 7 37 8 38 14 39 15 40 10 41 12 43
REMARK H PARENT 38 24 32 31 30 33 18 35 10 42 12 44
REMARK Flexibility Score: inf
ROOT
ATOM      1  C   UNL     1     109.366  99.839  83.898  1.00  0.00     0.045 C 
ATOM      2  C   UNL     1     110.522  98.986  84.356  1.00  0.00    -0.039 A 
ATOM      3  C   UNL     1     111.441  98.513  83.416  1.00  0.00     0.013 A 
ATOM      4  C   UNL     1     112.548  97.720  83.785  1.00  0.00    -0.006 A 
ATOM      5  C   UNL     1     112.776  97.489  85.172  1.00  0.00     0.039 A 
ATOM      6  C   UNL     1     114.007  96.910  85.584  1.00  0.00     0.072 A 
ATOM      7  C   UNL     1     114.906  96.413  84.628  1.00  0.00     0.169 A 
ATOM      8  C   UNL     1     114.601  96.489  83.254  1.00  0.00     0.162 A 
ATOM      9  C   UNL     1     113.429  97.150  82.810  1.00  0.00     0.008 A 
ATOM     10  C   UNL     1     111.752  97.820  86.104  1.00  0.00     0.132 A 
ATOM     11  C   UNL     1     110.648  98.598  85.700  1.00  0.00     0.031 A 
ENDROOT
BRANCH  11  12
ATOM     12  C   UNL     1     109.617  99.006  86.689  1.00  0.00     0.031 A 
ATOM     13  C   UNL     1     108.492  98.187  86.921  1.00  0.00     0.132 A 
ATOM     14  C   UNL     1     109.784 100.192  87.419  1.00  0.00    -0.039 A 
ATOM     15  C   UNL     1     107.486  98.583  87.856  1.00  0.00     0.039 A 
ATOM     16  C   UNL     1     108.819 100.566  88.354  1.00  0.00     0.013 A 
ATOM     17  C   UNL     1     111.017 101.046  87.247  1.00  0.00     0.045 C 
ATOM     18  C   UNL     1     107.642  99.821  88.556  1.00  0.00    -0.006 A 
ATOM     19  C   UNL     1     106.350  97.769  88.144  1.00  0.00     0.072 A 
ATOM     20  C   UNL     1     106.636 100.264  89.472  1.00  0.00     0.008 A 
ATOM     21  C   UNL     1     105.459  98.146  89.168  1.00  0.00     0.169 A 
ATOM     22  C   UNL     1     105.629  99.345  89.854  1.00  0.00     0.162 A 
BRANCH  13  23
ATOM     23  O   UNL     1     108.386  96.969  86.238  1.00  0.00    -0.507 OA
ATOM     24  H   UNL     1     107.596  96.709  85.663  1.00  0.00     0.293 HD
ENDBRANCH  13  23
BRANCH  19  25
ATOM     25  C   UNL     1     106.074  96.520  87.407  1.00  0.00     0.264 C 
ATOM     26  O   UNL     1     105.201  96.491  86.497  1.00  0.00    -0.298 OA
ENDBRANCH  19  25
BRANCH  20  27
ATOM     27  C   UNL     1     106.528 101.712  89.990  1.00  0.00     0.017 C 
ATOM     28  C   UNL     1     106.436 102.782  88.885  1.00  0.00     0.012 C 
ATOM     29  C   UNL     1     107.584 102.042  91.056  1.00  0.00     0.012 C 
ENDBRANCH  20  27
BRANCH  21  30
ATOM     30  O   UNL     1     104.361  97.353  89.524  1.00  0.00    -0.504 OA
ATOM     31  H   UNL     1     104.047  96.551  88.992  1.00  0.00     0.293 HD
ENDBRANCH  21  30
BRANCH  22  32
ATOM     32  O   UNL     1     104.760  99.591  90.923  1.00  0.00    -0.504 OA
ATOM     33  H   UNL     1     104.281  98.864  91.438  1.00  0.00     0.293 HD
ENDBRANCH  22  32
ENDBRANCH  11  12
BRANCH  10  34
ATOM     34  O   UNL     1     111.806  97.325  87.412  1.00  0.00    -0.507 OA
ATOM     35  H   UNL     1     111.177  96.620  87.773  1.00  0.00     0.293 HD
ENDBRANCH  10  34
BRANCH   9  36
ATOM     36  C   UNL     1     113.153  97.175  81.291  1.00  0.00     0.017 C 
ATOM     37  C   UNL     1     113.309  98.580  80.696  1.00  0.00     0.012 C 
ATOM     38  C   UNL     1     111.839  96.480  80.876  1.00  0.00     0.012 C 
ENDBRANCH   9  36
BRANCH   6  39
ATOM     39  C   UNL     1     114.474  96.930  86.990  1.00  0.00     0.264 C 
ATOM     40  O   UNL     1     114.487  95.876  87.681  1.00  0.00    -0.298 OA
ENDBRANCH   6  39
BRANCH   8  41
ATOM     41  O   UNL     1     115.458  95.917  82.305  1.00  0.00    -0.504 OA
ATOM     42  H   UNL     1     115.278  95.053  81.816  1.00  0.00     0.293 HD
ENDBRANCH   8  41
BRANCH   7  43
ATOM     43  O   UNL     1     116.120  95.877  85.079  1.00  0.00    -0.504 OA
ATOM     44  H   UNL     1     116.968  96.409  85.215  1.00  0.00     0.293 HD
ENDBRANCH   7  43
TORSDOF 11
ENDMDL
MODEL 5
REMARK VINA RESULT:    -0.574     14.614     18.754
REMARK INTER + INTRA:          -2.659
REMARK INTER:                  -0.883
REMARK INTRA:                  -1.776
REMARK UNBOUND:                -1.817
REMARK SMILES Cc1cc2c(C(C)C)c(O)c(O)c(C=O)c2c(O)c1-c1c(C)cc2c(C(C)C)c(O)c(O)c(C=O)c2c1O
REMARK SMILES IDX 1 1 2 2 3 3 4 4 16 5 13 6 11 7 9 8 5 9 17 10 19 11 20 12
REMARK SMILES IDX 37 13 21 14 36 15 23 16 22 17 24 18 33 19 25 20 31 21 29 22
REMARK SMILES IDX 38 23 34 25 35 26 26 27 27 28 28 29 32 30 30 32 18 34 6 36
REMARK SMILES IDX 7 37 8 38 14 39 15 40 10 41 12 43
REMARK H PARENT 38 24 32 31 30 33 18 35 10 42 12 44
REMARK Flexibility Score: inf
ROOT
ATOM      1  C   UNL     1     100.567 113.200  87.994  1.00  0.00     0.045 C 
ATOM      2  C   UNL     1     100.269 113.571  86.563  1.00  0.00    -0.039 A 
ATOM      3  C   UNL     1      99.025 114.119  86.241  1.00  0.00     0.013 A 
ATOM      4  C   UNL     1      98.692 114.495  84.923  1.00  0.00    -0.006 A 
ATOM      5  C   UNL     1      99.701 114.401  83.921  1.00  0.00     0.039 A 
ATOM      6  C   UNL     1      99.474 114.999  82.652  1.00  0.00     0.072 A 
ATOM      7  C   UNL     1      98.211 115.518  82.334  1.00  0.00     0.169 A 
ATOM      8  C   UNL     1      97.158 115.459  83.270  1.00  0.00     0.162 A 
ATOM      9  C   UNL     1      97.381 114.959  84.577  1.00  0.00     0.008 A 
ATOM     10  C   UNL     1     100.897 113.685  84.213  1.00  0.00     0.132 A 
ATOM     11  C   UNL     1     101.193 113.306  85.538  1.00  0.00     0.031 A 
ENDROOT
BRANCH  11  12
ATOM     12  C   UNL     1     102.475 112.625  85.853  1.00  0.00     0.031 A 
ATOM     13  C   UNL     1     103.617 113.381  86.191  1.00  0.00     0.132 A 
ATOM     14  C   UNL     1     102.537 111.223  85.849  1.00  0.00    -0.039 A 
ATOM     15  C   UNL     1     104.859 112.732  86.475  1.00  0.00     0.039 A 
ATOM     16  C   UNL     1     103.740 110.587  86.156  1.00  0.00     0.013 A 
ATOM     17  C   UNL     1     101.311 110.390  85.569  1.00  0.00     0.045 C 
ATOM     18  C   UNL     1     104.922 111.305  86.416  1.00  0.00    -0.006 A 
ATOM     19  C   UNL     1     106.028 113.458  86.853  1.00  0.00     0.072 A 
ATOM     20  C   UNL     1     106.159 110.627  86.660  1.00  0.00     0.008 A 
ATOM     21  C   UNL     1     107.187 112.762  87.248  1.00  0.00     0.169 A 
ATOM     22  C   UNL     1     107.233 111.372  87.203  1.00  0.00     0.162 A 
BRANCH  13  23
ATOM     23  O   UNL     1     103.511 114.775  86.265  1.00  0.00    -0.507 OA
ATOM     24  H   UNL     1     104.285 115.392  86.476  1.00  0.00     0.293 HD
ENDBRANCH  13  23
BRANCH  19  25
ATOM     25  C   UNL     1     106.068 114.934  86.857  1.00  0.00     0.264 C 
ATOM     26  O   UNL     1     106.001 115.574  87.942  1.00  0.00    -0.298 OA
ENDBRANCH  19  25
BRANCH  20  27
ATOM     27  C   UNL     1     106.419 109.157  86.275  1.00  0.00     0.017 C 
ATOM     28  C   UNL     1     106.529 108.192  87.473  1.00  0.00     0.012 C 
ATOM     29  C   UNL     1     107.573 109.000  85.273  1.00  0.00     0.012 C 
ENDBRANCH  20  27
BRANCH  21  30
ATOM     30  O   UNL     1     108.341 113.429  87.679  1.00  0.00    -0.504 OA
ATOM     31  H   UNL     1     108.545 114.398  87.471  1.00  0.00     0.293 HD
ENDBRANCH  21  30
BRANCH  22  32
ATOM     32  O   UNL     1     108.385 110.760  87.710  1.00  0.00    -0.504 OA
ATOM     33  H   UNL     1     109.022 111.207  88.357  1.00  0.00     0.293 HD
ENDBRANCH  22  32
ENDBRANCH  11  12
BRANCH  10  34
ATOM     34  O   UNL     1     101.757 113.303  83.177  1.00  0.00    -0.507 OA
ATOM     35  H   UNL     1     101.642 113.595  82.216  1.00  0.00     0.293 HD
ENDBRANCH  10  34
BRANCH   9  36
ATOM     36  C   UNL     1      96.175 114.907  85.539  1.00  0.00     0.017 C 
ATOM     37  C   UNL     1      96.182 116.068  86.541  1.00  0.00     0.012 C 
ATOM     38  C   UNL     1      95.955 113.531  86.202  1.00  0.00     0.012 C 
ENDBRANCH   9  36
BRANCH   6  39
ATOM     39  C   UNL     1     100.560 115.241  81.673  1.00  0.00     0.264 C 
ATOM     40  O   UNL     1     100.642 114.560  80.617  1.00  0.00    -0.298 OA
ENDBRANCH   6  39
BRANCH   8  41
ATOM     41  O   UNL     1      95.875 115.900  82.922  1.00  0.00    -0.504 OA
ATOM     42  H   UNL     1      95.195 115.348  82.419  1.00  0.00     0.293 HD
ENDBRANCH   8  41
BRANCH   7  43
ATOM     43  O   UNL     1      98.042 116.125  81.082  1.00  0.00    -0.504 OA
ATOM     44  H   UNL     1      97.154 116.251  80.620  1.00  0.00     0.293 HD
ENDBRANCH   7  43
TORSDOF 11
ENDMDL
MODEL 6
REMARK VINA RESULT:    -0.565      4.866      7.776
REMARK INTER + INTRA:          -2.647
REMARK INTER:                  -0.919
REMARK INTRA:                  -1.728
REMARK UNBOUND:                -1.817
REMARK SMILES Cc1cc2c(C(C)C)c(O)c(O)c(C=O)c2c(O)c1-c1c(C)cc2c(C(C)C)c(O)c(O)c(C=O)c2c1O
REMARK SMILES IDX 1 1 2 2 3 3 4 4 16 5 13 6 11 7 9 8 5 9 17 10 19 11 20 12
REMARK SMILES IDX 37 13 21 14 36 15 23 16 22 17 24 18 33 19 25 20 31 21 29 22
REMARK SMILES IDX 38 23 34 25 35 26 26 27 27 28 28 29 32 30 30 32 18 34 6 36
REMARK SMILES IDX 7 37 8 38 14 39 15 40 10 41 12 43
REMARK H PARENT 38 24 32 31 30 33 18 35 10 42 12 44
REMARK Flexibility Score: inf
ROOT
ATOM      1  C   UNL     1     111.572 101.641  86.168  1.00  0.00     0.045 C 
ATOM      2  C   UNL     1     112.333 100.734  85.234  1.00  0.00    -0.039 A 
ATOM      3  C   UNL     1     113.097  99.690  85.762  1.00  0.00     0.013 A 
ATOM      4  C   UNL     1     113.822  98.803  84.938  1.00  0.00    -0.006 A 
ATOM      5  C   UNL     1     113.678  98.928  83.526  1.00  0.00     0.039 A 
ATOM      6  C   UNL     1     114.193  97.904  82.685  1.00  0.00     0.072 A 
ATOM      7  C   UNL     1     114.983  96.879  83.227  1.00  0.00     0.169 A 
ATOM      8  C   UNL     1     115.267  96.850  84.606  1.00  0.00     0.162 A 
ATOM      9  C   UNL     1     114.687  97.799  85.483  1.00  0.00     0.008 A 
ATOM     10  C   UNL     1     113.046 100.089  82.997  1.00  0.00     0.132 A 
ATOM     11  C   UNL     1     112.346 100.967  83.849  1.00  0.00     0.031 A 
ENDROOT
BRANCH  11  12
ATOM     12  C   UNL     1     111.625 102.138  83.287  1.00  0.00     0.031 A 
ATOM     13  C   UNL     1     112.284 103.378  83.145  1.00  0.00     0.132 A 
ATOM     14  C   UNL     1     110.294 101.999  82.865  1.00  0.00    -0.039 A 
ATOM     15  C   UNL     1     111.590 104.513  82.625  1.00  0.00     0.039 A 
ATOM     16  C   UNL     1     109.624 103.098  82.328  1.00  0.00     0.013 A 
ATOM     17  C   UNL     1     109.591 100.665  82.932  1.00  0.00     0.045 C 
ATOM     18  C   UNL     1     110.218 104.372  82.247  1.00  0.00    -0.006 A 
ATOM     19  C   UNL     1     112.229 105.775  82.435  1.00  0.00     0.072 A 
ATOM     20  C   UNL     1     109.485 105.499  81.756  1.00  0.00     0.008 A 
ATOM     21  C   UNL     1     111.536 106.823  81.798  1.00  0.00     0.169 A 
ATOM     22  C   UNL     1     110.206 106.669  81.419  1.00  0.00     0.162 A 
BRANCH  13  23
ATOM     23  O   UNL     1     113.635 103.472  83.501  1.00  0.00    -0.507 OA
ATOM     24  H   UNL     1     114.045 103.004  84.299  1.00  0.00     0.293 HD
ENDBRANCH  13  23
BRANCH  19  25
ATOM     25  C   UNL     1     113.616 106.026  82.876  1.00  0.00     0.264 C 
ATOM     26  O   UNL     1     113.845 106.667  83.938  1.00  0.00    -0.298 OA
ENDBRANCH  19  25
BRANCH  20  27
ATOM     27  C   UNL     1     107.947 105.545  81.667  1.00  0.00     0.017 C 
ATOM     28  C   UNL     1     107.390 105.571  80.229  1.00  0.00     0.012 C 
ATOM     29  C   UNL     1     107.331 106.628  82.566  1.00  0.00     0.012 C 
ENDBRANCH  20  27
BRANCH  21  30
ATOM     30  O   UNL     1     112.138 108.061  81.540  1.00  0.00    -0.504 OA
ATOM     31  H   UNL     1     111.796 108.725  80.858  1.00  0.00     0.293 HD
ENDBRANCH  21  30
BRANCH  22  32
ATOM     32  O   UNL     1     109.626 107.722  80.701  1.00  0.00    -0.504 OA
ATOM     33  H   UNL     1     108.631 107.812  80.541  1.00  0.00     0.293 HD
ENDBRANCH  22  32
ENDBRANCH  11  12
BRANCH  10  34
ATOM     34  O   UNL     1     113.168 100.396  81.637  1.00  0.00    -0.507 OA
ATOM     35  H   UNL     1     113.233 101.339  81.277  1.00  0.00     0.293 HD
ENDBRANCH  10  34
BRANCH   9  36
ATOM     36  C   UNL     1     115.061  97.716  86.979  1.00  0.00     0.017 C 
ATOM     37  C   UNL     1     113.882  97.260  87.848  1.00  0.00     0.012 C 
ATOM     38  C   UNL     1     115.770  98.974  87.524  1.00  0.00     0.012 C 
ENDBRANCH   9  36
BRANCH   6  39
ATOM     39  C   UNL     1     113.817  97.772  81.258  1.00  0.00     0.264 C 
ATOM     40  O   UNL     1     114.639  98.049  80.344  1.00  0.00    -0.298 OA
ENDBRANCH   6  39
BRANCH   8  41
ATOM     41  O   UNL     1     116.125  95.876  85.133  1.00  0.00    -0.504 OA
ATOM     42  H   UNL     1     116.731  95.285  84.582  1.00  0.00     0.293 HD
ENDBRANCH   8  41
BRANCH   7  43
ATOM     43  O   UNL     1     115.444  95.875  82.364  1.00  0.00    -0.504 OA
ATOM     44  H   UNL     1     114.876  95.123  82.002  1.00  0.00     0.293 HD
ENDBRANCH   7  43
TORSDOF 11
ENDMDL
MODEL 7
REMARK VINA RESULT:    -0.553      1.841      3.246
REMARK INTER + INTRA:          -2.629
REMARK INTER:                  -0.852
REMARK INTRA:                  -1.777
REMARK UNBOUND:                -1.817
REMARK SMILES Cc1cc2c(C(C)C)c(O)c(O)c(C=O)c2c(O)c1-c1c(C)cc2c(C(C)C)c(O)c(O)c(C=O)c2c1O
REMARK SMILES IDX 1 1 2 2 3 3 4 4 16 5 13 6 11 7 9 8 5 9 17 10 19 11 20 12
REMARK SMILES IDX 37 13 21 14 36 15 23 16 22 17 24 18 33 19 25 20 31 21 29 22
REMARK SMILES IDX 38 23 34 25 35 26 26 27 27 28 28 29 32 30 30 32 18 34 6 36
REMARK SMILES IDX 7 37 8 38 14 39 15 40 10 41 12 43
REMARK H PARENT 38 24 32 31 30 33 18 35 10 42 12 44
REMARK Flexibility Score: inf
ROOT
ATOM      1  C   UNL     1     109.511 100.231  85.114  1.00  0.00     0.045 C 
ATOM      2  C   UNL     1     110.677  99.308  85.365  1.00  0.00    -0.039 A 
ATOM      3  C   UNL     1     111.391  98.793  84.280  1.00  0.00     0.013 A 
ATOM      4  C   UNL     1     112.497  97.934  84.452  1.00  0.00    -0.006 A 
ATOM      5  C   UNL     1     112.947  97.675  85.779  1.00  0.00     0.039 A 
ATOM      6  C   UNL     1     114.195  97.022  85.971  1.00  0.00     0.072 A 
ATOM      7  C   UNL     1     114.884  96.485  84.874  1.00  0.00     0.169 A 
ATOM      8  C   UNL     1     114.353  96.594  83.573  1.00  0.00     0.162 A 
ATOM      9  C   UNL     1     113.162  97.325  83.339  1.00  0.00     0.008 A 
ATOM     10  C   UNL     1     112.119  98.054  86.874  1.00  0.00     0.132 A 
ATOM     11  C   UNL     1     111.010  98.899  86.667  1.00  0.00     0.031 A 
ENDROOT
BRANCH  11  12
ATOM     12  C   UNL     1     110.190  99.354  87.819  1.00  0.00     0.031 A 
ATOM     13  C   UNL     1     110.522 100.543  88.502  1.00  0.00     0.132 A 
ATOM     14  C   UNL     1     109.062  98.614  88.206  1.00  0.00    -0.039 A 
ATOM     15  C   UNL     1     109.750 100.976  89.624  1.00  0.00     0.039 A 
ATOM     16  C   UNL     1     108.289  99.051  89.281  1.00  0.00     0.013 A 
ATOM     17  C   UNL     1     108.640  97.382  87.444  1.00  0.00     0.045 C 
ATOM     18  C   UNL     1     108.633 100.185  90.040  1.00  0.00    -0.006 A 
ATOM     19  C   UNL     1     110.032 102.189  90.320  1.00  0.00     0.072 A 
ATOM     20  C   UNL     1     107.862 100.571  91.182  1.00  0.00     0.008 A 
ATOM     21  C   UNL     1     109.161 102.633  91.335  1.00  0.00     0.169 A 
ATOM     22  C   UNL     1     108.068 101.864  91.722  1.00  0.00     0.162 A 
BRANCH  13  23
ATOM     23  O   UNL     1     111.606 101.306  88.049  1.00  0.00    -0.507 OA
ATOM     24  H   UNL     1     112.427 100.915  87.606  1.00  0.00     0.293 HD
ENDBRANCH  13  23
BRANCH  19  25
ATOM     25  C   UNL     1     111.213 103.017  90.006  1.00  0.00     0.264 C 
ATOM     26  O   UNL     1     111.089 104.090  89.354  1.00  0.00    -0.298 OA
ENDBRANCH  19  25
BRANCH  20  27
ATOM     27  C   UNL     1     106.890  99.627  91.918  1.00  0.00     0.017 C 
ATOM     28  C   UNL     1     105.404 100.022  91.803  1.00  0.00     0.012 C 
ATOM     29  C   UNL     1     107.322  99.337  93.363  1.00  0.00     0.012 C 
ENDBRANCH  20  27
BRANCH  21  30
ATOM     30  O   UNL     1     109.365 103.843  92.009  1.00  0.00    -0.504 OA
ATOM     31  H   UNL     1     110.056 104.531  91.739  1.00  0.00     0.293 HD
ENDBRANCH  21  30
BRANCH  22  32
ATOM     32  O   UNL     1     107.198 102.427  92.663  1.00  0.00    -0.504 OA
ATOM     33  H   UNL     1     106.197 102.280  92.663  1.00  0.00     0.293 HD
ENDBRANCH  22  32
ENDBRANCH  11  12
BRANCH  10  34
ATOM     34  O   UNL     1     112.369  97.542  88.152  1.00  0.00    -0.507 OA
ATOM     35  H   UNL     1     112.659  96.590  88.329  1.00  0.00     0.293 HD
ENDBRANCH  10  34
BRANCH   9  36
ATOM     36  C   UNL     1     112.631  97.383  81.891  1.00  0.00     0.017 C 
ATOM     37  C   UNL     1     112.549  98.820  81.359  1.00  0.00     0.012 C 
ATOM     38  C   UNL     1     111.338  96.572  81.659  1.00  0.00     0.012 C 
ENDBRANCH   9  36
BRANCH   6  39
ATOM     39  C   UNL     1     114.896  96.999  87.276  1.00  0.00     0.264 C 
ATOM     40  O   UNL     1     114.981  95.936  87.946  1.00  0.00    -0.298 OA
ENDBRANCH   6  39
BRANCH   8  41
ATOM     41  O   UNL     1     114.999  95.984  82.490  1.00  0.00    -0.504 OA
ATOM     42  H   UNL     1     114.777  95.066  82.131  1.00  0.00     0.293 HD
ENDBRANCH   8  41
BRANCH   7  43
ATOM     43  O   UNL     1     116.125  95.876  85.108  1.00  0.00    -0.504 OA
ATOM     44  H   UNL     1     116.719  95.488  84.390  1.00  0.00     0.293 HD
ENDBRANCH   7  43
TORSDOF 11
ENDMDL
MODEL 8
REMARK VINA RESULT:     0.721      3.027      8.848
REMARK INTER + INTRA:          -0.759
REMARK INTER:                   0.966
REMARK INTRA:                  -1.725
REMARK UNBOUND:                -1.817
REMARK SMILES Cc1cc2c(C(C)C)c(O)c(O)c(C=O)c2c(O)c1-c1c(C)cc2c(C(C)C)c(O)c(O)c(C=O)c2c1O
REMARK SMILES IDX 1 1 2 2 3 3 4 4 16 5 13 6 11 7 9 8 5 9 17 10 19 11 20 12
REMARK SMILES IDX 37 13 21 14 36 15 23 16 22 17 24 18 33 19 25 20 31 21 29 22
REMARK SMILES IDX 38 23 34 25 35 26 26 27 27 28 28 29 32 30 30 32 18 34 6 36
REMARK SMILES IDX 7 37 8 38 14 39 15 40 10 41 12 43
REMARK H PARENT 38 24 32 31 30 33 18 35 10 42 12 44
REMARK Flexibility Score: inf
ROOT
ATOM      1  C   UNL     1     111.340 102.384  85.023  1.00  0.00     0.045 C 
ATOM      2  C   UNL     1     110.076 101.626  85.344  1.00  0.00    -0.039 A 
ATOM      3  C   UNL     1     109.052 102.266  86.046  1.00  0.00     0.013 A 
ATOM      4  C   UNL     1     107.842 101.614  86.365  1.00  0.00    -0.006 A 
ATOM      5  C   UNL     1     107.636 100.296  85.862  1.00  0.00     0.039 A 
ATOM      6  C   UNL     1     106.343  99.714  85.956  1.00  0.00     0.072 A 
ATOM      7  C   UNL     1     105.334 100.356  86.689  1.00  0.00     0.169 A 
ATOM      8  C   UNL     1     105.589 101.584  87.332  1.00  0.00     0.162 A 
ATOM      9  C   UNL     1     106.836 102.236  87.173  1.00  0.00     0.008 A 
ATOM     10  C   UNL     1     108.741  99.590  85.305  1.00  0.00     0.132 A 
ATOM     11  C   UNL     1     109.942 100.267  85.014  1.00  0.00     0.031 A 
ENDROOT
BRANCH  11  12
ATOM     12  C   UNL     1     111.068  99.547  84.365  1.00  0.00     0.031 A 
ATOM     13  C   UNL     1     112.044  98.898  85.150  1.00  0.00     0.132 A 
ATOM     14  C   UNL     1     111.139  99.486  82.965  1.00  0.00    -0.039 A 
ATOM     15  C   UNL     1     113.141  98.221  84.532  1.00  0.00     0.039 A 
ATOM     16  C   UNL     1     112.192  98.800  82.360  1.00  0.00     0.013 A 
ATOM     17  C   UNL     1     110.067 100.104  82.103  1.00  0.00     0.045 C 
ATOM     18  C   UNL     1     113.230  98.210  83.105  1.00  0.00    -0.006 A 
ATOM     19  C   UNL     1     114.130  97.525  85.289  1.00  0.00     0.072 A 
ATOM     20  C   UNL     1     114.335  97.573  82.456  1.00  0.00     0.008 A 
ATOM     21  C   UNL     1     115.115  96.766  84.625  1.00  0.00     0.169 A 
ATOM     22  C   UNL     1     115.183  96.749  83.236  1.00  0.00     0.162 A 
BRANCH  13  23
ATOM     23  O   UNL     1     111.909  98.907  86.544  1.00  0.00    -0.507 OA
ATOM     24  H   UNL     1     111.052  98.684  87.032  1.00  0.00     0.293 HD
ENDBRANCH  13  23
BRANCH  19  25
ATOM     25  C   UNL     1     114.155  97.558  86.765  1.00  0.00     0.264 C 
ATOM     26  O   UNL     1     114.976  98.295  87.376  1.00  0.00    -0.298 OA
ENDBRANCH  19  25
BRANCH  20  27
ATOM     27  C   UNL     1     114.713  97.809  80.980  1.00  0.00     0.017 C 
ATOM     28  C   UNL     1     114.469  96.599  80.056  1.00  0.00     0.012 C 
ATOM     29  C   UNL     1     116.115  98.414  80.815  1.00  0.00     0.012 C 
ENDBRANCH  20  27
BRANCH  21  30
ATOM     30  O   UNL     1     116.073  96.022  85.325  1.00  0.00    -0.504 OA
ATOM     31  H   UNL     1     115.872  95.157  85.811  1.00  0.00     0.293 HD
ENDBRANCH  21  30
BRANCH  22  32
ATOM     32  O   UNL     1     116.125  95.890  82.658  1.00  0.00    -0.504 OA
ATOM     33  H   UNL     1     117.091  95.833  82.955  1.00  0.00     0.293 HD
ENDBRANCH  22  32
ENDBRANCH  11  12
BRANCH  10  34
ATOM     34  O   UNL     1     108.658  98.208  85.098  1.00  0.00    -0.507 OA
ATOM     35  H   UNL     1     109.208  97.709  84.412  1.00  0.00     0.293 HD
ENDBRANCH  10  34
BRANCH   9  36
ATOM     36  C   UNL     1     107.049 103.568  87.924  1.00  0.00     0.017 C 
ATOM     37  C   UNL     1     107.113 104.768  86.970  1.00  0.00     0.012 C 
ATOM     38  C   UNL     1     108.203 103.540  88.947  1.00  0.00     0.012 C 
ENDBRANCH   9  36
BRANCH   6  39
ATOM     39  C   UNL     1     105.946  98.510  85.188  1.00  0.00     0.264 C 
ATOM     40  O   UNL     1     105.794  97.399  85.762  1.00  0.00    -0.298 OA
ENDBRANCH   6  39
BRANCH   8  41
ATOM     41  O   UNL     1     104.608 102.181  88.133  1.00  0.00    -0.504 OA
ATOM     42  H   UNL     1     104.388 101.901  89.078  1.00  0.00     0.293 HD
ENDBRANCH   8  41
BRANCH   7  43
ATOM     43  O   UNL     1     104.066  99.759  86.730  1.00  0.00    -0.504 OA
ATOM     44  H   UNL     1     103.623  99.297  85.949  1.00  0.00     0.293 HD
ENDBRANCH   7  43
TORSDOF 11
ENDMDL
