MODEL 1
REMARK VINA RESULT:    -4.997      0.000      0.000
REMARK INTER + INTRA:          -7.567
REMARK INTER:                  -6.750
REMARK INTRA:                  -0.817
REMARK UNBOUND:                -0.817
REMARK SMILES CC(=O)CCC=C(C)CCC=C(C)C
REMARK SMILES IDX 7 1 6 2 8 3 9 4 10 5 11 6 13 7 12 8 14 9 5 10 4 11 2 12 3 13
REMARK SMILES IDX 1 14
REMARK H PARENT
REMARK Flexibility Score: inf
ROOT
ATOM      1  C   UNL     1     100.709 118.014 125.058  1.00  0.00    -0.077 C 
ATOM      2  C   UNL     1     101.605 117.059 124.720  1.00  0.00    -0.028 C 
ATOM      3  C   UNL     1     100.523 118.465 126.488  1.00  0.00     0.039 C 
ENDROOT
BRANCH   1   4
ATOM      4  C   UNL     1      99.875 118.656 123.969  1.00  0.00     0.034 C 
BRANCH   4   5
ATOM      5  C   UNL     1     100.651 118.712 122.648  1.00  0.00     0.032 C 
BRANCH   5   6
ATOM      6  C   UNL     1      99.838 118.142 121.511  1.00  0.00    -0.028 C 
ATOM      7  C   UNL     1     101.409 116.221 121.234  1.00  0.00     0.039 C 
ATOM      8  C   UNL     1     100.175 117.008 120.861  1.00  0.00    -0.080 C 
ATOM      9  C   UNL     1      99.291 116.526 119.740  1.00  0.00     0.039 C 
ENDBRANCH   5   6
ENDBRANCH   4   5
ENDBRANCH   1   4
BRANCH   2  10
ATOM     10  C   UNL     1     102.470 116.313 125.706  1.00  0.00     0.035 C 
BRANCH  10  11
ATOM     11  C   UNL     1     103.220 115.170 125.015  1.00  0.00     0.079 C 
BRANCH  11  12
ATOM     12  C   UNL     1     102.548 113.851 125.286  1.00  0.00     0.130 C 
ATOM     13  O   UNL     1     102.687 113.317 126.376  1.00  0.00    -0.300 OA
ATOM     14  C   UNL     1     101.696 113.180 124.248  1.00  0.00     0.087 C 
ENDBRANCH  11  12
ENDBRANCH  10  11
ENDBRANCH   2  10
TORSDOF 6
ENDMDL
MODEL 2
REMARK VINA RESULT:    -4.955      2.493      5.258
REMARK INTER + INTRA:          -7.510
REMARK INTER:                  -6.543
REMARK INTRA:                  -0.967
REMARK UNBOUND:                -0.817
REMARK SMILES CC(=O)CCC=C(C)CCC=C(C)C
REMARK SMILES IDX 7 1 6 2 8 3 9 4 10 5 11 6 13 7 12 8 14 9 5 10 4 11 2 12 3 13
REMARK SMILES IDX 1 14
REMARK H PARENT
REMARK Flexibility Score: inf
ROOT
ATOM      1  C   UNL     1     102.520 113.093 124.626  1.00  0.00    -0.077 C 
ATOM      2  C   UNL     1     101.594 113.370 123.680  1.00  0.00    -0.028 C 
ATOM      3  C   UNL     1     103.473 111.928 124.495  1.00  0.00     0.039 C 
ENDROOT
BRANCH   1   4
ATOM      4  C   UNL     1     102.611 113.985 125.846  1.00  0.00     0.034 C 
BRANCH   4   5
ATOM      5  C   UNL     1     103.130 115.377 125.469  1.00  0.00     0.032 C 
BRANCH   5   6
ATOM      6  C   UNL     1     102.372 116.460 126.198  1.00  0.00    -0.028 C 
ATOM      7  C   UNL     1     101.052 117.033 124.157  1.00  0.00     0.039 C 
ATOM      8  C   UNL     1     101.424 117.220 125.610  1.00  0.00    -0.080 C 
ATOM      9  C   UNL     1     100.727 118.273 126.431  1.00  0.00     0.039 C 
ENDBRANCH   5   6
ENDBRANCH   4   5
ENDBRANCH   1   4
BRANCH   2  10
ATOM     10  C   UNL     1     101.371 112.545 122.437  1.00  0.00     0.035 C 
BRANCH  10  11
ATOM     11  C   UNL     1     102.232 113.059 121.280  1.00  0.00     0.079 C 
BRANCH  11  12
ATOM     12  C   UNL     1     102.078 114.548 121.121  1.00  0.00     0.130 C 
ATOM     13  O   UNL     1     101.031 115.001 120.680  1.00  0.00    -0.300 OA
ATOM     14  C   UNL     1     103.177 115.495 121.504  1.00  0.00     0.087 C 
ENDBRANCH  11  12
ENDBRANCH  10  11
ENDBRANCH   2  10
TORSDOF 6
ENDMDL
MODEL 3
REMARK VINA RESULT:    -4.893      2.161      3.829
REMARK INTER + INTRA:          -7.426
REMARK INTER:                  -6.306
REMARK INTRA:                  -1.120
REMARK UNBOUND:                -0.817
REMARK SMILES CC(=O)CCC=C(C)CCC=C(C)C
REMARK SMILES IDX 7 1 6 2 8 3 9 4 10 5 11 6 13 7 12 8 14 9 5 10 4 11 2 12 3 13
REMARK SMILES IDX 1 14
REMARK H PARENT
REMARK Flexibility Score: inf
ROOT
ATOM      1  C   UNL     1     102.990 115.461 125.053  1.00  0.00    -0.077 C 
ATOM      2  C   UNL     1     102.489 114.255 125.403  1.00  0.00    -0.028 C 
ATOM      3  C   UNL     1     103.654 115.692 123.715  1.00  0.00     0.039 C 
ENDROOT
BRANCH   1   4
ATOM      4  C   UNL     1     102.872 116.615 126.026  1.00  0.00     0.034 C 
BRANCH   4   5
ATOM      5  C   UNL     1     101.409 117.034 126.203  1.00  0.00     0.032 C 
BRANCH   5   6
ATOM      6  C   UNL     1     101.073 118.229 125.345  1.00  0.00    -0.028 C 
ATOM      7  C   UNL     1     100.075 116.785 123.569  1.00  0.00     0.039 C 
ATOM      8  C   UNL     1     100.466 118.126 124.144  1.00  0.00    -0.080 C 
ATOM      9  C   UNL     1     100.176 119.385 123.369  1.00  0.00     0.039 C 
ENDBRANCH   5   6
ENDBRANCH   4   5
ENDBRANCH   1   4
BRANCH   2  10
ATOM     10  C   UNL     1     102.571 113.015 124.547  1.00  0.00     0.035 C 
BRANCH  10  11
ATOM     11  C   UNL     1     101.318 112.868 123.679  1.00  0.00     0.079 C 
BRANCH  11  12
ATOM     12  C   UNL     1     101.690 112.579 122.250  1.00  0.00     0.130 C 
ATOM     13  O   UNL     1     101.990 111.439 121.925  1.00  0.00    -0.300 OA
ATOM     14  C   UNL     1     101.690 113.658 121.207  1.00  0.00     0.087 C 
ENDBRANCH  11  12
ENDBRANCH  10  11
ENDBRANCH   2  10
TORSDOF 6
ENDMDL
MODEL 4
REMARK VINA RESULT:    -4.890      2.736      5.400
REMARK INTER + INTRA:          -7.422
REMARK INTER:                  -6.536
REMARK INTRA:                  -0.886
REMARK UNBOUND:                -0.817
REMARK SMILES CC(=O)CCC=C(C)CCC=C(C)C
REMARK SMILES IDX 7 1 6 2 8 3 9 4 10 5 11 6 13 7 12 8 14 9 5 10 4 11 2 12 3 13
REMARK SMILES IDX 1 14
REMARK H PARENT
REMARK Flexibility Score: inf
ROOT
ATOM      1  C   UNL     1     101.873 116.643 125.149  1.00  0.00    -0.077 C 
ATOM      2  C   UNL     1     101.317 116.496 123.925  1.00  0.00    -0.028 C 
ATOM      3  C   UNL     1     101.378 117.679 126.132  1.00  0.00     0.039 C 
ENDROOT
BRANCH   1   4
ATOM      4  C   UNL     1     103.017 115.736 125.549  1.00  0.00     0.034 C 
BRANCH   4   5
ATOM      5  C   UNL     1     102.508 114.330 125.886  1.00  0.00     0.032 C 
BRANCH   5   6
ATOM      6  C   UNL     1     103.108 113.295 124.966  1.00  0.00    -0.028 C 
ATOM      7  C   UNL     1     100.941 112.978 123.765  1.00  0.00     0.039 C 
ATOM      8  C   UNL     1     102.403 112.674 123.996  1.00  0.00    -0.080 C 
ATOM      9  C   UNL     1     103.101 111.656 123.132  1.00  0.00     0.039 C 
ENDBRANCH   5   6
ENDBRANCH   4   5
ENDBRANCH   1   4
BRANCH   2  10
ATOM     10  C   UNL     1     100.200 117.354 123.386  1.00  0.00     0.035 C 
BRANCH  10  11
ATOM     11  C   UNL     1     100.756 118.499 122.533  1.00  0.00     0.079 C 
BRANCH  11  12
ATOM     12  C   UNL     1     100.442 119.831 123.160  1.00  0.00     0.130 C 
ATOM     13  O   UNL     1     101.265 120.733 123.099  1.00  0.00    -0.300 OA
ATOM     14  C   UNL     1      99.133 120.084 123.849  1.00  0.00     0.087 C 
ENDBRANCH  11  12
ENDBRANCH  10  11
ENDBRANCH   2  10
TORSDOF 6
ENDMDL
MODEL 5
REMARK VINA RESULT:    -4.859      2.861      5.427
REMARK INTER + INTRA:          -7.380
REMARK INTER:                  -6.515
REMARK INTRA:                  -0.865
REMARK UNBOUND:                -0.817
REMARK SMILES CC(=O)CCC=C(C)CCC=C(C)C
REMARK SMILES IDX 7 1 6 2 8 3 9 4 10 5 11 6 13 7 12 8 14 9 5 10 4 11 2 12 3 13
REMARK SMILES IDX 1 14
REMARK H PARENT
REMARK Flexibility Score: inf
ROOT
ATOM      1  C   UNL     1     102.403 113.191 124.469  1.00  0.00    -0.077 C 
ATOM      2  C   UNL     1     103.452 112.543 123.913  1.00  0.00    -0.028 C 
ATOM      3  C   UNL     1     101.040 113.213 123.816  1.00  0.00     0.039 C 
ENDROOT
BRANCH   1   4
ATOM      4  C   UNL     1     102.598 113.905 125.790  1.00  0.00     0.034 C 
BRANCH   4   5
ATOM      5  C   UNL     1     103.219 115.290 125.577  1.00  0.00     0.032 C 
BRANCH   5   6
ATOM      6  C   UNL     1     102.414 116.363 126.269  1.00  0.00    -0.028 C 
ATOM      7  C   UNL     1     101.279 117.008 124.140  1.00  0.00     0.039 C 
ATOM      8  C   UNL     1     101.528 117.151 125.624  1.00  0.00    -0.080 C 
ATOM      9  C   UNL     1     100.776 118.192 126.412  1.00  0.00     0.039 C 
ENDBRANCH   5   6
ENDBRANCH   4   5
ENDBRANCH   1   4
BRANCH   2  10
ATOM     10  C   UNL     1     103.406 111.825 122.587  1.00  0.00     0.035 C 
BRANCH  10  11
ATOM     11  C   UNL     1     103.281 110.312 122.791  1.00  0.00     0.079 C 
BRANCH  11  12
ATOM     12  C   UNL     1     102.283 109.726 121.829  1.00  0.00     0.130 C 
ATOM     13  O   UNL     1     102.269 108.518 121.638  1.00  0.00    -0.300 OA
ATOM     14  C   UNL     1     101.292 110.589 121.105  1.00  0.00     0.087 C 
ENDBRANCH  11  12
ENDBRANCH  10  11
ENDBRANCH   2  10
TORSDOF 6
ENDMDL
MODEL 6
REMARK VINA RESULT:    -4.847      2.215      4.625
REMARK INTER + INTRA:          -7.364
REMARK INTER:                  -6.484
REMARK INTRA:                  -0.881
REMARK UNBOUND:                -0.817
REMARK SMILES CC(=O)CCC=C(C)CCC=C(C)C
REMARK SMILES IDX 7 1 6 2 8 3 9 4 10 5 11 6 13 7 12 8 14 9 5 10 4 11 2 12 3 13
REMARK SMILES IDX 1 14
REMARK H PARENT
REMARK Flexibility Score: inf
ROOT
ATOM      1  C   UNL     1     101.297 117.506 125.827  1.00  0.00    -0.077 C 
ATOM      2  C   UNL     1     101.163 117.731 124.500  1.00  0.00    -0.028 C 
ATOM      3  C   UNL     1     100.380 118.148 126.842  1.00  0.00     0.039 C 
ENDROOT
BRANCH   1   4
ATOM      4  C   UNL     1     102.390 116.574 126.306  1.00  0.00     0.034 C 
BRANCH   4   5
ATOM      5  C   UNL     1     103.040 115.841 125.128  1.00  0.00     0.032 C 
BRANCH   5   6
ATOM      6  C   UNL     1     102.397 114.495 124.898  1.00  0.00    -0.028 C 
ATOM      7  C   UNL     1     102.041 114.979 122.474  1.00  0.00     0.039 C 
ATOM      8  C   UNL     1     101.939 114.093 123.693  1.00  0.00    -0.080 C 
ATOM      9  C   UNL     1     101.315 112.727 123.575  1.00  0.00     0.039 C 
ENDBRANCH   5   6
ENDBRANCH   4   5
ENDBRANCH   1   4
BRANCH   2  10
ATOM     10  C   UNL     1     100.144 118.662 123.890  1.00  0.00     0.035 C 
BRANCH  10  11
ATOM     11  C   UNL     1     100.755 119.452 122.729  1.00  0.00     0.079 C 
BRANCH  11  12
ATOM     12  C   UNL     1     100.973 118.563 121.535  1.00  0.00     0.130 C 
ATOM     13  O   UNL     1     102.073 118.527 121.003  1.00  0.00    -0.300 OA
ATOM     14  C   UNL     1      99.870 117.705 120.986  1.00  0.00     0.087 C 
ENDBRANCH  11  12
ENDBRANCH  10  11
ENDBRANCH   2  10
TORSDOF 6
ENDMDL
MODEL 7
REMARK VINA RESULT:    -4.817      3.098      5.560
REMARK INTER + INTRA:          -7.323
REMARK INTER:                  -6.755
REMARK INTRA:                  -0.568
REMARK UNBOUND:                -0.817
REMARK SMILES CC(=O)CCC=C(C)CCC=C(C)C
REMARK SMILES IDX 7 1 6 2 8 3 9 4 10 5 11 6 13 7 12 8 14 9 5 10 4 11 2 12 3 13
REMARK SMILES IDX 1 14
REMARK H PARENT
REMARK Flexibility Score: inf
ROOT
ATOM      1  C   UNL     1     102.379 113.098 124.604  1.00  0.00    -0.077 C 
ATOM      2  C   UNL     1     103.298 112.137 124.358  1.00  0.00    -0.028 C 
ATOM      3  C   UNL     1     101.144 113.260 123.748  1.00  0.00     0.039 C 
ENDROOT
BRANCH   1   4
ATOM      4  C   UNL     1     102.590 114.031 125.777  1.00  0.00     0.034 C 
BRANCH   4   5
ATOM      5  C   UNL     1     103.025 115.421 125.300  1.00  0.00     0.032 C 
BRANCH   5   6
ATOM      6  C   UNL     1     102.330 116.511 126.079  1.00  0.00    -0.028 C 
ATOM      7  C   UNL     1     100.861 117.082 124.142  1.00  0.00     0.039 C 
ATOM      8  C   UNL     1     101.343 117.273 125.561  1.00  0.00    -0.080 C 
ATOM      9  C   UNL     1     100.715 118.333 126.427  1.00  0.00     0.039 C 
ENDBRANCH   5   6
ENDBRANCH   4   5
ENDBRANCH   1   4
BRANCH   2  10
ATOM     10  C   UNL     1     103.231 111.167 123.204  1.00  0.00     0.035 C 
BRANCH  10  11
ATOM     11  C   UNL     1     104.033 109.899 123.512  1.00  0.00     0.079 C 
BRANCH  11  12
ATOM     12  C   UNL     1     103.358 108.686 122.930  1.00  0.00     0.130 C 
ATOM     13  O   UNL     1     102.497 108.830 122.073  1.00  0.00    -0.300 OA
ATOM     14  C   UNL     1     103.726 107.299 123.367  1.00  0.00     0.087 C 
ENDBRANCH  11  12
ENDBRANCH  10  11
ENDBRANCH   2  10
TORSDOF 6
ENDMDL
MODEL 8
REMARK VINA RESULT:    -4.797      2.729      5.177
REMARK INTER + INTRA:          -7.296
REMARK INTER:                  -6.438
REMARK INTRA:                  -0.859
REMARK UNBOUND:                -0.817
REMARK SMILES CC(=O)CCC=C(C)CCC=C(C)C
REMARK SMILES IDX 7 1 6 2 8 3 9 4 10 5 11 6 13 7 12 8 14 9 5 10 4 11 2 12 3 13
REMARK SMILES IDX 1 14
REMARK H PARENT
REMARK Flexibility Score: inf
ROOT
ATOM      1  C   UNL     1     102.365 114.680 124.753  1.00  0.00    -0.077 C 
ATOM      2  C   UNL     1     101.745 115.354 123.758  1.00  0.00    -0.028 C 
ATOM      3  C   UNL     1     103.023 115.392 125.912  1.00  0.00     0.039 C 
ENDROOT
BRANCH   1   4
ATOM      4  C   UNL     1     102.391 113.166 124.708  1.00  0.00     0.034 C 
BRANCH   4   5
ATOM      5  C   UNL     1     103.151 112.668 123.474  1.00  0.00     0.032 C 
BRANCH   5   6
ATOM      6  C   UNL     1     102.412 111.541 122.794  1.00  0.00    -0.028 C 
ATOM      7  C   UNL     1     101.670 113.033 120.933  1.00  0.00     0.039 C 
ATOM      8  C   UNL     1     101.735 111.697 121.636  1.00  0.00    -0.080 C 
ATOM      9  C   UNL     1     101.032 110.504 121.041  1.00  0.00     0.039 C 
ENDBRANCH   5   6
ENDBRANCH   4   5
ENDBRANCH   1   4
BRANCH   2  10
ATOM     10  C   UNL     1     101.678 116.858 123.660  1.00  0.00     0.035 C 
BRANCH  10  11
ATOM     11  C   UNL     1     100.279 117.366 124.023  1.00  0.00     0.079 C 
BRANCH  11  12
ATOM     12  C   UNL     1     100.362 118.487 125.023  1.00  0.00     0.130 C 
ATOM     13  O   UNL     1     100.206 119.641 124.648  1.00  0.00    -0.300 OA
ATOM     14  C   UNL     1     100.621 118.223 126.478  1.00  0.00     0.087 C 
ENDBRANCH  11  12
ENDBRANCH  10  11
ENDBRANCH   2  10
TORSDOF 6
ENDMDL
MODEL 9
REMARK VINA RESULT:    -4.705      2.884      5.981
REMARK INTER + INTRA:          -7.172
REMARK INTER:                  -6.562
REMARK INTRA:                  -0.610
REMARK UNBOUND:                -0.817
REMARK SMILES CC(=O)CCC=C(C)CCC=C(C)C
REMARK SMILES IDX 7 1 6 2 8 3 9 4 10 5 11 6 13 7 12 8 14 9 5 10 4 11 2 12 3 13
REMARK SMILES IDX 1 14
REMARK H PARENT
REMARK Flexibility Score: inf
ROOT
ATOM      1  C   UNL     1     101.695 114.974 124.050  1.00  0.00    -0.077 C 
ATOM      2  C   UNL     1     100.977 115.846 123.306  1.00  0.00    -0.028 C 
ATOM      3  C   UNL     1     102.814 115.430 124.957  1.00  0.00     0.039 C 
ENDROOT
BRANCH   1   4
ATOM      4  C   UNL     1     101.358 113.499 123.979  1.00  0.00     0.034 C 
BRANCH   4   5
ATOM      5  C   UNL     1     102.406 112.738 123.158  1.00  0.00     0.032 C 
BRANCH   5   6
ATOM      6  C   UNL     1     103.354 111.976 124.052  1.00  0.00    -0.028 C 
ATOM      7  C   UNL     1     103.351 110.002 122.522  1.00  0.00     0.039 C 
ATOM      8  C   UNL     1     103.790 110.730 123.770  1.00  0.00    -0.080 C 
ATOM      9  C   UNL     1     104.738 110.060 124.731  1.00  0.00     0.039 C 
ENDBRANCH   5   6
ENDBRANCH   4   5
ENDBRANCH   1   4
BRANCH   2  10
ATOM     10  C   UNL     1     101.229 117.332 123.254  1.00  0.00     0.035 C 
BRANCH  10  11
ATOM     11  C   UNL     1     100.012 118.110 123.766  1.00  0.00     0.079 C 
BRANCH  11  12
ATOM     12  C   UNL     1     100.357 118.878 125.013  1.00  0.00     0.130 C 
ATOM     13  O   UNL     1     100.378 120.100 124.981  1.00  0.00    -0.300 OA
ATOM     14  C   UNL     1     100.666 118.178 126.304  1.00  0.00     0.087 C 
ENDBRANCH  11  12
ENDBRANCH  10  11
ENDBRANCH   2  10
TORSDOF 6
ENDMDL
