MODEL 1
REMARK VINA RESULT:    -6.883      0.000      0.000
REMARK INTER + INTRA:         -13.523
REMARK INTER:                 -11.310
REMARK INTRA:                  -2.213
REMARK UNBOUND:                -2.213
REMARK SMILES C[C@H]1O[C@H](OC[C@@H]2O[C@H](Oc3c(-c4ccc(O)c(O)c4)oc4cc(O)cc(O)c4c3=O)[C@@H](O)[C@H](O)[C@H]2O)[C@@H](O)[C@@H](O)[C@@H]1O
REMARK SMILES IDX 7 1 36 2 34 3 32 4 9 5 8 6 6 7 5 8 4 9 1 10 2 11 42 12 3 13
REMARK SMILES IDX 40 14 38 15 43 16 41 18 39 20 37 22 35 24 10 26 11 27 12 28
REMARK SMILES IDX 30 29 21 30 29 31 31 32 22 33 27 34 23 35 26 36 24 37 13 38
REMARK SMILES IDX 20 39 14 40 18 41 15 42 16 43 19 44 17 46 28 48 25 50 33 52
REMARK H PARENT 43 17 41 19 39 21 37 23 35 25 19 45 17 47 28 49 25 51 33 53
REMARK Flexibility Score: inf
ROOT
ATOM      1  C   UNL     1      13.682  23.917  47.113  1.00  0.00     0.180 C 
ATOM      2  C   UNL     1      12.612  24.906  46.616  1.00  0.00     0.177 C 
ATOM      3  C   UNL     1      13.099  26.373  46.758  1.00  0.00     0.180 C 
ATOM      4  C   UNL     1      14.397  26.516  47.606  1.00  0.00     0.214 C 
ATOM      5  C   UNL     1      14.515  25.425  48.716  1.00  0.00     0.339 C 
ATOM      6  O   UNL     1      13.921  24.158  48.486  1.00  0.00    -0.332 OA
ENDROOT
BRANCH   1   7
ATOM      7  C   UNL     1      13.290  22.438  46.911  1.00  0.00     0.198 C 
BRANCH   7   8
ATOM      8  O   UNL     1      14.322  21.561  47.371  1.00  0.00    -0.347 OA
BRANCH   8   9
ATOM      9  C   UNL     1      14.300  20.347  46.638  1.00  0.00     0.281 C 
ATOM     10  C   UNL     1      15.196  21.337  43.212  1.00  0.00     0.041 C 
ATOM     11  C   UNL     1      15.412  20.727  44.605  1.00  0.00     0.150 C 
ATOM     12  C   UNL     1      16.109  19.351  44.511  1.00  0.00     0.174 C 
ATOM     13  O   UNL     1      14.149  20.582  45.235  1.00  0.00    -0.344 OA
ATOM     14  C   UNL     1      16.004  18.595  45.870  1.00  0.00     0.179 C 
ATOM     15  C   UNL     1      15.552  19.508  47.015  1.00  0.00     0.202 C 
BRANCH  12  16
ATOM     16  O   UNL     1      17.438  19.554  44.150  1.00  0.00    -0.388 OA
ATOM     17  H   UNL     1      17.848  20.140  44.859  1.00  0.00     0.211 HD
ENDBRANCH  12  16
BRANCH  14  18
ATOM     18  O   UNL     1      15.106  17.512  45.700  1.00  0.00    -0.387 OA
ATOM     19  H   UNL     1      14.226  17.902  45.444  1.00  0.00     0.211 HD
ENDBRANCH  14  18
BRANCH  15  20
ATOM     20  O   UNL     1      15.353  18.820  48.238  1.00  0.00    -0.385 OA
ATOM     21  H   UNL     1      14.562  18.220  48.122  1.00  0.00     0.211 HD
ENDBRANCH  15  20
ENDBRANCH   8   9
ENDBRANCH   7   8
ENDBRANCH   1   7
BRANCH   2  22
ATOM     22  O   UNL     1      12.196  24.628  45.302  1.00  0.00    -0.387 OA
ATOM     23  H   UNL     1      12.359  23.656  45.175  1.00  0.00     0.211 HD
ENDBRANCH   2  22
BRANCH   3  24
ATOM     24  O   UNL     1      12.096  27.176  47.327  1.00  0.00    -0.387 OA
ATOM     25  H   UNL     1      11.251  26.921  46.896  1.00  0.00     0.211 HD
ENDBRANCH   3  24
BRANCH   5  26
ATOM     26  O   UNL     1      14.073  25.940  49.964  1.00  0.00    -0.454 OA
BRANCH  26  27
ATOM     27  C   UNL     1      14.579  25.705  51.252  1.00  0.00     0.214 A 
ATOM     28  C   UNL     1      15.966  25.514  51.402  1.00  0.00     0.180 A 
ATOM     29  C   UNL     1      14.022  26.478  52.270  1.00  0.00     0.239 A 
ATOM     30  O   UNL     1      16.671  26.597  51.713  1.00  0.00    -0.452 OA
ATOM     31  C   UNL     1      14.789  27.540  52.816  1.00  0.00     0.111 A 
ATOM     32  O   UNL     1      12.810  26.315  52.554  1.00  0.00    -0.285 OA
ATOM     33  C   UNL     1      16.114  27.658  52.315  1.00  0.00     0.146 A 
ATOM     34  C   UNL     1      14.306  28.573  53.684  1.00  0.00     0.134 A 
ATOM     35  C   UNL     1      16.865  28.816  52.515  1.00  0.00     0.094 A 
ATOM     36  C   UNL     1      15.088  29.692  53.897  1.00  0.00     0.093 A 
ATOM     37  C   UNL     1      16.339  29.838  53.295  1.00  0.00     0.123 A 
BRANCH  28  38
ATOM     38  C   UNL     1      16.605  24.207  51.676  1.00  0.00     0.025 A 
ATOM     39  C   UNL     1      16.174  23.067  50.988  1.00  0.00     0.062 A 
ATOM     40  C   UNL     1      17.855  24.170  52.308  1.00  0.00     0.016 A 
ATOM     41  C   UNL     1      16.975  21.910  50.915  1.00  0.00     0.158 A 
ATOM     42  C   UNL     1      18.642  23.017  52.284  1.00  0.00     0.051 A 
ATOM     43  C   UNL     1      18.207  21.888  51.584  1.00  0.00     0.157 A 
BRANCH  41  44
ATOM     44  O   UNL     1      16.576  20.804  50.156  1.00  0.00    -0.504 OA
ATOM     45  H   UNL     1      15.943  20.928  49.369  1.00  0.00     0.293 HD
ENDBRANCH  41  44
BRANCH  43  46
ATOM     46  O   UNL     1      19.023  20.763  51.572  1.00  0.00    -0.504 OA
ATOM     47  H   UNL     1      19.237  20.246  52.402  1.00  0.00     0.293 HD
ENDBRANCH  43  46
ENDBRANCH  28  38
BRANCH  34  48
ATOM     48  O   UNL     1      13.048  28.538  54.323  1.00  0.00    -0.507 OA
ATOM     49  H   UNL     1      12.589  29.314  54.807  1.00  0.00     0.293 HD
ENDBRANCH  34  48
BRANCH  37  50
ATOM     50  O   UNL     1      17.055  31.033  53.465  1.00  0.00    -0.508 OA
ATOM     51  H   UNL     1      17.835  31.085  54.100  1.00  0.00     0.293 HD
ENDBRANCH  37  50
ENDBRANCH  26  27
ENDBRANCH   5  26
BRANCH   4  52
ATOM     52  O   UNL     1      15.517  26.432  46.770  1.00  0.00    -0.384 OA
ATOM     53  H   UNL     1      15.854  25.486  46.826  1.00  0.00     0.211 HD
ENDBRANCH   4  52
TORSDOF 16
ENDMDL
MODEL 2
REMARK VINA RESULT:    -6.866      1.728      2.396
REMARK INTER + INTRA:         -13.494
REMARK INTER:                 -11.135
REMARK INTRA:                  -2.359
REMARK UNBOUND:                -2.213
REMARK SMILES C[C@H]1O[C@H](OC[C@@H]2O[C@H](Oc3c(-c4ccc(O)c(O)c4)oc4cc(O)cc(O)c4c3=O)[C@@H](O)[C@H](O)[C@H]2O)[C@@H](O)[C@@H](O)[C@@H]1O
REMARK SMILES IDX 7 1 36 2 34 3 32 4 9 5 8 6 6 7 5 8 4 9 1 10 2 11 42 12 3 13
REMARK SMILES IDX 40 14 38 15 43 16 41 18 39 20 37 22 35 24 10 26 11 27 12 28
REMARK SMILES IDX 30 29 21 30 29 31 31 32 22 33 27 34 23 35 26 36 24 37 13 38
REMARK SMILES IDX 20 39 14 40 18 41 15 42 16 43 19 44 17 46 28 48 25 50 33 52
REMARK H PARENT 43 17 41 19 39 21 37 23 35 25 19 45 17 47 28 49 25 51 33 53
REMARK Flexibility Score: inf
ROOT
ATOM      1  C   UNL     1      13.606  24.991  47.899  1.00  0.00     0.180 C 
ATOM      2  C   UNL     1      12.806  26.226  47.446  1.00  0.00     0.177 C 
ATOM      3  C   UNL     1      13.697  27.497  47.441  1.00  0.00     0.180 C 
ATOM      4  C   UNL     1      15.071  27.294  48.143  1.00  0.00     0.214 C 
ATOM      5  C   UNL     1      15.005  26.255  49.307  1.00  0.00     0.339 C 
ATOM      6  O   UNL     1      14.058  25.203  49.223  1.00  0.00    -0.332 OA
ENDROOT
BRANCH   1   7
ATOM      7  C   UNL     1      12.795  23.680  47.837  1.00  0.00     0.198 C 
BRANCH   7   8
ATOM      8  O   UNL     1      12.479  23.330  46.487  1.00  0.00    -0.347 OA
BRANCH   8   9
ATOM      9  C   UNL     1      13.630  22.832  45.824  1.00  0.00     0.281 C 
ATOM     10  C   UNL     1      12.811  19.322  45.094  1.00  0.00     0.041 C 
ATOM     11  C   UNL     1      13.031  20.811  44.788  1.00  0.00     0.150 C 
ATOM     12  C   UNL     1      13.872  21.000  43.506  1.00  0.00     0.174 C 
ATOM     13  O   UNL     1      13.699  21.404  45.891  1.00  0.00    -0.344 OA
ATOM     14  C   UNL     1      14.383  22.469  43.403  1.00  0.00     0.179 C 
ATOM     15  C   UNL     1      13.670  23.408  44.381  1.00  0.00     0.202 C 
BRANCH  12  16
ATOM     16  O   UNL     1      13.085  20.663  42.409  1.00  0.00    -0.388 OA
ATOM     17  H   UNL     1      12.412  19.984  42.728  1.00  0.00     0.211 HD
ENDBRANCH  12  16
BRANCH  14  18
ATOM     18  O   UNL     1      15.782  22.463  43.633  1.00  0.00    -0.387 OA
ATOM     19  H   UNL     1      16.157  23.254  43.158  1.00  0.00     0.211 HD
ENDBRANCH  14  18
BRANCH  15  20
ATOM     20  O   UNL     1      14.188  24.726  44.375  1.00  0.00    -0.385 OA
ATOM     21  H   UNL     1      14.216  25.036  43.425  1.00  0.00     0.211 HD
ENDBRANCH  15  20
ENDBRANCH   8   9
ENDBRANCH   7   8
ENDBRANCH   1   7
BRANCH   2  22
ATOM     22  O   UNL     1      12.181  26.032  46.201  1.00  0.00    -0.387 OA
ATOM     23  H   UNL     1      11.639  26.851  46.050  1.00  0.00     0.211 HD
ENDBRANCH   2  22
BRANCH   3  24
ATOM     24  O   UNL     1      13.030  28.573  48.051  1.00  0.00    -0.387 OA
ATOM     25  H   UNL     1      12.237  28.762  47.504  1.00  0.00     0.211 HD
ENDBRANCH   3  24
BRANCH   5  26
ATOM     26  O   UNL     1      14.870  26.920  50.555  1.00  0.00    -0.454 OA
BRANCH  26  27
ATOM     27  C   UNL     1      15.286  26.507  51.831  1.00  0.00     0.214 A 
ATOM     28  C   UNL     1      16.626  26.106  52.002  1.00  0.00     0.180 A 
ATOM     29  C   UNL     1      14.804  27.265  52.898  1.00  0.00     0.239 A 
ATOM     30  O   UNL     1      17.463  27.047  52.427  1.00  0.00    -0.452 OA
ATOM     31  C   UNL     1      15.691  28.156  53.556  1.00  0.00     0.111 A 
ATOM     32  O   UNL     1      13.570  27.255  53.133  1.00  0.00    -0.285 OA
ATOM     33  C   UNL     1      17.038  28.122  53.104  1.00  0.00     0.146 A 
ATOM     34  C   UNL     1      15.324  29.171  54.499  1.00  0.00     0.134 A 
ATOM     35  C   UNL     1      17.937  29.140  53.427  1.00  0.00     0.094 A 
ATOM     36  C   UNL     1      16.248  30.143  54.832  1.00  0.00     0.093 A 
ATOM     37  C   UNL     1      17.530  30.158  54.280  1.00  0.00     0.123 A 
BRANCH  28  38
ATOM     38  C   UNL     1      17.061  24.702  52.177  1.00  0.00     0.025 A 
ATOM     39  C   UNL     1      16.434  23.686  51.447  1.00  0.00     0.062 A 
ATOM     40  C   UNL     1      18.311  24.435  52.751  1.00  0.00     0.016 A 
ATOM     41  C   UNL     1      17.042  22.426  51.277  1.00  0.00     0.158 A 
ATOM     42  C   UNL     1      18.908  23.179  52.630  1.00  0.00     0.051 A 
ATOM     43  C   UNL     1      18.278  22.175  51.890  1.00  0.00     0.157 A 
BRANCH  41  44
ATOM     44  O   UNL     1      16.450  21.442  50.478  1.00  0.00    -0.504 OA
ATOM     45  H   UNL     1      16.404  20.479  50.805  1.00  0.00     0.293 HD
ENDBRANCH  41  44
BRANCH  43  46
ATOM     46  O   UNL     1      18.908  20.941  51.781  1.00  0.00    -0.504 OA
ATOM     47  H   UNL     1      18.404  20.094  51.599  1.00  0.00     0.293 HD
ENDBRANCH  43  46
ENDBRANCH  28  38
BRANCH  34  48
ATOM     48  O   UNL     1      14.049  29.265  55.097  1.00  0.00    -0.507 OA
ATOM     49  H   UNL     1      13.483  30.111  55.191  1.00  0.00     0.293 HD
ENDBRANCH  34  48
BRANCH  37  50
ATOM     50  O   UNL     1      18.400  31.219  54.574  1.00  0.00    -0.508 OA
ATOM     51  H   UNL     1      18.942  31.224  55.422  1.00  0.00     0.293 HD
ENDBRANCH  37  50
ENDBRANCH  26  27
ENDBRANCH   5  26
BRANCH   4  52
ATOM     52  O   UNL     1      16.020  26.863  47.209  1.00  0.00    -0.384 OA
ATOM     53  H   UNL     1      16.838  27.434  47.336  1.00  0.00     0.211 HD
ENDBRANCH   4  52
TORSDOF 16
ENDMDL
MODEL 3
REMARK VINA RESULT:    -6.666      2.170      5.070
REMARK INTER + INTRA:         -13.166
REMARK INTER:                 -10.279
REMARK INTRA:                  -2.887
REMARK UNBOUND:                -2.213
REMARK SMILES C[C@H]1O[C@H](OC[C@@H]2O[C@H](Oc3c(-c4ccc(O)c(O)c4)oc4cc(O)cc(O)c4c3=O)[C@@H](O)[C@H](O)[C@H]2O)[C@@H](O)[C@@H](O)[C@@H]1O
REMARK SMILES IDX 7 1 36 2 34 3 32 4 9 5 8 6 6 7 5 8 4 9 1 10 2 11 42 12 3 13
REMARK SMILES IDX 40 14 38 15 43 16 41 18 39 20 37 22 35 24 10 26 11 27 12 28
REMARK SMILES IDX 30 29 21 30 29 31 31 32 22 33 27 34 23 35 26 36 24 37 13 38
REMARK SMILES IDX 20 39 14 40 18 41 15 42 16 43 19 44 17 46 28 48 25 50 33 52
REMARK H PARENT 43 17 41 19 39 21 37 23 35 25 19 45 17 47 28 49 25 51 33 53
REMARK Flexibility Score: inf
ROOT
ATOM      1  C   UNL     1      14.488  21.115  51.424  1.00  0.00     0.180 C 
ATOM      2  C   UNL     1      15.905  20.540  51.604  1.00  0.00     0.177 C 
ATOM      3  C   UNL     1      16.383  20.683  53.075  1.00  0.00     0.180 C 
ATOM      4  C   UNL     1      15.467  21.599  53.937  1.00  0.00     0.214 C 
ATOM      5  C   UNL     1      14.793  22.734  53.104  1.00  0.00     0.339 C 
ATOM      6  O   UNL     1      14.515  22.495  51.734  1.00  0.00    -0.332 OA
ENDROOT
BRANCH   1   7
ATOM      7  C   UNL     1      13.924  20.918  50.002  1.00  0.00     0.198 C 
BRANCH   7   8
ATOM      8  O   UNL     1      14.966  20.952  49.022  1.00  0.00    -0.347 OA
BRANCH   8   9
ATOM      9  C   UNL     1      14.765  19.938  48.052  1.00  0.00     0.281 C 
ATOM     10  C   UNL     1      13.432  21.728  45.129  1.00  0.00     0.041 C 
ATOM     11  C   UNL     1      14.485  20.993  45.973  1.00  0.00     0.150 C 
ATOM     12  C   UNL     1      15.249  19.950  45.127  1.00  0.00     0.174 C 
ATOM     13  O   UNL     1      13.827  20.346  47.051  1.00  0.00    -0.344 OA
ATOM     14  C   UNL     1      16.047  18.981  46.051  1.00  0.00     0.179 C 
ATOM     15  C   UNL     1      16.144  19.493  47.493  1.00  0.00     0.202 C 
BRANCH  12  16
ATOM     16  O   UNL     1      16.098  20.626  44.255  1.00  0.00    -0.388 OA
ATOM     17  H   UNL     1      16.162  21.576  44.586  1.00  0.00     0.211 HD
ENDBRANCH  12  16
BRANCH  14  18
ATOM     18  O   UNL     1      15.417  17.713  46.004  1.00  0.00    -0.387 OA
ATOM     19  H   UNL     1      15.987  17.127  45.435  1.00  0.00     0.211 HD
ENDBRANCH  14  18
BRANCH  15  20
ATOM     20  O   UNL     1      16.778  18.581  48.372  1.00  0.00    -0.385 OA
ATOM     21  H   UNL     1      17.091  17.803  47.827  1.00  0.00     0.211 HD
ENDBRANCH  15  20
ENDBRANCH   8   9
ENDBRANCH   7   8
ENDBRANCH   1   7
BRANCH   2  22
ATOM     22  O   UNL     1      16.004  19.210  51.159  1.00  0.00    -0.387 OA
ATOM     23  H   UNL     1      15.068  18.920  50.991  1.00  0.00     0.211 HD
ENDBRANCH   2  22
BRANCH   3  24
ATOM     24  O   UNL     1      17.696  21.179  53.123  1.00  0.00    -0.387 OA
ATOM     25  H   UNL     1      17.780  21.678  53.966  1.00  0.00     0.211 HD
ENDBRANCH   3  24
BRANCH   5  26
ATOM     26  O   UNL     1      15.523  23.945  53.237  1.00  0.00    -0.454 OA
BRANCH  26  27
ATOM     27  C   UNL     1      16.233  24.668  52.265  1.00  0.00     0.214 A 
ATOM     28  C   UNL     1      15.633  25.816  51.712  1.00  0.00     0.180 A 
ATOM     29  C   UNL     1      17.596  24.829  52.509  1.00  0.00     0.239 A 
ATOM     30  O   UNL     1      15.953  26.971  52.287  1.00  0.00    -0.452 OA
ATOM     31  C   UNL     1      18.067  26.099  52.931  1.00  0.00     0.111 A 
ATOM     32  O   UNL     1      18.332  23.811  52.506  1.00  0.00    -0.285 OA
ATOM     33  C   UNL     1      17.088  27.128  52.982  1.00  0.00     0.146 A 
ATOM     34  C   UNL     1      19.372  26.389  53.449  1.00  0.00     0.134 A 
ATOM     35  C   UNL     1      17.324  28.322  53.664  1.00  0.00     0.094 A 
ATOM     36  C   UNL     1      19.589  27.596  54.085  1.00  0.00     0.093 A 
ATOM     37  C   UNL     1      18.574  28.544  54.229  1.00  0.00     0.123 A 
BRANCH  28  38
ATOM     38  C   UNL     1      15.072  25.888  50.344  1.00  0.00     0.025 A 
ATOM     39  C   UNL     1      15.262  27.042  49.576  1.00  0.00     0.062 A 
ATOM     40  C   UNL     1      14.701  24.706  49.689  1.00  0.00     0.016 A 
ATOM     41  C   UNL     1      15.101  27.023  48.176  1.00  0.00     0.158 A 
ATOM     42  C   UNL     1      14.492  24.681  48.309  1.00  0.00     0.051 A 
ATOM     43  C   UNL     1      14.697  25.836  47.550  1.00  0.00     0.157 A 
BRANCH  41  44
ATOM     44  O   UNL     1      15.374  28.158  47.404  1.00  0.00    -0.504 OA
ATOM     45  H   UNL     1      14.943  29.050  47.640  1.00  0.00     0.293 HD
ENDBRANCH  41  44
BRANCH  43  46
ATOM     46  O   UNL     1      14.492  25.769  46.177  1.00  0.00    -0.504 OA
ATOM     47  H   UNL     1      13.580  25.677  45.773  1.00  0.00     0.293 HD
ENDBRANCH  43  46
ENDBRANCH  28  38
BRANCH  34  48
ATOM     48  O   UNL     1      20.461  25.494  53.380  1.00  0.00    -0.507 OA
ATOM     49  H   UNL     1      21.444  25.742  53.250  1.00  0.00     0.293 HD
ENDBRANCH  34  48
BRANCH  37  50
ATOM     50  O   UNL     1      18.816  29.713  54.965  1.00  0.00    -0.508 OA
ATOM     51  H   UNL     1      19.471  29.719  55.729  1.00  0.00     0.293 HD
ENDBRANCH  37  50
ENDBRANCH  26  27
ENDBRANCH   5  26
BRANCH   4  52
ATOM     52  O   UNL     1      14.466  20.831  54.543  1.00  0.00    -0.384 OA
ATOM     53  H   UNL     1      14.041  21.406  55.250  1.00  0.00     0.211 HD
ENDBRANCH   4  52
TORSDOF 16
ENDMDL
MODEL 4
REMARK VINA RESULT:    -6.617      2.643      9.579
REMARK INTER + INTRA:         -13.085
REMARK INTER:                 -10.515
REMARK INTRA:                  -2.570
REMARK UNBOUND:                -2.213
REMARK SMILES C[C@H]1O[C@H](OC[C@@H]2O[C@H](Oc3c(-c4ccc(O)c(O)c4)oc4cc(O)cc(O)c4c3=O)[C@@H](O)[C@H](O)[C@H]2O)[C@@H](O)[C@@H](O)[C@@H]1O
REMARK SMILES IDX 7 1 36 2 34 3 32 4 9 5 8 6 6 7 5 8 4 9 1 10 2 11 42 12 3 13
REMARK SMILES IDX 40 14 38 15 43 16 41 18 39 20 37 22 35 24 10 26 11 27 12 28
REMARK SMILES IDX 30 29 21 30 29 31 31 32 22 33 27 34 23 35 26 36 24 37 13 38
REMARK SMILES IDX 20 39 14 40 18 41 15 42 16 43 19 44 17 46 28 48 25 50 33 52
REMARK H PARENT 43 17 41 19 39 21 37 23 35 25 19 45 17 47 28 49 25 51 33 53
REMARK Flexibility Score: inf
ROOT
ATOM      1  C   UNL     1      18.882  25.411  53.182  1.00  0.00     0.180 C 
ATOM      2  C   UNL     1      19.159  24.580  54.448  1.00  0.00     0.177 C 
ATOM      3  C   UNL     1      19.085  23.059  54.145  1.00  0.00     0.180 C 
ATOM      4  C   UNL     1      18.488  22.734  52.745  1.00  0.00     0.214 C 
ATOM      5  C   UNL     1      17.435  23.789  52.280  1.00  0.00     0.339 C 
ATOM      6  O   UNL     1      17.572  25.127  52.730  1.00  0.00    -0.332 OA
ENDROOT
BRANCH   1   7
ATOM      7  C   UNL     1      19.031  26.930  53.403  1.00  0.00     0.198 C 
BRANCH   7   8
ATOM      8  O   UNL     1      18.870  27.272  54.782  1.00  0.00    -0.347 OA
BRANCH   8   9
ATOM      9  C   UNL     1      17.974  28.363  54.920  1.00  0.00     0.281 C 
ATOM     10  C   UNL     1      19.844  31.245  53.609  1.00  0.00     0.041 C 
ATOM     11  C   UNL     1      18.794  30.123  53.600  1.00  0.00     0.150 C 
ATOM     12  C   UNL     1      17.426  30.642  53.106  1.00  0.00     0.174 C 
ATOM     13  O   UNL     1      18.666  29.615  54.919  1.00  0.00    -0.344 OA
ATOM     14  C   UNL     1      16.304  29.610  53.432  1.00  0.00     0.179 C 
ATOM     15  C   UNL     1      16.864  28.243  53.839  1.00  0.00     0.202 C 
BRANCH  12  16
ATOM     16  O   UNL     1      17.512  30.875  51.736  1.00  0.00    -0.388 OA
ATOM     17  H   UNL     1      18.341  31.425  51.583  1.00  0.00     0.211 HD
ENDBRANCH  12  16
BRANCH  14  18
ATOM     18  O   UNL     1      15.495  30.155  54.460  1.00  0.00    -0.387 OA
ATOM     19  H   UNL     1      14.548  30.064  54.164  1.00  0.00     0.211 HD
ENDBRANCH  14  18
BRANCH  15  20
ATOM     20  O   UNL     1      15.865  27.322  54.237  1.00  0.00    -0.385 OA
ATOM     21  H   UNL     1      15.703  27.452  55.214  1.00  0.00     0.211 HD
ENDBRANCH  15  20
ENDBRANCH   8   9
ENDBRANCH   7   8
ENDBRANCH   1   7
BRANCH   2  22
ATOM     22  O   UNL     1      20.379  24.923  55.058  1.00  0.00    -0.387 OA
ATOM     23  H   UNL     1      20.970  25.215  54.314  1.00  0.00     0.211 HD
ENDBRANCH   2  22
BRANCH   3  24
ATOM     24  O   UNL     1      18.330  22.394  55.125  1.00  0.00    -0.387 OA
ATOM     25  H   UNL     1      18.685  22.676  55.997  1.00  0.00     0.211 HD
ENDBRANCH   3  24
BRANCH   5  26
ATOM     26  O   UNL     1      16.120  23.327  52.550  1.00  0.00    -0.454 OA
BRANCH  26  27
ATOM     27  C   UNL     1      14.961  23.431  51.763  1.00  0.00     0.214 A 
ATOM     28  C   UNL     1      15.086  23.922  50.449  1.00  0.00     0.180 A 
ATOM     29  C   UNL     1      14.065  22.368  51.865  1.00  0.00     0.239 A 
ATOM     30  O   UNL     1      15.216  23.005  49.497  1.00  0.00    -0.452 OA
ATOM     31  C   UNL     1      13.983  21.441  50.793  1.00  0.00     0.111 A 
ATOM     32  O   UNL     1      13.484  22.174  52.961  1.00  0.00    -0.285 OA
ATOM     33  C   UNL     1      14.783  21.747  49.658  1.00  0.00     0.146 A 
ATOM     34  C   UNL     1      13.308  20.178  50.817  1.00  0.00     0.134 A 
ATOM     35  C   UNL     1      15.047  20.790  48.677  1.00  0.00     0.094 A 
ATOM     36  C   UNL     1      13.557  19.264  49.811  1.00  0.00     0.093 A 
ATOM     37  C   UNL     1      14.442  19.543  48.768  1.00  0.00     0.123 A 
BRANCH  28  38
ATOM     38  C   UNL     1      14.652  25.270  50.017  1.00  0.00     0.025 A 
ATOM     39  C   UNL     1      15.409  26.391  50.375  1.00  0.00     0.062 A 
ATOM     40  C   UNL     1      13.738  25.394  48.962  1.00  0.00     0.016 A 
ATOM     41  C   UNL     1      15.274  27.614  49.689  1.00  0.00     0.158 A 
ATOM     42  C   UNL     1      13.559  26.611  48.301  1.00  0.00     0.051 A 
ATOM     43  C   UNL     1      14.330  27.720  48.659  1.00  0.00     0.157 A 
BRANCH  41  44
ATOM     44  O   UNL     1      16.094  28.707  49.996  1.00  0.00    -0.504 OA
ATOM     45  H   UNL     1      16.324  28.914  50.966  1.00  0.00     0.293 HD
ENDBRANCH  41  44
BRANCH  43  46
ATOM     46  O   UNL     1      14.132  28.911  47.970  1.00  0.00    -0.504 OA
ATOM     47  H   UNL     1      13.380  29.039  47.322  1.00  0.00     0.293 HD
ENDBRANCH  43  46
ENDBRANCH  28  38
BRANCH  34  48
ATOM     48  O   UNL     1      12.413  19.784  51.835  1.00  0.00    -0.507 OA
ATOM     49  H   UNL     1      11.952  18.875  51.921  1.00  0.00     0.293 HD
ENDBRANCH  34  48
BRANCH  37  50
ATOM     50  O   UNL     1      14.736  18.548  47.822  1.00  0.00    -0.508 OA
ATOM     51  H   UNL     1      15.661  18.159  47.750  1.00  0.00     0.293 HD
ENDBRANCH  37  50
ENDBRANCH  26  27
ENDBRANCH   5  26
BRANCH   4  52
ATOM     52  O   UNL     1      19.515  22.675  51.796  1.00  0.00    -0.384 OA
ATOM     53  H   UNL     1      19.100  22.372  50.932  1.00  0.00     0.211 HD
ENDBRANCH   4  52
TORSDOF 16
ENDMDL
MODEL 5
REMARK VINA RESULT:    -6.524      4.865      9.587
REMARK INTER + INTRA:         -12.932
REMARK INTER:                 -10.761
REMARK INTRA:                  -2.171
REMARK UNBOUND:                -2.213
REMARK SMILES C[C@H]1O[C@H](OC[C@@H]2O[C@H](Oc3c(-c4ccc(O)c(O)c4)oc4cc(O)cc(O)c4c3=O)[C@@H](O)[C@H](O)[C@H]2O)[C@@H](O)[C@@H](O)[C@@H]1O
REMARK SMILES IDX 7 1 36 2 34 3 32 4 9 5 8 6 6 7 5 8 4 9 1 10 2 11 42 12 3 13
REMARK SMILES IDX 40 14 38 15 43 16 41 18 39 20 37 22 35 24 10 26 11 27 12 28
REMARK SMILES IDX 30 29 21 30 29 31 31 32 22 33 27 34 23 35 26 36 24 37 13 38
REMARK SMILES IDX 20 39 14 40 18 41 15 42 16 43 19 44 17 46 28 48 25 50 33 52
REMARK H PARENT 43 17 41 19 39 21 37 23 35 25 19 45 17 47 28 49 25 51 33 53
REMARK Flexibility Score: inf
ROOT
ATOM      1  C   UNL     1      14.946  25.175  39.900  1.00  0.00     0.180 C 
ATOM      2  C   UNL     1      14.244  24.134  39.009  1.00  0.00     0.177 C 
ATOM      3  C   UNL     1      12.736  24.023  39.362  1.00  0.00     0.180 C 
ATOM      4  C   UNL     1      12.353  24.755  40.681  1.00  0.00     0.214 C 
ATOM      5  C   UNL     1      13.515  24.768  41.723  1.00  0.00     0.339 C 
ATOM      6  O   UNL     1      14.851  24.757  41.248  1.00  0.00    -0.332 OA
ENDROOT
BRANCH   1   7
ATOM      7  C   UNL     1      16.429  25.395  39.533  1.00  0.00     0.198 C 
BRANCH   7   8
ATOM      8  O   UNL     1      17.092  24.151  39.289  1.00  0.00    -0.347 OA
BRANCH   8   9
ATOM      9  C   UNL     1      18.163  24.333  38.378  1.00  0.00     0.281 C 
ATOM     10  C   UNL     1      20.885  22.279  39.756  1.00  0.00     0.041 C 
ATOM     11  C   UNL     1      19.742  22.646  38.797  1.00  0.00     0.150 C 
ATOM     12  C   UNL     1      20.144  22.395  37.327  1.00  0.00     0.174 C 
ATOM     13  O   UNL     1      19.423  24.016  38.979  1.00  0.00    -0.344 OA
ATOM     14  C   UNL     1      19.136  23.090  36.361  1.00  0.00     0.179 C 
ATOM     15  C   UNL     1      17.858  23.544  37.076  1.00  0.00     0.202 C 
BRANCH  12  16
ATOM     16  O   UNL     1      20.182  21.021  37.109  1.00  0.00    -0.388 OA
ATOM     17  H   UNL     1      21.099  20.806  36.750  1.00  0.00     0.211 HD
ENDBRANCH  12  16
BRANCH  14  18
ATOM     18  O   UNL     1      19.797  24.187  35.755  1.00  0.00    -0.387 OA
ATOM     19  H   UNL     1      19.443  25.013  36.187  1.00  0.00     0.211 HD
ENDBRANCH  14  18
BRANCH  15  20
ATOM     20  O   UNL     1      16.973  24.266  36.239  1.00  0.00    -0.385 OA
ATOM     21  H   UNL     1      17.510  24.651  35.489  1.00  0.00     0.211 HD
ENDBRANCH  15  20
ENDBRANCH   8   9
ENDBRANCH   7   8
ENDBRANCH   1   7
BRANCH   2  22
ATOM     22  O   UNL     1      14.433  24.387  37.638  1.00  0.00    -0.387 OA
ATOM     23  H   UNL     1      13.521  24.520  37.269  1.00  0.00     0.211 HD
ENDBRANCH   2  22
BRANCH   3  24
ATOM     24  O   UNL     1      12.349  22.676  39.463  1.00  0.00    -0.387 OA
ATOM     25  H   UNL     1      12.618  22.369  40.357  1.00  0.00     0.211 HD
ENDBRANCH   3  24
BRANCH   5  26
ATOM     26  O   UNL     1      13.339  23.727  42.673  1.00  0.00    -0.454 OA
BRANCH  26  27
ATOM     27  C   UNL     1      13.965  23.542  43.916  1.00  0.00     0.214 A 
ATOM     28  C   UNL     1      13.173  23.600  45.080  1.00  0.00     0.180 A 
ATOM     29  C   UNL     1      14.929  22.536  43.963  1.00  0.00     0.239 A 
ATOM     30  O   UNL     1      12.725  22.435  45.536  1.00  0.00    -0.452 OA
ATOM     31  C   UNL     1      14.611  21.318  44.618  1.00  0.00     0.111 A 
ATOM     32  O   UNL     1      15.978  22.677  43.287  1.00  0.00    -0.285 OA
ATOM     33  C   UNL     1      13.339  21.278  45.251  1.00  0.00     0.146 A 
ATOM     34  C   UNL     1      15.372  20.104  44.563  1.00  0.00     0.134 A 
ATOM     35  C   UNL     1      12.767  20.071  45.654  1.00  0.00     0.094 A 
ATOM     36  C   UNL     1      14.795  18.930  45.006  1.00  0.00     0.093 A 
ATOM     37  C   UNL     1      13.495  18.896  45.514  1.00  0.00     0.123 A 
BRANCH  28  38
ATOM     38  C   UNL     1      13.178  24.730  46.036  1.00  0.00     0.025 A 
ATOM     39  C   UNL     1      14.395  25.266  46.471  1.00  0.00     0.062 A 
ATOM     40  C   UNL     1      12.016  25.495  46.203  1.00  0.00     0.016 A 
ATOM     41  C   UNL     1      14.463  26.548  47.052  1.00  0.00     0.158 A 
ATOM     42  C   UNL     1      12.059  26.748  46.816  1.00  0.00     0.051 A 
ATOM     43  C   UNL     1      13.282  27.279  47.236  1.00  0.00     0.157 A 
BRANCH  41  44
ATOM     44  O   UNL     1      15.694  27.113  47.408  1.00  0.00    -0.504 OA
ATOM     45  H   UNL     1      15.830  28.119  47.340  1.00  0.00     0.293 HD
ENDBRANCH  41  44
BRANCH  43  46
ATOM     46  O   UNL     1      13.287  28.535  47.832  1.00  0.00    -0.504 OA
ATOM     47  H   UNL     1      14.045  29.180  47.720  1.00  0.00     0.293 HD
ENDBRANCH  43  46
ENDBRANCH  28  38
BRANCH  34  48
ATOM     48  O   UNL     1      16.683  20.021  44.046  1.00  0.00    -0.507 OA
ATOM     49  H   UNL     1      17.036  19.316  43.396  1.00  0.00     0.293 HD
ENDBRANCH  34  48
BRANCH  37  50
ATOM     50  O   UNL     1      12.918  17.665  45.862  1.00  0.00    -0.508 OA
ATOM     51  H   UNL     1      13.199  17.179  46.698  1.00  0.00     0.293 HD
ENDBRANCH  37  50
ENDBRANCH  26  27
ENDBRANCH   5  26
BRANCH   4  52
ATOM     52  O   UNL     1      11.988  26.077  40.397  1.00  0.00    -0.384 OA
ATOM     53  H   UNL     1      12.653  26.671  40.861  1.00  0.00     0.211 HD
ENDBRANCH   4  52
TORSDOF 16
ENDMDL
MODEL 6
REMARK VINA RESULT:    -6.456      1.878      2.637
REMARK INTER + INTRA:         -12.821
REMARK INTER:                 -10.717
REMARK INTRA:                  -2.104
REMARK UNBOUND:                -2.213
REMARK SMILES C[C@H]1O[C@H](OC[C@@H]2O[C@H](Oc3c(-c4ccc(O)c(O)c4)oc4cc(O)cc(O)c4c3=O)[C@@H](O)[C@H](O)[C@H]2O)[C@@H](O)[C@@H](O)[C@@H]1O
REMARK SMILES IDX 7 1 36 2 34 3 32 4 9 5 8 6 6 7 5 8 4 9 1 10 2 11 42 12 3 13
REMARK SMILES IDX 40 14 38 15 43 16 41 18 39 20 37 22 35 24 10 26 11 27 12 28
REMARK SMILES IDX 30 29 21 30 29 31 31 32 22 33 27 34 23 35 26 36 24 37 13 38
REMARK SMILES IDX 20 39 14 40 18 41 15 42 16 43 19 44 17 46 28 48 25 50 33 52
REMARK H PARENT 43 17 41 19 39 21 37 23 35 25 19 45 17 47 28 49 25 51 33 53
REMARK Flexibility Score: inf
ROOT
ATOM      1  C   UNL     1      13.889  24.782  48.594  1.00  0.00     0.180 C 
ATOM      2  C   UNL     1      12.896  25.839  48.075  1.00  0.00     0.177 C 
ATOM      3  C   UNL     1      13.624  27.167  47.732  1.00  0.00     0.180 C 
ATOM      4  C   UNL     1      15.094  27.218  48.241  1.00  0.00     0.214 C 
ATOM      5  C   UNL     1      15.306  26.397  49.552  1.00  0.00     0.339 C 
ATOM      6  O   UNL     1      14.486  25.264  49.782  1.00  0.00    -0.332 OA
ENDROOT
BRANCH   1   7
ATOM      7  C   UNL     1      13.236  23.411  48.866  1.00  0.00     0.198 C 
BRANCH   7   8
ATOM      8  O   UNL     1      13.859  22.378  48.098  1.00  0.00    -0.347 OA
BRANCH   8   9
ATOM      9  C   UNL     1      14.239  21.300  48.937  1.00  0.00     0.281 C 
ATOM     10  C   UNL     1      15.258  18.648  46.602  1.00  0.00     0.041 C 
ATOM     11  C   UNL     1      15.453  19.777  47.625  1.00  0.00     0.150 C 
ATOM     12  C   UNL     1      16.486  19.381  48.703  1.00  0.00     0.174 C 
ATOM     13  O   UNL     1      14.203  20.052  48.237  1.00  0.00    -0.344 OA
ATOM     14  C   UNL     1      16.416  20.364  49.911  1.00  0.00     0.179 C 
ATOM     15  C   UNL     1      15.609  21.628  49.591  1.00  0.00     0.202 C 
BRANCH  12  16
ATOM     16  O   UNL     1      17.752  19.386  48.124  1.00  0.00    -0.388 OA
ATOM     17  H   UNL     1      17.903  18.468  47.740  1.00  0.00     0.211 HD
ENDBRANCH  12  16
BRANCH  14  18
ATOM     18  O   UNL     1      15.854  19.668  51.010  1.00  0.00    -0.387 OA
ATOM     19  H   UNL     1      14.881  19.565  50.822  1.00  0.00     0.211 HD
ENDBRANCH  14  18
BRANCH  15  20
ATOM     20  O   UNL     1      15.448  22.489  50.705  1.00  0.00    -0.385 OA
ATOM     21  H   UNL     1      15.380  23.423  50.358  1.00  0.00     0.211 HD
ENDBRANCH  15  20
ENDBRANCH   8   9
ENDBRANCH   7   8
ENDBRANCH   1   7
BRANCH   2  22
ATOM     22  O   UNL     1      12.137  25.373  46.988  1.00  0.00    -0.387 OA
ATOM     23  H   UNL     1      11.327  25.949  46.968  1.00  0.00     0.211 HD
ENDBRANCH   2  22
BRANCH   3  24
ATOM     24  O   UNL     1      12.924  28.266  48.256  1.00  0.00    -0.387 OA
ATOM     25  H   UNL     1      13.372  28.514  49.095  1.00  0.00     0.211 HD
ENDBRANCH   3  24
BRANCH   5  26
ATOM     26  O   UNL     1      15.264  27.255  50.683  1.00  0.00    -0.454 OA
BRANCH  26  27
ATOM     27  C   UNL     1      15.534  26.964  52.030  1.00  0.00     0.214 A 
ATOM     28  C   UNL     1      16.784  26.403  52.357  1.00  0.00     0.180 A 
ATOM     29  C   UNL     1      15.107  27.920  52.952  1.00  0.00     0.239 A 
ATOM     30  O   UNL     1      17.726  27.264  52.728  1.00  0.00    -0.452 OA
ATOM     31  C   UNL     1      16.076  28.756  53.563  1.00  0.00     0.111 A 
ATOM     32  O   UNL     1      13.874  28.117  53.086  1.00  0.00    -0.285 OA
ATOM     33  C   UNL     1      17.428  28.471  53.229  1.00  0.00     0.146 A 
ATOM     34  C   UNL     1      15.811  29.931  54.340  1.00  0.00     0.134 A 
ATOM     35  C   UNL     1      18.449  29.384  53.494  1.00  0.00     0.094 A 
ATOM     36  C   UNL     1      16.849  30.798  54.622  1.00  0.00     0.093 A 
ATOM     37  C   UNL     1      18.150  30.556  54.178  1.00  0.00     0.123 A 
BRANCH  28  38
ATOM     38  C   UNL     1      16.990  24.988  52.740  1.00  0.00     0.025 A 
ATOM     39  C   UNL     1      17.922  24.210  52.045  1.00  0.00     0.062 A 
ATOM     40  C   UNL     1      16.561  24.546  53.998  1.00  0.00     0.016 A 
ATOM     41  C   UNL     1      18.433  23.017  52.593  1.00  0.00     0.158 A 
ATOM     42  C   UNL     1      17.022  23.343  54.537  1.00  0.00     0.051 A 
ATOM     43  C   UNL     1      17.962  22.580  53.839  1.00  0.00     0.157 A 
BRANCH  41  44
ATOM     44  O   UNL     1      19.427  22.287  51.930  1.00  0.00    -0.504 OA
ATOM     45  H   UNL     1      20.170  22.774  51.433  1.00  0.00     0.293 HD
ENDBRANCH  41  44
BRANCH  43  46
ATOM     46  O   UNL     1      18.408  21.395  54.412  1.00  0.00    -0.504 OA
ATOM     47  H   UNL     1      17.781  20.676  54.716  1.00  0.00     0.293 HD
ENDBRANCH  43  46
ENDBRANCH  28  38
BRANCH  34  48
ATOM     48  O   UNL     1      14.530  30.285  54.816  1.00  0.00    -0.507 OA
ATOM     49  H   UNL     1      14.096  29.968  55.686  1.00  0.00     0.293 HD
ENDBRANCH  34  48
BRANCH  37  50
ATOM     50  O   UNL     1      19.151  31.512  54.407  1.00  0.00    -0.508 OA
ATOM     51  H   UNL     1      19.044  32.213  55.121  1.00  0.00     0.293 HD
ENDBRANCH  37  50
ENDBRANCH  26  27
ENDBRANCH   5  26
BRANCH   4  52
ATOM     52  O   UNL     1      15.953  26.720  47.254  1.00  0.00    -0.384 OA
ATOM     53  H   UNL     1      15.470  26.803  46.375  1.00  0.00     0.211 HD
ENDBRANCH   4  52
TORSDOF 16
ENDMDL
MODEL 7
REMARK VINA RESULT:    -6.446      1.740      4.982
REMARK INTER + INTRA:         -12.804
REMARK INTER:                 -10.103
REMARK INTRA:                  -2.700
REMARK UNBOUND:                -2.213
REMARK SMILES C[C@H]1O[C@H](OC[C@@H]2O[C@H](Oc3c(-c4ccc(O)c(O)c4)oc4cc(O)cc(O)c4c3=O)[C@@H](O)[C@H](O)[C@H]2O)[C@@H](O)[C@@H](O)[C@@H]1O
REMARK SMILES IDX 7 1 36 2 34 3 32 4 9 5 8 6 6 7 5 8 4 9 1 10 2 11 42 12 3 13
REMARK SMILES IDX 40 14 38 15 43 16 41 18 39 20 37 22 35 24 10 26 11 27 12 28
REMARK SMILES IDX 30 29 21 30 29 31 31 32 22 33 27 34 23 35 26 36 24 37 13 38
REMARK SMILES IDX 20 39 14 40 18 41 15 42 16 43 19 44 17 46 28 48 25 50 33 52
REMARK H PARENT 43 17 41 19 39 21 37 23 35 25 19 45 17 47 28 49 25 51 33 53
REMARK Flexibility Score: inf
ROOT
ATOM      1  C   UNL     1      16.488  21.330  51.334  1.00  0.00     0.180 C 
ATOM      2  C   UNL     1      17.939  21.733  51.015  1.00  0.00     0.177 C 
ATOM      3  C   UNL     1      18.689  22.180  52.298  1.00  0.00     0.180 C 
ATOM      4  C   UNL     1      17.753  22.384  53.524  1.00  0.00     0.214 C 
ATOM      5  C   UNL     1      16.321  22.856  53.117  1.00  0.00     0.339 C 
ATOM      6  O   UNL     1      15.809  22.455  51.857  1.00  0.00    -0.332 OA
ENDROOT
BRANCH   1   7
ATOM      7  C   UNL     1      15.719  20.790  50.110  1.00  0.00     0.198 C 
BRANCH   7   8
ATOM      8  O   UNL     1      15.563  19.370  50.182  1.00  0.00    -0.347 OA
BRANCH   8   9
ATOM      9  C   UNL     1      15.459  18.817  48.880  1.00  0.00     0.281 C 
ATOM     10  C   UNL     1      12.159  19.919  47.686  1.00  0.00     0.041 C 
ATOM     11  C   UNL     1      13.693  19.911  47.786  1.00  0.00     0.150 C 
ATOM     12  C   UNL     1      14.343  19.968  46.386  1.00  0.00     0.174 C 
ATOM     13  O   UNL     1      14.095  18.727  48.454  1.00  0.00    -0.344 OA
ATOM     14  C   UNL     1      15.857  19.606  46.476  1.00  0.00     0.179 C 
ATOM     15  C   UNL     1      16.378  19.618  47.917  1.00  0.00     0.202 C 
BRANCH  12  16
ATOM     16  O   UNL     1      14.162  21.246  45.866  1.00  0.00    -0.388 OA
ATOM     17  H   UNL     1      14.321  21.184  44.874  1.00  0.00     0.211 HD
ENDBRANCH  12  16
BRANCH  14  18
ATOM     18  O   UNL     1      16.039  18.333  45.880  1.00  0.00    -0.387 OA
ATOM     19  H   UNL     1      15.186  18.103  45.421  1.00  0.00     0.211 HD
ENDBRANCH  14  18
BRANCH  15  20
ATOM     20  O   UNL     1      17.725  19.195  48.032  1.00  0.00    -0.385 OA
ATOM     21  H   UNL     1      18.191  19.435  47.181  1.00  0.00     0.211 HD
ENDBRANCH  15  20
ENDBRANCH   8   9
ENDBRANCH   7   8
ENDBRANCH   1   7
BRANCH   2  22
ATOM     22  O   UNL     1      18.640  20.719  50.337  1.00  0.00    -0.387 OA
ATOM     23  H   UNL     1      17.945  20.070  50.047  1.00  0.00     0.211 HD
ENDBRANCH   2  22
BRANCH   3  24
ATOM     24  O   UNL     1      19.400  23.370  52.068  1.00  0.00    -0.387 OA
ATOM     25  H   UNL     1      20.230  23.120  51.605  1.00  0.00     0.211 HD
ENDBRANCH   3  24
BRANCH   5  26
ATOM     26  O   UNL     1      16.209  24.266  53.251  1.00  0.00    -0.454 OA
BRANCH  26  27
ATOM     27  C   UNL     1      16.613  25.278  52.366  1.00  0.00     0.214 A 
ATOM     28  C   UNL     1      15.632  25.911  51.579  1.00  0.00     0.180 A 
ATOM     29  C   UNL     1      17.571  26.163  52.859  1.00  0.00     0.239 A 
ATOM     30  O   UNL     1      15.131  27.039  52.073  1.00  0.00    -0.452 OA
ATOM     31  C   UNL     1      17.165  27.474  53.222  1.00  0.00     0.111 A 
ATOM     32  O   UNL     1      18.719  25.724  53.117  1.00  0.00    -0.285 OA
ATOM     33  C   UNL     1      15.803  27.786  52.959  1.00  0.00     0.146 A 
ATOM     34  C   UNL     1      17.944  28.428  53.955  1.00  0.00     0.134 A 
ATOM     35  C   UNL     1      15.190  28.898  53.538  1.00  0.00     0.094 A 
ATOM     36  C   UNL     1      17.318  29.541  54.482  1.00  0.00     0.093 A 
ATOM     37  C   UNL     1      15.951  29.765  54.313  1.00  0.00     0.123 A 
BRANCH  28  38
ATOM     38  C   UNL     1      15.451  25.685  50.127  1.00  0.00     0.025 A 
ATOM     39  C   UNL     1      14.722  24.577  49.683  1.00  0.00     0.062 A 
ATOM     40  C   UNL     1      15.663  26.744  49.234  1.00  0.00     0.016 A 
ATOM     41  C   UNL     1      14.197  24.523  48.377  1.00  0.00     0.158 A 
ATOM     42  C   UNL     1      15.189  26.687  47.922  1.00  0.00     0.051 A 
ATOM     43  C   UNL     1      14.451  25.581  47.493  1.00  0.00     0.157 A 
BRANCH  41  44
ATOM     44  O   UNL     1      13.397  23.450  47.965  1.00  0.00    -0.504 OA
ATOM     45  H   UNL     1      12.449  23.356  48.321  1.00  0.00     0.293 HD
ENDBRANCH  41  44
BRANCH  43  46
ATOM     46  O   UNL     1      13.985  25.566  46.184  1.00  0.00    -0.504 OA
ATOM     47  H   UNL     1      13.011  25.501  45.961  1.00  0.00     0.293 HD
ENDBRANCH  43  46
ENDBRANCH  28  38
BRANCH  34  48
ATOM     48  O   UNL     1      19.325  28.288  54.206  1.00  0.00    -0.507 OA
ATOM     49  H   UNL     1      19.843  28.682  54.995  1.00  0.00     0.293 HD
ENDBRANCH  34  48
BRANCH  37  50
ATOM     50  O   UNL     1      15.343  30.859  54.947  1.00  0.00    -0.508 OA
ATOM     51  H   UNL     1      14.680  30.723  55.693  1.00  0.00     0.293 HD
ENDBRANCH  37  50
ENDBRANCH  26  27
ENDBRANCH   5  26
BRANCH   4  52
ATOM     52  O   UNL     1      17.645  21.186  54.241  1.00  0.00    -0.384 OA
ATOM     53  H   UNL     1      17.689  20.438  53.570  1.00  0.00     0.211 HD
ENDBRANCH   4  52
TORSDOF 16
ENDMDL
MODEL 8
REMARK VINA RESULT:    -6.390      1.962      7.607
REMARK INTER + INTRA:         -12.712
REMARK INTER:                 -10.213
REMARK INTRA:                  -2.499
REMARK UNBOUND:                -2.213
REMARK SMILES C[C@H]1O[C@H](OC[C@@H]2O[C@H](Oc3c(-c4ccc(O)c(O)c4)oc4cc(O)cc(O)c4c3=O)[C@@H](O)[C@H](O)[C@H]2O)[C@@H](O)[C@@H](O)[C@@H]1O
REMARK SMILES IDX 7 1 36 2 34 3 32 4 9 5 8 6 6 7 5 8 4 9 1 10 2 11 42 12 3 13
REMARK SMILES IDX 40 14 38 15 43 16 41 18 39 20 37 22 35 24 10 26 11 27 12 28
REMARK SMILES IDX 30 29 21 30 29 31 31 32 22 33 27 34 23 35 26 36 24 37 13 38
REMARK SMILES IDX 20 39 14 40 18 41 15 42 16 43 19 44 17 46 28 48 25 50 33 52
REMARK H PARENT 43 17 41 19 39 21 37 23 35 25 19 45 17 47 28 49 25 51 33 53
REMARK Flexibility Score: inf
ROOT
ATOM      1  C   UNL     1      13.827  27.243  49.936  1.00  0.00     0.180 C 
ATOM      2  C   UNL     1      14.603  27.573  48.648  1.00  0.00     0.177 C 
ATOM      3  C   UNL     1      14.377  26.482  47.566  1.00  0.00     0.180 C 
ATOM      4  C   UNL     1      13.673  25.206  48.110  1.00  0.00     0.214 C 
ATOM      5  C   UNL     1      14.013  24.921  49.607  1.00  0.00     0.339 C 
ATOM      6  O   UNL     1      14.308  26.018  50.455  1.00  0.00    -0.332 OA
ENDROOT
BRANCH   1   7
ATOM      7  C   UNL     1      13.941  28.339  51.016  1.00  0.00     0.198 C 
BRANCH   7   8
ATOM      8  O   UNL     1      15.241  28.936  51.014  1.00  0.00    -0.347 OA
BRANCH   8   9
ATOM      9  C   UNL     1      15.723  29.075  52.341  1.00  0.00     0.281 C 
ATOM     10  C   UNL     1      16.986  25.732  53.206  1.00  0.00     0.041 C 
ATOM     11  C   UNL     1      17.075  27.212  52.803  1.00  0.00     0.150 C 
ATOM     12  C   UNL     1      18.142  27.955  53.637  1.00  0.00     0.174 C 
ATOM     13  O   UNL     1      15.805  27.811  53.006  1.00  0.00    -0.344 OA
ATOM     14  C   UNL     1      17.980  29.497  53.477  1.00  0.00     0.179 C 
ATOM     15  C   UNL     1      17.057  29.872  52.312  1.00  0.00     0.202 C 
BRANCH  12  16
ATOM     16  O   UNL     1      19.401  27.536  53.216  1.00  0.00    -0.388 OA
ATOM     17  H   UNL     1      20.033  27.686  53.986  1.00  0.00     0.211 HD
ENDBRANCH  12  16
BRANCH  14  18
ATOM     18  O   UNL     1      17.488  30.015  54.701  1.00  0.00    -0.387 OA
ATOM     19  H   UNL     1      16.518  30.197  54.570  1.00  0.00     0.211 HD
ENDBRANCH  14  18
BRANCH  15  20
ATOM     20  O   UNL     1      16.816  31.264  52.211  1.00  0.00    -0.385 OA
ATOM     21  H   UNL     1      17.261  31.589  51.378  1.00  0.00     0.211 HD
ENDBRANCH  15  20
ENDBRANCH   8   9
ENDBRANCH   7   8
ENDBRANCH   1   7
BRANCH   2  22
ATOM     22  O   UNL     1      14.303  28.855  48.155  1.00  0.00    -0.387 OA
ATOM     23  H   UNL     1      13.820  29.313  48.893  1.00  0.00     0.211 HD
ENDBRANCH   2  22
BRANCH   3  24
ATOM     24  O   UNL     1      15.596  26.110  46.975  1.00  0.00    -0.387 OA
ATOM     25  H   UNL     1      16.304  26.335  47.619  1.00  0.00     0.211 HD
ENDBRANCH   3  24
BRANCH   5  26
ATOM     26  O   UNL     1      15.048  23.953  49.702  1.00  0.00    -0.454 OA
BRANCH  26  27
ATOM     27  C   UNL     1      15.009  22.659  50.246  1.00  0.00     0.214 A 
ATOM     28  C   UNL     1      15.961  21.719  49.808  1.00  0.00     0.180 A 
ATOM     29  C   UNL     1      14.763  22.587  51.617  1.00  0.00     0.239 A 
ATOM     30  O   UNL     1      17.056  21.611  50.554  1.00  0.00    -0.452 OA
ATOM     31  C   UNL     1      15.839  22.269  52.486  1.00  0.00     0.111 A 
ATOM     32  O   UNL     1      13.645  22.965  52.048  1.00  0.00    -0.285 OA
ATOM     33  C   UNL     1      17.072  21.964  51.847  1.00  0.00     0.146 A 
ATOM     34  C   UNL     1      15.834  22.381  53.914  1.00  0.00     0.134 A 
ATOM     35  C   UNL     1      18.272  21.943  52.558  1.00  0.00     0.094 A 
ATOM     36  C   UNL     1      17.033  22.316  54.597  1.00  0.00     0.093 A 
ATOM     37  C   UNL     1      18.248  22.136  53.933  1.00  0.00     0.123 A 
BRANCH  28  38
ATOM     38  C   UNL     1      15.662  20.588  48.901  1.00  0.00     0.025 A 
ATOM     39  C   UNL     1      14.546  20.650  48.059  1.00  0.00     0.062 A 
ATOM     40  C   UNL     1      16.667  19.657  48.606  1.00  0.00     0.016 A 
ATOM     41  C   UNL     1      14.433  19.812  46.932  1.00  0.00     0.158 A 
ATOM     42  C   UNL     1      16.550  18.789  47.519  1.00  0.00     0.051 A 
ATOM     43  C   UNL     1      15.437  18.868  46.678  1.00  0.00     0.157 A 
BRANCH  41  44
ATOM     44  O   UNL     1      13.355  19.937  46.046  1.00  0.00    -0.504 OA
ATOM     45  H   UNL     1      12.510  19.389  46.193  1.00  0.00     0.293 HD
ENDBRANCH  41  44
BRANCH  43  46
ATOM     46  O   UNL     1      15.361  17.995  45.599  1.00  0.00    -0.504 OA
ATOM     47  H   UNL     1      16.011  18.024  44.837  1.00  0.00     0.293 HD
ENDBRANCH  43  46
ENDBRANCH  28  38
BRANCH  34  48
ATOM     48  O   UNL     1      14.668  22.590  54.682  1.00  0.00    -0.507 OA
ATOM     49  H   UNL     1      14.382  23.464  55.128  1.00  0.00     0.293 HD
ENDBRANCH  34  48
BRANCH  37  50
ATOM     50  O   UNL     1      19.448  22.173  54.659  1.00  0.00    -0.508 OA
ATOM     51  H   UNL     1      19.559  22.791  55.446  1.00  0.00     0.293 HD
ENDBRANCH  37  50
ENDBRANCH  26  27
ENDBRANCH   5  26
BRANCH   4  52
ATOM     52  O   UNL     1      12.285  25.342  47.983  1.00  0.00    -0.384 OA
ATOM     53  H   UNL     1      12.103  26.309  47.775  1.00  0.00     0.211 HD
ENDBRANCH   4  52
TORSDOF 16
ENDMDL
MODEL 9
REMARK VINA RESULT:    -5.966      1.996      8.581
REMARK INTER + INTRA:         -12.015
REMARK INTER:                  -9.467
REMARK INTRA:                  -2.549
REMARK UNBOUND:                -2.213
REMARK SMILES C[C@H]1O[C@H](OC[C@@H]2O[C@H](Oc3c(-c4ccc(O)c(O)c4)oc4cc(O)cc(O)c4c3=O)[C@@H](O)[C@H](O)[C@H]2O)[C@@H](O)[C@@H](O)[C@@H]1O
REMARK SMILES IDX 7 1 36 2 34 3 32 4 9 5 8 6 6 7 5 8 4 9 1 10 2 11 42 12 3 13
REMARK SMILES IDX 40 14 38 15 43 16 41 18 39 20 37 22 35 24 10 26 11 27 12 28
REMARK SMILES IDX 30 29 21 30 29 31 31 32 22 33 27 34 23 35 26 36 24 37 13 38
REMARK SMILES IDX 20 39 14 40 18 41 15 42 16 43 19 44 17 46 28 48 25 50 33 52
REMARK H PARENT 43 17 41 19 39 21 37 23 35 25 19 45 17 47 28 49 25 51 33 53
REMARK Flexibility Score: inf
ROOT
ATOM      1  C   UNL     1      14.579  26.586  49.921  1.00  0.00     0.180 C 
ATOM      2  C   UNL     1      15.150  26.589  48.491  1.00  0.00     0.177 C 
ATOM      3  C   UNL     1      14.045  26.270  47.448  1.00  0.00     0.180 C 
ATOM      4  C   UNL     1      12.721  25.757  48.084  1.00  0.00     0.214 C 
ATOM      5  C   UNL     1      12.957  24.961  49.406  1.00  0.00     0.339 C 
ATOM      6  O   UNL     1      14.078  25.295  50.207  1.00  0.00    -0.332 OA
ENDROOT
BRANCH   1   7
ATOM      7  C   UNL     1      15.613  26.987  50.994  1.00  0.00     0.198 C 
BRANCH   7   8
ATOM      8  O   UNL     1      15.303  26.394  52.258  1.00  0.00    -0.347 OA
BRANCH   8   9
ATOM      9  C   UNL     1      15.465  27.341  53.301  1.00  0.00     0.281 C 
ATOM     10  C   UNL     1      19.103  27.530  53.801  1.00  0.00     0.041 C 
ATOM     11  C   UNL     1      17.720  27.995  53.320  1.00  0.00     0.150 C 
ATOM     12  C   UNL     1      17.483  29.483  53.657  1.00  0.00     0.174 C 
ATOM     13  O   UNL     1      16.732  27.197  53.951  1.00  0.00    -0.344 OA
ATOM     14  C   UNL     1      15.975  29.844  53.492  1.00  0.00     0.179 C 
ATOM     15  C   UNL     1      15.193  28.763  52.737  1.00  0.00     0.202 C 
BRANCH  12  16
ATOM     16  O   UNL     1      18.280  30.258  52.820  1.00  0.00    -0.388 OA
ATOM     17  H   UNL     1      19.205  29.862  52.846  1.00  0.00     0.211 HD
ENDBRANCH  12  16
BRANCH  14  18
ATOM     18  O   UNL     1      15.431  30.056  54.783  1.00  0.00    -0.387 OA
ATOM     19  H   UNL     1      16.121  30.544  55.312  1.00  0.00     0.211 HD
ENDBRANCH  14  18
BRANCH  15  20
ATOM     20  O   UNL     1      13.803  29.023  52.663  1.00  0.00    -0.385 OA
ATOM     21  H   UNL     1      13.558  29.091  51.697  1.00  0.00     0.211 HD
ENDBRANCH  15  20
ENDBRANCH   8   9
ENDBRANCH   7   8
ENDBRANCH   1   7
BRANCH   2  22
ATOM     22  O   UNL     1      15.816  27.789  48.183  1.00  0.00    -0.387 OA
ATOM     23  H   UNL     1      16.199  28.104  49.044  1.00  0.00     0.211 HD
ENDBRANCH   2  22
BRANCH   3  24
ATOM     24  O   UNL     1      14.500  25.319  46.519  1.00  0.00    -0.387 OA
ATOM     25  H   UNL     1      13.761  25.158  45.893  1.00  0.00     0.211 HD
ENDBRANCH   3  24
BRANCH   5  26
ATOM     26  O   UNL     1      12.953  23.564  49.149  1.00  0.00    -0.454 OA
BRANCH  26  27
ATOM     27  C   UNL     1      14.007  22.733  48.738  1.00  0.00     0.214 A 
ATOM     28  C   UNL     1      14.662  21.951  49.709  1.00  0.00     0.180 A 
ATOM     29  C   UNL     1      13.808  22.054  47.536  1.00  0.00     0.239 A 
ATOM     30  O   UNL     1      14.214  20.708  49.852  1.00  0.00    -0.452 OA
ATOM     31  C   UNL     1      13.526  20.664  47.577  1.00  0.00     0.111 A 
ATOM     32  O   UNL     1      13.722  22.722  46.476  1.00  0.00    -0.285 OA
ATOM     33  C   UNL     1      13.561  20.071  48.869  1.00  0.00     0.146 A 
ATOM     34  C   UNL     1      13.066  19.861  46.483  1.00  0.00     0.134 A 
ATOM     35  C   UNL     1      13.007  18.813  49.105  1.00  0.00     0.094 A 
ATOM     36  C   UNL     1      12.560  18.602  46.741  1.00  0.00     0.093 A 
ATOM     37  C   UNL     1      12.493  18.088  48.037  1.00  0.00     0.123 A 
BRANCH  28  38
ATOM     38  C   UNL     1      16.019  22.231  50.231  1.00  0.00     0.025 A 
ATOM     39  C   UNL     1      16.226  23.333  51.068  1.00  0.00     0.062 A 
ATOM     40  C   UNL     1      16.986  21.217  50.214  1.00  0.00     0.016 A 
ATOM     41  C   UNL     1      17.369  23.424  51.887  1.00  0.00     0.158 A 
ATOM     42  C   UNL     1      18.146  21.313  50.984  1.00  0.00     0.051 A 
ATOM     43  C   UNL     1      18.337  22.412  51.825  1.00  0.00     0.157 A 
BRANCH  41  44
ATOM     44  O   UNL     1      17.531  24.488  52.783  1.00  0.00    -0.504 OA
ATOM     45  H   UNL     1      18.211  25.219  52.587  1.00  0.00     0.293 HD
ENDBRANCH  41  44
BRANCH  43  46
ATOM     46  O   UNL     1      19.499  22.467  52.587  1.00  0.00    -0.504 OA
ATOM     47  H   UNL     1      20.283  23.035  52.332  1.00  0.00     0.293 HD
ENDBRANCH  43  46
ENDBRANCH  28  38
BRANCH  34  48
ATOM     48  O   UNL     1      13.064  20.292  45.139  1.00  0.00    -0.507 OA
ATOM     49  H   UNL     1      13.199  21.249  44.807  1.00  0.00     0.293 HD
ENDBRANCH  34  48
BRANCH  37  50
ATOM     50  O   UNL     1      11.883  16.844  48.260  1.00  0.00    -0.508 OA
ATOM     51  H   UNL     1      11.689  16.521  49.194  1.00  0.00     0.293 HD
ENDBRANCH  37  50
ENDBRANCH  26  27
ENDBRANCH   5  26
BRANCH   4  52
ATOM     52  O   UNL     1      11.877  26.841  48.356  1.00  0.00    -0.384 OA
ATOM     53  H   UNL     1      11.215  26.532  49.047  1.00  0.00     0.211 HD
ENDBRANCH   4  52
TORSDOF 16
ENDMDL
