MODEL 1
REMARK VINA RESULT:    -4.506      0.000      0.000
REMARK INTER + INTRA:         -10.271
REMARK INTER:                  -8.456
REMARK INTRA:                  -1.815
REMARK UNBOUND:                -1.815
REMARK SMILES O=C([O-])CCCCCCCCCCCCCCC(=O)[O-]
REMARK SMILES IDX 10 1 9 2 8 3 7 4 6 5 5 6 4 7 2 8 1 9 3 10 11 11 12 12 13 13
REMARK SMILES IDX 14 14 15 15 16 16 17 17 18 18 19 19 20 20
REMARK H PARENT
REMARK Flexibility Score: inf
ROOT
ATOM      1  C   UNL     1      99.885  83.638  81.904  1.00  0.00     0.000 C 
ENDROOT
BRANCH   1   2
ATOM      2  C   UNL     1      98.426  83.249  82.183  1.00  0.00     0.000 C 
BRANCH   2   3
ATOM      3  C   UNL     1      97.445  84.407  81.940  1.00  0.00     0.000 C 
BRANCH   3   4
ATOM      4  C   UNL     1      97.975  85.425  80.915  1.00  0.00     0.000 C 
BRANCH   4   5
ATOM      5  C   UNL     1      96.848  86.102  80.119  1.00  0.00     0.000 C 
BRANCH   5   6
ATOM      6  C   UNL     1      95.468  85.482  80.398  1.00  0.00     0.006 C 
BRANCH   6   7
ATOM      7  C   UNL     1      94.881  84.793  79.159  1.00  0.00     0.053 C 
BRANCH   7   8
ATOM      8  C   UNL     1      93.455  84.385  79.374  1.00  0.00     0.041 C 
ATOM      9  O   UNL     1      92.533  84.937  78.717  1.00  0.00    -0.550 OA
ATOM     10  O   UNL     1      93.142  83.420  80.323  1.00  0.00    -0.550 OA
ENDBRANCH   7   8
ENDBRANCH   6   7
ENDBRANCH   5   6
ENDBRANCH   4   5
ENDBRANCH   3   4
ENDBRANCH   2   3
ENDBRANCH   1   2
BRANCH   1  11
ATOM     11  C   UNL     1     100.668  83.807  83.211  1.00  0.00     0.000 C 
BRANCH  11  12
ATOM     12  C   UNL     1     101.845  84.773  83.030  1.00  0.00     0.000 C 
BRANCH  12  13
ATOM     13  C   UNL     1     101.608  86.080  83.802  1.00  0.00     0.000 C 
BRANCH  13  14
ATOM     14  C   UNL     1     100.548  86.976  83.141  1.00  0.00     0.000 C 
BRANCH  14  15
ATOM     15  C   UNL     1      99.263  87.088  83.979  1.00  0.00     0.000 C 
BRANCH  15  16
ATOM     16  C   UNL     1      99.484  86.707  85.452  1.00  0.00     0.006 C 
BRANCH  16  17
ATOM     17  C   UNL     1      98.741  85.424  85.849  1.00  0.00     0.053 C 
BRANCH  17  18
ATOM     18  C   UNL     1      99.449  84.740  86.975  1.00  0.00     0.041 C 
ATOM     19  O   UNL     1     100.306  83.849  86.738  1.00  0.00    -0.550 OA
ATOM     20  O   UNL     1      99.126  85.050  88.290  1.00  0.00    -0.550 OA
ENDBRANCH  17  18
ENDBRANCH  16  17
ENDBRANCH  15  16
ENDBRANCH  14  15
ENDBRANCH  13  14
ENDBRANCH  12  13
ENDBRANCH  11  12
ENDBRANCH   1  11
TORSDOF 15
ENDMDL
MODEL 2
REMARK VINA RESULT:    -4.468      1.817      8.332
REMARK INTER + INTRA:         -10.201
REMARK INTER:                  -8.897
REMARK INTRA:                  -1.304
REMARK UNBOUND:                -1.815
REMARK SMILES O=C([O-])CCCCCCCCCCCCCCC(=O)[O-]
REMARK SMILES IDX 10 1 9 2 8 3 7 4 6 5 5 6 4 7 2 8 1 9 3 10 11 11 12 12 13 13
REMARK SMILES IDX 14 14 15 15 16 16 17 17 18 18 19 19 20 20
REMARK H PARENT
REMARK Flexibility Score: inf
ROOT
ATOM      1  C   UNL     1      97.485  86.305  80.877  1.00  0.00     0.000 C 
ENDROOT
BRANCH   1   2
ATOM      2  C   UNL     1      97.132  85.265  81.951  1.00  0.00     0.000 C 
BRANCH   2   3
ATOM      3  C   UNL     1      97.527  83.835  81.546  1.00  0.00     0.000 C 
BRANCH   3   4
ATOM      4  C   UNL     1      98.627  83.249  82.446  1.00  0.00     0.000 C 
BRANCH   4   5
ATOM      5  C   UNL     1     100.033  83.730  82.048  1.00  0.00     0.000 C 
BRANCH   5   6
ATOM      6  C   UNL     1     100.831  84.285  83.240  1.00  0.00     0.006 C 
BRANCH   6   7
ATOM      7  C   UNL     1      99.923  84.680  84.412  1.00  0.00     0.053 C 
BRANCH   7   8
ATOM      8  C   UNL     1     100.643  84.596  85.724  1.00  0.00     0.041 C 
ATOM      9  O   UNL     1     100.661  83.513  86.366  1.00  0.00    -0.550 OA
ATOM     10  O   UNL     1     101.262  85.721  86.253  1.00  0.00    -0.550 OA
ENDBRANCH   7   8
ENDBRANCH   6   7
ENDBRANCH   5   6
ENDBRANCH   4   5
ENDBRANCH   3   4
ENDBRANCH   2   3
ENDBRANCH   1   2
BRANCH   1  11
ATOM     11  C   UNL     1      96.227  87.021  80.372  1.00  0.00     0.000 C 
BRANCH  11  12
ATOM     12  C   UNL     1      95.774  86.455  79.020  1.00  0.00     0.000 C 
BRANCH  12  13
ATOM     13  C   UNL     1      94.419  85.743  79.149  1.00  0.00     0.000 C 
BRANCH  13  14
ATOM     14  C   UNL     1      94.561  84.250  79.485  1.00  0.00     0.000 C 
BRANCH  14  15
ATOM     15  C   UNL     1      93.220  83.599  79.865  1.00  0.00     0.000 C 
BRANCH  15  16
ATOM     16  C   UNL     1      92.433  84.428  80.893  1.00  0.00     0.006 C 
BRANCH  16  17
ATOM     17  C   UNL     1      90.947  84.048  80.946  1.00  0.00     0.053 C 
BRANCH  17  18
ATOM     18  C   UNL     1      90.206  84.684  79.812  1.00  0.00     0.041 C 
ATOM     19  O   UNL     1      90.544  85.821  79.392  1.00  0.00    -0.550 OA
ATOM     20  O   UNL     1      89.109  84.041  79.251  1.00  0.00    -0.550 OA
ENDBRANCH  17  18
ENDBRANCH  16  17
ENDBRANCH  15  16
ENDBRANCH  14  15
ENDBRANCH  13  14
ENDBRANCH  12  13
ENDBRANCH  11  12
ENDBRANCH   1  11
TORSDOF 15
ENDMDL
MODEL 3
REMARK VINA RESULT:    -4.439      1.956      3.305
REMARK INTER + INTRA:         -10.147
REMARK INTER:                  -8.490
REMARK INTRA:                  -1.657
REMARK UNBOUND:                -1.815
REMARK SMILES O=C([O-])CCCCCCCCCCCCCCC(=O)[O-]
REMARK SMILES IDX 10 1 9 2 8 3 7 4 6 5 5 6 4 7 2 8 1 9 3 10 11 11 12 12 13 13
REMARK SMILES IDX 14 14 15 15 16 16 17 17 18 18 19 19 20 20
REMARK H PARENT
REMARK Flexibility Score: inf
ROOT
ATOM      1  C   UNL     1      97.193  86.256  82.939  1.00  0.00     0.000 C 
ENDROOT
BRANCH   1   2
ATOM      2  C   UNL     1      98.259  87.021  82.141  1.00  0.00     0.000 C 
BRANCH   2   3
ATOM      3  C   UNL     1      98.003  86.990  80.625  1.00  0.00     0.000 C 
BRANCH   3   4
ATOM      4  C   UNL     1      96.506  87.047  80.278  1.00  0.00     0.000 C 
BRANCH   4   5
ATOM      5  C   UNL     1      96.043  85.829  79.463  1.00  0.00     0.000 C 
BRANCH   5   6
ATOM      6  C   UNL     1      95.063  84.932  80.238  1.00  0.00     0.006 C 
BRANCH   6   7
ATOM      7  C   UNL     1      94.199  84.074  79.303  1.00  0.00     0.053 C 
BRANCH   7   8
ATOM      8  C   UNL     1      92.738  84.345  79.494  1.00  0.00     0.041 C 
ATOM      9  O   UNL     1      92.115  83.812  80.450  1.00  0.00    -0.550 OA
ATOM     10  O   UNL     1      92.056  85.159  78.598  1.00  0.00    -0.550 OA
ENDBRANCH   7   8
ENDBRANCH   6   7
ENDBRANCH   5   6
ENDBRANCH   4   5
ENDBRANCH   3   4
ENDBRANCH   2   3
ENDBRANCH   1   2
BRANCH   1  11
ATOM     11  C   UNL     1      97.750  84.928  83.465  1.00  0.00     0.000 C 
BRANCH  11  12
ATOM     12  C   UNL     1      97.767  83.861  82.363  1.00  0.00     0.000 C 
BRANCH  12  13
ATOM     13  C   UNL     1      99.205  83.556  81.916  1.00  0.00     0.000 C 
BRANCH  13  14
ATOM     14  C   UNL     1     100.237  83.797  83.029  1.00  0.00     0.000 C 
BRANCH  14  15
ATOM     15  C   UNL     1     101.670  83.937  82.486  1.00  0.00     0.000 C 
BRANCH  15  16
ATOM     16  C   UNL     1     102.433  85.105  83.131  1.00  0.00     0.006 C 
BRANCH  16  17
ATOM     17  C   UNL     1     101.562  85.921  84.095  1.00  0.00     0.053 C 
BRANCH  17  18
ATOM     18  C   UNL     1     102.414  86.814  84.941  1.00  0.00     0.041 C 
ATOM     19  O   UNL     1     103.552  87.171  84.538  1.00  0.00    -0.550 OA
ATOM     20  O   UNL     1     101.973  87.211  86.197  1.00  0.00    -0.550 OA
ENDBRANCH  17  18
ENDBRANCH  16  17
ENDBRANCH  15  16
ENDBRANCH  14  15
ENDBRANCH  13  14
ENDBRANCH  12  13
ENDBRANCH  11  12
ENDBRANCH   1  11
TORSDOF 15
ENDMDL
MODEL 4
REMARK VINA RESULT:    -4.401      2.250      4.690
REMARK INTER + INTRA:         -10.075
REMARK INTER:                  -8.766
REMARK INTRA:                  -1.309
REMARK UNBOUND:                -1.815
REMARK SMILES O=C([O-])CCCCCCCCCCCCCCC(=O)[O-]
REMARK SMILES IDX 10 1 9 2 8 3 7 4 6 5 5 6 4 7 2 8 1 9 3 10 11 11 12 12 13 13
REMARK SMILES IDX 14 14 15 15 16 16 17 17 18 18 19 19 20 20
REMARK H PARENT
REMARK Flexibility Score: inf
ROOT
ATOM      1  C   UNL     1      95.169  86.336  79.089  1.00  0.00     0.000 C 
ENDROOT
BRANCH   1   2
ATOM      2  C   UNL     1      93.765  85.717  79.157  1.00  0.00     0.000 C 
BRANCH   2   3
ATOM      3  C   UNL     1      93.786  84.184  79.041  1.00  0.00     0.000 C 
BRANCH   3   4
ATOM      4  C   UNL     1      93.021  83.495  80.185  1.00  0.00     0.000 C 
BRANCH   4   5
ATOM      5  C   UNL     1      92.137  84.473  80.975  1.00  0.00     0.000 C 
BRANCH   5   6
ATOM      6  C   UNL     1      90.661  84.043  81.013  1.00  0.00     0.006 C 
BRANCH   6   7
ATOM      7  C   UNL     1      89.924  84.381  79.710  1.00  0.00     0.053 C 
BRANCH   7   8
ATOM      8  C   UNL     1      89.801  85.861  79.510  1.00  0.00     0.041 C 
ATOM      9  O   UNL     1      90.323  86.408  78.503  1.00  0.00    -0.550 OA
ATOM     10  O   UNL     1      89.141  86.639  80.452  1.00  0.00    -0.550 OA
ENDBRANCH   7   8
ENDBRANCH   6   7
ENDBRANCH   5   6
ENDBRANCH   4   5
ENDBRANCH   3   4
ENDBRANCH   2   3
ENDBRANCH   1   2
BRANCH   1  11
ATOM     11  C   UNL     1      96.163  85.536  79.939  1.00  0.00     0.000 C 
BRANCH  11  12
ATOM     12  C   UNL     1      97.448  86.337  80.186  1.00  0.00     0.000 C 
BRANCH  12  13
ATOM     13  C   UNL     1      98.268  85.720  81.330  1.00  0.00     0.000 C 
BRANCH  13  14
ATOM     14  C   UNL     1      97.642  84.428  81.880  1.00  0.00     0.000 C 
BRANCH  14  15
ATOM     15  C   UNL     1      98.691  83.340  82.168  1.00  0.00     0.000 C 
BRANCH  15  16
ATOM     16  C   UNL     1     100.121  83.900  82.225  1.00  0.00     0.006 C 
BRANCH  16  17
ATOM     17  C   UNL     1     100.672  83.974  83.656  1.00  0.00     0.053 C 
BRANCH  17  18
ATOM     18  C   UNL     1     100.624  85.381  84.161  1.00  0.00     0.041 C 
ATOM     19  O   UNL     1      99.592  85.813  84.739  1.00  0.00    -0.550 OA
ATOM     20  O   UNL     1     101.700  86.233  83.950  1.00  0.00    -0.550 OA
ENDBRANCH  17  18
ENDBRANCH  16  17
ENDBRANCH  15  16
ENDBRANCH  14  15
ENDBRANCH  13  14
ENDBRANCH  12  13
ENDBRANCH  11  12
ENDBRANCH   1  11
TORSDOF 15
ENDMDL
MODEL 5
REMARK VINA RESULT:    -4.390      1.143      7.049
REMARK INTER + INTRA:         -10.054
REMARK INTER:                  -7.893
REMARK INTRA:                  -2.161
REMARK UNBOUND:                -1.815
REMARK SMILES O=C([O-])CCCCCCCCCCCCCCC(=O)[O-]
REMARK SMILES IDX 10 1 9 2 8 3 7 4 6 5 5 6 4 7 2 8 1 9 3 10 11 11 12 12 13 13
REMARK SMILES IDX 14 14 15 15 16 16 17 17 18 18 19 19 20 20
REMARK H PARENT
REMARK Flexibility Score: inf
ROOT
ATOM      1  C   UNL     1     101.789  84.736  83.067  1.00  0.00     0.000 C 
ENDROOT
BRANCH   1   2
ATOM      2  C   UNL     1     101.540  85.949  83.976  1.00  0.00     0.000 C 
BRANCH   2   3
ATOM      3  C   UNL     1     100.518  86.934  83.384  1.00  0.00     0.000 C 
BRANCH   3   4
ATOM      4  C   UNL     1      99.436  87.342  84.399  1.00  0.00     0.000 C 
BRANCH   4   5
ATOM      5  C   UNL     1      98.212  86.412  84.360  1.00  0.00     0.000 C 
BRANCH   5   6
ATOM      6  C   UNL     1      98.130  85.484  85.584  1.00  0.00     0.006 C 
BRANCH   6   7
ATOM      7  C   UNL     1      98.899  86.044  86.788  1.00  0.00     0.053 C 
BRANCH   7   8
ATOM      8  C   UNL     1      99.688  84.978  87.486  1.00  0.00     0.041 C 
ATOM      9  O   UNL     1      99.831  85.015  88.737  1.00  0.00    -0.550 OA
ATOM     10  O   UNL     1     100.292  83.965  86.754  1.00  0.00    -0.550 OA
ENDBRANCH   7   8
ENDBRANCH   6   7
ENDBRANCH   5   6
ENDBRANCH   4   5
ENDBRANCH   3   4
ENDBRANCH   2   3
ENDBRANCH   1   2
BRANCH   1  11
ATOM     11  C   UNL     1     100.639  83.728  83.170  1.00  0.00     0.000 C 
BRANCH  11  12
ATOM     12  C   UNL     1      99.843  83.662  81.861  1.00  0.00     0.000 C 
BRANCH  12  13
ATOM     13  C   UNL     1      98.376  83.292  82.127  1.00  0.00     0.000 C 
BRANCH  13  14
ATOM     14  C   UNL     1      97.390  84.332  81.569  1.00  0.00     0.000 C 
BRANCH  14  15
ATOM     15  C   UNL     1      98.101  85.514  80.888  1.00  0.00     0.000 C 
BRANCH  15  16
ATOM     16  C   UNL     1      97.116  86.503  80.244  1.00  0.00     0.006 C 
BRANCH  16  17
ATOM     17  C   UNL     1      95.677  85.972  80.218  1.00  0.00     0.053 C 
BRANCH  17  18
ATOM     18  C   UNL     1      95.020  86.309  78.916  1.00  0.00     0.041 C 
ATOM     19  O   UNL     1      95.707  86.735  77.951  1.00  0.00    -0.550 OA
ATOM     20  O   UNL     1      93.642  86.202  78.785  1.00  0.00    -0.550 OA
ENDBRANCH  17  18
ENDBRANCH  16  17
ENDBRANCH  15  16
ENDBRANCH  14  15
ENDBRANCH  13  14
ENDBRANCH  12  13
ENDBRANCH  11  12
ENDBRANCH   1  11
TORSDOF 15
ENDMDL
MODEL 6
REMARK VINA RESULT:    -4.377      1.220      2.417
REMARK INTER + INTRA:         -10.031
REMARK INTER:                  -8.764
REMARK INTRA:                  -1.266
REMARK UNBOUND:                -1.815
REMARK SMILES O=C([O-])CCCCCCCCCCCCCCC(=O)[O-]
REMARK SMILES IDX 10 1 9 2 8 3 7 4 6 5 5 6 4 7 2 8 1 9 3 10 11 11 12 12 13 13
REMARK SMILES IDX 14 14 15 15 16 16 17 17 18 18 19 19 20 20
REMARK H PARENT
REMARK Flexibility Score: inf
ROOT
ATOM      1  C   UNL     1      97.654  84.497  82.878  1.00  0.00     0.000 C 
ENDROOT
BRANCH   1   2
ATOM      2  C   UNL     1      97.315  85.786  82.115  1.00  0.00     0.000 C 
BRANCH   2   3
ATOM      3  C   UNL     1      96.766  85.514  80.705  1.00  0.00     0.000 C 
BRANCH   3   4
ATOM      4  C   UNL     1      95.259  85.204  80.708  1.00  0.00     0.000 C 
BRANCH   4   5
ATOM      5  C   UNL     1      94.823  84.388  79.480  1.00  0.00     0.000 C 
BRANCH   5   6
ATOM      6  C   UNL     1      93.553  83.561  79.736  1.00  0.00     0.006 C 
BRANCH   6   7
ATOM      7  C   UNL     1      92.590  84.262  80.704  1.00  0.00     0.053 C 
BRANCH   7   8
ATOM      8  C   UNL     1      91.476  84.952  79.976  1.00  0.00     0.041 C 
ATOM      9  O   UNL     1      91.348  84.805  78.732  1.00  0.00    -0.550 OA
ATOM     10  O   UNL     1      90.602  85.782  80.666  1.00  0.00    -0.550 OA
ENDBRANCH   7   8
ENDBRANCH   6   7
ENDBRANCH   5   6
ENDBRANCH   4   5
ENDBRANCH   3   4
ENDBRANCH   2   3
ENDBRANCH   1   2
BRANCH   1  11
ATOM     11  C   UNL     1      98.245  83.441  81.937  1.00  0.00     0.000 C 
BRANCH  11  12
ATOM     12  C   UNL     1      99.750  83.664  81.732  1.00  0.00     0.000 C 
BRANCH  12  13
ATOM     13  C   UNL     1     100.468  83.833  83.080  1.00  0.00     0.000 C 
BRANCH  13  14
ATOM     14  C   UNL     1     101.842  84.509  82.940  1.00  0.00     0.000 C 
BRANCH  14  15
ATOM     15  C   UNL     1     102.094  85.564  84.030  1.00  0.00     0.000 C 
BRANCH  15  16
ATOM     16  C   UNL     1     100.791  86.127  84.620  1.00  0.00     0.006 C 
BRANCH  16  17
ATOM     17  C   UNL     1     100.739  86.016  86.149  1.00  0.00     0.053 C 
BRANCH  17  18
ATOM     18  C   UNL     1     100.028  84.764  86.558  1.00  0.00     0.041 C 
ATOM     19  O   UNL     1     100.665  83.686  86.685  1.00  0.00    -0.550 OA
ATOM     20  O   UNL     1      98.652  84.777  86.749  1.00  0.00    -0.550 OA
ENDBRANCH  17  18
ENDBRANCH  16  17
ENDBRANCH  15  16
ENDBRANCH  14  15
ENDBRANCH  13  14
ENDBRANCH  12  13
ENDBRANCH  11  12
ENDBRANCH   1  11
TORSDOF 15
ENDMDL
MODEL 7
REMARK VINA RESULT:    -4.377      1.213      7.804
REMARK INTER + INTRA:         -10.030
REMARK INTER:                  -8.604
REMARK INTRA:                  -1.426
REMARK UNBOUND:                -1.815
REMARK SMILES O=C([O-])CCCCCCCCCCCCCCC(=O)[O-]
REMARK SMILES IDX 10 1 9 2 8 3 7 4 6 5 5 6 4 7 2 8 1 9 3 10 11 11 12 12 13 13
REMARK SMILES IDX 14 14 15 15 16 16 17 17 18 18 19 19 20 20
REMARK H PARENT
REMARK Flexibility Score: inf
ROOT
ATOM      1  C   UNL     1      98.206  83.315  81.867  1.00  0.00     0.000 C 
ENDROOT
BRANCH   1   2
ATOM      2  C   UNL     1      99.701  83.645  81.749  1.00  0.00     0.000 C 
BRANCH   2   3
ATOM      3  C   UNL     1     100.398  83.739  83.117  1.00  0.00     0.000 C 
BRANCH   3   4
ATOM      4  C   UNL     1     101.358  84.938  83.209  1.00  0.00     0.000 C 
BRANCH   4   5
ATOM      5  C   UNL     1     100.636  86.242  83.589  1.00  0.00     0.000 C 
BRANCH   5   6
ATOM      6  C   UNL     1      99.800  86.107  84.873  1.00  0.00     0.006 C 
BRANCH   6   7
ATOM      7  C   UNL     1     100.677  86.037  86.131  1.00  0.00     0.053 C 
BRANCH   7   8
ATOM      8  C   UNL     1     100.350  84.838  86.969  1.00  0.00     0.041 C 
ATOM      9  O   UNL     1     100.888  83.727  86.721  1.00  0.00    -0.550 OA
ATOM     10  O   UNL     1      99.426  84.941  88.001  1.00  0.00    -0.550 OA
ENDBRANCH   7   8
ENDBRANCH   6   7
ENDBRANCH   5   6
ENDBRANCH   4   5
ENDBRANCH   3   4
ENDBRANCH   2   3
ENDBRANCH   1   2
BRANCH   1  11
ATOM     11  C   UNL     1      97.372  84.592  82.017  1.00  0.00     0.000 C 
BRANCH  11  12
ATOM     12  C   UNL     1      97.688  85.593  80.898  1.00  0.00     0.000 C 
BRANCH  12  13
ATOM     13  C   UNL     1      96.436  85.894  80.061  1.00  0.00     0.000 C 
BRANCH  13  14
ATOM     14  C   UNL     1      95.220  85.054  80.486  1.00  0.00     0.000 C 
BRANCH  14  15
ATOM     15  C   UNL     1      94.740  84.104  79.376  1.00  0.00     0.000 C 
BRANCH  15  16
ATOM     16  C   UNL     1      93.213  83.927  79.370  1.00  0.00     0.006 C 
BRANCH  16  17
ATOM     17  C   UNL     1      92.562  84.374  80.685  1.00  0.00     0.053 C 
BRANCH  17  18
ATOM     18  C   UNL     1      91.423  85.307  80.413  1.00  0.00     0.041 C 
ATOM     19  O   UNL     1      90.351  85.206  81.064  1.00  0.00    -0.550 OA
ATOM     20  O   UNL     1      91.529  86.256  79.404  1.00  0.00    -0.550 OA
ENDBRANCH  17  18
ENDBRANCH  16  17
ENDBRANCH  15  16
ENDBRANCH  14  15
ENDBRANCH  13  14
ENDBRANCH  12  13
ENDBRANCH  11  12
ENDBRANCH   1  11
TORSDOF 15
ENDMDL
MODEL 8
REMARK VINA RESULT:    -4.322      1.082      6.819
REMARK INTER + INTRA:          -9.926
REMARK INTER:                  -7.810
REMARK INTRA:                  -2.116
REMARK UNBOUND:                -1.815
REMARK SMILES O=C([O-])CCCCCCCCCCCCCCC(=O)[O-]
REMARK SMILES IDX 10 1 9 2 8 3 7 4 6 5 5 6 4 7 2 8 1 9 3 10 11 11 12 12 13 13
REMARK SMILES IDX 14 14 15 15 16 16 17 17 18 18 19 19 20 20
REMARK H PARENT
REMARK Flexibility Score: inf
ROOT
ATOM      1  C   UNL     1     100.077  83.614  83.132  1.00  0.00     0.000 C 
ENDROOT
BRANCH   1   2
ATOM      2  C   UNL     1     101.462  84.043  82.627  1.00  0.00     0.000 C 
BRANCH   2   3
ATOM      3  C   UNL     1     102.057  85.204  83.442  1.00  0.00     0.000 C 
BRANCH   3   4
ATOM      4  C   UNL     1     101.042  86.331  83.693  1.00  0.00     0.000 C 
BRANCH   4   5
ATOM      5  C   UNL     1     100.874  86.651  85.188  1.00  0.00     0.000 C 
BRANCH   5   6
ATOM      6  C   UNL     1      99.403  86.644  85.637  1.00  0.00     0.006 C 
BRANCH   6   7
ATOM      7  C   UNL     1      98.903  85.230  85.961  1.00  0.00     0.053 C 
BRANCH   7   8
ATOM      8  C   UNL     1      99.791  84.541  86.954  1.00  0.00     0.041 C 
ATOM      9  O   UNL     1      99.802  84.914  88.157  1.00  0.00    -0.550 OA
ATOM     10  O   UNL     1     100.629  83.513  86.543  1.00  0.00    -0.550 OA
ENDBRANCH   7   8
ENDBRANCH   6   7
ENDBRANCH   5   6
ENDBRANCH   4   5
ENDBRANCH   3   4
ENDBRANCH   2   3
ENDBRANCH   1   2
BRANCH   1  11
ATOM     11  C   UNL     1      99.048  83.635  81.995  1.00  0.00     0.000 C 
BRANCH  11  12
ATOM     12  C   UNL     1      97.672  84.085  82.504  1.00  0.00     0.000 C 
BRANCH  12  13
ATOM     13  C   UNL     1      97.545  85.615  82.467  1.00  0.00     0.000 C 
BRANCH  13  14
ATOM     14  C   UNL     1      98.232  86.238  81.240  1.00  0.00     0.000 C 
BRANCH  14  15
ATOM     15  C   UNL     1      97.343  86.205  79.985  1.00  0.00     0.000 C 
BRANCH  15  16
ATOM     16  C   UNL     1      95.883  86.579  80.286  1.00  0.00     0.006 C 
BRANCH  16  17
ATOM     17  C   UNL     1      94.882  85.570  79.707  1.00  0.00     0.053 C 
BRANCH  17  18
ATOM     18  C   UNL     1      93.889  85.164  80.750  1.00  0.00     0.041 C 
ATOM     19  O   UNL     1      92.976  84.343  80.470  1.00  0.00    -0.550 OA
ATOM     20  O   UNL     1      93.941  85.729  82.018  1.00  0.00    -0.550 OA
ENDBRANCH  17  18
ENDBRANCH  16  17
ENDBRANCH  15  16
ENDBRANCH  14  15
ENDBRANCH  13  14
ENDBRANCH  12  13
ENDBRANCH  11  12
ENDBRANCH   1  11
TORSDOF 15
ENDMDL
MODEL 9
REMARK VINA RESULT:    -4.305      2.545      4.305
REMARK INTER + INTRA:          -9.895
REMARK INTER:                  -8.338
REMARK INTRA:                  -1.557
REMARK UNBOUND:                -1.815
REMARK SMILES O=C([O-])CCCCCCCCCCCCCCC(=O)[O-]
REMARK SMILES IDX 10 1 9 2 8 3 7 4 6 5 5 6 4 7 2 8 1 9 3 10 11 11 12 12 13 13
REMARK SMILES IDX 14 14 15 15 16 16 17 17 18 18 19 19 20 20
REMARK H PARENT
REMARK Flexibility Score: inf
ROOT
ATOM      1  C   UNL     1      96.580  87.146  80.010  1.00  0.00     0.000 C 
ENDROOT
BRANCH   1   2
ATOM      2  C   UNL     1      95.271  86.352  80.134  1.00  0.00     0.000 C 
BRANCH   2   3
ATOM      3  C   UNL     1      95.272  85.069  79.287  1.00  0.00     0.000 C 
BRANCH   3   4
ATOM      4  C   UNL     1      94.369  83.972  79.876  1.00  0.00     0.000 C 
BRANCH   4   5
ATOM      5  C   UNL     1      92.953  84.482  80.193  1.00  0.00     0.000 C 
BRANCH   5   6
ATOM      6  C   UNL     1      92.113  84.728  78.928  1.00  0.00     0.006 C 
BRANCH   6   7
ATOM      7  C   UNL     1      91.029  85.792  79.151  1.00  0.00     0.053 C 
BRANCH   7   8
ATOM      8  C   UNL     1      89.918  85.279  80.015  1.00  0.00     0.041 C 
ATOM      9  O   UNL     1      89.503  85.966  80.986  1.00  0.00    -0.550 OA
ATOM     10  O   UNL     1      89.363  84.029  79.770  1.00  0.00    -0.550 OA
ENDBRANCH   7   8
ENDBRANCH   6   7
ENDBRANCH   5   6
ENDBRANCH   4   5
ENDBRANCH   3   4
ENDBRANCH   2   3
ENDBRANCH   1   2
BRANCH   1  11
ATOM     11  C   UNL     1      97.686  86.517  80.865  1.00  0.00     0.000 C 
BRANCH  11  12
ATOM     12  C   UNL     1      97.296  86.502  82.348  1.00  0.00     0.000 C 
BRANCH  12  13
ATOM     13  C   UNL     1      97.515  85.110  82.960  1.00  0.00     0.000 C 
BRANCH  13  14
ATOM     14  C   UNL     1      97.634  84.006  81.897  1.00  0.00     0.000 C 
BRANCH  14  15
ATOM     15  C   UNL     1      99.006  83.310  81.920  1.00  0.00     0.000 C 
BRANCH  15  16
ATOM     16  C   UNL     1      99.868  83.745  83.115  1.00  0.00     0.006 C 
BRANCH  16  17
ATOM     17  C   UNL     1     101.304  84.104  82.709  1.00  0.00     0.053 C 
BRANCH  17  18
ATOM     18  C   UNL     1     101.710  85.406  83.326  1.00  0.00     0.041 C 
ATOM     19  O   UNL     1     102.837  85.524  83.874  1.00  0.00    -0.550 OA
ATOM     20  O   UNL     1     100.823  86.475  83.340  1.00  0.00    -0.550 OA
ENDBRANCH  17  18
ENDBRANCH  16  17
ENDBRANCH  15  16
ENDBRANCH  14  15
ENDBRANCH  13  14
ENDBRANCH  12  13
ENDBRANCH  11  12
ENDBRANCH   1  11
TORSDOF 15
ENDMDL
