MODEL 1
REMARK VINA RESULT:    -4.584      0.000      0.000
REMARK INTER + INTRA:          -7.361
REMARK INTER:                  -6.460
REMARK INTRA:                  -0.901
REMARK UNBOUND:                -0.901
REMARK SMILES OCC1=C[C@H](O)[C@H]2C=CO[C@H](O[C@H]3O[C@@H](CO)[C@H](O)[C@@H](O)[C@@H]3O)[C@@H]12
REMARK SMILES IDX 12 1 11 2 8 3 9 4 7 5 10 6 24 7 5 8 3 9 4 10 6 11 2 13 1 14
REMARK SMILES IDX 13 16 22 17 14 18 20 19 15 20 18 21 23 22 21 24 16 26 17 27
REMARK SMILES IDX 19 29
REMARK H PARENT 6 12 1 15 23 23 21 25 17 28 19 30
REMARK Flexibility Score: inf
ROOT
ATOM      1  O   UNL     1      21.692  29.674  26.923  1.00  0.00    -0.310 OA
ENDROOT
BRANCH   1   2
ATOM      2  C   UNL     1      22.566  28.565  26.794  1.00  0.00     0.316 C 
ATOM      3  C   UNL     1      23.547  25.952  27.348  1.00  0.00     0.018 C 
ATOM      4  C   UNL     1      23.639  26.913  28.268  1.00  0.00     0.186 C 
ATOM      5  C   UNL     1      22.646  26.094  26.146  1.00  0.00     0.061 C 
ATOM      6  O   UNL     1      22.986  28.132  28.088  1.00  0.00    -0.472 OA
ATOM      7  C   UNL     1      21.830  27.409  26.082  1.00  0.00     0.096 C 
ATOM      8  C   UNL     1      23.424  26.054  24.820  1.00  0.00     0.145 C 
ATOM      9  C   UNL     1      21.735  27.659  24.601  1.00  0.00    -0.036 C 
ATOM     10  C   UNL     1      22.617  26.933  23.921  1.00  0.00     0.007 C 
BRANCH   8  11
ATOM     11  O   UNL     1      23.540  24.750  24.311  1.00  0.00    -0.388 OA
ATOM     12  H   UNL     1      23.775  24.146  25.064  1.00  0.00     0.211 HD
ENDBRANCH   8  11
BRANCH   9  13
ATOM     13  C   UNL     1      20.765  28.594  23.919  1.00  0.00     0.187 C 
BRANCH  13  14
ATOM     14  O   UNL     1      19.463  28.081  23.923  1.00  0.00    -0.392 OA
ATOM     15  H   UNL     1      19.353  27.579  23.075  1.00  0.00     0.211 HD
ENDBRANCH  13  14
ENDBRANCH   9  13
ENDBRANCH   1   2
BRANCH   1  16
ATOM     16  C   UNL     1      21.987  30.484  28.053  1.00  0.00     0.286 C 
ATOM     17  C   UNL     1      20.845  30.425  29.112  1.00  0.00     0.202 C 
ATOM     18  O   UNL     1      22.311  31.813  27.668  1.00  0.00    -0.341 OA
ATOM     19  C   UNL     1      20.356  31.836  29.520  1.00  0.00     0.179 C 
ATOM     20  C   UNL     1      22.726  32.558  28.798  1.00  0.00     0.178 C 
ATOM     21  C   UNL     1      21.530  32.823  29.755  1.00  0.00     0.177 C 
BRANCH  17  22
ATOM     22  O   UNL     1      21.300  29.727  30.245  1.00  0.00    -0.385 OA
ATOM     23  H   UNL     1      22.240  29.464  30.066  1.00  0.00     0.211 HD
ENDBRANCH  17  22
BRANCH  19  24
ATOM     24  O   UNL     1      19.515  32.336  28.510  1.00  0.00    -0.387 OA
ATOM     25  H   UNL     1      19.499  33.324  28.605  1.00  0.00     0.211 HD
ENDBRANCH  19  24
BRANCH  20  26
ATOM     26  C   UNL     1      23.370  33.865  28.323  1.00  0.00     0.191 C 
BRANCH  26  27
ATOM     27  O   UNL     1      23.361  34.815  29.355  1.00  0.00    -0.394 OA
ATOM     28  H   UNL     1      24.279  34.814  29.737  1.00  0.00     0.210 HD
ENDBRANCH  26  27
ENDBRANCH  20  26
BRANCH  21  29
ATOM     29  O   UNL     1      21.953  32.800  31.096  1.00  0.00    -0.387 OA
ATOM     30  H   UNL     1      22.609  33.536  31.221  1.00  0.00     0.211 HD
ENDBRANCH  21  29
ENDBRANCH   1  16
TORSDOF 10
ENDMDL
MODEL 2
REMARK VINA RESULT:    -4.583      1.794      6.460
REMARK INTER + INTRA:          -7.360
REMARK INTER:                  -5.849
REMARK INTRA:                  -1.511
REMARK UNBOUND:                -0.901
REMARK SMILES OCC1=C[C@H](O)[C@H]2C=CO[C@H](O[C@H]3O[C@@H](CO)[C@H](O)[C@@H](O)[C@@H]3O)[C@@H]12
REMARK SMILES IDX 12 1 11 2 8 3 9 4 7 5 10 6 24 7 5 8 3 9 4 10 6 11 2 13 1 14
REMARK SMILES IDX 13 16 22 17 14 18 20 19 15 20 18 21 23 22 21 24 16 26 17 27
REMARK SMILES IDX 19 29
REMARK H PARENT 6 12 1 15 23 23 21 25 17 28 19 30
REMARK Flexibility Score: inf
ROOT
ATOM      1  O   UNL     1      22.771  30.550  25.455  1.00  0.00    -0.310 OA
ENDROOT
BRANCH   1   2
ATOM      2  C   UNL     1      22.852  30.895  26.828  1.00  0.00     0.316 C 
ATOM      3  C   UNL     1      23.055  32.649  29.059  1.00  0.00     0.018 C 
ATOM      4  C   UNL     1      24.091  32.487  28.235  1.00  0.00     0.186 C 
ATOM      5  C   UNL     1      21.666  32.200  28.678  1.00  0.00     0.061 C 
ATOM      6  O   UNL     1      23.941  31.795  27.034  1.00  0.00    -0.472 OA
ATOM      7  C   UNL     1      21.537  31.575  27.267  1.00  0.00     0.096 C 
ATOM      8  C   UNL     1      21.112  31.128  29.631  1.00  0.00     0.145 C 
ATOM      9  C   UNL     1      20.442  30.560  27.462  1.00  0.00    -0.036 C 
ATOM     10  C   UNL     1      20.228  30.308  28.750  1.00  0.00     0.007 C 
BRANCH   8  11
ATOM     11  O   UNL     1      20.405  31.688  30.707  1.00  0.00    -0.388 OA
ATOM     12  H   UNL     1      19.523  31.998  30.368  1.00  0.00     0.211 HD
ENDBRANCH   8  11
BRANCH   9  13
ATOM     13  C   UNL     1      19.642  29.895  26.368  1.00  0.00     0.187 C 
BRANCH  13  14
ATOM     14  O   UNL     1      19.866  28.513  26.330  1.00  0.00    -0.392 OA
ATOM     15  H   UNL     1      19.102  28.089  26.797  1.00  0.00     0.211 HD
ENDBRANCH  13  14
ENDBRANCH   9  13
ENDBRANCH   1   2
BRANCH   1  16
ATOM     16  C   UNL     1      23.210  29.226  25.189  1.00  0.00     0.286 C 
ATOM     17  C   UNL     1      22.912  28.810  23.716  1.00  0.00     0.202 C 
ATOM     18  O   UNL     1      22.686  28.305  26.136  1.00  0.00    -0.341 OA
ATOM     19  C   UNL     1      22.143  27.469  23.634  1.00  0.00     0.179 C 
ATOM     20  C   UNL     1      23.244  27.021  25.924  1.00  0.00     0.178 C 
ATOM     21  C   UNL     1      22.714  26.399  24.601  1.00  0.00     0.177 C 
BRANCH  17  22
ATOM     22  O   UNL     1      24.124  28.713  23.009  1.00  0.00    -0.385 OA
ATOM     23  H   UNL     1      24.843  28.580  23.681  1.00  0.00     0.211 HD
ENDBRANCH  17  22
BRANCH  19  24
ATOM     24  O   UNL     1      20.789  27.702  23.936  1.00  0.00    -0.387 OA
ATOM     25  H   UNL     1      20.321  27.862  23.076  1.00  0.00     0.211 HD
ENDBRANCH  19  24
BRANCH  20  26
ATOM     26  C   UNL     1      22.924  26.134  27.133  1.00  0.00     0.191 C 
BRANCH  26  27
ATOM     27  O   UNL     1      22.756  24.802  26.728  1.00  0.00    -0.394 OA
ATOM     28  H   UNL     1      22.017  24.437  27.284  1.00  0.00     0.210 HD
ENDBRANCH  26  27
ENDBRANCH  20  26
BRANCH  21  29
ATOM     29  O   UNL     1      23.716  25.633  23.978  1.00  0.00    -0.387 OA
ATOM     30  H   UNL     1      24.398  26.259  23.618  1.00  0.00     0.211 HD
ENDBRANCH  21  29
ENDBRANCH   1  16
TORSDOF 10
ENDMDL
MODEL 3
REMARK VINA RESULT:    -4.571      1.526      7.071
REMARK INTER + INTRA:          -7.343
REMARK INTER:                  -6.300
REMARK INTRA:                  -1.043
REMARK UNBOUND:                -0.901
REMARK SMILES OCC1=C[C@H](O)[C@H]2C=CO[C@H](O[C@H]3O[C@@H](CO)[C@H](O)[C@@H](O)[C@@H]3O)[C@@H]12
REMARK SMILES IDX 12 1 11 2 8 3 9 4 7 5 10 6 24 7 5 8 3 9 4 10 6 11 2 13 1 14
REMARK SMILES IDX 13 16 22 17 14 18 20 19 15 20 18 21 23 22 21 24 16 26 17 27
REMARK SMILES IDX 19 29
REMARK H PARENT 6 12 1 15 23 23 21 25 17 28 19 30
REMARK Flexibility Score: inf
ROOT
ATOM      1  O   UNL     1      21.830  30.353  26.740  1.00  0.00    -0.310 OA
ENDROOT
BRANCH   1   2
ATOM      2  C   UNL     1      22.727  31.413  27.028  1.00  0.00     0.316 C 
ATOM      3  C   UNL     1      23.912  33.977  26.691  1.00  0.00     0.018 C 
ATOM      4  C   UNL     1      24.099  33.026  25.776  1.00  0.00     0.186 C 
ATOM      5  C   UNL     1      22.827  33.867  27.734  1.00  0.00     0.061 C 
ATOM      6  O   UNL     1      23.366  31.840  25.825  1.00  0.00    -0.472 OA
ATOM      7  C   UNL     1      21.947  32.596  27.641  1.00  0.00     0.096 C 
ATOM      8  C   UNL     1      23.389  33.848  29.166  1.00  0.00     0.145 C 
ATOM      9  C   UNL     1      21.608  32.331  29.084  1.00  0.00    -0.036 C 
ATOM     10  C   UNL     1      22.408  33.001  29.908  1.00  0.00     0.007 C 
BRANCH   8  11
ATOM     11  O   UNL     1      23.488  35.137  29.714  1.00  0.00    -0.388 OA
ATOM     12  H   UNL     1      23.976  35.067  30.578  1.00  0.00     0.211 HD
ENDBRANCH   8  11
BRANCH   9  13
ATOM     13  C   UNL     1      20.499  31.440  29.586  1.00  0.00     0.187 C 
BRANCH  13  14
ATOM     14  O   UNL     1      19.671  31.006  28.543  1.00  0.00    -0.392 OA
ATOM     15  H   UNL     1      19.935  30.072  28.342  1.00  0.00     0.211 HD
ENDBRANCH  13  14
ENDBRANCH   9  13
ENDBRANCH   1   2
BRANCH   1  16
ATOM     16  C   UNL     1      22.355  29.420  25.806  1.00  0.00     0.286 C 
ATOM     17  C   UNL     1      21.727  29.611  24.392  1.00  0.00     0.202 C 
ATOM     18  O   UNL     1      22.238  28.086  26.283  1.00  0.00    -0.341 OA
ATOM     19  C   UNL     1      21.152  28.290  23.826  1.00  0.00     0.179 C 
ATOM     20  C   UNL     1      22.885  27.195  25.394  1.00  0.00     0.178 C 
ATOM     21  C   UNL     1      22.105  27.086  24.054  1.00  0.00     0.177 C 
BRANCH  17  22
ATOM     22  O   UNL     1      22.702  30.125  23.518  1.00  0.00    -0.385 OA
ATOM     23  H   UNL     1      23.223  30.798  24.029  1.00  0.00     0.211 HD
ENDBRANCH  17  22
BRANCH  19  24
ATOM     24  O   UNL     1      19.913  28.033  24.440  1.00  0.00    -0.387 OA
ATOM     25  H   UNL     1      20.101  27.550  25.287  1.00  0.00     0.211 HD
ENDBRANCH  19  24
BRANCH  20  26
ATOM     26  C   UNL     1      23.029  25.830  26.076  1.00  0.00     0.191 C 
BRANCH  26  27
ATOM     27  O   UNL     1      22.985  24.802  25.122  1.00  0.00    -0.394 OA
ATOM     28  H   UNL     1      23.410  25.170  24.303  1.00  0.00     0.210 HD
ENDBRANCH  26  27
ENDBRANCH  20  26
BRANCH  21  29
ATOM     29  O   UNL     1      22.993  26.930  22.975  1.00  0.00    -0.387 OA
ATOM     30  H   UNL     1      23.799  26.456  23.310  1.00  0.00     0.211 HD
ENDBRANCH  21  29
ENDBRANCH   1  16
TORSDOF 10
ENDMDL
MODEL 4
REMARK VINA RESULT:    -4.286      1.253      2.381
REMARK INTER + INTRA:          -6.941
REMARK INTER:                  -6.226
REMARK INTRA:                  -0.715
REMARK UNBOUND:                -0.901
REMARK SMILES OCC1=C[C@H](O)[C@H]2C=CO[C@H](O[C@H]3O[C@@H](CO)[C@H](O)[C@@H](O)[C@@H]3O)[C@@H]12
REMARK SMILES IDX 12 1 11 2 8 3 9 4 7 5 10 6 24 7 5 8 3 9 4 10 6 11 2 13 1 14
REMARK SMILES IDX 13 16 22 17 14 18 20 19 15 20 18 21 23 22 21 24 16 26 17 27
REMARK SMILES IDX 19 29
REMARK H PARENT 6 12 1 15 23 23 21 25 17 28 19 30
REMARK Flexibility Score: inf
ROOT
ATOM      1  O   UNL     1      20.399  29.630  27.460  1.00  0.00    -0.310 OA
ENDROOT
BRANCH   1   2
ATOM      2  C   UNL     1      21.474  28.712  27.573  1.00  0.00     0.316 C 
ATOM      3  C   UNL     1      22.733  26.262  28.284  1.00  0.00     0.018 C 
ATOM      4  C   UNL     1      22.330  27.110  29.232  1.00  0.00     0.186 C 
ATOM      5  C   UNL     1      22.254  26.386  26.859  1.00  0.00     0.061 C 
ATOM      6  O   UNL     1      21.536  28.210  28.908  1.00  0.00    -0.472 OA
ATOM      7  C   UNL     1      21.253  27.538  26.595  1.00  0.00     0.096 C 
ATOM      8  C   UNL     1      23.406  26.637  25.872  1.00  0.00     0.145 C 
ATOM      9  C   UNL     1      21.588  27.940  25.183  1.00  0.00    -0.036 C 
ATOM     10  C   UNL     1      22.769  27.462  24.802  1.00  0.00     0.007 C 
BRANCH   8  11
ATOM     11  O   UNL     1      23.940  25.442  25.363  1.00  0.00    -0.388 OA
ATOM     12  H   UNL     1      24.867  25.624  25.055  1.00  0.00     0.211 HD
ENDBRANCH   8  11
BRANCH   9  13
ATOM     13  C   UNL     1      20.720  28.766  24.266  1.00  0.00     0.187 C 
BRANCH  13  14
ATOM     14  O   UNL     1      19.553  28.082  23.902  1.00  0.00    -0.392 OA
ATOM     15  H   UNL     1      18.795  28.590  24.287  1.00  0.00     0.211 HD
ENDBRANCH  13  14
ENDBRANCH   9  13
ENDBRANCH   1   2
BRANCH   1  16
ATOM     16  C   UNL     1      20.706  30.912  27.990  1.00  0.00     0.286 C 
ATOM     17  C   UNL     1      22.233  31.065  28.268  1.00  0.00     0.202 C 
ATOM     18  O   UNL     1      19.910  31.207  29.129  1.00  0.00    -0.341 OA
ATOM     19  C   UNL     1      22.518  31.536  29.714  1.00  0.00     0.179 C 
ATOM     20  C   UNL     1      20.145  32.537  29.554  1.00  0.00     0.178 C 
ATOM     21  C   UNL     1      21.569  32.680  30.161  1.00  0.00     0.177 C 
BRANCH  17  22
ATOM     22  O   UNL     1      22.782  31.976  27.348  1.00  0.00    -0.385 OA
ATOM     23  H   UNL     1      22.071  32.185  26.687  1.00  0.00     0.211 HD
ENDBRANCH  17  22
BRANCH  19  24
ATOM     24  O   UNL     1      22.378  30.441  30.586  1.00  0.00    -0.387 OA
ATOM     25  H   UNL     1      23.276  30.031  30.687  1.00  0.00     0.211 HD
ENDBRANCH  19  24
BRANCH  20  26
ATOM     26  C   UNL     1      19.060  32.937  30.560  1.00  0.00     0.191 C 
BRANCH  26  27
ATOM     27  O   UNL     1      17.809  32.998  29.929  1.00  0.00    -0.394 OA
ATOM     28  H   UNL     1      17.862  33.755  29.287  1.00  0.00     0.210 HD
ENDBRANCH  26  27
ENDBRANCH  20  26
BRANCH  21  29
ATOM     29  O   UNL     1      22.113  33.940  29.855  1.00  0.00    -0.387 OA
ATOM     30  H   UNL     1      22.380  33.933  28.898  1.00  0.00     0.211 HD
ENDBRANCH  21  29
ENDBRANCH   1  16
TORSDOF 10
ENDMDL
MODEL 5
REMARK VINA RESULT:    -4.274      1.550      3.418
REMARK INTER + INTRA:          -6.925
REMARK INTER:                  -5.825
REMARK INTRA:                  -1.099
REMARK UNBOUND:                -0.901
REMARK SMILES OCC1=C[C@H](O)[C@H]2C=CO[C@H](O[C@H]3O[C@@H](CO)[C@H](O)[C@@H](O)[C@@H]3O)[C@@H]12
REMARK SMILES IDX 12 1 11 2 8 3 9 4 7 5 10 6 24 7 5 8 3 9 4 10 6 11 2 13 1 14
REMARK SMILES IDX 13 16 22 17 14 18 20 19 15 20 18 21 23 22 21 24 16 26 17 27
REMARK SMILES IDX 19 29
REMARK H PARENT 6 12 1 15 23 23 21 25 17 28 19 30
REMARK Flexibility Score: inf
ROOT
ATOM      1  O   UNL     1      21.181  28.275  27.759  1.00  0.00    -0.310 OA
ENDROOT
BRANCH   1   2
ATOM      2  C   UNL     1      21.067  28.038  26.365  1.00  0.00     0.316 C 
ATOM      3  C   UNL     1      21.162  28.703  23.601  1.00  0.00     0.018 C 
ATOM      4  C   UNL     1      20.213  29.217  24.383  1.00  0.00     0.186 C 
ATOM      5  C   UNL     1      22.391  28.045  24.179  1.00  0.00     0.061 C 
ATOM      6  O   UNL     1      20.274  29.064  25.768  1.00  0.00    -0.472 OA
ATOM      7  C   UNL     1      22.472  28.041  25.726  1.00  0.00     0.096 C 
ATOM      8  C   UNL     1      22.508  26.565  23.779  1.00  0.00     0.145 C 
ATOM      9  C   UNL     1      23.198  26.752  26.008  1.00  0.00    -0.036 C 
ATOM     10  C   UNL     1      23.198  25.946  24.950  1.00  0.00     0.007 C 
BRANCH   8  11
ATOM     11  O   UNL     1      23.237  26.392  22.591  1.00  0.00    -0.388 OA
ATOM     12  H   UNL     1      22.837  26.979  21.896  1.00  0.00     0.211 HD
ENDBRANCH   8  11
BRANCH   9  13
ATOM     13  C   UNL     1      23.873  26.379  27.305  1.00  0.00     0.187 C 
BRANCH  13  14
ATOM     14  O   UNL     1      22.951  25.933  28.259  1.00  0.00    -0.392 OA
ATOM     15  H   UNL     1      23.454  25.814  29.105  1.00  0.00     0.211 HD
ENDBRANCH  13  14
ENDBRANCH   9  13
ENDBRANCH   1   2
BRANCH   1  16
ATOM     16  C   UNL     1      21.185  29.657  28.087  1.00  0.00     0.286 C 
ATOM     17  C   UNL     1      22.527  30.082  28.758  1.00  0.00     0.202 C 
ATOM     18  O   UNL     1      20.049  30.010  28.864  1.00  0.00    -0.341 OA
ATOM     19  C   UNL     1      22.301  30.819  30.099  1.00  0.00     0.179 C 
ATOM     20  C   UNL     1      20.013  31.411  29.063  1.00  0.00     0.178 C 
ATOM     21  C   UNL     1      21.157  31.864  30.013  1.00  0.00     0.177 C 
BRANCH  17  22
ATOM     22  O   UNL     1      23.248  30.904  27.872  1.00  0.00    -0.385 OA
ATOM     23  H   UNL     1      23.555  31.692  28.392  1.00  0.00     0.211 HD
ENDBRANCH  17  22
BRANCH  19  24
ATOM     24  O   UNL     1      22.000  29.872  31.095  1.00  0.00    -0.387 OA
ATOM     25  H   UNL     1      22.802  29.791  31.673  1.00  0.00     0.211 HD
ENDBRANCH  19  24
BRANCH  20  26
ATOM     26  C   UNL     1      18.636  31.801  29.611  1.00  0.00     0.191 C 
BRANCH  26  27
ATOM     27  O   UNL     1      18.483  33.195  29.598  1.00  0.00    -0.394 OA
ATOM     28  H   UNL     1      18.542  33.469  28.645  1.00  0.00     0.210 HD
ENDBRANCH  26  27
ENDBRANCH  20  26
BRANCH  21  29
ATOM     29  O   UNL     1      21.648  33.125  29.632  1.00  0.00    -0.387 OA
ATOM     30  H   UNL     1      21.327  33.791  30.296  1.00  0.00     0.211 HD
ENDBRANCH  21  29
ENDBRANCH   1  16
TORSDOF 10
ENDMDL
MODEL 6
REMARK VINA RESULT:    -4.251      1.733      6.745
REMARK INTER + INTRA:          -6.892
REMARK INTER:                  -5.887
REMARK INTRA:                  -1.005
REMARK UNBOUND:                -0.901
REMARK SMILES OCC1=C[C@H](O)[C@H]2C=CO[C@H](O[C@H]3O[C@@H](CO)[C@H](O)[C@@H](O)[C@@H]3O)[C@@H]12
REMARK SMILES IDX 12 1 11 2 8 3 9 4 7 5 10 6 24 7 5 8 3 9 4 10 6 11 2 13 1 14
REMARK SMILES IDX 13 16 22 17 14 18 20 19 15 20 18 21 23 22 21 24 16 26 17 27
REMARK SMILES IDX 19 29
REMARK H PARENT 6 12 1 15 23 23 21 25 17 28 19 30
REMARK Flexibility Score: inf
ROOT
ATOM      1  O   UNL     1      21.062  28.497  27.200  1.00  0.00    -0.310 OA
ENDROOT
BRANCH   1   2
ATOM      2  C   UNL     1      21.204  29.775  27.799  1.00  0.00     0.316 C 
ATOM      3  C   UNL     1      20.528  31.913  29.549  1.00  0.00     0.018 C 
ATOM      4  C   UNL     1      19.746  31.625  28.509  1.00  0.00     0.186 C 
ATOM      5  C   UNL     1      21.580  30.949  30.038  1.00  0.00     0.061 C 
ATOM      6  O   UNL     1      19.953  30.462  27.767  1.00  0.00    -0.472 OA
ATOM      7  C   UNL     1      21.659  29.609  29.266  1.00  0.00     0.096 C 
ATOM      8  C   UNL     1      23.000  31.533  29.949  1.00  0.00     0.145 C 
ATOM      9  C   UNL     1      23.125  29.276  29.343  1.00  0.00    -0.036 C 
ATOM     10  C   UNL     1      23.851  30.332  29.697  1.00  0.00     0.007 C 
BRANCH   8  11
ATOM     11  O   UNL     1      23.374  32.202  31.125  1.00  0.00    -0.388 OA
ATOM     12  H   UNL     1      22.694  32.003  31.822  1.00  0.00     0.211 HD
ENDBRANCH   8  11
BRANCH   9  13
ATOM     13  C   UNL     1      23.744  27.924  29.079  1.00  0.00     0.187 C 
BRANCH  13  14
ATOM     14  O   UNL     1      22.781  26.908  29.065  1.00  0.00    -0.392 OA
ATOM     15  H   UNL     1      22.038  27.229  28.493  1.00  0.00     0.211 HD
ENDBRANCH  13  14
ENDBRANCH   9  13
ENDBRANCH   1   2
BRANCH   1  16
ATOM     16  C   UNL     1      21.839  28.348  26.021  1.00  0.00     0.286 C 
ATOM     17  C   UNL     1      21.388  29.344  24.909  1.00  0.00     0.202 C 
ATOM     18  O   UNL     1      21.853  26.999  25.575  1.00  0.00    -0.341 OA
ATOM     19  C   UNL     1      21.094  28.628  23.569  1.00  0.00     0.179 C 
ATOM     20  C   UNL     1      22.738  26.859  24.479  1.00  0.00     0.178 C 
ATOM     21  C   UNL     1      22.172  27.568  23.217  1.00  0.00     0.177 C 
BRANCH  17  22
ATOM     22  O   UNL     1      22.388  30.317  24.726  1.00  0.00    -0.385 OA
ATOM     23  H   UNL     1      21.927  31.170  24.511  1.00  0.00     0.211 HD
ENDBRANCH  17  22
BRANCH  19  24
ATOM     24  O   UNL     1      19.834  28.009  23.650  1.00  0.00    -0.387 OA
ATOM     25  H   UNL     1      19.941  27.082  23.310  1.00  0.00     0.211 HD
ENDBRANCH  19  24
BRANCH  20  26
ATOM     26  C   UNL     1      22.985  25.368  24.227  1.00  0.00     0.191 C 
BRANCH  26  27
ATOM     27  O   UNL     1      22.880  25.082  22.857  1.00  0.00    -0.394 OA
ATOM     28  H   UNL     1      23.800  24.865  22.551  1.00  0.00     0.210 HD
ENDBRANCH  26  27
ENDBRANCH  20  26
BRANCH  21  29
ATOM     29  O   UNL     1      23.212  28.133  22.457  1.00  0.00    -0.387 OA
ATOM     30  H   UNL     1      23.554  27.433  21.841  1.00  0.00     0.211 HD
ENDBRANCH  21  29
ENDBRANCH   1  16
TORSDOF 10
ENDMDL
MODEL 7
REMARK VINA RESULT:    -4.143      2.142      3.546
REMARK INTER + INTRA:          -6.740
REMARK INTER:                  -5.620
REMARK INTRA:                  -1.120
REMARK UNBOUND:                -0.901
REMARK SMILES OCC1=C[C@H](O)[C@H]2C=CO[C@H](O[C@H]3O[C@@H](CO)[C@H](O)[C@@H](O)[C@@H]3O)[C@@H]12
REMARK SMILES IDX 12 1 11 2 8 3 9 4 7 5 10 6 24 7 5 8 3 9 4 10 6 11 2 13 1 14
REMARK SMILES IDX 13 16 22 17 14 18 20 19 15 20 18 21 23 22 21 24 16 26 17 27
REMARK SMILES IDX 19 29
REMARK H PARENT 6 12 1 15 23 23 21 25 17 28 19 30
REMARK Flexibility Score: inf
ROOT
ATOM      1  O   UNL     1      24.049  30.203  26.421  1.00  0.00    -0.310 OA
ENDROOT
BRANCH   1   2
ATOM      2  C   UNL     1      23.127  30.148  25.346  1.00  0.00     0.316 C 
ATOM      3  C   UNL     1      22.147  29.327  22.804  1.00  0.00     0.018 C 
ATOM      4  C   UNL     1      23.197  30.145  22.887  1.00  0.00     0.186 C 
ATOM      5  C   UNL     1      21.657  28.549  24.000  1.00  0.00     0.061 C 
ATOM      6  O   UNL     1      23.809  30.391  24.116  1.00  0.00    -0.472 OA
ATOM      7  C   UNL     1      22.473  28.749  25.300  1.00  0.00     0.096 C 
ATOM      8  C   UNL     1      20.213  28.912  24.387  1.00  0.00     0.145 C 
ATOM      9  C   UNL     1      21.421  28.609  26.368  1.00  0.00    -0.036 C 
ATOM     10  C   UNL     1      20.194  28.716  25.867  1.00  0.00     0.007 C 
BRANCH   8  11
ATOM     11  O   UNL     1      19.269  28.099  23.739  1.00  0.00    -0.388 OA
ATOM     12  H   UNL     1      18.860  27.500  24.418  1.00  0.00     0.211 HD
ENDBRANCH   8  11
BRANCH   9  13
ATOM     13  C   UNL     1      21.673  28.358  27.835  1.00  0.00     0.187 C 
BRANCH  13  14
ATOM     14  O   UNL     1      22.957  27.847  28.060  1.00  0.00    -0.392 OA
ATOM     15  H   UNL     1      23.566  28.626  28.114  1.00  0.00     0.211 HD
ENDBRANCH  13  14
ENDBRANCH   9  13
ENDBRANCH   1   2
BRANCH   1  16
ATOM     16  C   UNL     1      24.019  31.444  27.114  1.00  0.00     0.286 C 
ATOM     17  C   UNL     1      23.227  31.332  28.452  1.00  0.00     0.202 C 
ATOM     18  O   UNL     1      23.543  32.492  26.281  1.00  0.00    -0.341 OA
ATOM     19  C   UNL     1      22.129  32.416  28.572  1.00  0.00     0.179 C 
ATOM     20  C   UNL     1      23.649  33.733  26.954  1.00  0.00     0.178 C 
ATOM     21  C   UNL     1      22.628  33.815  28.124  1.00  0.00     0.177 C 
BRANCH  17  22
ATOM     22  O   UNL     1      24.125  31.436  29.531  1.00  0.00    -0.385 OA
ATOM     23  H   UNL     1      24.836  32.073  29.257  1.00  0.00     0.211 HD
ENDBRANCH  17  22
BRANCH  19  24
ATOM     24  O   UNL     1      21.027  32.035  27.785  1.00  0.00    -0.387 OA
ATOM     25  H   UNL     1      20.673  32.859  27.360  1.00  0.00     0.211 HD
ENDBRANCH  19  24
BRANCH  20  26
ATOM     26  C   UNL     1      23.442  34.866  25.944  1.00  0.00     0.191 C 
BRANCH  26  27
ATOM     27  O   UNL     1      23.601  36.111  26.569  1.00  0.00    -0.394 OA
ATOM     28  H   UNL     1      22.946  36.129  27.316  1.00  0.00     0.210 HD
ENDBRANCH  26  27
ENDBRANCH  20  26
BRANCH  21  29
ATOM     29  O   UNL     1      23.171  34.531  29.206  1.00  0.00    -0.387 OA
ATOM     30  H   UNL     1      23.698  35.288  28.836  1.00  0.00     0.211 HD
ENDBRANCH  21  29
ENDBRANCH   1  16
TORSDOF 10
ENDMDL
MODEL 8
REMARK VINA RESULT:    -4.107      1.576      2.090
REMARK INTER + INTRA:          -6.689
REMARK INTER:                  -5.351
REMARK INTRA:                  -1.338
REMARK UNBOUND:                -0.901
REMARK SMILES OCC1=C[C@H](O)[C@H]2C=CO[C@H](O[C@H]3O[C@@H](CO)[C@H](O)[C@@H](O)[C@@H]3O)[C@@H]12
REMARK SMILES IDX 12 1 11 2 8 3 9 4 7 5 10 6 24 7 5 8 3 9 4 10 6 11 2 13 1 14
REMARK SMILES IDX 13 16 22 17 14 18 20 19 15 20 18 21 23 22 21 24 16 26 17 27
REMARK SMILES IDX 19 29
REMARK H PARENT 6 12 1 15 23 23 21 25 17 28 19 30
REMARK Flexibility Score: inf
ROOT
ATOM      1  O   UNL     1      21.743  27.902  27.301  1.00  0.00    -0.310 OA
ENDROOT
BRANCH   1   2
ATOM      2  C   UNL     1      22.603  27.690  26.194  1.00  0.00     0.316 C 
ATOM      3  C   UNL     1      23.830  26.196  24.106  1.00  0.00     0.018 C 
ATOM      4  C   UNL     1      24.125  25.937  25.380  1.00  0.00     0.186 C 
ATOM      5  C   UNL     1      22.625  27.021  23.727  1.00  0.00     0.061 C 
ATOM      6  O   UNL     1      23.386  26.516  26.412  1.00  0.00    -0.472 OA
ATOM      7  C   UNL     1      21.758  27.510  24.913  1.00  0.00     0.096 C 
ATOM      8  C   UNL     1      23.006  28.304  22.969  1.00  0.00     0.145 C 
ATOM      9  C   UNL     1      21.243  28.833  24.414  1.00  0.00    -0.036 C 
ATOM     10  C   UNL     1      21.938  29.268  23.367  1.00  0.00     0.007 C 
BRANCH   8  11
ATOM     11  O   UNL     1      23.042  28.108  21.579  1.00  0.00    -0.388 OA
ATOM     12  H   UNL     1      22.362  28.703  21.166  1.00  0.00     0.211 HD
ENDBRANCH   8  11
BRANCH   9  13
ATOM     13  C   UNL     1      20.076  29.604  24.983  1.00  0.00     0.187 C 
BRANCH  13  14
ATOM     14  O   UNL     1      19.339  28.833  25.890  1.00  0.00    -0.392 OA
ATOM     15  H   UNL     1      19.130  27.979  25.432  1.00  0.00     0.211 HD
ENDBRANCH  13  14
ENDBRANCH   9  13
ENDBRANCH   1   2
BRANCH   1  16
ATOM     16  C   UNL     1      22.132  29.011  28.100  1.00  0.00     0.286 C 
ATOM     17  C   UNL     1      21.127  29.255  29.267  1.00  0.00     0.202 C 
ATOM     18  O   UNL     1      22.345  30.171  27.308  1.00  0.00    -0.341 OA
ATOM     19  C   UNL     1      20.624  30.718  29.307  1.00  0.00     0.179 C 
ATOM     20  C   UNL     1      22.856  31.219  28.111  1.00  0.00     0.178 C 
ATOM     21  C   UNL     1      21.770  31.743  29.094  1.00  0.00     0.177 C 
BRANCH  17  22
ATOM     22  O   UNL     1      21.745  28.925  30.487  1.00  0.00    -0.385 OA
ATOM     23  H   UNL     1      22.471  29.587  30.632  1.00  0.00     0.211 HD
ENDBRANCH  17  22
BRANCH  19  24
ATOM     24  O   UNL     1      19.647  30.891  28.310  1.00  0.00    -0.387 OA
ATOM     25  H   UNL     1      19.228  30.005  28.155  1.00  0.00     0.211 HD
ENDBRANCH  19  24
BRANCH  20  26
ATOM     26  C   UNL     1      23.378  32.336  27.200  1.00  0.00     0.191 C 
BRANCH  26  27
ATOM     27  O   UNL     1      23.012  33.591  27.708  1.00  0.00    -0.394 OA
ATOM     28  H   UNL     1      23.808  33.932  28.195  1.00  0.00     0.210 HD
ENDBRANCH  26  27
ENDBRANCH  20  26
BRANCH  21  29
ATOM     29  O   UNL     1      22.350  32.118  30.318  1.00  0.00    -0.387 OA
ATOM     30  H   UNL     1      23.068  32.778  30.126  1.00  0.00     0.211 HD
ENDBRANCH  21  29
ENDBRANCH   1  16
TORSDOF 10
ENDMDL
