MODEL 1
REMARK VINA RESULT:    -8.279      0.000      0.000
REMARK INTER + INTRA:         -10.540
REMARK INTER:                 -10.215
REMARK INTRA:                  -0.325
REMARK UNBOUND:                -0.325
REMARK SMILES Oc1cc(O)c2cc(O)c(-c3cc(O)c(O)c(O)c3)[o+]c2c1
REMARK SMILES IDX 10 1 20 2 21 3 22 4 2 5 3 6 4 7 6 8 7 9 8 10 11 11 12 12
REMARK SMILES IDX 13 13 19 14 15 15 17 16 14 17 16 19 18 21 9 23 1 25 5 27
REMARK H PARENT 14 18 16 20 18 22 9 24 1 26 5 28
REMARK Flexibility Score: inf
ROOT
ATOM      1  C   UNL     1      15.494  15.265   9.549  1.00  0.00     0.402 A 
ATOM      2  O   UNL     1      15.709  15.611  10.816  1.00  0.00    -0.202 OA
ATOM      3  C   UNL     1      16.487  14.916  11.640  1.00  0.00     0.368 A 
ATOM      4  C   UNL     1      16.649  15.357  12.956  1.00  0.00     0.162 A 
ATOM      5  C   UNL     1      17.459  14.643  13.844  1.00  0.00     0.128 A 
ATOM      6  C   UNL     1      18.109  13.484  13.414  1.00  0.00     0.093 A 
ATOM      7  C   UNL     1      17.963  13.022  12.100  1.00  0.00     0.136 A 
ATOM      8  C   UNL     1      17.144  13.744  11.194  1.00  0.00     0.125 A 
ATOM      9  C   UNL     1      16.950  13.362   9.857  1.00  0.00     0.078 A 
ATOM     10  C   UNL     1      16.131  14.128   9.022  1.00  0.00     0.223 A 
ENDROOT
BRANCH   1  11
ATOM     11  C   UNL     1      14.597  16.117   8.735  1.00  0.00     0.091 A 
ATOM     12  C   UNL     1      13.310  15.687   8.376  1.00  0.00     0.068 A 
ATOM     13  C   UNL     1      12.467  16.513   7.625  1.00  0.00     0.162 A 
ATOM     14  C   UNL     1      15.016  17.400   8.361  1.00  0.00     0.068 A 
ATOM     15  C   UNL     1      12.898  17.792   7.228  1.00  0.00     0.200 A 
ATOM     16  C   UNL     1      14.186  18.239   7.608  1.00  0.00     0.162 A 
BRANCH  13  17
ATOM     17  O   UNL     1      11.198  16.042   7.285  1.00  0.00    -0.504 OA
ATOM     18  H   UNL     1      10.358  16.375   7.739  1.00  0.00     0.293 HD
ENDBRANCH  13  17
BRANCH  15  19
ATOM     19  O   UNL     1      12.027  18.581   6.471  1.00  0.00    -0.502 OA
ATOM     20  H   UNL     1      11.378  18.216   5.789  1.00  0.00     0.293 HD
ENDBRANCH  15  19
BRANCH  16  21
ATOM     21  O   UNL     1      14.680  19.500   7.263  1.00  0.00    -0.504 OA
ATOM     22  H   UNL     1      15.661  19.713   7.151  1.00  0.00     0.293 HD
ENDBRANCH  16  21
ENDBRANCH   1  11
BRANCH  10  23
ATOM     23  O   UNL     1      15.976  13.777   7.680  1.00  0.00    -0.500 OA
ATOM     24  H   UNL     1      15.074  13.515   7.299  1.00  0.00     0.294 HD
ENDBRANCH  10  23
BRANCH   5  25
ATOM     25  O   UNL     1      17.626  15.077  15.157  1.00  0.00    -0.507 OA
ATOM     26  H   UNL     1      17.166  15.912  15.502  1.00  0.00     0.293 HD
ENDBRANCH   5  25
BRANCH   7  27
ATOM     27  O   UNL     1      18.645  11.852  11.750  1.00  0.00    -0.507 OA
ATOM     28  H   UNL     1      19.629  11.809  11.532  1.00  0.00     0.293 HD
ENDBRANCH   7  27
TORSDOF 7
ENDMDL
MODEL 2
REMARK VINA RESULT:    -7.448      1.240      7.195
REMARK INTER + INTRA:          -9.515
REMARK INTER:                  -9.139
REMARK INTRA:                  -0.375
REMARK UNBOUND:                -0.325
REMARK SMILES Oc1cc(O)c2cc(O)c(-c3cc(O)c(O)c(O)c3)[o+]c2c1
REMARK SMILES IDX 10 1 20 2 21 3 22 4 2 5 3 6 4 7 6 8 7 9 8 10 11 11 12 12
REMARK SMILES IDX 13 13 19 14 15 15 17 16 14 17 16 19 18 21 9 23 1 25 5 27
REMARK H PARENT 14 18 16 20 18 22 9 24 1 26 5 28
REMARK Flexibility Score: inf
ROOT
ATOM      1  C   UNL     1      15.220  15.139  10.196  1.00  0.00     0.402 A 
ATOM      2  O   UNL     1      15.602  16.039   9.294  1.00  0.00    -0.202 OA
ATOM      3  C   UNL     1      14.814  16.469   8.313  1.00  0.00     0.368 A 
ATOM      4  C   UNL     1      15.308  17.415   7.410  1.00  0.00     0.162 A 
ATOM      5  C   UNL     1      14.501  17.881   6.368  1.00  0.00     0.128 A 
ATOM      6  C   UNL     1      13.198  17.400   6.228  1.00  0.00     0.093 A 
ATOM      7  C   UNL     1      12.681  16.452   7.119  1.00  0.00     0.136 A 
ATOM      8  C   UNL     1      13.494  15.976   8.180  1.00  0.00     0.125 A 
ATOM      9  C   UNL     1      13.055  15.037   9.127  1.00  0.00     0.078 A 
ATOM     10  C   UNL     1      13.913  14.620  10.149  1.00  0.00     0.223 A 
ENDROOT
BRANCH   1  11
ATOM     11  C   UNL     1      16.194  14.733  11.235  1.00  0.00     0.091 A 
ATOM     12  C   UNL     1      16.330  15.456  12.430  1.00  0.00     0.068 A 
ATOM     13  C   UNL     1      17.239  15.046  13.410  1.00  0.00     0.162 A 
ATOM     14  C   UNL     1      16.957  13.573  11.050  1.00  0.00     0.068 A 
ATOM     15  C   UNL     1      18.023  13.895  13.213  1.00  0.00     0.200 A 
ATOM     16  C   UNL     1      17.873  13.149  12.020  1.00  0.00     0.162 A 
BRANCH  13  17
ATOM     17  O   UNL     1      17.346  15.799  14.581  1.00  0.00    -0.504 OA
ATOM     18  H   UNL     1      18.157  15.749  15.184  1.00  0.00     0.293 HD
ENDBRANCH  13  17
BRANCH  15  19
ATOM     19  O   UNL     1      18.926  13.526  14.215  1.00  0.00    -0.502 OA
ATOM     20  H   UNL     1      18.781  12.757  14.854  1.00  0.00     0.293 HD
ENDBRANCH  15  19
BRANCH  16  21
ATOM     21  O   UNL     1      18.606  11.989  11.756  1.00  0.00    -0.504 OA
ATOM     22  H   UNL     1      19.519  11.982  11.326  1.00  0.00     0.293 HD
ENDBRANCH  16  21
ENDBRANCH   1  11
BRANCH  10  23
ATOM     23  O   UNL     1      13.463  13.724  11.120  1.00  0.00    -0.500 OA
ATOM     24  H   UNL     1      12.477  13.619  11.331  1.00  0.00     0.294 HD
ENDBRANCH  10  23
BRANCH   5  25
ATOM     25  O   UNL     1      14.986  18.826   5.465  1.00  0.00    -0.507 OA
ATOM     26  H   UNL     1      14.755  18.782   4.479  1.00  0.00     0.293 HD
ENDBRANCH   5  25
BRANCH   7  27
ATOM     27  O   UNL     1      11.369  16.018   6.907  1.00  0.00    -0.507 OA
ATOM     28  H   UNL     1      10.626  16.096   7.586  1.00  0.00     0.293 HD
ENDBRANCH   7  27
TORSDOF 7
ENDMDL
MODEL 3
REMARK VINA RESULT:    -7.402      1.645      6.944
REMARK INTER + INTRA:          -9.458
REMARK INTER:                  -9.833
REMARK INTRA:                   0.375
REMARK UNBOUND:                -0.325
REMARK SMILES Oc1cc(O)c2cc(O)c(-c3cc(O)c(O)c(O)c3)[o+]c2c1
REMARK SMILES IDX 10 1 20 2 21 3 22 4 2 5 3 6 4 7 6 8 7 9 8 10 11 11 12 12
REMARK SMILES IDX 13 13 19 14 15 15 17 16 14 17 16 19 18 21 9 23 1 25 5 27
REMARK H PARENT 14 18 16 20 18 22 9 24 1 26 5 28
REMARK Flexibility Score: inf
ROOT
ATOM      1  C   UNL     1      16.188  14.647   9.204  1.00  0.00     0.402 A 
ATOM      2  O   UNL     1      15.452  15.751   9.107  1.00  0.00    -0.202 OA
ATOM      3  C   UNL     1      14.966  16.205   7.956  1.00  0.00     0.368 A 
ATOM      4  C   UNL     1      14.205  17.378   7.955  1.00  0.00     0.162 A 
ATOM      5  C   UNL     1      13.685  17.879   6.758  1.00  0.00     0.128 A 
ATOM      6  C   UNL     1      13.927  17.206   5.559  1.00  0.00     0.093 A 
ATOM      7  C   UNL     1      14.687  16.030   5.533  1.00  0.00     0.136 A 
ATOM      8  C   UNL     1      15.215  15.515   6.746  1.00  0.00     0.125 A 
ATOM      9  C   UNL     1      15.976  14.336   6.817  1.00  0.00     0.078 A 
ATOM     10  C   UNL     1      16.458  13.889   8.050  1.00  0.00     0.223 A 
ENDROOT
BRANCH   1  11
ATOM     11  C   UNL     1      16.680  14.249  10.543  1.00  0.00     0.091 A 
ATOM     12  C   UNL     1      17.571  13.178  10.705  1.00  0.00     0.068 A 
ATOM     13  C   UNL     1      18.043  12.829  11.974  1.00  0.00     0.162 A 
ATOM     14  C   UNL     1      16.295  14.991  11.668  1.00  0.00     0.068 A 
ATOM     15  C   UNL     1      17.637  13.559  13.106  1.00  0.00     0.200 A 
ATOM     16  C   UNL     1      16.756  14.656  12.945  1.00  0.00     0.162 A 
BRANCH  13  17
ATOM     17  O   UNL     1      18.923  11.752  12.089  1.00  0.00    -0.504 OA
ATOM     18  H   UNL     1      19.916  11.878  12.240  1.00  0.00     0.293 HD
ENDBRANCH  13  17
BRANCH  15  19
ATOM     19  O   UNL     1      18.126  13.172  14.357  1.00  0.00    -0.502 OA
ATOM     20  H   UNL     1      18.587  12.292  14.538  1.00  0.00     0.293 HD
ENDBRANCH  15  19
BRANCH  16  21
ATOM     21  O   UNL     1      16.317  15.435  14.019  1.00  0.00    -0.504 OA
ATOM     22  H   UNL     1      16.802  16.252  14.362  1.00  0.00     0.293 HD
ENDBRANCH  16  21
ENDBRANCH   1  11
BRANCH  10  23
ATOM     23  O   UNL     1      17.172  12.692   8.130  1.00  0.00    -0.500 OA
ATOM     24  H   UNL     1      18.058  12.568   7.652  1.00  0.00     0.294 HD
ENDBRANCH  10  23
BRANCH   5  25
ATOM     25  O   UNL     1      12.925  19.047   6.749  1.00  0.00    -0.507 OA
ATOM     26  H   UNL     1      12.098  19.145   7.327  1.00  0.00     0.293 HD
ENDBRANCH   5  25
BRANCH   7  27
ATOM     27  O   UNL     1      14.885  15.419   4.292  1.00  0.00    -0.507 OA
ATOM     28  H   UNL     1      15.690  14.857   4.055  1.00  0.00     0.293 HD
ENDBRANCH   7  27
TORSDOF 7
ENDMDL
MODEL 4
REMARK VINA RESULT:    -7.384      2.174      3.047
REMARK INTER + INTRA:          -9.436
REMARK INTER:                  -9.107
REMARK INTRA:                  -0.329
REMARK UNBOUND:                -0.325
REMARK SMILES Oc1cc(O)c2cc(O)c(-c3cc(O)c(O)c(O)c3)[o+]c2c1
REMARK SMILES IDX 10 1 20 2 21 3 22 4 2 5 3 6 4 7 6 8 7 9 8 10 11 11 12 12
REMARK SMILES IDX 13 13 19 14 15 15 17 16 14 17 16 19 18 21 9 23 1 25 5 27
REMARK H PARENT 14 18 16 20 18 22 9 24 1 26 5 28
REMARK Flexibility Score: inf
ROOT
ATOM      1  C   UNL     1      15.113  15.130   9.882  1.00  0.00     0.402 A 
ATOM      2  O   UNL     1      16.189  14.968  10.648  1.00  0.00    -0.202 OA
ATOM      3  C   UNL     1      16.175  14.288  11.790  1.00  0.00     0.368 A 
ATOM      4  C   UNL     1      17.356  14.176  12.528  1.00  0.00     0.162 A 
ATOM      5  C   UNL     1      17.368  13.469  13.734  1.00  0.00     0.128 A 
ATOM      6  C   UNL     1      16.196  12.873  14.203  1.00  0.00     0.093 A 
ATOM      7  C   UNL     1      15.000  12.971  13.482  1.00  0.00     0.136 A 
ATOM      8  C   UNL     1      14.982  13.686  12.256  1.00  0.00     0.125 A 
ATOM      9  C   UNL     1      13.833  13.825  11.461  1.00  0.00     0.078 A 
ATOM     10  C   UNL     1      13.894  14.540  10.261  1.00  0.00     0.223 A 
ENDROOT
BRANCH   1  11
ATOM     11  C   UNL     1      15.254  15.919   8.636  1.00  0.00     0.091 A 
ATOM     12  C   UNL     1      15.340  17.320   8.665  1.00  0.00     0.068 A 
ATOM     13  C   UNL     1      15.495  18.048   7.481  1.00  0.00     0.162 A 
ATOM     14  C   UNL     1      15.362  15.255   7.407  1.00  0.00     0.068 A 
ATOM     15  C   UNL     1      15.578  17.382   6.244  1.00  0.00     0.200 A 
ATOM     16  C   UNL     1      15.516  15.968   6.213  1.00  0.00     0.162 A 
BRANCH  13  17
ATOM     17  O   UNL     1      15.569  19.439   7.556  1.00  0.00    -0.504 OA
ATOM     18  H   UNL     1      16.269  19.972   7.056  1.00  0.00     0.293 HD
ENDBRANCH  13  17
BRANCH  15  19
ATOM     19  O   UNL     1      15.724  18.149   5.085  1.00  0.00    -0.502 OA
ATOM     20  H   UNL     1      16.286  17.876   4.292  1.00  0.00     0.293 HD
ENDBRANCH  15  19
BRANCH  16  21
ATOM     21  O   UNL     1      15.603  15.235   5.026  1.00  0.00    -0.504 OA
ATOM     22  H   UNL     1      16.153  15.514   4.227  1.00  0.00     0.293 HD
ENDBRANCH  16  21
ENDBRANCH   1  11
BRANCH  10  23
ATOM     23  O   UNL     1      12.766  14.638   9.446  1.00  0.00    -0.500 OA
ATOM     24  H   UNL     1      12.295  13.815   9.088  1.00  0.00     0.294 HD
ENDBRANCH  10  23
BRANCH   5  25
ATOM     25  O   UNL     1      18.543  13.351  14.475  1.00  0.00    -0.507 OA
ATOM     26  H   UNL     1      18.892  12.449  14.775  1.00  0.00     0.293 HD
ENDBRANCH   5  25
BRANCH   7  27
ATOM     27  O   UNL     1      13.870  12.349  14.022  1.00  0.00    -0.507 OA
ATOM     28  H   UNL     1      12.948  12.759  14.041  1.00  0.00     0.293 HD
ENDBRANCH   7  27
TORSDOF 7
ENDMDL
MODEL 5
REMARK VINA RESULT:    -7.161      2.031      6.714
REMARK INTER + INTRA:          -9.160
REMARK INTER:                  -8.850
REMARK INTRA:                  -0.310
REMARK UNBOUND:                -0.325
REMARK SMILES Oc1cc(O)c2cc(O)c(-c3cc(O)c(O)c(O)c3)[o+]c2c1
REMARK SMILES IDX 10 1 20 2 21 3 22 4 2 5 3 6 4 7 6 8 7 9 8 10 11 11 12 12
REMARK SMILES IDX 13 13 19 14 15 15 17 16 14 17 16 19 18 21 9 23 1 25 5 27
REMARK H PARENT 14 18 16 20 18 22 9 24 1 26 5 28
REMARK Flexibility Score: inf
ROOT
ATOM      1  C   UNL     1      15.997  14.596   9.742  1.00  0.00     0.402 A 
ATOM      2  O   UNL     1      15.349  15.733   9.502  1.00  0.00    -0.202 OA
ATOM      3  C   UNL     1      15.196  16.243   8.283  1.00  0.00     0.368 A 
ATOM      4  C   UNL     1      14.503  17.447   8.132  1.00  0.00     0.162 A 
ATOM      5  C   UNL     1      14.331  18.005   6.862  1.00  0.00     0.128 A 
ATOM      6  C   UNL     1      14.853  17.358   5.741  1.00  0.00     0.093 A 
ATOM      7  C   UNL     1      15.552  16.151   5.866  1.00  0.00     0.136 A 
ATOM      8  C   UNL     1      15.728  15.578   7.152  1.00  0.00     0.125 A 
ATOM      9  C   UNL     1      16.403  14.366   7.371  1.00  0.00     0.078 A 
ATOM     10  C   UNL     1      16.532  13.861   8.668  1.00  0.00     0.223 A 
ENDROOT
BRANCH   1  11
ATOM     11  C   UNL     1      16.109  14.138  11.146  1.00  0.00     0.091 A 
ATOM     12  C   UNL     1      15.012  13.582  11.822  1.00  0.00     0.068 A 
ATOM     13  C   UNL     1      15.141  13.134  13.140  1.00  0.00     0.162 A 
ATOM     14  C   UNL     1      17.347  14.207  11.798  1.00  0.00     0.068 A 
ATOM     15  C   UNL     1      16.379  13.227  13.803  1.00  0.00     0.200 A 
ATOM     16  C   UNL     1      17.494  13.766  13.117  1.00  0.00     0.162 A 
BRANCH  13  17
ATOM     17  O   UNL     1      14.022  12.594  13.776  1.00  0.00    -0.504 OA
ATOM     18  H   UNL     1      13.109  13.029  13.727  1.00  0.00     0.293 HD
ENDBRANCH  13  17
BRANCH  15  19
ATOM     19  O   UNL     1      16.461  12.776  15.123  1.00  0.00    -0.502 OA
ATOM     20  H   UNL     1      17.328  12.584  15.604  1.00  0.00     0.293 HD
ENDBRANCH  15  19
BRANCH  16  21
ATOM     21  O   UNL     1      18.757  13.880  13.703  1.00  0.00    -0.504 OA
ATOM     22  H   UNL     1      19.060  14.675  14.247  1.00  0.00     0.293 HD
ENDBRANCH  16  21
ENDBRANCH   1  11
BRANCH  10  23
ATOM     23  O   UNL     1      17.159  12.633   8.882  1.00  0.00    -0.500 OA
ATOM     24  H   UNL     1      16.659  11.840   9.270  1.00  0.00     0.294 HD
ENDBRANCH  10  23
BRANCH   5  25
ATOM     25  O   UNL     1      13.640  19.205   6.704  1.00  0.00    -0.507 OA
ATOM     26  H   UNL     1      13.276  19.492   5.802  1.00  0.00     0.293 HD
ENDBRANCH   5  25
BRANCH   7  27
ATOM     27  O   UNL     1      16.046  15.569   4.695  1.00  0.00    -0.507 OA
ATOM     28  H   UNL     1      15.501  15.419   3.859  1.00  0.00     0.293 HD
ENDBRANCH   7  27
TORSDOF 7
ENDMDL
MODEL 6
REMARK VINA RESULT:    -7.097      2.997      5.138
REMARK INTER + INTRA:          -9.082
REMARK INTER:                  -8.707
REMARK INTRA:                  -0.375
REMARK UNBOUND:                -0.325
REMARK SMILES Oc1cc(O)c2cc(O)c(-c3cc(O)c(O)c(O)c3)[o+]c2c1
REMARK SMILES IDX 10 1 20 2 21 3 22 4 2 5 3 6 4 7 6 8 7 9 8 10 11 11 12 12
REMARK SMILES IDX 13 13 19 14 15 15 17 16 14 17 16 19 18 21 9 23 1 25 5 27
REMARK H PARENT 14 18 16 20 18 22 9 24 1 26 5 28
REMARK Flexibility Score: inf
ROOT
ATOM      1  C   UNL     1      15.933  13.931  13.024  1.00  0.00     0.402 A 
ATOM      2  O   UNL     1      15.274  12.940  13.620  1.00  0.00    -0.202 OA
ATOM      3  C   UNL     1      15.305  12.729  14.932  1.00  0.00     0.368 A 
ATOM      4  C   UNL     1      14.582  11.659  15.465  1.00  0.00     0.162 A 
ATOM      5  C   UNL     1      14.601  11.412  16.841  1.00  0.00     0.128 A 
ATOM      6  C   UNL     1      15.345  12.238  17.686  1.00  0.00     0.093 A 
ATOM      7  C   UNL     1      16.078  13.317  17.176  1.00  0.00     0.136 A 
ATOM      8  C   UNL     1      16.061  13.573  15.780  1.00  0.00     0.125 A 
ATOM      9  C   UNL     1      16.755  14.638  15.183  1.00  0.00     0.078 A 
ATOM     10  C   UNL     1      16.686  14.830  13.800  1.00  0.00     0.223 A 
ENDROOT
BRANCH   1  11
ATOM     11  C   UNL     1      15.826  14.056  11.552  1.00  0.00     0.091 A 
ATOM     12  C   UNL     1      16.827  13.559  10.703  1.00  0.00     0.068 A 
ATOM     13  C   UNL     1      16.701  13.666   9.314  1.00  0.00     0.162 A 
ATOM     14  C   UNL     1      14.679  14.630  10.989  1.00  0.00     0.068 A 
ATOM     15  C   UNL     1      15.559  14.265   8.750  1.00  0.00     0.200 A 
ATOM     16  C   UNL     1      14.536  14.746   9.602  1.00  0.00     0.162 A 
BRANCH  13  17
ATOM     17  O   UNL     1      17.724  13.164   8.508  1.00  0.00    -0.504 OA
ATOM     18  H   UNL     1      18.652  13.567   8.499  1.00  0.00     0.293 HD
ENDBRANCH  13  17
BRANCH  15  19
ATOM     19  O   UNL     1      15.478  14.358   7.358  1.00  0.00    -0.502 OA
ATOM     20  H   UNL     1      14.729  13.965   6.806  1.00  0.00     0.293 HD
ENDBRANCH  15  19
BRANCH  16  21
ATOM     21  O   UNL     1      13.369  15.341   9.117  1.00  0.00    -0.504 OA
ATOM     22  H   UNL     1      13.184  16.334   9.148  1.00  0.00     0.293 HD
ENDBRANCH  16  21
ENDBRANCH   1  11
BRANCH  10  23
ATOM     23  O   UNL     1      17.335  15.917  13.211  1.00  0.00    -0.500 OA
ATOM     24  H   UNL     1      16.937  16.409  12.419  1.00  0.00     0.294 HD
ENDBRANCH  10  23
BRANCH   5  25
ATOM     25  O   UNL     1      13.881  10.347  17.380  1.00  0.00    -0.507 OA
ATOM     26  H   UNL     1      14.347   9.547  17.791  1.00  0.00     0.293 HD
ENDBRANCH   5  25
BRANCH   7  27
ATOM     27  O   UNL     1      16.799  14.093  18.088  1.00  0.00    -0.507 OA
ATOM     28  H   UNL     1      17.786  13.988  18.271  1.00  0.00     0.293 HD
ENDBRANCH   7  27
TORSDOF 7
ENDMDL
MODEL 7
REMARK VINA RESULT:    -6.992      2.339      6.820
REMARK INTER + INTRA:          -8.953
REMARK INTER:                  -8.570
REMARK INTRA:                  -0.383
REMARK UNBOUND:                -0.325
REMARK SMILES Oc1cc(O)c2cc(O)c(-c3cc(O)c(O)c(O)c3)[o+]c2c1
REMARK SMILES IDX 10 1 20 2 21 3 22 4 2 5 3 6 4 7 6 8 7 9 8 10 11 11 12 12
REMARK SMILES IDX 13 13 19 14 15 15 17 16 14 17 16 19 18 21 9 23 1 25 5 27
REMARK H PARENT 14 18 16 20 18 22 9 24 1 26 5 28
REMARK Flexibility Score: inf
ROOT
ATOM      1  C   UNL     1      15.482  15.459   8.698  1.00  0.00     0.402 A 
ATOM      2  O   UNL     1      15.180  16.751   8.599  1.00  0.00    -0.202 OA
ATOM      3  C   UNL     1      15.235  17.427   7.456  1.00  0.00     0.368 A 
ATOM      4  C   UNL     1      14.901  18.784   7.453  1.00  0.00     0.162 A 
ATOM      5  C   UNL     1      14.953  19.520   6.265  1.00  0.00     0.128 A 
ATOM      6  C   UNL     1      15.341  18.896   5.077  1.00  0.00     0.093 A 
ATOM      7  C   UNL     1      15.681  17.538   5.054  1.00  0.00     0.136 A 
ATOM      8  C   UNL     1      15.627  16.786   6.257  1.00  0.00     0.125 A 
ATOM      9  C   UNL     1      15.937  15.418   6.326  1.00  0.00     0.078 A 
ATOM     10  C   UNL     1      15.856  14.742   7.548  1.00  0.00     0.223 A 
ENDROOT
BRANCH   1  11
ATOM     11  C   UNL     1      15.392  14.820  10.032  1.00  0.00     0.091 A 
ATOM     12  C   UNL     1      16.512  14.719  10.870  1.00  0.00     0.068 A 
ATOM     13  C   UNL     1      16.405  14.133  12.135  1.00  0.00     0.162 A 
ATOM     14  C   UNL     1      14.153  14.356  10.492  1.00  0.00     0.068 A 
ATOM     15  C   UNL     1      15.165  13.644  12.587  1.00  0.00     0.200 A 
ATOM     16  C   UNL     1      14.027  13.764  11.754  1.00  0.00     0.162 A 
BRANCH  13  17
ATOM     17  O   UNL     1      17.546  14.048  12.933  1.00  0.00    -0.504 OA
ATOM     18  H   UNL     1      18.283  13.377  12.755  1.00  0.00     0.293 HD
ENDBRANCH  13  17
BRANCH  15  19
ATOM     19  O   UNL     1      15.104  13.058  13.854  1.00  0.00    -0.502 OA
ATOM     20  H   UNL     1      15.647  12.253  14.134  1.00  0.00     0.293 HD
ENDBRANCH  15  19
BRANCH  16  21
ATOM     21  O   UNL     1      12.760  13.315  12.136  1.00  0.00    -0.504 OA
ATOM     22  H   UNL     1      12.532  12.983  13.062  1.00  0.00     0.293 HD
ENDBRANCH  16  21
ENDBRANCH   1  11
BRANCH  10  23
ATOM     23  O   UNL     1      16.116  13.373   7.608  1.00  0.00    -0.500 OA
ATOM     24  H   UNL     1      15.369  12.692   7.687  1.00  0.00     0.294 HD
ENDBRANCH  10  23
BRANCH   5  25
ATOM     25  O   UNL     1      14.621  20.873   6.254  1.00  0.00    -0.507 OA
ATOM     26  H   UNL     1      15.317  21.588   6.078  1.00  0.00     0.293 HD
ENDBRANCH   5  25
BRANCH   7  27
ATOM     27  O   UNL     1      16.062  16.990   3.826  1.00  0.00    -0.507 OA
ATOM     28  H   UNL     1      17.018  16.844   3.539  1.00  0.00     0.293 HD
ENDBRANCH   7  27
TORSDOF 7
ENDMDL
MODEL 8
REMARK VINA RESULT:    -6.930      1.709      7.617
REMARK INTER + INTRA:          -8.876
REMARK INTER:                  -8.582
REMARK INTRA:                  -0.294
REMARK UNBOUND:                -0.325
REMARK SMILES Oc1cc(O)c2cc(O)c(-c3cc(O)c(O)c(O)c3)[o+]c2c1
REMARK SMILES IDX 10 1 20 2 21 3 22 4 2 5 3 6 4 7 6 8 7 9 8 10 11 11 12 12
REMARK SMILES IDX 13 13 19 14 15 15 17 16 14 17 16 19 18 21 9 23 1 25 5 27
REMARK H PARENT 14 18 16 20 18 22 9 24 1 26 5 28
REMARK Flexibility Score: inf
ROOT
ATOM      1  C   UNL     1      14.681  16.511   8.228  1.00  0.00     0.402 A 
ATOM      2  O   UNL     1      13.554  16.057   7.685  1.00  0.00    -0.202 OA
ATOM      3  C   UNL     1      12.767  16.796   6.911  1.00  0.00     0.368 A 
ATOM      4  C   UNL     1      11.600  16.231   6.389  1.00  0.00     0.162 A 
ATOM      5  C   UNL     1      10.754  16.988   5.574  1.00  0.00     0.128 A 
ATOM      6  C   UNL     1      11.075  18.315   5.280  1.00  0.00     0.093 A 
ATOM      7  C   UNL     1      12.238  18.905   5.791  1.00  0.00     0.136 A 
ATOM      8  C   UNL     1      13.102  18.140   6.617  1.00  0.00     0.125 A 
ATOM      9  C   UNL     1      14.294  18.644   7.161  1.00  0.00     0.078 A 
ATOM     10  C   UNL     1      15.098  17.828   7.963  1.00  0.00     0.223 A 
ENDROOT
BRANCH   1  11
ATOM     11  C   UNL     1      15.466  15.591   9.083  1.00  0.00     0.091 A 
ATOM     12  C   UNL     1      15.583  15.800  10.465  1.00  0.00     0.068 A 
ATOM     13  C   UNL     1      16.310  14.910  11.261  1.00  0.00     0.162 A 
ATOM     14  C   UNL     1      16.059  14.457   8.513  1.00  0.00     0.068 A 
ATOM     15  C   UNL     1      16.927  13.784  10.684  1.00  0.00     0.200 A 
ATOM     16  C   UNL     1      16.792  13.556   9.294  1.00  0.00     0.162 A 
BRANCH  13  17
ATOM     17  O   UNL     1      16.405  15.160  12.631  1.00  0.00    -0.504 OA
ATOM     18  H   UNL     1      16.390  16.098  13.012  1.00  0.00     0.293 HD
ENDBRANCH  13  17
BRANCH  15  19
ATOM     19  O   UNL     1      17.651  12.924  11.515  1.00  0.00    -0.502 OA
ATOM     20  H   UNL     1      17.888  13.129  12.475  1.00  0.00     0.293 HD
ENDBRANCH  15  19
BRANCH  16  21
ATOM     21  O   UNL     1      17.364  12.456   8.650  1.00  0.00    -0.504 OA
ATOM     22  H   UNL     1      17.585  11.583   9.108  1.00  0.00     0.293 HD
ENDBRANCH  16  21
ENDBRANCH   1  11
BRANCH  10  23
ATOM     23  O   UNL     1      16.307  18.312   8.465  1.00  0.00    -0.500 OA
ATOM     24  H   UNL     1      16.681  17.992   9.351  1.00  0.00     0.294 HD
ENDBRANCH  10  23
BRANCH   5  25
ATOM     25  O   UNL     1       9.589  16.430   5.049  1.00  0.00    -0.507 OA
ATOM     26  H   UNL     1       9.017  16.931   4.380  1.00  0.00     0.293 HD
ENDBRANCH   5  25
BRANCH   7  27
ATOM     27  O   UNL     1      12.485  20.238   5.452  1.00  0.00    -0.507 OA
ATOM     28  H   UNL     1      12.230  20.660   4.571  1.00  0.00     0.293 HD
ENDBRANCH   7  27
TORSDOF 7
ENDMDL
MODEL 9
REMARK VINA RESULT:    -6.772      1.881      7.536
REMARK INTER + INTRA:          -8.681
REMARK INTER:                  -8.301
REMARK INTRA:                  -0.380
REMARK UNBOUND:                -0.325
REMARK SMILES Oc1cc(O)c2cc(O)c(-c3cc(O)c(O)c(O)c3)[o+]c2c1
REMARK SMILES IDX 10 1 20 2 21 3 22 4 2 5 3 6 4 7 6 8 7 9 8 10 11 11 12 12
REMARK SMILES IDX 13 13 19 14 15 15 17 16 14 17 16 19 18 21 9 23 1 25 5 27
REMARK H PARENT 14 18 16 20 18 22 9 24 1 26 5 28
REMARK Flexibility Score: inf
ROOT
ATOM      1  C   UNL     1      14.718  16.698   7.956  1.00  0.00     0.402 A 
ATOM      2  O   UNL     1      15.396  17.716   7.431  1.00  0.00    -0.202 OA
ATOM      3  C   UNL     1      14.843  18.628   6.637  1.00  0.00     0.368 A 
ATOM      4  C   UNL     1      15.639  19.659   6.130  1.00  0.00     0.162 A 
ATOM      5  C   UNL     1      15.084  20.630   5.291  1.00  0.00     0.128 A 
ATOM      6  C   UNL     1      13.729  20.568   4.958  1.00  0.00     0.093 A 
ATOM      7  C   UNL     1      12.911  19.545   5.452  1.00  0.00     0.136 A 
ATOM      8  C   UNL     1      13.469  18.558   6.306  1.00  0.00     0.125 A 
ATOM      9  C   UNL     1      12.722  17.505   6.859  1.00  0.00     0.078 A 
ATOM     10  C   UNL     1      13.341  16.573   7.697  1.00  0.00     0.223 A 
ENDROOT
BRANCH   1  11
ATOM     11  C   UNL     1      15.450  15.741   8.818  1.00  0.00     0.091 A 
ATOM     12  C   UNL     1      15.556  15.940  10.203  1.00  0.00     0.068 A 
ATOM     13  C   UNL     1      16.232  15.015  11.005  1.00  0.00     0.162 A 
ATOM     14  C   UNL     1      16.000  14.584   8.251  1.00  0.00     0.068 A 
ATOM     15  C   UNL     1      16.806  13.865  10.432  1.00  0.00     0.200 A 
ATOM     16  C   UNL     1      16.680  13.649   9.039  1.00  0.00     0.162 A 
BRANCH  13  17
ATOM     17  O   UNL     1      16.319  15.257  12.377  1.00  0.00    -0.504 OA
ATOM     18  H   UNL     1      16.605  14.543  13.035  1.00  0.00     0.293 HD
ENDBRANCH  13  17
BRANCH  15  19
ATOM     19  O   UNL     1      17.479  12.971  11.269  1.00  0.00    -0.502 OA
ATOM     20  H   UNL     1      18.466  12.767  11.204  1.00  0.00     0.293 HD
ENDBRANCH  15  19
BRANCH  16  21
ATOM     21  O   UNL     1      17.212  12.526   8.398  1.00  0.00    -0.504 OA
ATOM     22  H   UNL     1      17.677  11.768   8.877  1.00  0.00     0.293 HD
ENDBRANCH  16  21
ENDBRANCH   1  11
BRANCH  10  23
ATOM     23  O   UNL     1      12.590  15.554   8.286  1.00  0.00    -0.500 OA
ATOM     24  H   UNL     1      12.113  15.688   9.170  1.00  0.00     0.294 HD
ENDBRANCH  10  23
BRANCH   5  25
ATOM     25  O   UNL     1      15.871  21.661   4.783  1.00  0.00    -0.507 OA
ATOM     26  H   UNL     1      16.708  21.973   5.260  1.00  0.00     0.293 HD
ENDBRANCH   5  25
BRANCH   7  27
ATOM     27  O   UNL     1      11.567  19.553   5.068  1.00  0.00    -0.507 OA
ATOM     28  H   UNL     1      10.838  20.056   5.553  1.00  0.00     0.293 HD
ENDBRANCH   7  27
TORSDOF 7
ENDMDL
