MODEL 1
REMARK VINA RESULT:    -4.557      0.000      0.000
REMARK INTER + INTRA:          -5.812
REMARK INTER:                  -5.489
REMARK INTRA:                  -0.323
REMARK UNBOUND:                -0.323
REMARK SMILES O=c1c(O)c(-c2ccc(O)c(O)c2)oc2cc(O)cc(O)c12
REMARK SMILES IDX 5 1 3 2 2 3 1 4 22 5 20 6 19 7 17 8 16 9 15 10 14 11 6 12
REMARK SMILES IDX 7 13 8 14 9 15 13 16 11 17 10 18 12 20 4 22 21 24 18 26
REMARK H PARENT 10 19 12 21 4 23 21 25 18 27
REMARK Flexibility Score: inf
ROOT
ATOM      1  C   UNL     1     175.097 176.668 149.764  1.00  0.00     0.180 A 
ATOM      2  C   UNL     1     176.288 176.700 150.514  1.00  0.00     0.208 A 
ATOM      3  C   UNL     1     176.924 177.934 150.724  1.00  0.00     0.238 A 
ATOM      4  O   UNL     1     177.998 177.974 151.385  1.00  0.00    -0.285 OA
ATOM      5  C   UNL     1     176.352 179.111 150.201  1.00  0.00     0.111 A 
ATOM      6  C   UNL     1     176.926 180.393 150.371  1.00  0.00     0.134 A 
ATOM      7  C   UNL     1     176.290 181.519 149.827  1.00  0.00     0.093 A 
ATOM      8  C   UNL     1     175.090 181.386 149.119  1.00  0.00     0.123 A 
ATOM      9  C   UNL     1     174.520 180.124 148.948  1.00  0.00     0.094 A 
ATOM     10  C   UNL     1     175.140 178.990 149.481  1.00  0.00     0.146 A 
ATOM     11  O   UNL     1     174.578 177.800 149.299  1.00  0.00    -0.452 OA
ENDROOT
BRANCH   1  12
ATOM     12  C   UNL     1     174.378 175.404 149.485  1.00  0.00     0.025 A 
ATOM     13  C   UNL     1     174.745 174.632 148.372  1.00  0.00     0.016 A 
ATOM     14  C   UNL     1     174.094 173.425 148.102  1.00  0.00     0.051 A 
ATOM     15  C   UNL     1     173.080 172.965 148.945  1.00  0.00     0.157 A 
ATOM     16  C   UNL     1     173.371 174.928 150.345  1.00  0.00     0.062 A 
ATOM     17  C   UNL     1     172.718 173.716 150.076  1.00  0.00     0.158 A 
BRANCH  15  18
ATOM     18  O   UNL     1     172.446 171.758 148.649  1.00  0.00    -0.504 OA
ATOM     19  H   UNL     1     172.574 170.929 149.217  1.00  0.00     0.293 HD
ENDBRANCH  15  18
BRANCH  17  20
ATOM     20  O   UNL     1     171.718 173.256 150.930  1.00  0.00    -0.504 OA
ATOM     21  H   UNL     1     170.755 173.171 150.624  1.00  0.00     0.293 HD
ENDBRANCH  17  20
ENDBRANCH   1  12
BRANCH   2  22
ATOM     22  O   UNL     1     176.809 175.525 151.064  1.00  0.00    -0.502 OA
ATOM     23  H   UNL     1     176.421 175.097 151.896  1.00  0.00     0.293 HD
ENDBRANCH   2  22
BRANCH   6  24
ATOM     24  O   UNL     1     178.122 180.557 151.073  1.00  0.00    -0.507 OA
ATOM     25  H   UNL     1     178.862 181.160 150.732  1.00  0.00     0.293 HD
ENDBRANCH   6  24
BRANCH   8  26
ATOM     26  O   UNL     1     174.457 182.504 148.580  1.00  0.00    -0.508 OA
ATOM     27  H   UNL     1     173.547 182.806 148.907  1.00  0.00     0.293 HD
ENDBRANCH   8  26
TORSDOF 6
ENDMDL
MODEL 2
REMARK VINA RESULT:    -4.530      4.369      6.747
REMARK INTER + INTRA:          -5.780
REMARK INTER:                  -5.478
REMARK INTRA:                  -0.303
REMARK UNBOUND:                -0.323
REMARK SMILES O=c1c(O)c(-c2ccc(O)c(O)c2)oc2cc(O)cc(O)c12
REMARK SMILES IDX 5 1 3 2 2 3 1 4 22 5 20 6 19 7 17 8 16 9 15 10 14 11 6 12
REMARK SMILES IDX 7 13 8 14 9 15 13 16 11 17 10 18 12 20 4 22 21 24 18 26
REMARK H PARENT 10 19 12 21 4 23 21 25 18 27
REMARK Flexibility Score: inf
ROOT
ATOM      1  C   UNL     1     176.572 173.102 149.723  1.00  0.00     0.180 A 
ATOM      2  C   UNL     1     176.586 171.915 150.480  1.00  0.00     0.208 A 
ATOM      3  C   UNL     1     177.810 171.266 150.701  1.00  0.00     0.238 A 
ATOM      4  O   UNL     1     177.833 170.195 151.368  1.00  0.00    -0.285 OA
ATOM      5  C   UNL     1     178.998 171.822 150.183  1.00  0.00     0.111 A 
ATOM      6  C   UNL     1     180.272 171.233 150.364  1.00  0.00     0.134 A 
ATOM      7  C   UNL     1     181.408 171.853 149.824  1.00  0.00     0.093 A 
ATOM      8  C   UNL     1     181.294 173.050 149.108  1.00  0.00     0.123 A 
ATOM      9  C   UNL     1     180.040 173.634 148.926  1.00  0.00     0.094 A 
ATOM     10  C   UNL     1     178.895 173.031 149.455  1.00  0.00     0.146 A 
ATOM     11  O   UNL     1     177.714 173.606 149.263  1.00  0.00    -0.452 OA
ENDROOT
BRANCH   1  12
ATOM     12  C   UNL     1     175.319 173.835 149.432  1.00  0.00     0.025 A 
ATOM     13  C   UNL     1     174.488 173.395 148.391  1.00  0.00     0.016 A 
ATOM     14  C   UNL     1     173.290 174.057 148.111  1.00  0.00     0.051 A 
ATOM     15  C   UNL     1     172.897 175.159 148.877  1.00  0.00     0.157 A 
ATOM     16  C   UNL     1     174.911 174.930 150.215  1.00  0.00     0.062 A 
ATOM     17  C   UNL     1     173.708 175.596 149.937  1.00  0.00     0.158 A 
BRANCH  15  18
ATOM     18  O   UNL     1     171.697 175.803 148.574  1.00  0.00    -0.504 OA
ATOM     19  H   UNL     1     171.660 176.782 148.322  1.00  0.00     0.293 HD
ENDBRANCH  15  18
BRANCH  17  20
ATOM     20  O   UNL     1     173.315 176.684 150.714  1.00  0.00    -0.504 OA
ATOM     21  H   UNL     1     173.049 176.576 151.686  1.00  0.00     0.293 HD
ENDBRANCH  17  20
ENDBRANCH   1  12
BRANCH   2  22
ATOM     22  O   UNL     1     175.401 171.411 151.025  1.00  0.00    -0.502 OA
ATOM     23  H   UNL     1     175.382 170.587 151.613  1.00  0.00     0.293 HD
ENDBRANCH   2  22
BRANCH   6  24
ATOM     24  O   UNL     1     180.417 170.039 151.074  1.00  0.00    -0.507 OA
ATOM     25  H   UNL     1     181.321 169.727 151.411  1.00  0.00     0.293 HD
ENDBRANCH   6  24
BRANCH   8  26
ATOM     26  O   UNL     1     182.423 173.667 148.573  1.00  0.00    -0.508 OA
ATOM     27  H   UNL     1     183.255 173.138 148.339  1.00  0.00     0.293 HD
ENDBRANCH   8  26
TORSDOF 6
ENDMDL
MODEL 3
REMARK VINA RESULT:    -4.530      3.644      9.541
REMARK INTER + INTRA:          -5.780
REMARK INTER:                  -5.474
REMARK INTRA:                  -0.306
REMARK UNBOUND:                -0.323
REMARK SMILES O=c1c(O)c(-c2ccc(O)c(O)c2)oc2cc(O)cc(O)c12
REMARK SMILES IDX 5 1 3 2 2 3 1 4 22 5 20 6 19 7 17 8 16 9 15 10 14 11 6 12
REMARK SMILES IDX 7 13 8 14 9 15 13 16 11 17 10 18 12 20 4 22 21 24 18 26
REMARK H PARENT 10 19 12 21 4 23 21 25 18 27
REMARK Flexibility Score: inf
ROOT
ATOM      1  C   UNL     1     173.090 171.534 149.739  1.00  0.00     0.180 A 
ATOM      2  C   UNL     1     171.910 171.516 150.507  1.00  0.00     0.208 A 
ATOM      3  C   UNL     1     171.268 170.288 150.736  1.00  0.00     0.238 A 
ATOM      4  O   UNL     1     170.204 170.261 151.414  1.00  0.00    -0.285 OA
ATOM      5  C   UNL     1     171.825 169.103 150.214  1.00  0.00     0.111 A 
ATOM      6  C   UNL     1     171.244 167.826 150.402  1.00  0.00     0.134 A 
ATOM      7  C   UNL     1     171.864 166.692 149.858  1.00  0.00     0.093 A 
ATOM      8  C   UNL     1     173.054 166.811 149.131  1.00  0.00     0.123 A 
ATOM      9  C   UNL     1     173.630 168.068 148.941  1.00  0.00     0.094 A 
ATOM     10  C   UNL     1     173.027 169.210 149.475  1.00  0.00     0.146 A 
ATOM     11  O   UNL     1     173.594 170.394 149.275  1.00  0.00    -0.452 OA
ENDROOT
BRANCH   1  12
ATOM     12  C   UNL     1     173.814 172.790 149.439  1.00  0.00     0.025 A 
ATOM     13  C   UNL     1     173.366 173.613 148.395  1.00  0.00     0.016 A 
ATOM     14  C   UNL     1     174.020 174.814 148.108  1.00  0.00     0.051 A 
ATOM     15  C   UNL     1     175.121 175.218 148.869  1.00  0.00     0.157 A 
ATOM     16  C   UNL     1     174.909 173.209 150.218  1.00  0.00     0.062 A 
ATOM     17  C   UNL     1     175.566 174.415 149.932  1.00  0.00     0.158 A 
BRANCH  15  18
ATOM     18  O   UNL     1     175.756 176.420 148.558  1.00  0.00    -0.504 OA
ATOM     19  H   UNL     1     176.690 176.636 148.884  1.00  0.00     0.293 HD
ENDBRANCH  15  18
BRANCH  17  20
ATOM     20  O   UNL     1     176.654 174.819 150.704  1.00  0.00    -0.504 OA
ATOM     21  H   UNL     1     176.919 175.794 150.780  1.00  0.00     0.293 HD
ENDBRANCH  17  20
ENDBRANCH   1  12
BRANCH   2  22
ATOM     22  O   UNL     1     171.406 172.699 151.056  1.00  0.00    -0.502 OA
ATOM     23  H   UNL     1     170.965 173.414 150.491  1.00  0.00     0.293 HD
ENDBRANCH   2  22
BRANCH   6  24
ATOM     24  O   UNL     1     170.058 167.676 151.124  1.00  0.00    -0.507 OA
ATOM     25  H   UNL     1     169.853 166.829 151.642  1.00  0.00     0.293 HD
ENDBRANCH   6  24
BRANCH   8  26
ATOM     26  O   UNL     1     173.671 165.685 148.591  1.00  0.00    -0.508 OA
ATOM     27  H   UNL     1     173.457 165.361 147.654  1.00  0.00     0.293 HD
ENDBRANCH   8  26
TORSDOF 6
ENDMDL
MODEL 4
REMARK VINA RESULT:    -4.469      4.401      6.697
REMARK INTER + INTRA:          -5.707
REMARK INTER:                  -5.392
REMARK INTRA:                  -0.315
REMARK UNBOUND:                -0.323
REMARK SMILES O=c1c(O)c(-c2ccc(O)c(O)c2)oc2cc(O)cc(O)c12
REMARK SMILES IDX 5 1 3 2 2 3 1 4 22 5 20 6 19 7 17 8 16 9 15 10 14 11 6 12
REMARK SMILES IDX 7 13 8 14 9 15 13 16 11 17 10 18 12 20 4 22 21 24 18 26
REMARK H PARENT 10 19 12 21 4 23 21 25 18 27
REMARK Flexibility Score: inf
ROOT
ATOM      1  C   UNL     1     171.470 175.174 149.736  1.00  0.00     0.180 A 
ATOM      2  C   UNL     1     171.479 176.335 150.533  1.00  0.00     0.208 A 
ATOM      3  C   UNL     1     170.265 176.997 150.781  1.00  0.00     0.238 A 
ATOM      4  O   UNL     1     170.262 178.044 151.484  1.00  0.00    -0.285 OA
ATOM      5  C   UNL     1     169.068 176.479 150.247  1.00  0.00     0.111 A 
ATOM      6  C   UNL     1     167.804 177.083 150.453  1.00  0.00     0.134 A 
ATOM      7  C   UNL     1     166.656 176.500 149.896  1.00  0.00     0.093 A 
ATOM      8  C   UNL     1     166.748 175.327 149.139  1.00  0.00     0.123 A 
ATOM      9  C   UNL     1     167.992 174.728 148.933  1.00  0.00     0.094 A 
ATOM     10  C   UNL     1     169.148 175.294 149.479  1.00  0.00     0.146 A 
ATOM     11  O   UNL     1     170.319 174.706 149.262  1.00  0.00    -0.452 OA
ENDROOT
BRANCH   1  12
ATOM     12  C   UNL     1     172.710 174.431 149.416  1.00  0.00     0.025 A 
ATOM     13  C   UNL     1     173.516 174.860 148.350  1.00  0.00     0.016 A 
ATOM     14  C   UNL     1     174.701 174.187 148.043  1.00  0.00     0.051 A 
ATOM     15  C   UNL     1     175.107 173.087 148.804  1.00  0.00     0.157 A 
ATOM     16  C   UNL     1     173.131 173.337 150.194  1.00  0.00     0.062 A 
ATOM     17  C   UNL     1     174.321 172.662 149.888  1.00  0.00     0.158 A 
BRANCH  15  18
ATOM     18  O   UNL     1     176.294 172.433 148.473  1.00  0.00    -0.504 OA
ATOM     19  H   UNL     1     176.602 172.329 147.514  1.00  0.00     0.293 HD
ENDBRANCH  15  18
BRANCH  17  20
ATOM     20  O   UNL     1     174.727 171.575 150.660  1.00  0.00    -0.504 OA
ATOM     21  H   UNL     1     174.105 170.798 150.853  1.00  0.00     0.293 HD
ENDBRANCH  17  20
ENDBRANCH   1  12
BRANCH   2  22
ATOM     22  O   UNL     1     172.673 176.800 151.091  1.00  0.00    -0.502 OA
ATOM     23  H   UNL     1     173.297 176.199 151.616  1.00  0.00     0.293 HD
ENDBRANCH   2  22
BRANCH   6  24
ATOM     24  O   UNL     1     167.681 178.253 151.204  1.00  0.00    -0.507 OA
ATOM     25  H   UNL     1     168.237 179.076 151.002  1.00  0.00     0.293 HD
ENDBRANCH   6  24
BRANCH   8  26
ATOM     26  O   UNL     1     165.607 174.748 148.587  1.00  0.00    -0.508 OA
ATOM     27  H   UNL     1     165.669 173.978 147.930  1.00  0.00     0.293 HD
ENDBRANCH   8  26
TORSDOF 6
ENDMDL
MODEL 5
REMARK VINA RESULT:    -4.205      3.934      6.731
REMARK INTER + INTRA:          -5.389
REMARK INTER:                  -5.226
REMARK INTRA:                  -0.163
REMARK UNBOUND:                -0.323
REMARK SMILES O=c1c(O)c(-c2ccc(O)c(O)c2)oc2cc(O)cc(O)c12
REMARK SMILES IDX 5 1 3 2 2 3 1 4 22 5 20 6 19 7 17 8 16 9 15 10 14 11 6 12
REMARK SMILES IDX 7 13 8 14 9 15 13 16 11 17 10 18 12 20 4 22 21 24 18 26
REMARK H PARENT 10 19 12 21 4 23 21 25 18 27
REMARK Flexibility Score: inf
ROOT
ATOM      1  C   UNL     1     170.271 175.046 150.150  1.00  0.00     0.180 A 
ATOM      2  C   UNL     1     170.956 176.223 150.508  1.00  0.00     0.208 A 
ATOM      3  C   UNL     1     172.343 176.289 150.301  1.00  0.00     0.238 A 
ATOM      4  O   UNL     1     172.970 177.335 150.629  1.00  0.00    -0.285 OA
ATOM      5  C   UNL     1     173.015 175.193 149.725  1.00  0.00     0.111 A 
ATOM      6  C   UNL     1     174.409 175.181 149.479  1.00  0.00     0.134 A 
ATOM      7  C   UNL     1     175.003 174.054 148.892  1.00  0.00     0.093 A 
ATOM      8  C   UNL     1     174.230 172.940 148.546  1.00  0.00     0.123 A 
ATOM      9  C   UNL     1     172.855 172.947 148.787  1.00  0.00     0.094 A 
ATOM     10  C   UNL     1     172.245 174.060 149.372  1.00  0.00     0.146 A 
ATOM     11  O   UNL     1     170.936 174.037 149.594  1.00  0.00    -0.452 OA
ENDROOT
BRANCH   1  12
ATOM     12  C   UNL     1     168.812 174.892 150.353  1.00  0.00     0.025 A 
ATOM     13  C   UNL     1     168.292 174.904 151.656  1.00  0.00     0.016 A 
ATOM     14  C   UNL     1     166.917 174.782 151.871  1.00  0.00     0.051 A 
ATOM     15  C   UNL     1     166.040 174.663 150.789  1.00  0.00     0.157 A 
ATOM     16  C   UNL     1     167.927 174.794 149.265  1.00  0.00     0.062 A 
ATOM     17  C   UNL     1     166.546 174.674 149.478  1.00  0.00     0.158 A 
BRANCH  15  18
ATOM     18  O   UNL     1     164.672 174.541 151.033  1.00  0.00    -0.504 OA
ATOM     19  H   UNL     1     164.178 173.668 150.899  1.00  0.00     0.293 HD
ENDBRANCH  15  18
BRANCH  17  20
ATOM     20  O   UNL     1     165.676 174.570 148.394  1.00  0.00    -0.504 OA
ATOM     21  H   UNL     1     165.081 173.760 148.265  1.00  0.00     0.293 HD
ENDBRANCH  17  20
ENDBRANCH   1  12
BRANCH   2  22
ATOM     22  O   UNL     1     170.259 177.315 151.032  1.00  0.00    -0.502 OA
ATOM     23  H   UNL     1     170.727 178.101 151.467  1.00  0.00     0.293 HD
ENDBRANCH   2  22
BRANCH   6  24
ATOM     24  O   UNL     1     175.207 176.277 149.813  1.00  0.00    -0.507 OA
ATOM     25  H   UNL     1     175.392 176.527 150.778  1.00  0.00     0.293 HD
ENDBRANCH   6  24
BRANCH   8  26
ATOM     26  O   UNL     1     174.819 171.821 147.963  1.00  0.00    -0.508 OA
ATOM     27  H   UNL     1     175.814 171.644 148.040  1.00  0.00     0.293 HD
ENDBRANCH   8  26
TORSDOF 6
ENDMDL
MODEL 6
REMARK VINA RESULT:    -4.196      4.028      7.212
REMARK INTER + INTRA:          -5.378
REMARK INTER:                  -5.108
REMARK INTRA:                  -0.270
REMARK UNBOUND:                -0.323
REMARK SMILES O=c1c(O)c(-c2ccc(O)c(O)c2)oc2cc(O)cc(O)c12
REMARK SMILES IDX 5 1 3 2 2 3 1 4 22 5 20 6 19 7 17 8 16 9 15 10 14 11 6 12
REMARK SMILES IDX 7 13 8 14 9 15 13 16 11 17 10 18 12 20 4 22 21 24 18 26
REMARK H PARENT 10 19 12 21 4 23 21 25 18 27
REMARK Flexibility Score: inf
ROOT
ATOM      1  C   UNL     1     177.669 173.244 150.096  1.00  0.00     0.180 A 
ATOM      2  C   UNL     1     176.969 172.061 150.401  1.00  0.00     0.208 A 
ATOM      3  C   UNL     1     175.587 172.010 150.161  1.00  0.00     0.238 A 
ATOM      4  O   UNL     1     174.946 170.959 150.441  1.00  0.00    -0.285 OA
ATOM      5  C   UNL     1     174.935 173.129 149.604  1.00  0.00     0.111 A 
ATOM      6  C   UNL     1     173.547 173.158 149.327  1.00  0.00     0.134 A 
ATOM      7  C   UNL     1     172.973 174.307 148.763  1.00  0.00     0.093 A 
ATOM      8  C   UNL     1     173.761 175.426 148.470  1.00  0.00     0.123 A 
ATOM      9  C   UNL     1     175.130 175.402 148.742  1.00  0.00     0.094 A 
ATOM     10  C   UNL     1     175.720 174.267 149.305  1.00  0.00     0.146 A 
ATOM     11  O   UNL     1     177.024 174.274 149.557  1.00  0.00    -0.452 OA
ENDROOT
BRANCH   1  12
ATOM     12  C   UNL     1     179.124 173.381 150.338  1.00  0.00     0.025 A 
ATOM     13  C   UNL     1     179.592 173.564 151.647  1.00  0.00     0.016 A 
ATOM     14  C   UNL     1     180.961 173.674 151.901  1.00  0.00     0.051 A 
ATOM     15  C   UNL     1     181.884 173.588 150.855  1.00  0.00     0.157 A 
ATOM     16  C   UNL     1     180.054 173.272 149.288  1.00  0.00     0.062 A 
ATOM     17  C   UNL     1     181.429 173.380 149.541  1.00  0.00     0.158 A 
BRANCH  15  18
ATOM     18  O   UNL     1     183.245 173.703 151.137  1.00  0.00    -0.504 OA
ATOM     19  H   UNL     1     183.587 174.241 151.923  1.00  0.00     0.293 HD
ENDBRANCH  15  18
BRANCH  17  20
ATOM     20  O   UNL     1     182.344 173.278 148.494  1.00  0.00    -0.504 OA
ATOM     21  H   UNL     1     182.122 172.777 147.642  1.00  0.00     0.293 HD
ENDBRANCH  17  20
ENDBRANCH   1  12
BRANCH   2  22
ATOM     22  O   UNL     1     177.648 170.948 150.906  1.00  0.00    -0.502 OA
ATOM     23  H   UNL     1     178.534 170.636 150.529  1.00  0.00     0.293 HD
ENDBRANCH   2  22
BRANCH   6  24
ATOM     24  O   UNL     1     172.735 172.057 149.608  1.00  0.00    -0.507 OA
ATOM     25  H   UNL     1     172.176 171.610 148.890  1.00  0.00     0.293 HD
ENDBRANCH   6  24
BRANCH   8  26
ATOM     26  O   UNL     1     173.192 176.567 147.908  1.00  0.00    -0.508 OA
ATOM     27  H   UNL     1     172.394 177.025 148.333  1.00  0.00     0.293 HD
ENDBRANCH   8  26
TORSDOF 6
ENDMDL
MODEL 7
REMARK VINA RESULT:    -4.190      1.486      6.674
REMARK INTER + INTRA:          -5.371
REMARK INTER:                  -5.204
REMARK INTRA:                  -0.167
REMARK UNBOUND:                -0.323
REMARK SMILES O=c1c(O)c(-c2ccc(O)c(O)c2)oc2cc(O)cc(O)c12
REMARK SMILES IDX 5 1 3 2 2 3 1 4 22 5 20 6 19 7 17 8 16 9 15 10 14 11 6 12
REMARK SMILES IDX 7 13 8 14 9 15 13 16 11 17 10 18 12 20 4 22 21 24 18 26
REMARK H PARENT 10 19 12 21 4 23 21 25 18 27
REMARK Flexibility Score: inf
ROOT
ATOM      1  C   UNL     1     175.012 177.756 150.138  1.00  0.00     0.180 A 
ATOM      2  C   UNL     1     176.188 177.059 150.477  1.00  0.00     0.208 A 
ATOM      3  C   UNL     1     176.241 175.673 150.258  1.00  0.00     0.238 A 
ATOM      4  O   UNL     1     177.285 175.036 150.567  1.00  0.00    -0.285 OA
ATOM      5  C   UNL     1     175.132 175.014 149.689  1.00  0.00     0.111 A 
ATOM      6  C   UNL     1     175.106 173.622 149.433  1.00  0.00     0.134 A 
ATOM      7  C   UNL     1     173.967 173.042 148.855  1.00  0.00     0.093 A 
ATOM      8  C   UNL     1     172.856 173.827 148.528  1.00  0.00     0.123 A 
ATOM      9  C   UNL     1     172.876 175.200 148.781  1.00  0.00     0.094 A 
ATOM     10  C   UNL     1     174.001 175.796 149.357  1.00  0.00     0.146 A 
ATOM     11  O   UNL     1     173.991 177.104 149.590  1.00  0.00    -0.452 OA
ENDROOT
BRANCH   1  12
ATOM     12  C   UNL     1     174.873 179.214 150.356  1.00  0.00     0.025 A 
ATOM     13  C   UNL     1     174.897 179.723 151.663  1.00  0.00     0.016 A 
ATOM     14  C   UNL     1     174.789 181.097 151.891  1.00  0.00     0.051 A 
ATOM     15  C   UNL     1     174.670 181.984 150.817  1.00  0.00     0.157 A 
ATOM     16  C   UNL     1     174.776 180.110 149.275  1.00  0.00     0.062 A 
ATOM     17  C   UNL     1     174.668 181.490 149.502  1.00  0.00     0.158 A 
BRANCH  15  18
ATOM     18  O   UNL     1     174.562 183.351 151.074  1.00  0.00    -0.504 OA
ATOM     19  H   UNL     1     174.506 184.036 150.331  1.00  0.00     0.293 HD
ENDBRANCH  15  18
BRANCH  17  20
ATOM     20  O   UNL     1     174.566 182.370 148.426  1.00  0.00    -0.504 OA
ATOM     21  H   UNL     1     175.228 182.352 147.659  1.00  0.00     0.293 HD
ENDBRANCH  17  20
ENDBRANCH   1  12
BRANCH   2  22
ATOM     22  O   UNL     1     177.292 177.743 150.993  1.00  0.00    -0.502 OA
ATOM     23  H   UNL     1     178.044 177.271 151.480  1.00  0.00     0.293 HD
ENDBRANCH   2  22
BRANCH   6  24
ATOM     24  O   UNL     1     176.200 172.814 149.747  1.00  0.00    -0.507 OA
ATOM     25  H   UNL     1     176.126 171.803 149.772  1.00  0.00     0.293 HD
ENDBRANCH   6  24
BRANCH   8  26
ATOM     26  O   UNL     1     171.725 173.251 147.954  1.00  0.00    -0.508 OA
ATOM     27  H   UNL     1     171.782 172.706 147.101  1.00  0.00     0.293 HD
ENDBRANCH   8  26
TORSDOF 6
ENDMDL
MODEL 8
REMARK VINA RESULT:    -4.158      4.437      9.898
REMARK INTER + INTRA:          -5.332
REMARK INTER:                  -5.510
REMARK INTRA:                   0.178
REMARK UNBOUND:                -0.323
REMARK SMILES O=c1c(O)c(-c2ccc(O)c(O)c2)oc2cc(O)cc(O)c12
REMARK SMILES IDX 5 1 3 2 2 3 1 4 22 5 20 6 19 7 17 8 16 9 15 10 14 11 6 12
REMARK SMILES IDX 7 13 8 14 9 15 13 16 11 17 10 18 12 20 4 22 21 24 18 26
REMARK H PARENT 10 19 12 21 4 23 21 25 18 27
REMARK Flexibility Score: inf
ROOT
ATOM      1  C   UNL     1     172.292 171.038 149.840  1.00  0.00     0.180 A 
ATOM      2  C   UNL     1     171.357 170.795 150.865  1.00  0.00     0.208 A 
ATOM      3  C   UNL     1     171.073 169.468 151.223  1.00  0.00     0.238 A 
ATOM      4  O   UNL     1     170.228 169.238 152.132  1.00  0.00    -0.285 OA
ATOM      5  C   UNL     1     171.739 168.412 150.569  1.00  0.00     0.111 A 
ATOM      6  C   UNL     1     171.514 167.048 150.874  1.00  0.00     0.134 A 
ATOM      7  C   UNL     1     172.225 166.054 150.184  1.00  0.00     0.093 A 
ATOM      8  C   UNL     1     173.156 166.399 149.199  1.00  0.00     0.123 A 
ATOM      9  C   UNL     1     173.381 167.742 148.895  1.00  0.00     0.094 A 
ATOM     10  C   UNL     1     172.682 168.747 149.569  1.00  0.00     0.146 A 
ATOM     11  O   UNL     1     172.912 170.017 149.256  1.00  0.00    -0.452 OA
ENDROOT
BRANCH   1  12
ATOM     12  C   UNL     1     172.631 172.408 149.394  1.00  0.00     0.025 A 
ATOM     13  C   UNL     1     173.930 172.686 148.941  1.00  0.00     0.016 A 
ATOM     14  C   UNL     1     174.266 173.966 148.495  1.00  0.00     0.051 A 
ATOM     15  C   UNL     1     173.308 174.984 148.479  1.00  0.00     0.157 A 
ATOM     16  C   UNL     1     171.662 173.428 149.356  1.00  0.00     0.062 A 
ATOM     17  C   UNL     1     171.997 174.713 148.907  1.00  0.00     0.158 A 
BRANCH  15  18
ATOM     18  O   UNL     1     173.673 176.253 148.031  1.00  0.00    -0.504 OA
ATOM     19  H   UNL     1     173.443 176.582 147.101  1.00  0.00     0.293 HD
ENDBRANCH  15  18
BRANCH  17  20
ATOM     20  O   UNL     1     171.033 175.719 148.880  1.00  0.00    -0.504 OA
ATOM     21  H   UNL     1     171.065 176.468 148.198  1.00  0.00     0.293 HD
ENDBRANCH  17  20
ENDBRANCH   1  12
BRANCH   2  22
ATOM     22  O   UNL     1     170.746 171.862 151.531  1.00  0.00    -0.502 OA
ATOM     23  H   UNL     1     171.111 172.241 152.397  1.00  0.00     0.293 HD
ENDBRANCH   2  22
BRANCH   6  24
ATOM     24  O   UNL     1     170.591 166.673 151.852  1.00  0.00    -0.507 OA
ATOM     25  H   UNL     1     170.391 165.699 152.051  1.00  0.00     0.293 HD
ENDBRANCH   6  24
BRANCH   8  26
ATOM     26  O   UNL     1     173.863 165.412 148.515  1.00  0.00    -0.508 OA
ATOM     27  H   UNL     1     174.462 165.638 147.729  1.00  0.00     0.293 HD
ENDBRANCH   8  26
TORSDOF 6
ENDMDL
MODEL 9
REMARK VINA RESULT:    -4.152      4.258      7.424
REMARK INTER + INTRA:          -5.324
REMARK INTER:                  -5.089
REMARK INTRA:                  -0.235
REMARK UNBOUND:                -0.323
REMARK SMILES O=c1c(O)c(-c2ccc(O)c(O)c2)oc2cc(O)cc(O)c12
REMARK SMILES IDX 5 1 3 2 2 3 1 4 22 5 20 6 19 7 17 8 16 9 15 10 14 11 6 12
REMARK SMILES IDX 7 13 8 14 9 15 13 16 11 17 10 18 12 20 4 22 21 24 18 26
REMARK H PARENT 10 19 12 21 4 23 21 25 18 27
REMARK Flexibility Score: inf
ROOT
ATOM      1  C   UNL     1     173.149 170.247 150.194  1.00  0.00     0.180 A 
ATOM      2  C   UNL     1     171.970 170.931 150.550  1.00  0.00     0.208 A 
ATOM      3  C   UNL     1     171.901 172.317 150.339  1.00  0.00     0.238 A 
ATOM      4  O   UNL     1     170.855 172.943 150.664  1.00  0.00    -0.285 OA
ATOM      5  C   UNL     1     172.996 172.990 149.760  1.00  0.00     0.111 A 
ATOM      6  C   UNL     1     173.005 174.383 149.510  1.00  0.00     0.134 A 
ATOM      7  C   UNL     1     174.132 174.977 148.921  1.00  0.00     0.093 A 
ATOM      8  C   UNL     1     175.246 174.205 148.577  1.00  0.00     0.123 A 
ATOM      9  C   UNL     1     175.243 172.831 148.823  1.00  0.00     0.094 A 
ATOM     10  C   UNL     1     174.131 172.221 149.410  1.00  0.00     0.146 A 
ATOM     11  O   UNL     1     174.156 170.912 149.636  1.00  0.00    -0.452 OA
ENDROOT
BRANCH   1  12
ATOM     12  C   UNL     1     173.305 168.790 150.402  1.00  0.00     0.025 A 
ATOM     13  C   UNL     1     173.449 168.290 151.705  1.00  0.00     0.016 A 
ATOM     14  C   UNL     1     173.577 166.916 151.927  1.00  0.00     0.051 A 
ATOM     15  C   UNL     1     173.546 166.021 150.854  1.00  0.00     0.157 A 
ATOM     16  C   UNL     1     173.253 167.886 149.325  1.00  0.00     0.062 A 
ATOM     17  C   UNL     1     173.379 166.507 149.546  1.00  0.00     0.158 A 
BRANCH  15  18
ATOM     18  O   UNL     1     173.678 164.655 151.105  1.00  0.00    -0.504 OA
ATOM     19  H   UNL     1     173.495 163.957 150.395  1.00  0.00     0.293 HD
ENDBRANCH  15  18
BRANCH  17  20
ATOM     20  O   UNL     1     173.332 165.619 148.473  1.00  0.00    -0.504 OA
ATOM     21  H   UNL     1     172.776 165.810 147.647  1.00  0.00     0.293 HD
ENDBRANCH  17  20
ENDBRANCH   1  12
BRANCH   2  22
ATOM     22  O   UNL     1     170.880 170.233 151.076  1.00  0.00    -0.502 OA
ATOM     23  H   UNL     1     170.983 169.526 151.794  1.00  0.00     0.293 HD
ENDBRANCH   2  22
BRANCH   6  24
ATOM     24  O   UNL     1     171.907 175.180 149.841  1.00  0.00    -0.507 OA
ATOM     25  H   UNL     1     171.362 175.013 150.680  1.00  0.00     0.293 HD
ENDBRANCH   6  24
BRANCH   8  26
ATOM     26  O   UNL     1     176.365 174.795 147.992  1.00  0.00    -0.508 OA
ATOM     27  H   UNL     1     176.290 175.644 147.443  1.00  0.00     0.293 HD
ENDBRANCH   8  26
TORSDOF 6
ENDMDL
