MODEL 1
REMARK VINA RESULT:    -4.127      0.000      0.000
REMARK INTER + INTRA:          -8.024
REMARK INTER:                  -6.540
REMARK INTRA:                  -1.484
REMARK UNBOUND:                -1.484
REMARK SMILES CCCCCCCCCCCC(=O)[O-]
REMARK SMILES IDX 7 1 8 2 9 3 10 4 11 5 12 6 13 7 14 8 6 9 5 10 4 11 3 12 2 13
REMARK SMILES IDX 1 14
REMARK H PARENT
REMARK Flexibility Score: inf
ROOT
ATOM      1  C   UNL     1     -11.123   4.360  -8.346  1.00  0.00     0.000 C 
ENDROOT
BRANCH   1   2
ATOM      2  C   UNL     1      -9.880   4.259  -7.448  1.00  0.00     0.000 C 
BRANCH   2   3
ATOM      3  C   UNL     1      -8.717   3.517  -8.126  1.00  0.00     0.000 C 
BRANCH   3   4
ATOM      4  C   UNL     1      -9.153   2.191  -8.766  1.00  0.00     0.006 C 
BRANCH   4   5
ATOM      5  C   UNL     1      -8.446   1.972 -10.107  1.00  0.00     0.053 C 
BRANCH   5   6
ATOM      6  C   UNL     1      -7.413   0.898  -9.985  1.00  0.00     0.041 C 
ATOM      7  O   UNL     1      -7.487   0.050  -9.057  1.00  0.00    -0.550 OA
ATOM      8  O   UNL     1      -6.394   0.801 -10.926  1.00  0.00    -0.550 OA
ENDBRANCH   5   6
ENDBRANCH   4   5
ENDBRANCH   3   4
ENDBRANCH   2   3
ENDBRANCH   1   2
BRANCH   1   9
ATOM      9  C   UNL     1     -10.952   5.469  -9.395  1.00  0.00     0.000 C 
BRANCH   9  10
ATOM     10  C   UNL     1     -10.721   4.922 -10.815  1.00  0.00    -0.000 C 
BRANCH  10  11
ATOM     11  C   UNL     1      -9.337   5.231 -11.413  1.00  0.00    -0.000 C 
BRANCH  11  12
ATOM     12  C   UNL     1      -8.761   6.571 -10.932  1.00  0.00    -0.000 C 
BRANCH  12  13
ATOM     13  C   UNL     1      -7.401   6.371 -10.253  1.00  0.00    -0.003 C 
ATOM     14  C   UNL     1      -7.453   6.781  -8.785  1.00  0.00     0.004 C 
ENDBRANCH  12  13
ENDBRANCH  11  12
ENDBRANCH  10  11
ENDBRANCH   9  10
ENDBRANCH   1   9
TORSDOF 10
ENDMDL
MODEL 2
REMARK VINA RESULT:    -4.075      1.356      2.315
REMARK INTER + INTRA:          -7.942
REMARK INTER:                  -6.625
REMARK INTRA:                  -1.317
REMARK UNBOUND:                -1.484
REMARK SMILES CCCCCCCCCCCC(=O)[O-]
REMARK SMILES IDX 7 1 8 2 9 3 10 4 11 5 12 6 13 7 14 8 6 9 5 10 4 11 3 12 2 13
REMARK SMILES IDX 1 14
REMARK H PARENT
REMARK Flexibility Score: inf
ROOT
ATOM      1  C   UNL     1      -8.237   4.905  -8.273  1.00  0.00     0.000 C 
ENDROOT
BRANCH   1   2
ATOM      2  C   UNL     1      -8.868   3.719  -7.529  1.00  0.00     0.000 C 
BRANCH   2   3
ATOM      3  C   UNL     1      -9.712   2.822  -8.449  1.00  0.00     0.000 C 
BRANCH   3   4
ATOM      4  C   UNL     1      -9.158   1.394  -8.553  1.00  0.00     0.006 C 
BRANCH   4   5
ATOM      5  C   UNL     1      -8.968   0.985 -10.017  1.00  0.00     0.053 C 
BRANCH   5   6
ATOM      6  C   UNL     1      -7.540   1.155 -10.427  1.00  0.00     0.041 C 
ATOM      7  O   UNL     1      -7.146   0.727 -11.544  1.00  0.00    -0.550 OA
ATOM      8  O   UNL     1      -6.653   1.829  -9.597  1.00  0.00    -0.550 OA
ENDBRANCH   5   6
ENDBRANCH   4   5
ENDBRANCH   3   4
ENDBRANCH   2   3
ENDBRANCH   1   2
BRANCH   1   9
ATOM      9  C   UNL     1      -9.279   6.001  -8.542  1.00  0.00     0.000 C 
BRANCH   9  10
ATOM     10  C   UNL     1      -8.993   6.799  -9.828  1.00  0.00    -0.000 C 
BRANCH  10  11
ATOM     11  C   UNL     1      -7.872   6.226 -10.712  1.00  0.00    -0.000 C 
BRANCH  11  12
ATOM     12  C   UNL     1      -8.387   5.666 -12.046  1.00  0.00    -0.000 C 
BRANCH  12  13
ATOM     13  C   UNL     1      -8.761   4.184 -11.910  1.00  0.00    -0.003 C 
ATOM     14  C   UNL     1     -10.275   4.001 -11.860  1.00  0.00     0.004 C 
ENDBRANCH  12  13
ENDBRANCH  11  12
ENDBRANCH  10  11
ENDBRANCH   9  10
ENDBRANCH   1   9
TORSDOF 10
ENDMDL
MODEL 3
REMARK VINA RESULT:    -3.941      1.225      3.067
REMARK INTER + INTRA:          -7.728
REMARK INTER:                  -6.277
REMARK INTRA:                  -1.451
REMARK UNBOUND:                -1.484
REMARK SMILES CCCCCCCCCCCC(=O)[O-]
REMARK SMILES IDX 7 1 8 2 9 3 10 4 11 5 12 6 13 7 14 8 6 9 5 10 4 11 3 12 2 13
REMARK SMILES IDX 1 14
REMARK H PARENT
REMARK Flexibility Score: inf
ROOT
ATOM      1  C   UNL     1      -8.855   4.950 -11.988  1.00  0.00     0.000 C 
ENDROOT
BRANCH   1   2
ATOM      2  C   UNL     1     -10.224   4.709 -11.334  1.00  0.00     0.000 C 
BRANCH   2   3
ATOM      3  C   UNL     1     -10.490   3.223 -11.046  1.00  0.00     0.000 C 
BRANCH   3   4
ATOM      4  C   UNL     1      -9.206   2.381 -11.042  1.00  0.00     0.006 C 
BRANCH   4   5
ATOM      5  C   UNL     1      -9.444   1.023 -10.373  1.00  0.00     0.053 C 
BRANCH   5   6
ATOM      6  C   UNL     1      -8.316   0.689  -9.450  1.00  0.00     0.041 C 
ATOM      7  O   UNL     1      -7.142   0.587  -9.894  1.00  0.00    -0.550 OA
ATOM      8  O   UNL     1      -8.552   0.537  -8.089  1.00  0.00    -0.550 OA
ENDBRANCH   5   6
ENDBRANCH   4   5
ENDBRANCH   3   4
ENDBRANCH   2   3
ENDBRANCH   1   2
BRANCH   1   9
ATOM      9  C   UNL     1      -8.045   5.988 -11.198  1.00  0.00     0.000 C 
BRANCH   9  10
ATOM     10  C   UNL     1      -8.881   6.718 -10.132  1.00  0.00    -0.000 C 
BRANCH  10  11
ATOM     11  C   UNL     1      -8.508   6.390  -8.675  1.00  0.00    -0.000 C 
BRANCH  11  12
ATOM     12  C   UNL     1      -7.717   5.081  -8.539  1.00  0.00    -0.000 C 
BRANCH  12  13
ATOM     13  C   UNL     1      -8.530   4.026  -7.777  1.00  0.00    -0.003 C 
ATOM     14  C   UNL     1      -9.952   4.511  -7.514  1.00  0.00     0.004 C 
ENDBRANCH  12  13
ENDBRANCH  11  12
ENDBRANCH  10  11
ENDBRANCH   9  10
ENDBRANCH   1   9
TORSDOF 10
ENDMDL
MODEL 4
REMARK VINA RESULT:    -3.810      2.154      4.494
REMARK INTER + INTRA:          -7.521
REMARK INTER:                  -6.157
REMARK INTRA:                  -1.364
REMARK UNBOUND:                -1.484
REMARK SMILES CCCCCCCCCCCC(=O)[O-]
REMARK SMILES IDX 7 1 8 2 9 3 10 4 11 5 12 6 13 7 14 8 6 9 5 10 4 11 3 12 2 13
REMARK SMILES IDX 1 14
REMARK H PARENT
REMARK Flexibility Score: inf
ROOT
ATOM      1  C   UNL     1      -8.790   5.019 -12.121  1.00  0.00     0.000 C 
ENDROOT
BRANCH   1   2
ATOM      2  C   UNL     1      -8.086   6.017 -11.189  1.00  0.00     0.000 C 
BRANCH   2   3
ATOM      3  C   UNL     1      -9.047   6.669 -10.182  1.00  0.00     0.000 C 
BRANCH   3   4
ATOM      4  C   UNL     1      -8.615   6.452  -8.725  1.00  0.00     0.006 C 
BRANCH   4   5
ATOM      5  C   UNL     1      -7.964   5.076  -8.546  1.00  0.00     0.053 C 
BRANCH   5   6
ATOM      6  C   UNL     1      -8.816   4.203  -7.680  1.00  0.00     0.041 C 
ATOM      7  O   UNL     1      -8.282   3.381  -6.890  1.00  0.00    -0.550 OA
ATOM      8  O   UNL     1     -10.199   4.331  -7.709  1.00  0.00    -0.550 OA
ENDBRANCH   5   6
ENDBRANCH   4   5
ENDBRANCH   3   4
ENDBRANCH   2   3
ENDBRANCH   1   2
BRANCH   1   9
ATOM      9  C   UNL     1     -10.101   4.517 -11.497  1.00  0.00     0.000 C 
BRANCH   9  10
ATOM     10  C   UNL     1     -10.032   3.043 -11.059  1.00  0.00    -0.000 C 
BRANCH  10  11
ATOM     11  C   UNL     1      -8.696   2.339 -11.356  1.00  0.00    -0.000 C 
BRANCH  11  12
ATOM     12  C   UNL     1      -8.244   1.408 -10.221  1.00  0.00    -0.000 C 
BRANCH  12  13
ATOM     13  C   UNL     1      -9.432   0.997  -9.342  1.00  0.00    -0.003 C 
ATOM     14  C   UNL     1      -8.963   0.261  -8.091  1.00  0.00     0.004 C 
ENDBRANCH  12  13
ENDBRANCH  11  12
ENDBRANCH  10  11
ENDBRANCH   9  10
ENDBRANCH   1   9
TORSDOF 10
ENDMDL
MODEL 5
REMARK VINA RESULT:    -3.750      2.265      4.493
REMARK INTER + INTRA:          -7.425
REMARK INTER:                  -6.470
REMARK INTRA:                  -0.955
REMARK UNBOUND:                -1.484
REMARK SMILES CCCCCCCCCCCC(=O)[O-]
REMARK SMILES IDX 7 1 8 2 9 3 10 4 11 5 12 6 13 7 14 8 6 9 5 10 4 11 3 12 2 13
REMARK SMILES IDX 1 14
REMARK H PARENT
REMARK Flexibility Score: inf
ROOT
ATOM      1  C   UNL     1      -9.393   4.641  -7.514  1.00  0.00     0.000 C 
ENDROOT
BRANCH   1   2
ATOM      2  C   UNL     1      -8.208   4.325  -8.440  1.00  0.00     0.000 C 
BRANCH   2   3
ATOM      3  C   UNL     1      -7.414   5.580  -8.836  1.00  0.00     0.000 C 
BRANCH   3   4
ATOM      4  C   UNL     1      -8.321   6.749  -9.246  1.00  0.00     0.006 C 
BRANCH   4   5
ATOM      5  C   UNL     1      -8.942   6.503 -10.625  1.00  0.00     0.053 C 
BRANCH   5   6
ATOM      6  C   UNL     1      -7.910   5.995 -11.581  1.00  0.00     0.041 C 
ATOM      7  O   UNL     1      -6.951   6.732 -11.929  1.00  0.00    -0.550 OA
ATOM      8  O   UNL     1      -7.980   4.689 -12.051  1.00  0.00    -0.550 OA
ENDBRANCH   5   6
ENDBRANCH   4   5
ENDBRANCH   3   4
ENDBRANCH   2   3
ENDBRANCH   1   2
BRANCH   1   9
ATOM      9  C   UNL     1     -10.722   4.228  -8.164  1.00  0.00     0.000 C 
BRANCH   9  10
ATOM     10  C   UNL     1     -10.538   3.580  -9.548  1.00  0.00    -0.000 C 
BRANCH  10  11
ATOM     11  C   UNL     1     -10.502   2.041  -9.545  1.00  0.00    -0.000 C 
BRANCH  11  12
ATOM     12  C   UNL     1      -9.330   1.467 -10.355  1.00  0.00    -0.000 C 
BRANCH  12  13
ATOM     13  C   UNL     1      -8.330   0.751  -9.439  1.00  0.00    -0.003 C 
ATOM     14  C   UNL     1      -8.968   0.392  -8.100  1.00  0.00     0.004 C 
ENDBRANCH  12  13
ENDBRANCH  11  12
ENDBRANCH  10  11
ENDBRANCH   9  10
ENDBRANCH   1   9
TORSDOF 10
ENDMDL
MODEL 6
REMARK VINA RESULT:    -3.707      2.535      4.489
REMARK INTER + INTRA:          -7.359
REMARK INTER:                  -5.804
REMARK INTRA:                  -1.555
REMARK UNBOUND:                -1.484
REMARK SMILES CCCCCCCCCCCC(=O)[O-]
REMARK SMILES IDX 7 1 8 2 9 3 10 4 11 5 12 6 13 7 14 8 6 9 5 10 4 11 3 12 2 13
REMARK SMILES IDX 1 14
REMARK H PARENT
REMARK Flexibility Score: inf
ROOT
ATOM      1  C   UNL     1      -9.255   4.513  -7.623  1.00  0.00     0.000 C 
ENDROOT
BRANCH   1   2
ATOM      2  C   UNL     1     -10.730   4.437  -8.046  1.00  0.00     0.000 C 
BRANCH   2   3
ATOM      3  C   UNL     1     -11.030   5.262  -9.307  1.00  0.00     0.000 C 
BRANCH   3   4
ATOM      4  C   UNL     1      -9.926   6.282  -9.623  1.00  0.00     0.006 C 
BRANCH   4   5
ATOM      5  C   UNL     1      -9.246   5.957 -10.957  1.00  0.00     0.053 C 
BRANCH   5   6
ATOM      6  C   UNL     1      -7.796   6.318 -10.908  1.00  0.00     0.041 C 
ATOM      7  O   UNL     1      -7.247   6.588  -9.807  1.00  0.00    -0.550 OA
ATOM      8  O   UNL     1      -7.036   6.309 -12.071  1.00  0.00    -0.550 OA
ENDBRANCH   5   6
ENDBRANCH   4   5
ENDBRANCH   3   4
ENDBRANCH   2   3
ENDBRANCH   1   2
BRANCH   1   9
ATOM      9  C   UNL     1      -8.447   3.364  -8.243  1.00  0.00     0.000 C 
BRANCH   9  10
ATOM     10  C   UNL     1      -9.262   2.066  -8.389  1.00  0.00    -0.000 C 
BRANCH  10  11
ATOM     11  C   UNL     1      -9.196   1.411  -9.780  1.00  0.00    -0.000 C 
BRANCH  11  12
ATOM     12  C   UNL     1      -8.579   2.328 -10.846  1.00  0.00    -0.000 C 
BRANCH  12  13
ATOM     13  C   UNL     1      -9.484   2.420 -12.081  1.00  0.00    -0.003 C 
ATOM     14  C   UNL     1     -10.956   2.477 -11.682  1.00  0.00     0.004 C 
ENDBRANCH  12  13
ENDBRANCH  11  12
ENDBRANCH  10  11
ENDBRANCH   9  10
ENDBRANCH   1   9
TORSDOF 10
ENDMDL
MODEL 7
REMARK VINA RESULT:    -3.406      1.193      2.533
REMARK INTER + INTRA:          -6.880
REMARK INTER:                  -5.637
REMARK INTRA:                  -1.244
REMARK UNBOUND:                -1.484
REMARK SMILES CCCCCCCCCCCC(=O)[O-]
REMARK SMILES IDX 7 1 8 2 9 3 10 4 11 5 12 6 13 7 14 8 6 9 5 10 4 11 3 12 2 13
REMARK SMILES IDX 1 14
REMARK H PARENT
REMARK Flexibility Score: inf
ROOT
ATOM      1  C   UNL     1      -9.739   4.429 -11.445  1.00  0.00     0.000 C 
ENDROOT
BRANCH   1   2
ATOM      2  C   UNL     1      -9.526   2.976 -11.896  1.00  0.00     0.000 C 
BRANCH   2   3
ATOM      3  C   UNL     1     -10.459   1.989 -11.177  1.00  0.00     0.000 C 
BRANCH   3   4
ATOM      4  C   UNL     1      -9.732   1.157 -10.111  1.00  0.00     0.006 C 
BRANCH   4   5
ATOM      5  C   UNL     1      -8.357   1.755  -9.793  1.00  0.00     0.053 C 
BRANCH   5   6
ATOM      6  C   UNL     1      -7.268   0.841 -10.257  1.00  0.00     0.041 C 
ATOM      7  O   UNL     1      -6.677   0.092  -9.435  1.00  0.00    -0.550 OA
ATOM      8  O   UNL     1      -6.938   0.780 -11.605  1.00  0.00    -0.550 OA
ENDBRANCH   5   6
ENDBRANCH   4   5
ENDBRANCH   3   4
ENDBRANCH   2   3
ENDBRANCH   1   2
BRANCH   1   9
ATOM      9  C   UNL     1     -11.125   4.608 -10.809  1.00  0.00     0.000 C 
BRANCH   9  10
ATOM     10  C   UNL     1     -11.070   5.293  -9.431  1.00  0.00    -0.000 C 
BRANCH  10  11
ATOM     11  C   UNL     1     -10.588   4.394  -8.278  1.00  0.00    -0.000 C 
BRANCH  11  12
ATOM     12  C   UNL     1      -9.237   4.837  -7.697  1.00  0.00    -0.000 C 
BRANCH  12  13
ATOM     13  C   UNL     1      -8.769   6.150  -8.336  1.00  0.00    -0.003 C 
ATOM     14  C   UNL     1      -7.426   5.973  -9.037  1.00  0.00     0.004 C 
ENDBRANCH  12  13
ENDBRANCH  11  12
ENDBRANCH  10  11
ENDBRANCH   9  10
ENDBRANCH   1   9
TORSDOF 10
ENDMDL
MODEL 8
REMARK VINA RESULT:    -3.391      2.164      2.837
REMARK INTER + INTRA:          -6.857
REMARK INTER:                  -5.551
REMARK INTRA:                  -1.306
REMARK UNBOUND:                -1.484
REMARK SMILES CCCCCCCCCCCC(=O)[O-]
REMARK SMILES IDX 7 1 8 2 9 3 10 4 11 5 12 6 13 7 14 8 6 9 5 10 4 11 3 12 2 13
REMARK SMILES IDX 1 14
REMARK H PARENT
REMARK Flexibility Score: inf
ROOT
ATOM      1  C   UNL     1      -8.600   3.739  -7.530  1.00  0.00     0.000 C 
ENDROOT
BRANCH   1   2
ATOM      2  C   UNL     1      -9.032   2.641  -8.515  1.00  0.00     0.000 C 
BRANCH   2   3
ATOM      3  C   UNL     1      -7.977   2.370  -9.600  1.00  0.00     0.000 C 
BRANCH   3   4
ATOM      4  C   UNL     1      -8.359   1.197 -10.515  1.00  0.00     0.006 C 
BRANCH   4   5
ATOM      5  C   UNL     1      -8.910   1.704 -11.852  1.00  0.00     0.053 C 
BRANCH   5   6
ATOM      6  C   UNL     1     -10.404   1.766 -11.813  1.00  0.00     0.041 C 
ATOM      7  O   UNL     1     -11.081   0.706 -11.770  1.00  0.00    -0.550 OA
ATOM      8  O   UNL     1     -11.048   2.997 -11.775  1.00  0.00    -0.550 OA
ENDBRANCH   5   6
ENDBRANCH   4   5
ENDBRANCH   3   4
ENDBRANCH   2   3
ENDBRANCH   1   2
BRANCH   1   9
ATOM      9  C   UNL     1      -9.623   4.884  -7.503  1.00  0.00     0.000 C 
BRANCH   9  10
ATOM     10  C   UNL     1     -10.549   4.892  -8.732  1.00  0.00    -0.000 C 
BRANCH  10  11
ATOM     11  C   UNL     1     -10.234   5.978  -9.777  1.00  0.00    -0.000 C 
BRANCH  11  12
ATOM     12  C   UNL     1      -8.897   6.688  -9.519  1.00  0.00    -0.000 C 
BRANCH  12  13
ATOM     13  C   UNL     1      -7.893   6.392 -10.640  1.00  0.00    -0.003 C 
ATOM     14  C   UNL     1      -8.496   5.458 -11.686  1.00  0.00     0.004 C 
ENDBRANCH  12  13
ENDBRANCH  11  12
ENDBRANCH  10  11
ENDBRANCH   9  10
ENDBRANCH   1   9
TORSDOF 10
ENDMDL
MODEL 9
REMARK VINA RESULT:    -3.117     12.124     15.584
REMARK INTER + INTRA:          -6.423
REMARK INTER:                  -5.688
REMARK INTRA:                  -0.735
REMARK UNBOUND:                -1.484
REMARK SMILES CCCCCCCCCCCC(=O)[O-]
REMARK SMILES IDX 7 1 8 2 9 3 10 4 11 5 12 6 13 7 14 8 6 9 5 10 4 11 3 12 2 13
REMARK SMILES IDX 1 14
REMARK H PARENT
REMARK Flexibility Score: inf
ROOT
ATOM      1  C   UNL     1      -0.405  -8.710 -10.931  1.00  0.00     0.000 C 
ENDROOT
BRANCH   1   2
ATOM      2  C   UNL     1      -0.131  -7.222 -10.663  1.00  0.00     0.000 C 
BRANCH   2   3
ATOM      3  C   UNL     1      -1.350  -6.332 -10.952  1.00  0.00     0.000 C 
BRANCH   3   4
ATOM      4  C   UNL     1      -1.026  -4.834 -10.853  1.00  0.00     0.006 C 
BRANCH   4   5
ATOM      5  C   UNL     1       0.121  -4.459 -11.797  1.00  0.00     0.053 C 
BRANCH   5   6
ATOM      6  C   UNL     1       1.271  -3.896 -11.025  1.00  0.00     0.041 C 
ATOM      7  O   UNL     1       1.226  -2.715 -10.591  1.00  0.00    -0.550 OA
ATOM      8  O   UNL     1       2.375  -4.691 -10.742  1.00  0.00    -0.550 OA
ENDBRANCH   5   6
ENDBRANCH   4   5
ENDBRANCH   3   4
ENDBRANCH   2   3
ENDBRANCH   1   2
BRANCH   1   9
ATOM      9  C   UNL     1      -1.904  -8.959 -11.155  1.00  0.00     0.000 C 
BRANCH   9  10
ATOM     10  C   UNL     1      -2.447 -10.137 -10.325  1.00  0.00    -0.000 C 
BRANCH  10  11
ATOM     11  C   UNL     1      -1.423 -10.795  -9.383  1.00  0.00    -0.000 C 
BRANCH  11  12
ATOM     12  C   UNL     1      -1.605 -12.315  -9.267  1.00  0.00    -0.000 C 
BRANCH  12  13
ATOM     13  C   UNL     1      -0.255 -13.038  -9.366  1.00  0.00    -0.003 C 
ATOM     14  C   UNL     1       0.754 -12.213 -10.160  1.00  0.00     0.004 C 
ENDBRANCH  12  13
ENDBRANCH  11  12
ENDBRANCH  10  11
ENDBRANCH   9  10
ENDBRANCH   1   9
TORSDOF 10
ENDMDL
