MODEL 1
REMARK VINA RESULT:    -3.363      0.000      0.000
REMARK INTER + INTRA:          -3.781
REMARK INTER:                  -3.658
REMARK INTRA:                  -0.123
REMARK UNBOUND:                -0.123
REMARK SMILES CC1=CC[C@](O)(C(C)C)CC1
REMARK SMILES IDX 1 1 2 2 3 3 4 4 5 5 10 6 11 7 7 8 8 9 9 10 6 11
REMARK H PARENT 6 12
REMARK Flexibility Score: inf
ROOT
ATOM      1  C   UNL     1     -42.125  27.098   4.337  1.00  0.00     0.039 C 
ATOM      2  C   UNL     1     -42.120  26.011   5.376  1.00  0.00    -0.077 C 
ATOM      3  C   UNL     1     -42.116  24.723   5.004  1.00  0.00    -0.025 C 
ATOM      4  C   UNL     1     -42.017  23.649   6.054  1.00  0.00     0.062 C 
ATOM      5  C   UNL     1     -40.911  23.996   7.099  1.00  0.00     0.071 C 
ATOM      6  C   UNL     1     -41.081  25.478   7.618  1.00  0.00     0.040 C 
ATOM      7  C   UNL     1     -42.109  26.335   6.848  1.00  0.00     0.033 C 
ENDROOT
BRANCH   5   8
ATOM      8  C   UNL     1     -40.969  22.996   8.310  1.00  0.00     0.015 C 
ATOM      9  C   UNL     1     -39.560  22.621   8.815  1.00  0.00     0.010 C 
ATOM     10  C   UNL     1     -41.734  21.698   7.985  1.00  0.00     0.010 C 
ENDBRANCH   5   8
BRANCH   5  11
ATOM     11  O   UNL     1     -39.650  23.852   6.482  1.00  0.00    -0.389 OA
ATOM     12  H   UNL     1     -39.134  23.163   6.975  1.00  0.00     0.211 HD
ENDBRANCH   5  11
TORSDOF 2
ENDMDL
MODEL 2
REMARK VINA RESULT:    -1.576      2.228      3.646
REMARK INTER + INTRA:          -1.838
REMARK INTER:                  -1.633
REMARK INTRA:                  -0.205
REMARK UNBOUND:                -0.123
REMARK SMILES CC1=CC[C@](O)(C(C)C)CC1
REMARK SMILES IDX 1 1 2 2 3 3 4 4 5 5 10 6 11 7 7 8 8 9 9 10 6 11
REMARK H PARENT 6 12
REMARK Flexibility Score: inf
ROOT
ATOM      1  C   UNL     1     -36.883  25.052   7.292  1.00  0.00     0.039 C 
ATOM      2  C   UNL     1     -38.074  24.136   7.266  1.00  0.00    -0.077 C 
ATOM      3  C   UNL     1     -38.489  23.536   8.391  1.00  0.00    -0.025 C 
ATOM      4  C   UNL     1     -39.737  22.697   8.366  1.00  0.00     0.062 C 
ATOM      5  C   UNL     1     -40.881  23.426   7.594  1.00  0.00     0.071 C 
ATOM      6  C   UNL     1     -40.361  23.960   6.201  1.00  0.00     0.040 C 
ATOM      7  C   UNL     1     -38.833  23.875   5.989  1.00  0.00     0.033 C 
ENDROOT
BRANCH   5   8
ATOM      8  C   UNL     1     -42.098  22.457   7.373  1.00  0.00     0.015 C 
ATOM      9  C   UNL     1     -42.125  21.318   8.415  1.00  0.00     0.010 C 
ATOM     10  C   UNL     1     -42.125  21.833   5.964  1.00  0.00     0.010 C 
ENDBRANCH   5   8
BRANCH   5  11
ATOM     11  O   UNL     1     -41.331  24.510   8.378  1.00  0.00    -0.389 OA
ATOM     12  H   UNL     1     -42.234  24.294   8.727  1.00  0.00     0.211 HD
ENDBRANCH   5  11
TORSDOF 2
ENDMDL
MODEL 3
REMARK VINA RESULT:    -1.255      0.992      4.340
REMARK INTER + INTRA:          -1.489
REMARK INTER:                  -1.277
REMARK INTRA:                  -0.212
REMARK UNBOUND:                -0.123
REMARK SMILES CC1=CC[C@](O)(C(C)C)CC1
REMARK SMILES IDX 1 1 2 2 3 3 4 4 5 5 10 6 11 7 7 8 8 9 9 10 6 11
REMARK H PARENT 6 12
REMARK Flexibility Score: inf
ROOT
ATOM      1  C   UNL     1     -40.717  20.740   9.120  1.00  0.00     0.039 C 
ATOM      2  C   UNL     1     -41.053  22.037   8.437  1.00  0.00    -0.077 C 
ATOM      3  C   UNL     1     -40.392  23.158   8.756  1.00  0.00    -0.025 C 
ATOM      4  C   UNL     1     -40.675  24.427   7.998  1.00  0.00     0.062 C 
ATOM      5  C   UNL     1     -40.730  24.155   6.462  1.00  0.00     0.071 C 
ATOM      6  C   UNL     1     -41.664  22.920   6.148  1.00  0.00     0.040 C 
ATOM      7  C   UNL     1     -42.125  22.109   7.380  1.00  0.00     0.033 C 
ENDROOT
BRANCH   5   8
ATOM      8  C   UNL     1     -41.250  25.426   5.699  1.00  0.00     0.015 C 
ATOM      9  C   UNL     1     -42.089  26.344   6.612  1.00  0.00     0.010 C 
ATOM     10  C   UNL     1     -42.086  25.080   4.451  1.00  0.00     0.010 C 
ENDBRANCH   5   8
BRANCH   5  11
ATOM     11  O   UNL     1     -39.421  23.885   6.008  1.00  0.00    -0.389 OA
ATOM     12  H   UNL     1     -39.479  23.447   5.120  1.00  0.00     0.211 HD
ENDBRANCH   5  11
TORSDOF 2
ENDMDL
MODEL 4
REMARK VINA RESULT:    -0.860      1.017      4.380
REMARK INTER + INTRA:          -1.059
REMARK INTER:                  -0.908
REMARK INTRA:                  -0.151
REMARK UNBOUND:                -0.123
REMARK SMILES CC1=CC[C@](O)(C(C)C)CC1
REMARK SMILES IDX 1 1 2 2 3 3 4 4 5 5 10 6 11 7 7 8 8 9 9 10 6 11
REMARK H PARENT 6 12
REMARK Flexibility Score: inf
ROOT
ATOM      1  C   UNL     1     -39.696  21.537   9.124  1.00  0.00     0.039 C 
ATOM      2  C   UNL     1     -40.368  22.710   8.467  1.00  0.00    -0.077 C 
ATOM      3  C   UNL     1     -39.659  23.802   8.147  1.00  0.00    -0.025 C 
ATOM      4  C   UNL     1     -40.326  24.928   7.406  1.00  0.00     0.062 C 
ATOM      5  C   UNL     1     -41.190  24.382   6.226  1.00  0.00     0.071 C 
ATOM      6  C   UNL     1     -42.125  23.208   6.718  1.00  0.00     0.040 C 
ATOM      7  C   UNL     1     -41.841  22.689   8.145  1.00  0.00     0.033 C 
ENDROOT
BRANCH   5   8
ATOM      8  C   UNL     1     -42.060  25.534   5.605  1.00  0.00     0.015 C 
ATOM      9  C   UNL     1     -41.555  25.949   4.207  1.00  0.00     0.010 C 
ATOM     10  C   UNL     1     -42.124  26.790   6.496  1.00  0.00     0.010 C 
ENDBRANCH   5   8
BRANCH   5  11
ATOM     11  O   UNL     1     -40.323  23.907   5.219  1.00  0.00    -0.389 OA
ATOM     12  H   UNL     1     -40.211  24.619   4.537  1.00  0.00     0.211 HD
ENDBRANCH   5  11
TORSDOF 2
ENDMDL
