MODEL 1
REMARK VINA RESULT:    -3.495      0.000      0.000
REMARK INTER + INTRA:          -5.347
REMARK INTER:                  -4.925
REMARK INTRA:                  -0.422
REMARK UNBOUND:                -0.422
REMARK SMILES CCCCCCCCC(=O)[O-]
REMARK SMILES IDX 6 1 7 2 8 3 9 4 10 5 11 6 5 7 4 8 3 9 2 10 1 11
REMARK H PARENT
REMARK Flexibility Score: inf
ROOT
ATOM      1  C   UNL     1      19.040 128.689  61.912  1.00  0.00     0.000 C 
ENDROOT
BRANCH   1   2
ATOM      2  C   UNL     1      18.288 129.699  61.033  1.00  0.00     0.006 C 
BRANCH   2   3
ATOM      3  C   UNL     1      19.170 130.188  59.881  1.00  0.00     0.053 C 
BRANCH   3   4
ATOM      4  C   UNL     1      18.431 130.106  58.583  1.00  0.00     0.041 C 
ATOM      5  O   UNL     1      19.015 129.698  57.545  1.00  0.00    -0.550 OA
ATOM      6  O   UNL     1      17.083 130.435  58.530  1.00  0.00    -0.550 OA
ENDBRANCH   3   4
ENDBRANCH   2   3
ENDBRANCH   1   2
BRANCH   1   7
ATOM      7  C   UNL     1      18.612 128.750  63.386  1.00  0.00     0.000 C 
BRANCH   7   8
ATOM      8  C   UNL     1      18.187 127.381  63.938  1.00  0.00    -0.000 C 
BRANCH   8   9
ATOM      9  C   UNL     1      17.089 126.755  63.071  1.00  0.00    -0.000 C 
BRANCH   9  10
ATOM     10  C   UNL     1      17.403 125.288  62.756  1.00  0.00    -0.003 C 
ATOM     11  C   UNL     1      18.905 125.023  62.809  1.00  0.00     0.004 C 
ENDBRANCH   9  10
ENDBRANCH   8   9
ENDBRANCH   7   8
ENDBRANCH   1   7
TORSDOF 7
ENDMDL
MODEL 2
REMARK VINA RESULT:    -3.455      5.504      7.377
REMARK INTER + INTRA:          -5.291
REMARK INTER:                  -4.739
REMARK INTRA:                  -0.552
REMARK UNBOUND:                -0.422
REMARK SMILES CCCCCCCCC(=O)[O-]
REMARK SMILES IDX 6 1 7 2 8 3 9 4 10 5 11 6 5 7 4 8 3 9 2 10 1 11
REMARK H PARENT
REMARK Flexibility Score: inf
ROOT
ATOM      1  C   UNL     1      15.147 129.134  55.056  1.00  0.00     0.000 C 
ENDROOT
BRANCH   1   2
ATOM      2  C   UNL     1      15.011 128.578  53.630  1.00  0.00     0.006 C 
BRANCH   2   3
ATOM      3  C   UNL     1      16.227 127.726  53.256  1.00  0.00     0.053 C 
BRANCH   3   4
ATOM      4  C   UNL     1      17.191 128.521  52.433  1.00  0.00     0.041 C 
ATOM      5  O   UNL     1      18.104 129.184  52.990  1.00  0.00    -0.550 OA
ATOM      6  O   UNL     1      17.111 128.490  51.046  1.00  0.00    -0.550 OA
ENDBRANCH   3   4
ENDBRANCH   2   3
ENDBRANCH   1   2
BRANCH   1   7
ATOM      7  C   UNL     1      15.493 128.048  56.086  1.00  0.00     0.000 C 
BRANCH   7   8
ATOM      8  C   UNL     1      16.646 128.456  57.015  1.00  0.00    -0.000 C 
BRANCH   8   9
ATOM      9  C   UNL     1      17.468 129.596  56.402  1.00  0.00    -0.000 C 
BRANCH   9  10
ATOM     10  C   UNL     1      18.852 129.689  57.053  1.00  0.00    -0.003 C 
ATOM     11  C   UNL     1      19.956 129.364  56.051  1.00  0.00     0.004 C 
ENDBRANCH   9  10
ENDBRANCH   8   9
ENDBRANCH   7   8
ENDBRANCH   1   7
TORSDOF 7
ENDMDL
MODEL 3
REMARK VINA RESULT:    -3.409      5.282      7.250
REMARK INTER + INTRA:          -5.226
REMARK INTER:                  -4.410
REMARK INTRA:                  -0.816
REMARK UNBOUND:                -0.422
REMARK SMILES CCCCCCCCC(=O)[O-]
REMARK SMILES IDX 6 1 7 2 8 3 9 4 10 5 11 6 5 7 4 8 3 9 2 10 1 11
REMARK H PARENT
REMARK Flexibility Score: inf
ROOT
ATOM      1  C   UNL     1      16.700 128.594  57.013  1.00  0.00     0.000 C 
ENDROOT
BRANCH   1   2
ATOM      2  C   UNL     1      17.483 129.871  56.678  1.00  0.00     0.006 C 
BRANCH   2   3
ATOM      3  C   UNL     1      18.951 129.740  57.094  1.00  0.00     0.053 C 
BRANCH   3   4
ATOM      4  C   UNL     1      19.837 129.719  55.889  1.00  0.00     0.041 C 
ATOM      5  O   UNL     1      20.207 128.622  55.393  1.00  0.00    -0.550 OA
ATOM      6  O   UNL     1      20.217 130.910  55.284  1.00  0.00    -0.550 OA
ENDBRANCH   3   4
ENDBRANCH   2   3
ENDBRANCH   1   2
BRANCH   1   7
ATOM      7  C   UNL     1      15.822 128.112  55.847  1.00  0.00     0.000 C 
BRANCH   7   8
ATOM      8  C   UNL     1      16.629 127.395  54.754  1.00  0.00    -0.000 C 
BRANCH   8   9
ATOM      9  C   UNL     1      16.397 128.046  53.385  1.00  0.00    -0.000 C 
BRANCH   9  10
ATOM     10  C   UNL     1      17.599 128.903  52.972  1.00  0.00    -0.003 C 
ATOM     11  C   UNL     1      17.258 130.389  53.019  1.00  0.00     0.004 C 
ENDBRANCH   9  10
ENDBRANCH   8   9
ENDBRANCH   7   8
ENDBRANCH   1   7
TORSDOF 7
ENDMDL
MODEL 4
REMARK VINA RESULT:    -3.363      5.955      7.525
REMARK INTER + INTRA:          -5.161
REMARK INTER:                  -4.433
REMARK INTRA:                  -0.728
REMARK UNBOUND:                -0.422
REMARK SMILES CCCCCCCCC(=O)[O-]
REMARK SMILES IDX 6 1 7 2 8 3 9 4 10 5 11 6 5 7 4 8 3 9 2 10 1 11
REMARK H PARENT
REMARK Flexibility Score: inf
ROOT
ATOM      1  C   UNL     1      17.688 129.057  56.269  1.00  0.00     0.000 C 
ENDROOT
BRANCH   1   2
ATOM      2  C   UNL     1      18.979 129.189  55.448  1.00  0.00     0.006 C 
BRANCH   2   3
ATOM      3  C   UNL     1      18.896 130.373  54.481  1.00  0.00     0.053 C 
BRANCH   3   4
ATOM      4  C   UNL     1      19.698 131.527  54.995  1.00  0.00     0.041 C 
ATOM      5  O   UNL     1      19.130 132.479  55.591  1.00  0.00    -0.550 OA
ATOM      6  O   UNL     1      21.081 131.527  54.858  1.00  0.00    -0.550 OA
ENDBRANCH   3   4
ENDBRANCH   2   3
ENDBRANCH   1   2
BRANCH   1   7
ATOM      7  C   UNL     1      16.833 127.855  55.841  1.00  0.00     0.000 C 
BRANCH   7   8
ATOM      8  C   UNL     1      15.432 128.264  55.359  1.00  0.00    -0.000 C 
BRANCH   8   9
ATOM      9  C   UNL     1      15.459 128.681  53.884  1.00  0.00    -0.000 C 
BRANCH   9  10
ATOM     10  C   UNL     1      16.327 127.726  53.057  1.00  0.00    -0.003 C 
ATOM     11  C   UNL     1      17.002 128.457  51.900  1.00  0.00     0.004 C 
ENDBRANCH   9  10
ENDBRANCH   8   9
ENDBRANCH   7   8
ENDBRANCH   1   7
TORSDOF 7
ENDMDL
MODEL 5
REMARK VINA RESULT:    -3.355      6.674      8.996
REMARK INTER + INTRA:          -5.149
REMARK INTER:                  -4.596
REMARK INTRA:                  -0.553
REMARK UNBOUND:                -0.422
REMARK SMILES CCCCCCCCC(=O)[O-]
REMARK SMILES IDX 6 1 7 2 8 3 9 4 10 5 11 6 5 7 4 8 3 9 2 10 1 11
REMARK H PARENT
REMARK Flexibility Score: inf
ROOT
ATOM      1  C   UNL     1      16.379 127.816  52.902  1.00  0.00     0.000 C 
ENDROOT
BRANCH   1   2
ATOM      2  C   UNL     1      17.392 128.630  52.082  1.00  0.00     0.006 C 
BRANCH   2   3
ATOM      3  C   UNL     1      16.686 129.461  51.007  1.00  0.00     0.053 C 
BRANCH   3   4
ATOM      4  C   UNL     1      17.059 128.976  49.642  1.00  0.00     0.041 C 
ATOM      5  O   UNL     1      16.213 128.996  48.709  1.00  0.00    -0.550 OA
ATOM      6  O   UNL     1      18.355 128.548  49.386  1.00  0.00    -0.550 OA
ENDBRANCH   3   4
ENDBRANCH   2   3
ENDBRANCH   1   2
BRANCH   1   7
ATOM      7  C   UNL     1      15.172 128.653  53.353  1.00  0.00     0.000 C 
BRANCH   7   8
ATOM      8  C   UNL     1      15.101 128.818  54.878  1.00  0.00    -0.000 C 
BRANCH   8   9
ATOM      9  C   UNL     1      15.961 127.765  55.585  1.00  0.00    -0.000 C 
BRANCH   9  10
ATOM     10  C   UNL     1      16.859 128.409  56.648  1.00  0.00    -0.003 C 
ATOM     11  C   UNL     1      18.057 129.105  56.009  1.00  0.00     0.004 C 
ENDBRANCH   9  10
ENDBRANCH   8   9
ENDBRANCH   7   8
ENDBRANCH   1   7
TORSDOF 7
ENDMDL
MODEL 6
REMARK VINA RESULT:    -3.297      5.097      7.092
REMARK INTER + INTRA:          -5.068
REMARK INTER:                  -4.399
REMARK INTRA:                  -0.670
REMARK UNBOUND:                -0.422
REMARK SMILES CCCCCCCCC(=O)[O-]
REMARK SMILES IDX 6 1 7 2 8 3 9 4 10 5 11 6 5 7 4 8 3 9 2 10 1 11
REMARK H PARENT
REMARK Flexibility Score: inf
ROOT
ATOM      1  C   UNL     1      15.741 127.882  55.764  1.00  0.00     0.000 C 
ENDROOT
BRANCH   1   2
ATOM      2  C   UNL     1      16.706 127.446  54.651  1.00  0.00     0.006 C 
BRANCH   2   3
ATOM      3  C   UNL     1      16.136 127.779  53.270  1.00  0.00     0.053 C 
BRANCH   3   4
ATOM      4  C   UNL     1      17.134 128.545  52.461  1.00  0.00     0.041 C 
ATOM      5  O   UNL     1      17.075 128.534  51.204  1.00  0.00    -0.550 OA
ATOM      6  O   UNL     1      18.102 129.312  53.098  1.00  0.00    -0.550 OA
ENDBRANCH   3   4
ENDBRANCH   2   3
ENDBRANCH   1   2
BRANCH   1   7
ATOM      7  C   UNL     1      15.348 129.364  55.662  1.00  0.00     0.000 C 
BRANCH   7   8
ATOM      8  C   UNL     1      16.139 130.256  56.629  1.00  0.00    -0.000 C 
BRANCH   8   9
ATOM      9  C   UNL     1      16.809 129.419  57.725  1.00  0.00    -0.000 C 
BRANCH   9  10
ATOM     10  C   UNL     1      18.283 129.807  57.891  1.00  0.00    -0.003 C 
ATOM     11  C   UNL     1      19.031 129.710  56.565  1.00  0.00     0.004 C 
ENDBRANCH   9  10
ENDBRANCH   8   9
ENDBRANCH   7   8
ENDBRANCH   1   7
TORSDOF 7
ENDMDL
MODEL 7
REMARK VINA RESULT:    -3.284      6.166      7.496
REMARK INTER + INTRA:          -5.049
REMARK INTER:                  -4.278
REMARK INTRA:                  -0.772
REMARK UNBOUND:                -0.422
REMARK SMILES CCCCCCCCC(=O)[O-]
REMARK SMILES IDX 6 1 7 2 8 3 9 4 10 5 11 6 5 7 4 8 3 9 2 10 1 11
REMARK H PARENT
REMARK Flexibility Score: inf
ROOT
ATOM      1  C   UNL     1      18.177 129.307  53.478  1.00  0.00     0.000 C 
ENDROOT
BRANCH   1   2
ATOM      2  C   UNL     1      17.935 130.760  53.914  1.00  0.00     0.006 C 
BRANCH   2   3
ATOM      3  C   UNL     1      18.294 130.957  55.389  1.00  0.00     0.053 C 
BRANCH   3   4
ATOM      4  C   UNL     1      19.710 130.546  55.643  1.00  0.00     0.041 C 
ATOM      5  O   UNL     1      20.661 131.220  55.169  1.00  0.00    -0.550 OA
ATOM      6  O   UNL     1      19.979 129.445  56.446  1.00  0.00    -0.550 OA
ENDBRANCH   3   4
ENDBRANCH   2   3
ENDBRANCH   1   2
BRANCH   1   7
ATOM      7  C   UNL     1      17.007 128.727  52.668  1.00  0.00     0.000 C 
BRANCH   7   8
ATOM      8  C   UNL     1      15.917 128.111  53.557  1.00  0.00    -0.000 C 
BRANCH   8   9
ATOM      9  C   UNL     1      16.525 127.479  54.814  1.00  0.00    -0.000 C 
BRANCH   9  10
ATOM     10  C   UNL     1      15.896 128.063  56.084  1.00  0.00    -0.003 C 
ATOM     11  C   UNL     1      14.831 129.102  55.745  1.00  0.00     0.004 C 
ENDBRANCH   9  10
ENDBRANCH   8   9
ENDBRANCH   7   8
ENDBRANCH   1   7
TORSDOF 7
ENDMDL
MODEL 8
REMARK VINA RESULT:    -3.281      6.252      8.196
REMARK INTER + INTRA:          -5.045
REMARK INTER:                  -4.330
REMARK INTRA:                  -0.715
REMARK UNBOUND:                -0.422
REMARK SMILES CCCCCCCCC(=O)[O-]
REMARK SMILES IDX 6 1 7 2 8 3 9 4 10 5 11 6 5 7 4 8 3 9 2 10 1 11
REMARK H PARENT
REMARK Flexibility Score: inf
ROOT
ATOM      1  C   UNL     1      15.282 128.239  53.570  1.00  0.00     0.000 C 
ENDROOT
BRANCH   1   2
ATOM      2  C   UNL     1      16.595 127.872  52.864  1.00  0.00     0.006 C 
BRANCH   2   3
ATOM      3  C   UNL     1      17.321 129.127  52.370  1.00  0.00     0.053 C 
BRANCH   3   4
ATOM      4  C   UNL     1      16.913 129.450  50.967  1.00  0.00     0.041 C 
ATOM      5  O   UNL     1      16.393 130.564  50.699  1.00  0.00    -0.550 OA
ATOM      6  O   UNL     1      17.153 128.539  49.947  1.00  0.00    -0.550 OA
ENDBRANCH   3   4
ENDBRANCH   2   3
ENDBRANCH   1   2
BRANCH   1   7
ATOM      7  C   UNL     1      15.505 128.810  54.979  1.00  0.00     0.000 C 
BRANCH   7   8
ATOM      8  C   UNL     1      16.403 127.915  55.846  1.00  0.00    -0.000 C 
BRANCH   8   9
ATOM      9  C   UNL     1      17.265 128.757  56.795  1.00  0.00    -0.000 C 
BRANCH   9  10
ATOM     10  C   UNL     1      18.152 129.733  56.014  1.00  0.00    -0.003 C 
ATOM     11  C   UNL     1      19.394 129.033  55.468  1.00  0.00     0.004 C 
ENDBRANCH   9  10
ENDBRANCH   8   9
ENDBRANCH   7   8
ENDBRANCH   1   7
TORSDOF 7
ENDMDL
MODEL 9
REMARK VINA RESULT:    -3.230      3.704      4.863
REMARK INTER + INTRA:          -4.973
REMARK INTER:                  -4.310
REMARK INTRA:                  -0.663
REMARK UNBOUND:                -0.422
REMARK SMILES CCCCCCCCC(=O)[O-]
REMARK SMILES IDX 6 1 7 2 8 3 9 4 10 5 11 6 5 7 4 8 3 9 2 10 1 11
REMARK H PARENT
REMARK Flexibility Score: inf
ROOT
ATOM      1  C   UNL     1      18.519 129.079  64.303  1.00  0.00     0.000 C 
ENDROOT
BRANCH   1   2
ATOM      2  C   UNL     1      18.574 128.160  63.073  1.00  0.00     0.006 C 
BRANCH   2   3
ATOM      3  C   UNL     1      17.299 127.320  62.959  1.00  0.00     0.053 C 
BRANCH   3   4
ATOM      4  C   UNL     1      17.633 125.862  62.919  1.00  0.00     0.041 C 
ATOM      5  O   UNL     1      16.717 125.000  62.968  1.00  0.00    -0.550 OA
ATOM      6  O   UNL     1      18.954 125.456  62.778  1.00  0.00    -0.550 OA
ENDBRANCH   3   4
ENDBRANCH   2   3
ENDBRANCH   1   2
BRANCH   1   7
ATOM      7  C   UNL     1      18.095 128.337  65.579  1.00  0.00     0.000 C 
BRANCH   7   8
ATOM      8  C   UNL     1      17.352 129.242  66.573  1.00  0.00    -0.000 C 
BRANCH   8   9
ATOM      9  C   UNL     1      15.915 128.755  66.792  1.00  0.00    -0.000 C 
BRANCH   9  10
ATOM     10  C   UNL     1      15.758 127.291  66.365  1.00  0.00    -0.003 C 
ATOM     11  C   UNL     1      14.547 127.109  65.455  1.00  0.00     0.004 C 
ENDBRANCH   9  10
ENDBRANCH   8   9
ENDBRANCH   7   8
ENDBRANCH   1   7
TORSDOF 7
ENDMDL
