MODEL 1
REMARK VINA RESULT:    -5.559      0.000      0.000
REMARK INTER + INTRA:         -11.388
REMARK INTER:                 -10.108
REMARK INTRA:                  -1.280
REMARK UNBOUND:                -1.280
REMARK SMILES CCCCCC=CCC=CCCCCCCCC(=O)[O-]
REMARK SMILES IDX 11 1 12 2 13 3 14 4 15 5 16 6 17 7 18 8 19 9 20 10 10 11
REMARK SMILES IDX 9 12 8 13 7 14 6 15 5 16 4 17 3 18 2 19 1 20
REMARK H PARENT
REMARK Flexibility Score: inf
ROOT
ATOM      1  C   UNL     1      45.550  43.939  32.383  1.00  0.00     0.027 C 
ENDROOT
BRANCH   1   2
ATOM      2  C   UNL     1      45.972  43.419  33.764  1.00  0.00     0.004 C 
BRANCH   2   3
ATOM      3  C   UNL     1      46.914  44.387  34.498  1.00  0.00     0.000 C 
BRANCH   3   4
ATOM      4  C   UNL     1      46.621  45.860  34.173  1.00  0.00     0.000 C 
BRANCH   4   5
ATOM      5  C   UNL     1      45.926  46.553  35.353  1.00  0.00     0.000 C 
BRANCH   5   6
ATOM      6  C   UNL     1      46.008  48.089  35.275  1.00  0.00     0.006 C 
BRANCH   6   7
ATOM      7  C   UNL     1      47.411  48.663  35.536  1.00  0.00     0.053 C 
BRANCH   7   8
ATOM      8  C   UNL     1      47.854  49.587  34.445  1.00  0.00     0.041 C 
ATOM      9  O   UNL     1      48.612  49.169  33.529  1.00  0.00    -0.550 OA
ATOM     10  O   UNL     1      47.408  50.903  34.421  1.00  0.00    -0.550 OA
ENDBRANCH   7   8
ENDBRANCH   6   7
ENDBRANCH   5   6
ENDBRANCH   4   5
ENDBRANCH   3   4
ENDBRANCH   2   3
ENDBRANCH   1   2
BRANCH   1  11
ATOM     11  C   UNL     1      45.938  42.962  31.303  1.00  0.00    -0.031 C 
ATOM     12  C   UNL     1      45.728  43.162  29.989  1.00  0.00    -0.027 C 
BRANCH  12  13
ATOM     13  C   UNL     1      45.022  44.371  29.431  1.00  0.00     0.054 C 
BRANCH  13  14
ATOM     14  C   UNL     1      45.973  45.210  28.618  1.00  0.00    -0.027 C 
ATOM     15  C   UNL     1      46.175  45.088  27.292  1.00  0.00    -0.031 C 
BRANCH  15  16
ATOM     16  C   UNL     1      45.439  44.133  26.382  1.00  0.00     0.027 C 
BRANCH  16  17
ATOM     17  C   UNL     1      44.020  44.604  26.013  1.00  0.00     0.004 C 
BRANCH  17  18
ATOM     18  C   UNL     1      42.912  43.576  26.308  1.00  0.00     0.000 C 
BRANCH  18  19
ATOM     19  C   UNL     1      43.464  42.250  26.851  1.00  0.00    -0.003 C 
ATOM     20  C   UNL     1      43.216  41.109  25.868  1.00  0.00     0.004 C 
ENDBRANCH  18  19
ENDBRANCH  17  18
ENDBRANCH  16  17
ENDBRANCH  15  16
ENDBRANCH  13  14
ENDBRANCH  12  13
ENDBRANCH   1  11
TORSDOF 14
ENDMDL
MODEL 2
REMARK VINA RESULT:    -5.549      6.824      9.731
REMARK INTER + INTRA:         -11.370
REMARK INTER:                 -10.002
REMARK INTRA:                  -1.369
REMARK UNBOUND:                -1.280
REMARK SMILES CCCCCC=CCC=CCCCCCCCC(=O)[O-]
REMARK SMILES IDX 11 1 12 2 13 3 14 4 15 5 16 6 17 7 18 8 19 9 20 10 10 11
REMARK SMILES IDX 9 12 8 13 7 14 6 15 5 16 4 17 3 18 2 19 1 20
REMARK H PARENT
REMARK Flexibility Score: inf
ROOT
ATOM      1  C   UNL     1      50.133  49.914  35.476  1.00  0.00     0.027 C 
ENDROOT
BRANCH   1   2
ATOM      2  C   UNL     1      51.060  50.605  36.487  1.00  0.00     0.004 C 
BRANCH   2   3
ATOM      3  C   UNL     1      51.523  49.660  37.606  1.00  0.00     0.000 C 
BRANCH   3   4
ATOM      4  C   UNL     1      52.209  50.402  38.763  1.00  0.00     0.000 C 
BRANCH   4   5
ATOM      5  C   UNL     1      51.729  49.865  40.120  1.00  0.00     0.000 C 
BRANCH   5   6
ATOM      6  C   UNL     1      51.040  50.943  40.978  1.00  0.00     0.006 C 
BRANCH   6   7
ATOM      7  C   UNL     1      51.905  52.186  41.248  1.00  0.00     0.053 C 
BRANCH   7   8
ATOM      8  C   UNL     1      51.927  52.552  42.699  1.00  0.00     0.041 C 
ATOM      9  O   UNL     1      51.961  53.763  43.047  1.00  0.00    -0.550 OA
ATOM     10  O   UNL     1      51.881  51.559  43.670  1.00  0.00    -0.550 OA
ENDBRANCH   7   8
ENDBRANCH   6   7
ENDBRANCH   5   6
ENDBRANCH   4   5
ENDBRANCH   3   4
ENDBRANCH   2   3
ENDBRANCH   1   2
BRANCH   1  11
ATOM     11  C   UNL     1      49.097  50.877  34.956  1.00  0.00    -0.031 C 
ATOM     12  C   UNL     1      47.866  50.520  34.549  1.00  0.00    -0.027 C 
BRANCH  12  13
ATOM     13  C   UNL     1      47.383  49.092  34.507  1.00  0.00     0.054 C 
BRANCH  13  14
ATOM     14  C   UNL     1      46.176  48.916  35.391  1.00  0.00    -0.027 C 
ATOM     15  C   UNL     1      45.537  47.751  35.606  1.00  0.00    -0.031 C 
BRANCH  15  16
ATOM     16  C   UNL     1      45.955  46.410  35.051  1.00  0.00     0.027 C 
BRANCH  16  17
ATOM     17  C   UNL     1      47.145  45.778  35.797  1.00  0.00     0.004 C 
BRANCH  17  18
ATOM     18  C   UNL     1      47.348  46.302  37.230  1.00  0.00     0.000 C 
BRANCH  18  19
ATOM     19  C   UNL     1      48.715  46.972  37.427  1.00  0.00    -0.003 C 
ATOM     20  C   UNL     1      49.109  46.992  38.902  1.00  0.00     0.004 C 
ENDBRANCH  18  19
ENDBRANCH  17  18
ENDBRANCH  16  17
ENDBRANCH  15  16
ENDBRANCH  13  14
ENDBRANCH  12  13
ENDBRANCH   1  11
TORSDOF 14
ENDMDL
MODEL 3
REMARK VINA RESULT:    -5.539      3.117      8.056
REMARK INTER + INTRA:         -11.353
REMARK INTER:                  -9.986
REMARK INTRA:                  -1.367
REMARK UNBOUND:                -1.280
REMARK SMILES CCCCCC=CCC=CCCCCCCCC(=O)[O-]
REMARK SMILES IDX 11 1 12 2 13 3 14 4 15 5 16 6 17 7 18 8 19 9 20 10 10 11
REMARK SMILES IDX 9 12 8 13 7 14 6 15 5 16 4 17 3 18 2 19 1 20
REMARK H PARENT
REMARK Flexibility Score: inf
ROOT
ATOM      1  C   UNL     1      46.882  45.598  34.425  1.00  0.00     0.027 C 
ENDROOT
BRANCH   1   2
ATOM      2  C   UNL     1      46.585  44.111  34.187  1.00  0.00     0.004 C 
BRANCH   2   3
ATOM      3  C   UNL     1      45.620  43.881  33.013  1.00  0.00     0.000 C 
BRANCH   3   4
ATOM      4  C   UNL     1      46.271  44.153  31.649  1.00  0.00     0.000 C 
BRANCH   4   5
ATOM      5  C   UNL     1      45.587  43.335  30.543  1.00  0.00     0.000 C 
BRANCH   5   6
ATOM      6  C   UNL     1      44.927  44.219  29.469  1.00  0.00     0.006 C 
BRANCH   6   7
ATOM      7  C   UNL     1      45.076  43.689  28.033  1.00  0.00     0.053 C 
BRANCH   7   8
ATOM      8  C   UNL     1      45.510  44.758  27.079  1.00  0.00     0.041 C 
ATOM      9  O   UNL     1      46.539  45.444  27.321  1.00  0.00    -0.550 OA
ATOM     10  O   UNL     1      44.797  44.978  25.907  1.00  0.00    -0.550 OA
ENDBRANCH   7   8
ENDBRANCH   6   7
ENDBRANCH   5   6
ENDBRANCH   4   5
ENDBRANCH   3   4
ENDBRANCH   2   3
ENDBRANCH   1   2
BRANCH   1  11
ATOM     11  C   UNL     1      45.672  46.302  34.984  1.00  0.00    -0.031 C 
ATOM     12  C   UNL     1      45.692  47.537  35.518  1.00  0.00    -0.027 C 
BRANCH  12  13
ATOM     13  C   UNL     1      46.948  48.355  35.678  1.00  0.00     0.054 C 
BRANCH  13  14
ATOM     14  C   UNL     1      46.888  49.589  34.815  1.00  0.00    -0.027 C 
ATOM     15  C   UNL     1      47.935  50.386  34.531  1.00  0.00    -0.031 C 
BRANCH  15  16
ATOM     16  C   UNL     1      49.359  50.148  34.973  1.00  0.00     0.027 C 
BRANCH  16  17
ATOM     17  C   UNL     1      50.027  48.946  34.281  1.00  0.00     0.004 C 
BRANCH  17  18
ATOM     18  C   UNL     1      49.758  48.852  32.768  1.00  0.00     0.000 C 
BRANCH  18  19
ATOM     19  C   UNL     1      49.114  47.518  32.363  1.00  0.00    -0.003 C 
ATOM     20  C   UNL     1      50.031  46.343  32.691  1.00  0.00     0.004 C 
ENDBRANCH  18  19
ENDBRANCH  17  18
ENDBRANCH  16  17
ENDBRANCH  15  16
ENDBRANCH  13  14
ENDBRANCH  12  13
ENDBRANCH   1  11
TORSDOF 14
ENDMDL
MODEL 4
REMARK VINA RESULT:    -5.528      6.827     12.507
REMARK INTER + INTRA:         -11.332
REMARK INTER:                  -9.899
REMARK INTRA:                  -1.432
REMARK UNBOUND:                -1.280
REMARK SMILES CCCCCC=CCC=CCCCCCCCC(=O)[O-]
REMARK SMILES IDX 11 1 12 2 13 3 14 4 15 5 16 6 17 7 18 8 19 9 20 10 10 11
REMARK SMILES IDX 9 12 8 13 7 14 6 15 5 16 4 17 3 18 2 19 1 20
REMARK H PARENT
REMARK Flexibility Score: inf
ROOT
ATOM      1  C   UNL     1      51.495  50.917  37.310  1.00  0.00     0.027 C 
ENDROOT
BRANCH   1   2
ATOM      2  C   UNL     1      51.330  50.068  36.042  1.00  0.00     0.004 C 
BRANCH   2   3
ATOM      3  C   UNL     1      49.857  49.770  35.717  1.00  0.00     0.000 C 
BRANCH   3   4
ATOM      4  C   UNL     1      49.160  50.939  35.005  1.00  0.00     0.000 C 
BRANCH   4   5
ATOM      5  C   UNL     1      47.789  50.509  34.461  1.00  0.00     0.000 C 
BRANCH   5   6
ATOM      6  C   UNL     1      47.543  48.995  34.594  1.00  0.00     0.006 C 
BRANCH   6   7
ATOM      7  C   UNL     1      46.233  48.626  35.309  1.00  0.00     0.053 C 
BRANCH   7   8
ATOM      8  C   UNL     1      46.228  47.205  35.781  1.00  0.00     0.041 C 
ATOM      9  O   UNL     1      45.508  46.348  35.203  1.00  0.00    -0.550 OA
ATOM     10  O   UNL     1      47.042  46.819  36.839  1.00  0.00    -0.550 OA
ENDBRANCH   7   8
ENDBRANCH   6   7
ENDBRANCH   5   6
ENDBRANCH   4   5
ENDBRANCH   3   4
ENDBRANCH   2   3
ENDBRANCH   1   2
BRANCH   1  11
ATOM     11  C   UNL     1      52.349  50.201  38.324  1.00  0.00    -0.031 C 
ATOM     12  C   UNL     1      52.336  50.459  39.645  1.00  0.00    -0.027 C 
BRANCH  12  13
ATOM     13  C   UNL     1      51.501  51.546  40.273  1.00  0.00     0.054 C 
BRANCH  13  14
ATOM     14  C   UNL     1      52.081  51.956  41.602  1.00  0.00    -0.027 C 
ATOM     15  C   UNL     1      51.537  51.682  42.802  1.00  0.00    -0.031 C 
BRANCH  15  16
ATOM     16  C   UNL     1      50.289  50.863  43.028  1.00  0.00     0.027 C 
BRANCH  16  17
ATOM     17  C   UNL     1      50.572  49.428  43.512  1.00  0.00     0.004 C 
BRANCH  17  18
ATOM     18  C   UNL     1      50.919  48.435  42.389  1.00  0.00     0.000 C 
BRANCH  18  19
ATOM     19  C   UNL     1      49.808  48.321  41.335  1.00  0.00    -0.003 C 
ATOM     20  C   UNL     1      48.505  47.831  41.961  1.00  0.00     0.004 C 
ENDBRANCH  18  19
ENDBRANCH  17  18
ENDBRANCH  16  17
ENDBRANCH  15  16
ENDBRANCH  13  14
ENDBRANCH  12  13
ENDBRANCH   1  11
TORSDOF 14
ENDMDL
MODEL 5
REMARK VINA RESULT:    -5.483      2.568      7.821
REMARK INTER + INTRA:         -11.251
REMARK INTER:                  -9.471
REMARK INTRA:                  -1.780
REMARK UNBOUND:                -1.280
REMARK SMILES CCCCCC=CCC=CCCCCCCCC(=O)[O-]
REMARK SMILES IDX 11 1 12 2 13 3 14 4 15 5 16 6 17 7 18 8 19 9 20 10 10 11
REMARK SMILES IDX 9 12 8 13 7 14 6 15 5 16 4 17 3 18 2 19 1 20
REMARK H PARENT
REMARK Flexibility Score: inf
ROOT
ATOM      1  C   UNL     1      46.861  43.603  32.191  1.00  0.00     0.027 C 
ENDROOT
BRANCH   1   2
ATOM      2  C   UNL     1      45.525  43.650  31.436  1.00  0.00     0.004 C 
BRANCH   2   3
ATOM      3  C   UNL     1      45.690  43.415  29.926  1.00  0.00     0.000 C 
BRANCH   3   4
ATOM      4  C   UNL     1      44.973  44.478  29.080  1.00  0.00     0.000 C 
BRANCH   4   5
ATOM      5  C   UNL     1      45.868  44.954  27.926  1.00  0.00     0.000 C 
BRANCH   5   6
ATOM      6  C   UNL     1      47.226  45.495  28.408  1.00  0.00     0.006 C 
BRANCH   6   7
ATOM      7  C   UNL     1      47.516  46.945  27.987  1.00  0.00     0.053 C 
BRANCH   7   8
ATOM      8  C   UNL     1      48.808  47.449  28.553  1.00  0.00     0.041 C 
ATOM      9  O   UNL     1      49.232  47.009  29.655  1.00  0.00    -0.550 OA
ATOM     10  O   UNL     1      49.560  48.382  27.850  1.00  0.00    -0.550 OA
ENDBRANCH   7   8
ENDBRANCH   6   7
ENDBRANCH   5   6
ENDBRANCH   4   5
ENDBRANCH   3   4
ENDBRANCH   2   3
ENDBRANCH   1   2
BRANCH   1  11
ATOM     11  C   UNL     1      47.573  44.928  32.101  1.00  0.00    -0.031 C 
ATOM     12  C   UNL     1      47.820  45.729  33.153  1.00  0.00    -0.027 C 
BRANCH  12  13
ATOM     13  C   UNL     1      47.363  45.426  34.557  1.00  0.00     0.054 C 
BRANCH  13  14
ATOM     14  C   UNL     1      45.991  45.999  34.802  1.00  0.00    -0.027 C 
ATOM     15  C   UNL     1      45.741  47.196  35.365  1.00  0.00    -0.031 C 
BRANCH  15  16
ATOM     16  C   UNL     1      46.789  48.196  35.791  1.00  0.00     0.027 C 
BRANCH  16  17
ATOM     17  C   UNL     1      46.790  49.484  34.946  1.00  0.00     0.004 C 
BRANCH  17  18
ATOM     18  C   UNL     1      48.097  49.737  34.174  1.00  0.00     0.000 C 
BRANCH  18  19
ATOM     19  C   UNL     1      49.280  48.933  34.732  1.00  0.00    -0.003 C 
ATOM     20  C   UNL     1      50.112  49.777  35.695  1.00  0.00     0.004 C 
ENDBRANCH  18  19
ENDBRANCH  17  18
ENDBRANCH  16  17
ENDBRANCH  15  16
ENDBRANCH  13  14
ENDBRANCH  12  13
ENDBRANCH   1  11
TORSDOF 14
ENDMDL
MODEL 6
REMARK VINA RESULT:    -5.471      2.032      3.682
REMARK INTER + INTRA:         -11.229
REMARK INTER:                  -9.643
REMARK INTRA:                  -1.586
REMARK UNBOUND:                -1.280
REMARK SMILES CCCCCC=CCC=CCCCCCCCC(=O)[O-]
REMARK SMILES IDX 11 1 12 2 13 3 14 4 15 5 16 6 17 7 18 8 19 9 20 10 10 11
REMARK SMILES IDX 9 12 8 13 7 14 6 15 5 16 4 17 3 18 2 19 1 20
REMARK H PARENT
REMARK Flexibility Score: inf
ROOT
ATOM      1  C   UNL     1      47.093  45.082  33.477  1.00  0.00     0.027 C 
ENDROOT
BRANCH   1   2
ATOM      2  C   UNL     1      46.968  45.860  34.795  1.00  0.00     0.004 C 
BRANCH   2   3
ATOM      3  C   UNL     1      45.554  46.419  35.020  1.00  0.00     0.000 C 
BRANCH   3   4
ATOM      4  C   UNL     1      45.564  47.835  35.614  1.00  0.00     0.000 C 
BRANCH   4   5
ATOM      5  C   UNL     1      46.999  48.372  35.726  1.00  0.00     0.000 C 
BRANCH   5   6
ATOM      6  C   UNL     1      47.246  49.605  34.837  1.00  0.00     0.006 C 
BRANCH   6   7
ATOM      7  C   UNL     1      48.450  49.471  33.890  1.00  0.00     0.053 C 
BRANCH   7   8
ATOM      8  C   UNL     1      49.732  49.257  34.633  1.00  0.00     0.041 C 
ATOM      9  O   UNL     1      50.112  50.093  35.495  1.00  0.00    -0.550 OA
ATOM     10  O   UNL     1      50.493  48.119  34.395  1.00  0.00    -0.550 OA
ENDBRANCH   7   8
ENDBRANCH   6   7
ENDBRANCH   5   6
ENDBRANCH   4   5
ENDBRANCH   3   4
ENDBRANCH   2   3
ENDBRANCH   1   2
BRANCH   1  11
ATOM     11  C   UNL     1      45.943  44.122  33.313  1.00  0.00    -0.031 C 
ATOM     12  C   UNL     1      45.527  43.631  32.131  1.00  0.00    -0.027 C 
BRANCH  12  13
ATOM     13  C   UNL     1      46.127  44.027  30.807  1.00  0.00     0.054 C 
BRANCH  13  14
ATOM     14  C   UNL     1      45.060  44.106  29.745  1.00  0.00    -0.027 C 
ATOM     15  C   UNL     1      44.768  43.129  28.867  1.00  0.00    -0.031 C 
BRANCH  15  16
ATOM     16  C   UNL     1      45.414  41.764  28.833  1.00  0.00     0.027 C 
BRANCH  16  17
ATOM     17  C   UNL     1      44.713  40.728  29.732  1.00  0.00     0.004 C 
BRANCH  17  18
ATOM     18  C   UNL     1      45.653  39.980  30.694  1.00  0.00     0.000 C 
BRANCH  18  19
ATOM     19  C   UNL     1      44.964  39.585  32.008  1.00  0.00    -0.003 C 
ATOM     20  C   UNL     1      45.849  39.905  33.210  1.00  0.00     0.004 C 
ENDBRANCH  18  19
ENDBRANCH  17  18
ENDBRANCH  16  17
ENDBRANCH  15  16
ENDBRANCH  13  14
ENDBRANCH  12  13
ENDBRANCH   1  11
TORSDOF 14
ENDMDL
MODEL 7
REMARK VINA RESULT:    -5.450      8.147      9.711
REMARK INTER + INTRA:         -11.191
REMARK INTER:                 -10.137
REMARK INTRA:                  -1.054
REMARK UNBOUND:                -1.280
REMARK SMILES CCCCCC=CCC=CCCCCCCCC(=O)[O-]
REMARK SMILES IDX 11 1 12 2 13 3 14 4 15 5 16 6 17 7 18 8 19 9 20 10 10 11
REMARK SMILES IDX 9 12 8 13 7 14 6 15 5 16 4 17 3 18 2 19 1 20
REMARK H PARENT
REMARK Flexibility Score: inf
ROOT
ATOM      1  C   UNL     1      43.880  52.914  34.225  1.00  0.00     0.027 C 
ENDROOT
BRANCH   1   2
ATOM      2  C   UNL     1      43.899  54.365  34.726  1.00  0.00     0.004 C 
BRANCH   2   3
ATOM      3  C   UNL     1      42.694  54.698  35.619  1.00  0.00     0.000 C 
BRANCH   3   4
ATOM      4  C   UNL     1      43.093  55.455  36.895  1.00  0.00     0.000 C 
BRANCH   4   5
ATOM      5  C   UNL     1      44.529  55.106  37.312  1.00  0.00     0.000 C 
BRANCH   5   6
ATOM      6  C   UNL     1      44.892  55.645  38.708  1.00  0.00     0.006 C 
BRANCH   6   7
ATOM      7  C   UNL     1      45.040  57.174  38.778  1.00  0.00     0.053 C 
BRANCH   7   8
ATOM      8  C   UNL     1      45.903  57.708  37.677  1.00  0.00     0.041 C 
ATOM      9  O   UNL     1      45.457  58.586  36.892  1.00  0.00    -0.550 OA
ATOM     10  O   UNL     1      47.211  57.259  37.536  1.00  0.00    -0.550 OA
ENDBRANCH   7   8
ENDBRANCH   6   7
ENDBRANCH   5   6
ENDBRANCH   4   5
ENDBRANCH   3   4
ENDBRANCH   2   3
ENDBRANCH   1   2
BRANCH   1  11
ATOM     11  C   UNL     1      43.011  52.055  35.108  1.00  0.00    -0.031 C 
ATOM     12  C   UNL     1      41.903  51.416  34.691  1.00  0.00    -0.027 C 
BRANCH  12  13
ATOM     13  C   UNL     1      41.355  51.525  33.291  1.00  0.00     0.054 C 
BRANCH  13  14
ATOM     14  C   UNL     1      39.848  51.534  33.313  1.00  0.00    -0.027 C 
ATOM     15  C   UNL     1      39.061  50.521  32.905  1.00  0.00    -0.031 C 
BRANCH  15  16
ATOM     16  C   UNL     1      39.551  49.178  32.416  1.00  0.00     0.027 C 
BRANCH  16  17
ATOM     17  C   UNL     1      38.495  48.390  31.619  1.00  0.00     0.004 C 
BRANCH  17  18
ATOM     18  C   UNL     1      37.530  49.266  30.800  1.00  0.00     0.000 C 
BRANCH  18  19
ATOM     19  C   UNL     1      37.313  48.737  29.376  1.00  0.00    -0.003 C 
ATOM     20  C   UNL     1      37.364  49.870  28.354  1.00  0.00     0.004 C 
ENDBRANCH  18  19
ENDBRANCH  17  18
ENDBRANCH  16  17
ENDBRANCH  15  16
ENDBRANCH  13  14
ENDBRANCH  12  13
ENDBRANCH   1  11
TORSDOF 14
ENDMDL
MODEL 8
REMARK VINA RESULT:    -5.434      8.144     10.390
REMARK INTER + INTRA:         -11.162
REMARK INTER:                  -9.608
REMARK INTRA:                  -1.554
REMARK UNBOUND:                -1.280
REMARK SMILES CCCCCC=CCC=CCCCCCCCC(=O)[O-]
REMARK SMILES IDX 11 1 12 2 13 3 14 4 15 5 16 6 17 7 18 8 19 9 20 10 10 11
REMARK SMILES IDX 9 12 8 13 7 14 6 15 5 16 4 17 3 18 2 19 1 20
REMARK H PARENT
REMARK Flexibility Score: inf
ROOT
ATOM      1  C   UNL     1      43.595  53.024  34.223  1.00  0.00     0.027 C 
ENDROOT
BRANCH   1   2
ATOM      2  C   UNL     1      44.034  53.875  35.423  1.00  0.00     0.004 C 
BRANCH   2   3
ATOM      3  C   UNL     1      43.129  55.098  35.644  1.00  0.00     0.000 C 
BRANCH   3   4
ATOM      4  C   UNL     1      43.719  56.098  36.650  1.00  0.00     0.000 C 
BRANCH   4   5
ATOM      5  C   UNL     1      44.826  55.442  37.488  1.00  0.00     0.000 C 
BRANCH   5   6
ATOM      6  C   UNL     1      44.730  55.794  38.984  1.00  0.00     0.006 C 
BRANCH   6   7
ATOM      7  C   UNL     1      44.179  57.201  39.270  1.00  0.00     0.053 C 
BRANCH   7   8
ATOM      8  C   UNL     1      45.106  58.007  40.127  1.00  0.00     0.041 C 
ATOM      9  O   UNL     1      46.212  58.400  39.668  1.00  0.00    -0.550 OA
ATOM     10  O   UNL     1      44.737  58.349  41.422  1.00  0.00    -0.550 OA
ENDBRANCH   7   8
ENDBRANCH   6   7
ENDBRANCH   5   6
ENDBRANCH   4   5
ENDBRANCH   3   4
ENDBRANCH   2   3
ENDBRANCH   1   2
BRANCH   1  11
ATOM     11  C   UNL     1      42.932  51.752  34.685  1.00  0.00    -0.031 C 
ATOM     12  C   UNL     1      41.609  51.518  34.617  1.00  0.00    -0.027 C 
BRANCH  12  13
ATOM     13  C   UNL     1      40.608  52.530  34.120  1.00  0.00     0.054 C 
BRANCH  13  14
ATOM     14  C   UNL     1      39.202  52.047  34.366  1.00  0.00    -0.027 C 
ATOM     15  C   UNL     1      38.255  51.904  33.419  1.00  0.00    -0.031 C 
BRANCH  15  16
ATOM     16  C   UNL     1      38.457  52.141  31.941  1.00  0.00     0.027 C 
BRANCH  16  17
ATOM     17  C   UNL     1      38.511  50.845  31.111  1.00  0.00     0.004 C 
BRANCH  17  18
ATOM     18  C   UNL     1      39.932  50.309  30.859  1.00  0.00     0.000 C 
BRANCH  18  19
ATOM     19  C   UNL     1      40.421  49.378  31.978  1.00  0.00    -0.003 C 
ATOM     20  C   UNL     1      39.351  48.352  32.345  1.00  0.00     0.004 C 
ENDBRANCH  18  19
ENDBRANCH  17  18
ENDBRANCH  16  17
ENDBRANCH  15  16
ENDBRANCH  13  14
ENDBRANCH  12  13
ENDBRANCH   1  11
TORSDOF 14
ENDMDL
MODEL 9
REMARK VINA RESULT:    -5.395      8.519     13.568
REMARK INTER + INTRA:         -11.091
REMARK INTER:                 -10.115
REMARK INTRA:                  -0.975
REMARK UNBOUND:                -1.280
REMARK SMILES CCCCCC=CCC=CCCCCCCCC(=O)[O-]
REMARK SMILES IDX 11 1 12 2 13 3 14 4 15 5 16 6 17 7 18 8 19 9 20 10 10 11
REMARK SMILES IDX 9 12 8 13 7 14 6 15 5 16 4 17 3 18 2 19 1 20
REMARK H PARENT
REMARK Flexibility Score: inf
ROOT
ATOM      1  C   UNL     1      41.775  52.471  34.923  1.00  0.00     0.027 C 
ENDROOT
BRANCH   1   2
ATOM      2  C   UNL     1      41.169  52.779  33.546  1.00  0.00     0.004 C 
BRANCH   2   3
ATOM      3  C   UNL     1      40.139  51.728  33.105  1.00  0.00     0.000 C 
BRANCH   3   4
ATOM      4  C   UNL     1      40.789  50.400  32.688  1.00  0.00     0.000 C 
BRANCH   4   5
ATOM      5  C   UNL     1      40.086  49.809  31.456  1.00  0.00     0.000 C 
BRANCH   5   6
ATOM      6  C   UNL     1      38.835  48.988  31.819  1.00  0.00     0.006 C 
BRANCH   6   7
ATOM      7  C   UNL     1      37.868  48.756  30.647  1.00  0.00     0.053 C 
BRANCH   7   8
ATOM      8  C   UNL     1      37.520  50.030  29.942  1.00  0.00     0.041 C 
ATOM      9  O   UNL     1      37.702  50.138  28.700  1.00  0.00    -0.550 OA
ATOM     10  O   UNL     1      36.966  51.090  30.650  1.00  0.00    -0.550 OA
ENDBRANCH   7   8
ENDBRANCH   6   7
ENDBRANCH   5   6
ENDBRANCH   4   5
ENDBRANCH   3   4
ENDBRANCH   2   3
ENDBRANCH   1   2
BRANCH   1  11
ATOM     11  C   UNL     1      43.275  52.363  34.834  1.00  0.00    -0.031 C 
ATOM     12  C   UNL     1      44.125  53.373  35.093  1.00  0.00    -0.027 C 
BRANCH  12  13
ATOM     13  C   UNL     1      43.678  54.767  35.452  1.00  0.00     0.054 C 
BRANCH  13  14
ATOM     14  C   UNL     1      43.527  54.906  36.945  1.00  0.00    -0.027 C 
ATOM     15  C   UNL     1      44.497  55.306  37.788  1.00  0.00    -0.031 C 
BRANCH  15  16
ATOM     16  C   UNL     1      45.883  55.745  37.379  1.00  0.00     0.027 C 
BRANCH  16  17
ATOM     17  C   UNL     1      46.177  57.224  37.689  1.00  0.00     0.004 C 
BRANCH  17  18
ATOM     18  C   UNL     1      45.330  57.816  38.829  1.00  0.00     0.000 C 
BRANCH  18  19
ATOM     19  C   UNL     1      46.179  58.540  39.884  1.00  0.00    -0.003 C 
ATOM     20  C   UNL     1      45.426  58.662  41.206  1.00  0.00     0.004 C 
ENDBRANCH  18  19
ENDBRANCH  17  18
ENDBRANCH  16  17
ENDBRANCH  15  16
ENDBRANCH  13  14
ENDBRANCH  12  13
ENDBRANCH   1  11
TORSDOF 14
ENDMDL
