MODEL 1
REMARK VINA RESULT:    -5.153      0.000      0.000
REMARK INTER + INTRA:         -11.083
REMARK INTER:                  -9.671
REMARK INTRA:                  -1.411
REMARK UNBOUND:                -1.411
REMARK SMILES CCCCCC=CCC=CCCCCCCCC(=O)OC
REMARK SMILES IDX 11 1 10 2 9 3 8 4 7 5 6 6 5 7 4 8 3 9 2 10 1 11 12 12 13 13
REMARK SMILES IDX 14 14 15 15 16 16 17 17 18 18 19 19 20 20 21 21
REMARK H PARENT
REMARK Flexibility Score: inf
ROOT
ATOM      1  C   UNL     1      49.011  -6.003  -5.532  1.00  0.00     0.027 C 
ENDROOT
BRANCH   1   2
ATOM      2  C   UNL     1      49.099  -6.890  -4.317  1.00  0.00    -0.031 C 
ATOM      3  C   UNL     1      50.155  -7.697  -4.142  1.00  0.00    -0.027 C 
BRANCH   3   4
ATOM      4  C   UNL     1      50.276  -8.580  -2.931  1.00  0.00     0.054 C 
BRANCH   4   5
ATOM      5  C   UNL     1      50.030  -7.795  -1.669  1.00  0.00    -0.027 C 
ATOM      6  C   UNL     1      48.882  -7.814  -0.963  1.00  0.00    -0.031 C 
BRANCH   6   7
ATOM      7  C   UNL     1      47.678  -8.667  -1.290  1.00  0.00     0.027 C 
BRANCH   7   8
ATOM      8  C   UNL     1      46.366  -8.032  -0.800  1.00  0.00     0.004 C 
BRANCH   8   9
ATOM      9  C   UNL     1      46.530  -7.038   0.363  1.00  0.00     0.000 C 
BRANCH   9  10
ATOM     10  C   UNL     1      45.188  -6.556   0.933  1.00  0.00    -0.003 C 
ATOM     11  C   UNL     1      44.016  -7.143   0.151  1.00  0.00     0.004 C 
ENDBRANCH   9  10
ENDBRANCH   8   9
ENDBRANCH   7   8
ENDBRANCH   6   7
ENDBRANCH   4   5
ENDBRANCH   3   4
ENDBRANCH   1   2
BRANCH   1  12
ATOM     12  C   UNL     1      47.746  -6.271  -6.360  1.00  0.00     0.004 C 
BRANCH  12  13
ATOM     13  C   UNL     1      48.043  -7.161  -7.579  1.00  0.00     0.000 C 
BRANCH  13  14
ATOM     14  C   UNL     1      49.521  -7.138  -7.994  1.00  0.00     0.000 C 
BRANCH  14  15
ATOM     15  C   UNL     1      49.817  -6.077  -9.070  1.00  0.00     0.001 C 
BRANCH  15  16
ATOM     16  C   UNL     1      51.292  -5.644  -9.086  1.00  0.00     0.012 C 
BRANCH  16  17
ATOM     17  C   UNL     1      51.926  -5.669  -7.687  1.00  0.00     0.123 C 
BRANCH  17  18
ATOM     18  C   UNL     1      52.428  -4.311  -7.312  1.00  0.00     0.305 C 
ATOM     19  O   UNL     1      52.321  -3.911  -6.121  1.00  0.00    -0.252 OA
BRANCH  18  20
ATOM     20  O   UNL     1      53.033  -3.506  -8.284  1.00  0.00    -0.469 OA
ATOM     21  C   UNL     1      54.419  -3.588  -8.592  1.00  0.00     0.282 C 
ENDBRANCH  18  20
ENDBRANCH  17  18
ENDBRANCH  16  17
ENDBRANCH  15  16
ENDBRANCH  14  15
ENDBRANCH  13  14
ENDBRANCH  12  13
ENDBRANCH   1  12
TORSDOF 15
ENDMDL
MODEL 2
REMARK VINA RESULT:    -4.947      7.917     10.443
REMARK INTER + INTRA:         -10.697
REMARK INTER:                  -9.005
REMARK INTRA:                  -1.692
REMARK UNBOUND:                -1.411
REMARK SMILES CCCCCC=CCC=CCCCCCCCC(=O)OC
REMARK SMILES IDX 11 1 10 2 9 3 8 4 7 5 6 6 5 7 4 8 3 9 2 10 1 11 12 12 13 13
REMARK SMILES IDX 14 14 15 15 16 16 17 17 18 18 19 19 20 20 21 21
REMARK H PARENT
REMARK Flexibility Score: inf
ROOT
ATOM      1  C   UNL     1      57.916   1.934  -1.696  1.00  0.00     0.027 C 
ENDROOT
BRANCH   1   2
ATOM      2  C   UNL     1      57.579   0.690  -0.916  1.00  0.00    -0.031 C 
ATOM      3  C   UNL     1      58.452   0.184  -0.034  1.00  0.00    -0.027 C 
BRANCH   3   4
ATOM      4  C   UNL     1      58.135  -1.045   0.770  1.00  0.00     0.054 C 
BRANCH   4   5
ATOM      5  C   UNL     1      56.656  -1.141   1.041  1.00  0.00    -0.027 C 
ATOM      6  C   UNL     1      55.984  -2.292   1.242  1.00  0.00    -0.031 C 
BRANCH   6   7
ATOM      7  C   UNL     1      56.612  -3.666   1.284  1.00  0.00     0.027 C 
BRANCH   7   8
ATOM      8  C   UNL     1      55.567  -4.787   1.155  1.00  0.00     0.004 C 
BRANCH   8   9
ATOM      9  C   UNL     1      54.186  -4.446   1.742  1.00  0.00     0.000 C 
BRANCH   9  10
ATOM     10  C   UNL     1      53.385  -5.692   2.149  1.00  0.00    -0.003 C 
ATOM     11  C   UNL     1      51.958  -5.322   2.545  1.00  0.00     0.004 C 
ENDBRANCH   9  10
ENDBRANCH   8   9
ENDBRANCH   7   8
ENDBRANCH   6   7
ENDBRANCH   4   5
ENDBRANCH   3   4
ENDBRANCH   1   2
BRANCH   1  12
ATOM     12  C   UNL     1      58.258   1.629  -3.161  1.00  0.00     0.004 C 
BRANCH  12  13
ATOM     13  C   UNL     1      59.777   1.633  -3.403  1.00  0.00     0.000 C 
BRANCH  13  14
ATOM     14  C   UNL     1      60.428   0.262  -3.162  1.00  0.00     0.000 C 
BRANCH  14  15
ATOM     15  C   UNL     1      59.491  -0.907  -3.514  1.00  0.00     0.001 C 
BRANCH  15  16
ATOM     16  C   UNL     1      59.944  -2.238  -2.891  1.00  0.00     0.012 C 
BRANCH  16  17
ATOM     17  C   UNL     1      58.785  -3.005  -2.238  1.00  0.00     0.123 C 
BRANCH  17  18
ATOM     18  C   UNL     1      57.893  -3.600  -3.281  1.00  0.00     0.305 C 
ATOM     19  O   UNL     1      58.106  -4.774  -3.689  1.00  0.00    -0.252 OA
BRANCH  18  20
ATOM     20  O   UNL     1      56.817  -2.855  -3.776  1.00  0.00    -0.469 OA
ATOM     21  C   UNL     1      55.863  -3.398  -4.680  1.00  0.00     0.282 C 
ENDBRANCH  18  20
ENDBRANCH  17  18
ENDBRANCH  16  17
ENDBRANCH  15  16
ENDBRANCH  14  15
ENDBRANCH  13  14
ENDBRANCH  12  13
ENDBRANCH   1  12
TORSDOF 15
ENDMDL
MODEL 3
REMARK VINA RESULT:    -4.936      1.441      2.134
REMARK INTER + INTRA:         -10.676
REMARK INTER:                  -9.476
REMARK INTRA:                  -1.199
REMARK UNBOUND:                -1.411
REMARK SMILES CCCCCC=CCC=CCCCCCCCC(=O)OC
REMARK SMILES IDX 11 1 10 2 9 3 8 4 7 5 6 6 5 7 4 8 3 9 2 10 1 11 12 12 13 13
REMARK SMILES IDX 14 14 15 15 16 16 17 17 18 18 19 19 20 20 21 21
REMARK H PARENT
REMARK Flexibility Score: inf
ROOT
ATOM      1  C   UNL     1      47.986  -6.423  -6.737  1.00  0.00     0.027 C 
ENDROOT
BRANCH   1   2
ATOM      2  C   UNL     1      48.278  -6.900  -5.338  1.00  0.00    -0.031 C 
ATOM      3  C   UNL     1      49.024  -6.156  -4.509  1.00  0.00    -0.027 C 
BRANCH   3   4
ATOM      4  C   UNL     1      49.317  -6.601  -3.103  1.00  0.00     0.054 C 
BRANCH   4   5
ATOM      5  C   UNL     1      48.422  -7.746  -2.706  1.00  0.00    -0.027 C 
ATOM      6  C   UNL     1      48.137  -8.094  -1.435  1.00  0.00    -0.031 C 
BRANCH   6   7
ATOM      7  C   UNL     1      48.621  -7.360  -0.206  1.00  0.00     0.027 C 
BRANCH   7   8
ATOM      8  C   UNL     1      47.482  -6.624   0.518  1.00  0.00     0.004 C 
BRANCH   8   9
ATOM      9  C   UNL     1      46.068  -7.067   0.103  1.00  0.00     0.000 C 
BRANCH   9  10
ATOM     10  C   UNL     1      44.979  -6.576   1.070  1.00  0.00    -0.003 C 
ATOM     11  C   UNL     1      43.588  -6.946   0.565  1.00  0.00     0.004 C 
ENDBRANCH   9  10
ENDBRANCH   8   9
ENDBRANCH   7   8
ENDBRANCH   6   7
ENDBRANCH   4   5
ENDBRANCH   3   4
ENDBRANCH   1   2
BRANCH   1  12
ATOM     12  C   UNL     1      48.300  -7.490  -7.795  1.00  0.00     0.004 C 
BRANCH  12  13
ATOM     13  C   UNL     1      49.286  -6.968  -8.853  1.00  0.00     0.000 C 
BRANCH  13  14
ATOM     14  C   UNL     1      50.151  -5.804  -8.347  1.00  0.00     0.000 C 
BRANCH  14  15
ATOM     15  C   UNL     1      51.641  -5.984  -8.688  1.00  0.00     0.001 C 
BRANCH  15  16
ATOM     16  C   UNL     1      52.565  -5.651  -7.504  1.00  0.00     0.012 C 
BRANCH  16  17
ATOM     17  C   UNL     1      52.368  -4.216  -6.992  1.00  0.00     0.123 C 
BRANCH  17  18
ATOM     18  C   UNL     1      52.193  -4.206  -5.507  1.00  0.00     0.305 C 
ATOM     19  O   UNL     1      51.107  -3.803  -5.008  1.00  0.00    -0.252 OA
BRANCH  18  20
ATOM     20  O   UNL     1      53.228  -4.666  -4.686  1.00  0.00    -0.469 OA
ATOM     21  C   UNL     1      53.137  -5.876  -3.944  1.00  0.00     0.282 C 
ENDBRANCH  18  20
ENDBRANCH  17  18
ENDBRANCH  16  17
ENDBRANCH  15  16
ENDBRANCH  14  15
ENDBRANCH  13  14
ENDBRANCH  12  13
ENDBRANCH   1  12
TORSDOF 15
ENDMDL
MODEL 4
REMARK VINA RESULT:    -4.898      3.327      8.405
REMARK INTER + INTRA:         -10.604
REMARK INTER:                  -8.853
REMARK INTRA:                  -1.751
REMARK UNBOUND:                -1.411
REMARK SMILES CCCCCC=CCC=CCCCCCCCC(=O)OC
REMARK SMILES IDX 11 1 10 2 9 3 8 4 7 5 6 6 5 7 4 8 3 9 2 10 1 11 12 12 13 13
REMARK SMILES IDX 14 14 15 15 16 16 17 17 18 18 19 19 20 20 21 21
REMARK H PARENT
REMARK Flexibility Score: inf
ROOT
ATOM      1  C   UNL     1      49.813  -6.944  -7.595  1.00  0.00     0.027 C 
ENDROOT
BRANCH   1   2
ATOM      2  C   UNL     1      51.112  -6.184  -7.671  1.00  0.00    -0.031 C 
ATOM      3  C   UNL     1      51.255  -5.170  -8.536  1.00  0.00    -0.027 C 
BRANCH   3   4
ATOM      4  C   UNL     1      52.534  -4.384  -8.620  1.00  0.00     0.054 C 
BRANCH   4   5
ATOM      5  C   UNL     1      53.722  -5.260  -8.318  1.00  0.00    -0.027 C 
ATOM      6  C   UNL     1      54.845  -4.846  -7.699  1.00  0.00    -0.031 C 
BRANCH   6   7
ATOM      7  C   UNL     1      55.073  -3.454  -7.157  1.00  0.00     0.027 C 
BRANCH   7   8
ATOM      8  C   UNL     1      54.827  -3.373  -5.641  1.00  0.00     0.004 C 
BRANCH   8   9
ATOM      9  C   UNL     1      54.499  -4.719  -4.973  1.00  0.00     0.000 C 
BRANCH   9  10
ATOM     10  C   UNL     1      53.012  -4.862  -4.613  1.00  0.00    -0.003 C 
ATOM     11  C   UNL     1      52.651  -6.318  -4.337  1.00  0.00     0.004 C 
ENDBRANCH   9  10
ENDBRANCH   8   9
ENDBRANCH   7   8
ENDBRANCH   6   7
ENDBRANCH   4   5
ENDBRANCH   3   4
ENDBRANCH   1   2
BRANCH   1  12
ATOM     12  C   UNL     1      49.417  -7.279  -6.150  1.00  0.00     0.004 C 
BRANCH  12  13
ATOM     13  C   UNL     1      48.815  -6.061  -5.428  1.00  0.00     0.000 C 
BRANCH  13  14
ATOM     14  C   UNL     1      49.085  -6.065  -3.916  1.00  0.00     0.000 C 
BRANCH  14  15
ATOM     15  C   UNL     1      48.567  -7.339  -3.226  1.00  0.00     0.001 C 
BRANCH  15  16
ATOM     16  C   UNL     1      48.666  -7.265  -1.693  1.00  0.00     0.012 C 
BRANCH  16  17
ATOM     17  C   UNL     1      47.578  -8.096  -0.995  1.00  0.00     0.123 C 
BRANCH  17  18
ATOM     18  C   UNL     1      46.804  -7.249  -0.036  1.00  0.00     0.305 C 
ATOM     19  O   UNL     1      47.416  -6.548   0.815  1.00  0.00    -0.252 OA
BRANCH  18  20
ATOM     20  O   UNL     1      45.407  -7.226  -0.107  1.00  0.00    -0.469 OA
ATOM     21  C   UNL     1      44.601  -6.576   0.868  1.00  0.00     0.282 C 
ENDBRANCH  18  20
ENDBRANCH  17  18
ENDBRANCH  16  17
ENDBRANCH  15  16
ENDBRANCH  14  15
ENDBRANCH  13  14
ENDBRANCH  12  13
ENDBRANCH   1  12
TORSDOF 15
ENDMDL
MODEL 5
REMARK VINA RESULT:    -4.872      8.594     13.161
REMARK INTER + INTRA:         -10.555
REMARK INTER:                  -8.504
REMARK INTRA:                  -2.051
REMARK UNBOUND:                -1.411
REMARK SMILES CCCCCC=CCC=CCCCCCCCC(=O)OC
REMARK SMILES IDX 11 1 10 2 9 3 8 4 7 5 6 6 5 7 4 8 3 9 2 10 1 11 12 12 13 13
REMARK SMILES IDX 14 14 15 15 16 16 17 17 18 18 19 19 20 20 21 21
REMARK H PARENT
REMARK Flexibility Score: inf
ROOT
ATOM      1  C   UNL     1      58.163  -0.257   0.590  1.00  0.00     0.027 C 
ENDROOT
BRANCH   1   2
ATOM      2  C   UNL     1      57.828   0.297  -0.770  1.00  0.00    -0.031 C 
ATOM      3  C   UNL     1      57.872   1.618  -0.994  1.00  0.00    -0.027 C 
BRANCH   3   4
ATOM      4  C   UNL     1      57.559   2.196  -2.346  1.00  0.00     0.054 C 
BRANCH   4   5
ATOM      5  C   UNL     1      58.736   2.968  -2.884  1.00  0.00    -0.027 C 
ATOM      6  C   UNL     1      59.774   2.422  -3.547  1.00  0.00    -0.031 C 
BRANCH   6   7
ATOM      7  C   UNL     1      59.901   0.959  -3.907  1.00  0.00     0.027 C 
BRANCH   7   8
ATOM      8  C   UNL     1      60.717   0.173  -2.868  1.00  0.00     0.004 C 
BRANCH   8   9
ATOM      9  C   UNL     1      60.460  -1.344  -2.865  1.00  0.00     0.000 C 
BRANCH   9  10
ATOM     10  C   UNL     1      59.126  -1.726  -3.525  1.00  0.00    -0.003 C 
ATOM     11  C   UNL     1      58.458  -2.881  -2.784  1.00  0.00     0.004 C 
ENDBRANCH   9  10
ENDBRANCH   8   9
ENDBRANCH   7   8
ENDBRANCH   6   7
ENDBRANCH   4   5
ENDBRANCH   3   4
ENDBRANCH   1   2
BRANCH   1  12
ATOM     12  C   UNL     1      59.337  -1.246   0.544  1.00  0.00     0.004 C 
BRANCH  12  13
ATOM     13  C   UNL     1      58.884  -2.682   0.853  1.00  0.00     0.000 C 
BRANCH  13  14
ATOM     14  C   UNL     1      57.476  -2.750   1.465  1.00  0.00     0.000 C 
BRANCH  14  15
ATOM     15  C   UNL     1      56.694  -3.995   1.010  1.00  0.00     0.001 C 
BRANCH  15  16
ATOM     16  C   UNL     1      55.280  -4.060   1.614  1.00  0.00     0.012 C 
BRANCH  16  17
ATOM     17  C   UNL     1      54.973  -5.428   2.242  1.00  0.00     0.123 C 
BRANCH  17  18
ATOM     18  C   UNL     1      54.050  -6.214   1.365  1.00  0.00     0.305 C 
ATOM     19  O   UNL     1      54.523  -7.061   0.560  1.00  0.00    -0.252 OA
BRANCH  18  20
ATOM     20  O   UNL     1      52.668  -6.016   1.465  1.00  0.00    -0.469 OA
ATOM     21  C   UNL     1      52.068  -5.346   2.566  1.00  0.00     0.282 C 
ENDBRANCH  18  20
ENDBRANCH  17  18
ENDBRANCH  16  17
ENDBRANCH  15  16
ENDBRANCH  14  15
ENDBRANCH  13  14
ENDBRANCH  12  13
ENDBRANCH   1  12
TORSDOF 15
ENDMDL
MODEL 6
REMARK VINA RESULT:    -4.847      2.724      4.494
REMARK INTER + INTRA:         -10.508
REMARK INTER:                  -8.267
REMARK INTRA:                  -2.241
REMARK UNBOUND:                -1.411
REMARK SMILES CCCCCC=CCC=CCCCCCCCC(=O)OC
REMARK SMILES IDX 11 1 10 2 9 3 8 4 7 5 6 6 5 7 4 8 3 9 2 10 1 11 12 12 13 13
REMARK SMILES IDX 14 14 15 15 16 16 17 17 18 18 19 19 20 20 21 21
REMARK H PARENT
REMARK Flexibility Score: inf
ROOT
ATOM      1  C   UNL     1      51.214  -5.379  -8.136  1.00  0.00     0.027 C 
ENDROOT
BRANCH   1   2
ATOM      2  C   UNL     1      50.308  -5.789  -7.004  1.00  0.00    -0.031 C 
ATOM      3  C   UNL     1      49.965  -7.075  -6.841  1.00  0.00    -0.027 C 
BRANCH   3   4
ATOM      4  C   UNL     1      49.077  -7.513  -5.710  1.00  0.00     0.054 C 
BRANCH   4   5
ATOM      5  C   UNL     1      48.851  -6.384  -4.738  1.00  0.00    -0.027 C 
ATOM      6  C   UNL     1      48.983  -6.484  -3.400  1.00  0.00    -0.031 C 
BRANCH   6   7
ATOM      7  C   UNL     1      49.435  -7.724  -2.664  1.00  0.00     0.027 C 
BRANCH   7   8
ATOM      8  C   UNL     1      48.640  -7.952  -1.367  1.00  0.00     0.004 C 
BRANCH   8   9
ATOM      9  C   UNL     1      47.944  -6.697  -0.814  1.00  0.00     0.000 C 
BRANCH   9  10
ATOM     10  C   UNL     1      47.163  -6.967   0.481  1.00  0.00    -0.003 C 
ATOM     11  C   UNL     1      45.663  -6.789   0.265  1.00  0.00     0.004 C 
ENDBRANCH   9  10
ENDBRANCH   8   9
ENDBRANCH   7   8
ENDBRANCH   6   7
ENDBRANCH   4   5
ENDBRANCH   3   4
ENDBRANCH   1   2
BRANCH   1  12
ATOM     12  C   UNL     1      52.251  -4.333  -7.703  1.00  0.00     0.004 C 
BRANCH  12  13
ATOM     13  C   UNL     1      52.137  -4.004  -6.205  1.00  0.00     0.000 C 
BRANCH  13  14
ATOM     14  C   UNL     1      53.501  -3.869  -5.514  1.00  0.00     0.000 C 
BRANCH  14  15
ATOM     15  C   UNL     1      53.836  -5.079  -4.624  1.00  0.00     0.001 C 
BRANCH  15  16
ATOM     16  C   UNL     1      52.585  -5.868  -4.202  1.00  0.00     0.012 C 
BRANCH  16  17
ATOM     17  C   UNL     1      52.877  -7.361  -3.988  1.00  0.00     0.123 C 
BRANCH  17  18
ATOM     18  C   UNL     1      53.525  -7.586  -2.659  1.00  0.00     0.305 C 
ATOM     19  O   UNL     1      52.816  -7.636  -1.618  1.00  0.00    -0.252 OA
BRANCH  18  20
ATOM     20  O   UNL     1      54.911  -7.761  -2.588  1.00  0.00    -0.469 OA
ATOM     21  C   UNL     1      55.624  -8.601  -3.488  1.00  0.00     0.282 C 
ENDBRANCH  18  20
ENDBRANCH  17  18
ENDBRANCH  16  17
ENDBRANCH  15  16
ENDBRANCH  14  15
ENDBRANCH  13  14
ENDBRANCH  12  13
ENDBRANCH   1  12
TORSDOF 15
ENDMDL
MODEL 7
REMARK VINA RESULT:    -4.833      8.520     12.307
REMARK INTER + INTRA:         -10.481
REMARK INTER:                  -8.107
REMARK INTRA:                  -2.374
REMARK UNBOUND:                -1.411
REMARK SMILES CCCCCC=CCC=CCCCCCCCC(=O)OC
REMARK SMILES IDX 11 1 10 2 9 3 8 4 7 5 6 6 5 7 4 8 3 9 2 10 1 11 12 12 13 13
REMARK SMILES IDX 14 14 15 15 16 16 17 17 18 18 19 19 20 20 21 21
REMARK H PARENT
REMARK Flexibility Score: inf
ROOT
ATOM      1  C   UNL     1      59.959  -2.558  -3.076  1.00  0.00     0.027 C 
ENDROOT
BRANCH   1   2
ATOM      2  C   UNL     1      60.326  -1.097  -3.086  1.00  0.00    -0.031 C 
ATOM      3  C   UNL     1      59.449  -0.179  -3.515  1.00  0.00    -0.027 C 
BRANCH   3   4
ATOM      4  C   UNL     1      59.784   1.286  -3.520  1.00  0.00     0.054 C 
BRANCH   4   5
ATOM      5  C   UNL     1      58.547   2.119  -3.301  1.00  0.00    -0.027 C 
ATOM      6  C   UNL     1      57.830   2.144  -2.160  1.00  0.00    -0.031 C 
BRANCH   6   7
ATOM      7  C   UNL     1      58.178   1.386  -0.900  1.00  0.00     0.027 C 
BRANCH   7   8
ATOM      8  C   UNL     1      57.309   0.132  -0.716  1.00  0.00     0.004 C 
BRANCH   8   9
ATOM      9  C   UNL     1      57.894  -0.918   0.245  1.00  0.00     0.000 C 
BRANCH   9  10
ATOM     10  C   UNL     1      59.392  -0.712   0.516  1.00  0.00    -0.003 C 
ATOM     11  C   UNL     1      60.116  -2.049   0.645  1.00  0.00     0.004 C 
ENDBRANCH   9  10
ENDBRANCH   8   9
ENDBRANCH   7   8
ENDBRANCH   6   7
ENDBRANCH   4   5
ENDBRANCH   3   4
ENDBRANCH   1   2
BRANCH   1  12
ATOM     12  C   UNL     1      58.446  -2.778  -2.930  1.00  0.00     0.004 C 
BRANCH  12  13
ATOM     13  C   UNL     1      58.058  -4.245  -3.176  1.00  0.00     0.000 C 
BRANCH  13  14
ATOM     14  C   UNL     1      57.208  -4.840  -2.044  1.00  0.00     0.000 C 
BRANCH  14  15
ATOM     15  C   UNL     1      58.024  -5.099  -0.765  1.00  0.00     0.001 C 
BRANCH  15  16
ATOM     16  C   UNL     1      57.331  -4.563   0.499  1.00  0.00     0.012 C 
BRANCH  16  17
ATOM     17  C   UNL     1      56.030  -5.314   0.819  1.00  0.00     0.123 C 
BRANCH  17  18
ATOM     18  C   UNL     1      55.027  -4.392   1.435  1.00  0.00     0.305 C 
ATOM     19  O   UNL     1      55.267  -3.155   1.493  1.00  0.00    -0.252 OA
BRANCH  18  20
ATOM     20  O   UNL     1      53.820  -4.908   1.920  1.00  0.00    -0.469 OA
ATOM     21  C   UNL     1      53.723  -6.196   2.516  1.00  0.00     0.282 C 
ENDBRANCH  18  20
ENDBRANCH  17  18
ENDBRANCH  16  17
ENDBRANCH  15  16
ENDBRANCH  14  15
ENDBRANCH  13  14
ENDBRANCH  12  13
ENDBRANCH   1  12
TORSDOF 15
ENDMDL
MODEL 8
REMARK VINA RESULT:    -4.810      9.697     13.243
REMARK INTER + INTRA:         -10.439
REMARK INTER:                  -7.892
REMARK INTRA:                  -2.547
REMARK UNBOUND:                -1.411
REMARK SMILES CCCCCC=CCC=CCCCCCCCC(=O)OC
REMARK SMILES IDX 11 1 10 2 9 3 8 4 7 5 6 6 5 7 4 8 3 9 2 10 1 11 12 12 13 13
REMARK SMILES IDX 14 14 15 15 16 16 17 17 18 18 19 19 20 20 21 21
REMARK H PARENT
REMARK Flexibility Score: inf
ROOT
ATOM      1  C   UNL     1      62.025  -1.641  -0.201  1.00  0.00     0.027 C 
ENDROOT
BRANCH   1   2
ATOM      2  C   UNL     1      61.427  -0.891  -1.362  1.00  0.00    -0.031 C 
ATOM      3  C   UNL     1      60.708  -1.538  -2.291  1.00  0.00    -0.027 C 
BRANCH   3   4
ATOM      4  C   UNL     1      60.086  -0.812  -3.450  1.00  0.00     0.054 C 
BRANCH   4   5
ATOM      5  C   UNL     1      60.549   0.622  -3.496  1.00  0.00    -0.027 C 
ATOM      6  C   UNL     1      59.746   1.694  -3.347  1.00  0.00    -0.031 C 
BRANCH   6   7
ATOM      7  C   UNL     1      58.264   1.634  -3.054  1.00  0.00     0.027 C 
BRANCH   7   8
ATOM      8  C   UNL     1      57.946   1.980  -1.590  1.00  0.00     0.004 C 
BRANCH   8   9
ATOM      9  C   UNL     1      58.247   0.853  -0.586  1.00  0.00     0.000 C 
BRANCH   9  10
ATOM     10  C   UNL     1      57.596  -0.484  -0.973  1.00  0.00    -0.003 C 
ATOM     11  C   UNL     1      56.329  -0.734  -0.161  1.00  0.00     0.004 C 
ENDBRANCH   9  10
ENDBRANCH   8   9
ENDBRANCH   7   8
ENDBRANCH   6   7
ENDBRANCH   4   5
ENDBRANCH   3   4
ENDBRANCH   1   2
BRANCH   1  12
ATOM     12  C   UNL     1      61.042  -2.649   0.411  1.00  0.00     0.004 C 
BRANCH  12  13
ATOM     13  C   UNL     1      60.102  -1.981   1.428  1.00  0.00     0.000 C 
BRANCH  13  14
ATOM     14  C   UNL     1      58.823  -2.791   1.687  1.00  0.00     0.000 C 
BRANCH  14  15
ATOM     15  C   UNL     1      58.699  -4.013   0.759  1.00  0.00     0.001 C 
BRANCH  15  16
ATOM     16  C   UNL     1      57.256  -4.253   0.284  1.00  0.00     0.012 C 
BRANCH  16  17
ATOM     17  C   UNL     1      56.217  -3.878   1.352  1.00  0.00     0.123 C 
BRANCH  17  18
ATOM     18  C   UNL     1      55.322  -5.039   1.646  1.00  0.00     0.305 C 
ATOM     19  O   UNL     1      54.081  -4.854   1.775  1.00  0.00    -0.252 OA
BRANCH  18  20
ATOM     20  O   UNL     1      55.867  -6.322   1.752  1.00  0.00    -0.469 OA
ATOM     21  C   UNL     1      56.379  -6.838   2.975  1.00  0.00     0.282 C 
ENDBRANCH  18  20
ENDBRANCH  17  18
ENDBRANCH  16  17
ENDBRANCH  15  16
ENDBRANCH  14  15
ENDBRANCH  13  14
ENDBRANCH  12  13
ENDBRANCH   1  12
TORSDOF 15
ENDMDL
MODEL 9
REMARK VINA RESULT:    -4.802      2.090      3.693
REMARK INTER + INTRA:         -10.424
REMARK INTER:                  -8.193
REMARK INTRA:                  -2.231
REMARK UNBOUND:                -1.411
REMARK SMILES CCCCCC=CCC=CCCCCCCCC(=O)OC
REMARK SMILES IDX 11 1 10 2 9 3 8 4 7 5 6 6 5 7 4 8 3 9 2 10 1 11 12 12 13 13
REMARK SMILES IDX 14 14 15 15 16 16 17 17 18 18 19 19 20 20 21 21
REMARK H PARENT
REMARK Flexibility Score: inf
ROOT
ATOM      1  C   UNL     1      50.551  -6.397  -8.985  1.00  0.00     0.027 C 
ENDROOT
BRANCH   1   2
ATOM      2  C   UNL     1      49.458  -6.450  -7.950  1.00  0.00    -0.031 C 
ATOM      3  C   UNL     1      49.532  -7.315  -6.928  1.00  0.00    -0.027 C 
BRANCH   3   4
ATOM      4  C   UNL     1      48.464  -7.377  -5.872  1.00  0.00     0.054 C 
BRANCH   4   5
ATOM      5  C   UNL     1      48.627  -6.255  -4.879  1.00  0.00    -0.027 C 
ATOM      6  C   UNL     1      49.200  -6.379  -3.666  1.00  0.00    -0.031 C 
BRANCH   6   7
ATOM      7  C   UNL     1      49.822  -7.646  -3.127  1.00  0.00     0.027 C 
BRANCH   7   8
ATOM      8  C   UNL     1      49.151  -8.115  -1.825  1.00  0.00     0.004 C 
BRANCH   8   9
ATOM      9  C   UNL     1      48.164  -7.106  -1.214  1.00  0.00     0.000 C 
BRANCH   9  10
ATOM     10  C   UNL     1      46.984  -7.782  -0.499  1.00  0.00    -0.003 C 
ATOM     11  C   UNL     1      46.465  -6.915   0.644  1.00  0.00     0.004 C 
ENDBRANCH   9  10
ENDBRANCH   8   9
ENDBRANCH   7   8
ENDBRANCH   6   7
ENDBRANCH   4   5
ENDBRANCH   3   4
ENDBRANCH   1   2
BRANCH   1  12
ATOM     12  C   UNL     1      51.213  -5.014  -9.065  1.00  0.00     0.004 C 
BRANCH  12  13
ATOM     13  C   UNL     1      52.467  -4.932  -8.177  1.00  0.00     0.000 C 
BRANCH  13  14
ATOM     14  C   UNL     1      52.338  -3.897  -7.050  1.00  0.00     0.000 C 
BRANCH  14  15
ATOM     15  C   UNL     1      51.689  -4.482  -5.782  1.00  0.00     0.001 C 
BRANCH  15  16
ATOM     16  C   UNL     1      52.412  -5.740  -5.272  1.00  0.00     0.012 C 
BRANCH  16  17
ATOM     17  C   UNL     1      53.463  -5.418  -4.199  1.00  0.00     0.123 C 
BRANCH  17  18
ATOM     18  C   UNL     1      54.841  -5.677  -4.718  1.00  0.00     0.305 C 
ATOM     19  O   UNL     1      55.371  -6.809  -4.549  1.00  0.00    -0.252 OA
BRANCH  18  20
ATOM     20  O   UNL     1      55.521  -4.666  -5.406  1.00  0.00    -0.469 OA
ATOM     21  C   UNL     1      55.439  -3.297  -5.031  1.00  0.00     0.282 C 
ENDBRANCH  18  20
ENDBRANCH  17  18
ENDBRANCH  16  17
ENDBRANCH  15  16
ENDBRANCH  14  15
ENDBRANCH  13  14
ENDBRANCH  12  13
ENDBRANCH   1  12
TORSDOF 15
ENDMDL
