MODEL 1
REMARK VINA RESULT:   153.963      0.000      0.000
REMARK INTER + INTRA:         167.910
REMARK INTER:                 167.464
REMARK INTRA:                   0.446
REMARK UNBOUND:                 0.446
REMARK SMILES C[C@@H]1[C@H](C)CC[C@]2(C(=O)[O-])CC[C@]3(C)C(=CC[C@H]4[C@]5(C)CC[C@@H](O)C(C)(C)[C@@H]5CC[C@]43C)[C@@H]12
REMARK SMILES IDX 7 1 6 2 11 3 33 4 5 5 12 6 15 7 2 8 3 9 13 10 16 11 1 12
REMARK SMILES IDX 4 13 14 14 31 15 17 16 18 17 30 18 32 19 19 20 29 21 28 22
REMARK SMILES IDX 21 23 20 24 25 25 22 26 23 27 26 28 27 29 8 30 9 31 10 32
REMARK SMILES IDX 24 33
REMARK H PARENT 24 34
REMARK Flexibility Score: inf
ROOT
ATOM      1  C   UNL     1     -37.450  27.826 -21.559  1.00  0.00     0.017 C 
ATOM      2  C   UNL     1     -36.245  26.924 -21.189  1.00  0.00     0.014 C 
ATOM      3  C   UNL     1     -37.356  29.146 -20.733  1.00  0.00     0.014 C 
ATOM      4  C   UNL     1     -38.785  27.122 -21.145  1.00  0.00     0.030 C 
ATOM      5  C   UNL     1     -36.377  25.501 -21.753  1.00  0.00     0.004 C 
ATOM      6  C   UNL     1     -38.597  30.069 -20.887  1.00  0.00     0.013 C 
ATOM      7  C   UNL     1     -39.948  28.083 -21.444  1.00  0.00    -0.063 C 
ATOM      8  C   UNL     1     -38.921  25.643 -21.639  1.00  0.00    -0.003 C 
ATOM      9  C   UNL     1     -37.663  24.797 -21.274  1.00  0.00    -0.011 C 
ATOM     10  C   UNL     1     -39.992  29.380 -20.622  1.00  0.00    -0.006 C 
ATOM     11  C   UNL     1     -40.582  27.987 -22.621  1.00  0.00    -0.027 C 
ATOM     12  C   UNL     1     -40.213  24.990 -21.112  1.00  0.00     0.008 C 
ATOM     13  C   UNL     1     -37.565  24.408 -19.783  1.00  0.00     0.008 C 
ATOM     14  C   UNL     1     -40.096  28.990 -19.106  1.00  0.00     0.017 C 
ATOM     15  C   UNL     1     -41.228  30.363 -21.011  1.00  0.00    -0.020 C 
ATOM     16  C   UNL     1     -41.535  28.987 -23.160  1.00  0.00     0.032 C 
ATOM     17  C   UNL     1     -41.445  30.435 -22.579  1.00  0.00     0.006 C 
ATOM     18  C   UNL     1     -42.573  29.854 -20.414  1.00  0.00     0.008 C 
ATOM     19  C   UNL     1     -40.906  31.770 -20.396  1.00  0.00     0.012 C 
ATOM     20  C   UNL     1     -42.711  31.289 -23.108  1.00  0.00    -0.025 C 
ATOM     21  C   UNL     1     -43.809  30.673 -20.831  1.00  0.00     0.005 C 
ATOM     22  C   UNL     1     -44.040  30.837 -22.366  1.00  0.00     0.003 C 
ATOM     23  C   UNL     1     -42.504  32.831 -22.949  1.00  0.00     0.010 C 
ATOM     24  C   UNL     1     -42.813  31.036 -24.653  1.00  0.00     0.012 C 
ATOM     25  C   UNL     1     -45.321  31.742 -22.675  1.00  0.00    -0.006 C 
ATOM     26  C   UNL     1     -43.732  33.680 -23.311  1.00  0.00     0.033 C 
ATOM     27  C   UNL     1     -44.977  33.259 -22.517  1.00  0.00     0.120 C 
ATOM     28  C   UNL     1     -46.481  31.408 -21.690  1.00  0.00     0.014 C 
ATOM     29  C   UNL     1     -45.896  31.449 -24.094  1.00  0.00     0.014 C 
ENDROOT
BRANCH   1  30
ATOM     30  C   UNL     1     -37.364  28.159 -23.052  1.00  0.00     0.048 C 
ATOM     31  O   UNL     1     -37.674  27.292 -23.913  1.00  0.00    -0.550 OA
ATOM     32  O   UNL     1     -37.057  29.438 -23.495  1.00  0.00    -0.550 OA
ENDBRANCH   1  30
BRANCH  27  33
ATOM     33  O   UNL     1     -46.058  34.059 -22.933  1.00  0.00    -0.393 OA
ATOM     34  H   UNL     1     -46.083  34.032 -23.926  1.00  0.00     0.210 HD
ENDBRANCH  27  33
TORSDOF 2
ENDMDL
MODEL 2
REMARK VINA RESULT:   154.282     10.045     14.511
REMARK INTER + INTRA:         168.257
REMARK INTER:                 166.520
REMARK INTRA:                   1.737
REMARK UNBOUND:                 0.446
REMARK SMILES C[C@@H]1[C@H](C)CC[C@]2(C(=O)[O-])CC[C@]3(C)C(=CC[C@H]4[C@]5(C)CC[C@@H](O)C(C)(C)[C@@H]5CC[C@]43C)[C@@H]12
REMARK SMILES IDX 7 1 6 2 11 3 33 4 5 5 12 6 15 7 2 8 3 9 13 10 16 11 1 12
REMARK SMILES IDX 4 13 14 14 31 15 17 16 18 17 30 18 32 19 19 20 29 21 28 22
REMARK SMILES IDX 21 23 20 24 25 25 22 26 23 27 26 28 27 29 8 30 9 31 10 32
REMARK SMILES IDX 24 33
REMARK H PARENT 24 34
REMARK Flexibility Score: inf
ROOT
ATOM      1  C   UNL     1     -30.237  31.998 -16.036  1.00  0.00     0.017 C 
ATOM      2  C   UNL     1     -30.375  33.453 -16.552  1.00  0.00     0.014 C 
ATOM      3  C   UNL     1     -28.722  31.627 -15.989  1.00  0.00     0.014 C 
ATOM      4  C   UNL     1     -30.917  31.011 -17.043  1.00  0.00     0.030 C 
ATOM      5  C   UNL     1     -31.829  33.829 -16.876  1.00  0.00     0.004 C 
ATOM      6  C   UNL     1     -28.454  30.136 -15.646  1.00  0.00     0.013 C 
ATOM      7  C   UNL     1     -30.681  29.575 -16.545  1.00  0.00    -0.063 C 
ATOM      8  C   UNL     1     -32.375  31.406 -17.455  1.00  0.00    -0.003 C 
ATOM      9  C   UNL     1     -32.458  32.890 -17.925  1.00  0.00    -0.011 C 
ATOM     10  C   UNL     1     -29.225  29.085 -16.537  1.00  0.00    -0.006 C 
ATOM     11  C   UNL     1     -31.611  28.997 -15.773  1.00  0.00    -0.027 C 
ATOM     12  C   UNL     1     -32.939  30.444 -18.519  1.00  0.00     0.008 C 
ATOM     13  C   UNL     1     -31.871  33.149 -19.330  1.00  0.00     0.008 C 
ATOM     14  C   UNL     1     -28.682  29.157 -18.006  1.00  0.00     0.017 C 
ATOM     15  C   UNL     1     -29.044  27.572 -15.969  1.00  0.00    -0.020 C 
ATOM     16  C   UNL     1     -31.424  27.738 -15.012  1.00  0.00     0.032 C 
ATOM     17  C   UNL     1     -29.953  27.314 -14.697  1.00  0.00     0.006 C 
ATOM     18  C   UNL     1     -29.473  26.510 -17.025  1.00  0.00     0.008 C 
ATOM     19  C   UNL     1     -27.520  27.380 -15.653  1.00  0.00     0.012 C 
ATOM     20  C   UNL     1     -29.960  25.817 -14.090  1.00  0.00    -0.025 C 
ATOM     21  C   UNL     1     -29.434  25.056 -16.521  1.00  0.00     0.005 C 
ATOM     22  C   UNL     1     -30.256  24.752 -15.230  1.00  0.00     0.003 C 
ATOM     23  C   UNL     1     -28.626  25.460 -13.354  1.00  0.00     0.010 C 
ATOM     24  C   UNL     1     -31.072  25.783 -12.983  1.00  0.00     0.012 C 
ATOM     25  C   UNL     1     -30.102  23.226 -14.779  1.00  0.00    -0.006 C 
ATOM     26  C   UNL     1     -28.531  24.002 -12.878  1.00  0.00     0.033 C 
ATOM     27  C   UNL     1     -28.751  23.006 -14.026  1.00  0.00     0.120 C 
ATOM     28  C   UNL     1     -30.121  22.282 -16.018  1.00  0.00     0.014 C 
ATOM     29  C   UNL     1     -31.306  22.768 -13.901  1.00  0.00     0.014 C 
ENDROOT
BRANCH   1  30
ATOM     30  C   UNL     1     -30.816  31.930 -14.619  1.00  0.00     0.048 C 
ATOM     31  O   UNL     1     -30.949  32.983 -13.938  1.00  0.00    -0.550 OA
ATOM     32  O   UNL     1     -31.309  30.744 -14.091  1.00  0.00    -0.550 OA
ENDBRANCH   1  30
BRANCH  27  33
ATOM     33  O   UNL     1     -28.682  21.703 -13.499  1.00  0.00    -0.393 OA
ATOM     34  H   UNL     1     -29.401  21.619 -12.819  1.00  0.00     0.210 HD
ENDBRANCH  27  33
TORSDOF 2
ENDMDL
MODEL 3
REMARK VINA RESULT:   154.484     10.589     13.917
REMARK INTER + INTRA:         168.476
REMARK INTER:                 167.329
REMARK INTRA:                   1.148
REMARK UNBOUND:                 0.446
REMARK SMILES C[C@@H]1[C@H](C)CC[C@]2(C(=O)[O-])CC[C@]3(C)C(=CC[C@H]4[C@]5(C)CC[C@@H](O)C(C)(C)[C@@H]5CC[C@]43C)[C@@H]12
REMARK SMILES IDX 7 1 6 2 11 3 33 4 5 5 12 6 15 7 2 8 3 9 13 10 16 11 1 12
REMARK SMILES IDX 4 13 14 14 31 15 17 16 18 17 30 18 32 19 19 20 29 21 28 22
REMARK SMILES IDX 21 23 20 24 25 25 22 26 23 27 26 28 27 29 8 30 9 31 10 32
REMARK SMILES IDX 24 33
REMARK H PARENT 24 34
REMARK Flexibility Score: inf
ROOT
ATOM      1  C   UNL     1     -30.161  22.479 -14.199  1.00  0.00     0.017 C 
ATOM      2  C   UNL     1     -29.829  21.014 -13.813  1.00  0.00     0.014 C 
ATOM      3  C   UNL     1     -30.341  22.558 -15.746  1.00  0.00     0.014 C 
ATOM      4  C   UNL     1     -28.957  23.409 -13.831  1.00  0.00     0.030 C 
ATOM      5  C   UNL     1     -29.385  20.876 -12.348  1.00  0.00     0.004 C 
ATOM      6  C   UNL     1     -30.512  24.005 -16.283  1.00  0.00     0.013 C 
ATOM      7  C   UNL     1     -29.285  24.833 -14.311  1.00  0.00    -0.063 C 
ATOM      8  C   UNL     1     -28.427  23.240 -12.368  1.00  0.00    -0.003 C 
ATOM      9  C   UNL     1     -28.151  21.744 -12.025  1.00  0.00    -0.011 C 
ATOM     10  C   UNL     1     -29.403  25.033 -15.829  1.00  0.00    -0.006 C 
ATOM     11  C   UNL     1     -29.854  25.690 -13.453  1.00  0.00    -0.027 C 
ATOM     12  C   UNL     1     -27.185  24.116 -12.114  1.00  0.00     0.008 C 
ATOM     13  C   UNL     1     -26.876  21.165 -12.673  1.00  0.00     0.008 C 
ATOM     14  C   UNL     1     -28.033  24.634 -16.479  1.00  0.00     0.017 C 
ATOM     15  C   UNL     1     -29.783  26.553 -16.264  1.00  0.00    -0.020 C 
ATOM     16  C   UNL     1     -30.459  26.992 -13.824  1.00  0.00     0.032 C 
ATOM     17  C   UNL     1     -30.890  27.172 -15.315  1.00  0.00     0.006 C 
ATOM     18  C   UNL     1     -28.552  27.501 -16.162  1.00  0.00     0.008 C 
ATOM     19  C   UNL     1     -30.253  26.499 -17.760  1.00  0.00     0.012 C 
ATOM     20  C   UNL     1     -31.288  28.719 -15.560  1.00  0.00    -0.025 C 
ATOM     21  C   UNL     1     -28.859  28.982 -16.453  1.00  0.00     0.005 C 
ATOM     22  C   UNL     1     -29.988  29.632 -15.595  1.00  0.00     0.003 C 
ATOM     23  C   UNL     1     -32.125  28.925 -16.865  1.00  0.00     0.010 C 
ATOM     24  C   UNL     1     -32.237  29.134 -14.382  1.00  0.00     0.012 C 
ATOM     25  C   UNL     1     -30.248  31.152 -16.017  1.00  0.00    -0.006 C 
ATOM     26  C   UNL     1     -32.412  30.394 -17.214  1.00  0.00     0.033 C 
ATOM     27  C   UNL     1     -31.124  31.225 -17.310  1.00  0.00     0.120 C 
ATOM     28  C   UNL     1     -28.902  31.880 -16.308  1.00  0.00     0.014 C 
ATOM     29  C   UNL     1     -30.906  31.960 -14.858  1.00  0.00     0.014 C 
ENDROOT
BRANCH   1  30
ATOM     30  C   UNL     1     -31.476  22.873 -13.518  1.00  0.00     0.048 C 
ATOM     31  O   UNL     1     -32.488  22.128 -13.616  1.00  0.00    -0.550 OA
ATOM     32  O   UNL     1     -31.561  23.986 -12.692  1.00  0.00    -0.550 OA
ENDBRANCH   1  30
BRANCH  27  33
ATOM     33  O   UNL     1     -31.477  32.556 -17.597  1.00  0.00    -0.393 OA
ATOM     34  H   UNL     1     -30.693  32.985 -18.030  1.00  0.00     0.210 HD
ENDBRANCH  27  33
TORSDOF 2
ENDMDL
MODEL 4
REMARK VINA RESULT:   154.554      1.373      1.983
REMARK INTER + INTRA:         168.553
REMARK INTER:                 168.192
REMARK INTRA:                   0.361
REMARK UNBOUND:                 0.446
REMARK SMILES C[C@@H]1[C@H](C)CC[C@]2(C(=O)[O-])CC[C@]3(C)C(=CC[C@H]4[C@]5(C)CC[C@@H](O)C(C)(C)[C@@H]5CC[C@]43C)[C@@H]12
REMARK SMILES IDX 7 1 6 2 11 3 33 4 5 5 12 6 15 7 2 8 3 9 13 10 16 11 1 12
REMARK SMILES IDX 4 13 14 14 31 15 17 16 18 17 30 18 32 19 19 20 29 21 28 22
REMARK SMILES IDX 21 23 20 24 25 25 22 26 23 27 26 28 27 29 8 30 9 31 10 32
REMARK SMILES IDX 24 33
REMARK H PARENT 24 34
REMARK Flexibility Score: inf
ROOT
ATOM      1  C   UNL     1     -38.233  29.154 -20.537  1.00  0.00     0.017 C 
ATOM      2  C   UNL     1     -37.052  28.331 -19.962  1.00  0.00     0.014 C 
ATOM      3  C   UNL     1     -39.038  29.767 -19.350  1.00  0.00     0.014 C 
ATOM      4  C   UNL     1     -39.210  28.208 -21.312  1.00  0.00     0.030 C 
ATOM      5  C   UNL     1     -36.348  27.481 -21.031  1.00  0.00     0.004 C 
ATOM      6  C   UNL     1     -40.348  30.479 -19.785  1.00  0.00     0.013 C 
ATOM      7  C   UNL     1     -40.411  29.043 -21.788  1.00  0.00    -0.063 C 
ATOM      8  C   UNL     1     -38.516  27.272 -22.357  1.00  0.00    -0.003 C 
ATOM      9  C   UNL     1     -37.313  26.503 -21.732  1.00  0.00    -0.011 C 
ATOM     10  C   UNL     1     -41.317  29.625 -20.693  1.00  0.00    -0.006 C 
ATOM     11  C   UNL     1     -40.385  29.572 -23.019  1.00  0.00    -0.027 C 
ATOM     12  C   UNL     1     -39.528  26.307 -23.007  1.00  0.00     0.008 C 
ATOM     13  C   UNL     1     -37.714  25.345 -20.793  1.00  0.00     0.008 C 
ATOM     14  C   UNL     1     -41.891  28.431 -19.853  1.00  0.00     0.017 C 
ATOM     15  C   UNL     1     -42.547  30.522 -21.264  1.00  0.00    -0.020 C 
ATOM     16  C   UNL     1     -41.328  30.597 -23.526  1.00  0.00     0.032 C 
ATOM     17  C   UNL     1     -42.083  31.454 -22.459  1.00  0.00     0.006 C 
ATOM     18  C   UNL     1     -43.688  29.629 -21.835  1.00  0.00     0.008 C 
ATOM     19  C   UNL     1     -43.112  31.349 -20.057  1.00  0.00     0.012 C 
ATOM     20  C   UNL     1     -43.226  32.322 -23.201  1.00  0.00    -0.025 C 
ATOM     21  C   UNL     1     -44.840  30.408 -22.496  1.00  0.00     0.005 C 
ATOM     22  C   UNL     1     -44.439  31.395 -23.636  1.00  0.00     0.003 C 
ATOM     23  C   UNL     1     -43.744  33.509 -22.322  1.00  0.00     0.010 C 
ATOM     24  C   UNL     1     -42.549  32.989 -24.449  1.00  0.00     0.012 C 
ATOM     25  C   UNL     1     -45.710  32.178 -24.211  1.00  0.00    -0.006 C 
ATOM     26  C   UNL     1     -44.926  34.282 -22.928  1.00  0.00     0.033 C 
ATOM     27  C   UNL     1     -46.105  33.358 -23.266  1.00  0.00     0.120 C 
ATOM     28  C   UNL     1     -46.936  31.225 -24.329  1.00  0.00     0.014 C 
ATOM     29  C   UNL     1     -45.453  32.692 -25.660  1.00  0.00     0.014 C 
ENDROOT
BRANCH   1  30
ATOM     30  C   UNL     1     -37.660  30.287 -21.395  1.00  0.00     0.048 C 
ATOM     31  O   UNL     1     -37.274  31.358 -20.854  1.00  0.00    -0.550 OA
ATOM     32  O   UNL     1     -37.447  30.130 -22.758  1.00  0.00    -0.550 OA
ENDBRANCH   1  30
BRANCH  27  33
ATOM     33  O   UNL     1     -47.125  34.137 -23.844  1.00  0.00    -0.393 OA
ATOM     34  H   UNL     1     -47.365  33.716 -24.711  1.00  0.00     0.210 HD
ENDBRANCH  27  33
TORSDOF 2
ENDMDL
MODEL 5
REMARK VINA RESULT:   155.675      9.569     11.819
REMARK INTER + INTRA:         169.772
REMARK INTER:                 169.265
REMARK INTRA:                   0.507
REMARK UNBOUND:                 0.446
REMARK SMILES C[C@@H]1[C@H](C)CC[C@]2(C(=O)[O-])CC[C@]3(C)C(=CC[C@H]4[C@]5(C)CC[C@@H](O)C(C)(C)[C@@H]5CC[C@]43C)[C@@H]12
REMARK SMILES IDX 7 1 6 2 11 3 33 4 5 5 12 6 15 7 2 8 3 9 13 10 16 11 1 12
REMARK SMILES IDX 4 13 14 14 31 15 17 16 18 17 30 18 32 19 19 20 29 21 28 22
REMARK SMILES IDX 21 23 20 24 25 25 22 26 23 27 26 28 27 29 8 30 9 31 10 32
REMARK SMILES IDX 24 33
REMARK H PARENT 24 34
REMARK Flexibility Score: inf
ROOT
ATOM      1  C   UNL     1     -40.683  24.459 -15.439  1.00  0.00     0.017 C 
ATOM      2  C   UNL     1     -39.951  24.051 -16.743  1.00  0.00     0.014 C 
ATOM      3  C   UNL     1     -39.706  24.265 -14.238  1.00  0.00     0.014 C 
ATOM      4  C   UNL     1     -41.901  23.506 -15.195  1.00  0.00     0.030 C 
ATOM      5  C   UNL     1     -40.899  23.962 -17.949  1.00  0.00     0.004 C 
ATOM      6  C   UNL     1     -40.371  24.480 -12.851  1.00  0.00     0.013 C 
ATOM      7  C   UNL     1     -42.545  23.883 -13.850  1.00  0.00    -0.063 C 
ATOM      8  C   UNL     1     -42.848  23.331 -16.429  1.00  0.00    -0.003 C 
ATOM      9  C   UNL     1     -42.051  22.963 -17.718  1.00  0.00    -0.011 C 
ATOM     10  C   UNL     1     -41.691  23.652 -12.595  1.00  0.00    -0.006 C 
ATOM     11  C   UNL     1     -43.569  24.746 -13.842  1.00  0.00    -0.027 C 
ATOM     12  C   UNL     1     -43.963  22.308 -16.142  1.00  0.00     0.008 C 
ATOM     13  C   UNL     1     -41.543  21.505 -17.760  1.00  0.00     0.008 C 
ATOM     14  C   UNL     1     -41.336  22.127 -12.522  1.00  0.00     0.017 C 
ATOM     15  C   UNL     1     -42.419  24.102 -11.212  1.00  0.00    -0.020 C 
ATOM     16  C   UNL     1     -44.123  25.401 -12.632  1.00  0.00     0.032 C 
ATOM     17  C   UNL     1     -43.192  25.475 -11.379  1.00  0.00     0.006 C 
ATOM     18  C   UNL     1     -43.488  23.061 -10.764  1.00  0.00     0.008 C 
ATOM     19  C   UNL     1     -41.305  24.183 -10.111  1.00  0.00     0.012 C 
ATOM     20  C   UNL     1     -44.057  25.991 -10.116  1.00  0.00    -0.025 C 
ATOM     21  C   UNL     1     -44.299  23.471  -9.521  1.00  0.00     0.005 C 
ATOM     22  C   UNL     1     -45.029  24.847  -9.599  1.00  0.00     0.003 C 
ATOM     23  C   UNL     1     -43.159  26.506  -8.942  1.00  0.00     0.010 C 
ATOM     24  C   UNL     1     -44.867  27.243 -10.604  1.00  0.00     0.012 C 
ATOM     25  C   UNL     1     -45.797  25.184  -8.237  1.00  0.00    -0.006 C 
ATOM     26  C   UNL     1     -43.930  26.880  -7.667  1.00  0.00     0.033 C 
ATOM     27  C   UNL     1     -44.800  25.721  -7.159  1.00  0.00     0.120 C 
ATOM     28  C   UNL     1     -46.484  23.910  -7.664  1.00  0.00     0.014 C 
ATOM     29  C   UNL     1     -46.956  26.200  -8.474  1.00  0.00     0.014 C 
ENDROOT
BRANCH   1  30
ATOM     30  C   UNL     1     -41.068  25.938 -15.543  1.00  0.00     0.048 C 
ATOM     31  O   UNL     1     -40.187  26.831 -15.420  1.00  0.00    -0.550 OA
ATOM     32  O   UNL     1     -42.355  26.332 -15.881  1.00  0.00    -0.550 OA
ENDBRANCH   1  30
BRANCH  27  33
ATOM     33  O   UNL     1     -45.494  26.158  -6.016  1.00  0.00    -0.393 OA
ATOM     34  H   UNL     1     -46.368  26.520  -6.318  1.00  0.00     0.210 HD
ENDBRANCH  27  33
TORSDOF 2
ENDMDL
MODEL 6
REMARK VINA RESULT:   155.699      4.470      6.449
REMARK INTER + INTRA:         169.798
REMARK INTER:                 169.519
REMARK INTRA:                   0.278
REMARK UNBOUND:                 0.446
REMARK SMILES C[C@@H]1[C@H](C)CC[C@]2(C(=O)[O-])CC[C@]3(C)C(=CC[C@H]4[C@]5(C)CC[C@@H](O)C(C)(C)[C@@H]5CC[C@]43C)[C@@H]12
REMARK SMILES IDX 7 1 6 2 11 3 33 4 5 5 12 6 15 7 2 8 3 9 13 10 16 11 1 12
REMARK SMILES IDX 4 13 14 14 31 15 17 16 18 17 30 18 32 19 19 20 29 21 28 22
REMARK SMILES IDX 21 23 20 24 25 25 22 26 23 27 26 28 27 29 8 30 9 31 10 32
REMARK SMILES IDX 24 33
REMARK H PARENT 24 34
REMARK Flexibility Score: inf
ROOT
ATOM      1  C   UNL     1     -32.391  30.649 -18.065  1.00  0.00     0.017 C 
ATOM      2  C   UNL     1     -31.104  30.820 -17.218  1.00  0.00     0.014 C 
ATOM      3  C   UNL     1     -32.993  32.061 -18.347  1.00  0.00     0.014 C 
ATOM      4  C   UNL     1     -33.462  29.852 -17.247  1.00  0.00     0.030 C 
ATOM      5  C   UNL     1     -30.575  29.485 -16.672  1.00  0.00     0.004 C 
ATOM      6  C   UNL     1     -34.379  32.021 -19.047  1.00  0.00     0.013 C 
ATOM      7  C   UNL     1     -34.752  29.783 -18.082  1.00  0.00    -0.063 C 
ATOM      8  C   UNL     1     -32.936  28.522 -16.611  1.00  0.00    -0.003 C 
ATOM      9  C   UNL     1     -31.619  28.749 -15.808  1.00  0.00    -0.011 C 
ATOM     10  C   UNL     1     -35.467  31.115 -18.348  1.00  0.00    -0.006 C 
ATOM     11  C   UNL     1     -34.958  28.717 -18.868  1.00  0.00    -0.027 C 
ATOM     12  C   UNL     1     -34.017  27.847 -15.745  1.00  0.00     0.008 C 
ATOM     13  C   UNL     1     -31.815  29.454 -14.448  1.00  0.00     0.008 C 
ATOM     14  C   UNL     1     -35.849  31.745 -16.963  1.00  0.00     0.017 C 
ATOM     15  C   UNL     1     -36.804  30.973 -19.263  1.00  0.00    -0.020 C 
ATOM     16  C   UNL     1     -36.005  28.618 -19.912  1.00  0.00     0.032 C 
ATOM     17  C   UNL     1     -36.585  29.962 -20.462  1.00  0.00     0.006 C 
ATOM     18  C   UNL     1     -38.002  30.411 -18.441  1.00  0.00     0.008 C 
ATOM     19  C   UNL     1     -37.171  32.413 -19.766  1.00  0.00     0.012 C 
ATOM     20  C   UNL     1     -37.866  29.635 -21.392  1.00  0.00    -0.025 C 
ATOM     21  C   UNL     1     -39.274  30.144 -19.265  1.00  0.00     0.005 C 
ATOM     22  C   UNL     1     -39.109  29.207 -20.502  1.00  0.00     0.003 C 
ATOM     23  C   UNL     1     -38.255  30.833 -22.320  1.00  0.00     0.010 C 
ATOM     24  C   UNL     1     -37.439  28.476 -22.360  1.00  0.00     0.012 C 
ATOM     25  C   UNL     1     -40.483  29.042 -21.304  1.00  0.00    -0.006 C 
ATOM     26  C   UNL     1     -39.547  30.622 -23.125  1.00  0.00     0.033 C 
ATOM     27  C   UNL     1     -40.740  30.283 -22.219  1.00  0.00     0.120 C 
ATOM     28  C   UNL     1     -41.683  28.915 -20.319  1.00  0.00     0.014 C 
ATOM     29  C   UNL     1     -40.500  27.726 -22.138  1.00  0.00     0.014 C 
ENDROOT
BRANCH   1  30
ATOM     30  C   UNL     1     -32.012  29.988 -19.394  1.00  0.00     0.048 C 
ATOM     31  O   UNL     1     -31.774  30.697 -20.409  1.00  0.00    -0.550 OA
ATOM     32  O   UNL     1     -31.812  28.618 -19.493  1.00  0.00    -0.550 OA
ENDBRANCH   1  30
BRANCH  27  33
ATOM     33  O   UNL     1     -41.868  30.073 -23.035  1.00  0.00    -0.393 OA
ATOM     34  H   UNL     1     -41.539  29.810 -23.935  1.00  0.00     0.210 HD
ENDBRANCH  27  33
TORSDOF 2
ENDMDL
