MODEL 1
REMARK VINA RESULT:    -5.091      0.000      0.000
REMARK INTER + INTRA:          -5.930
REMARK INTER:                  -5.835
REMARK INTRA:                  -0.095
REMARK UNBOUND:                -0.095
REMARK SMILES COc1cc(C(=O)[O-])ccc1O
REMARK SMILES IDX 5 1 9 2 4 3 10 4 3 5 11 6 6 7 7 8 8 9 2 10 1 11 12 12
REMARK H PARENT 12 13
REMARK Flexibility Score: inf
ROOT
ATOM      1  C   UNL     1      -0.283  -8.868   5.606  1.00  0.00     0.001 A 
ATOM      2  C   UNL     1      -0.010  -8.856   4.228  1.00  0.00     0.014 A 
ATOM      3  C   UNL     1      -1.620  -8.904   6.038  1.00  0.00     0.060 A 
ATOM      4  C   UNL     1      -1.054  -8.880   3.302  1.00  0.00     0.051 A 
ATOM      5  C   UNL     1      -2.678  -8.928   5.107  1.00  0.00     0.161 A 
ATOM      6  C   UNL     1      -2.383  -8.915   3.732  1.00  0.00     0.157 A 
ENDROOT
BRANCH   1   7
ATOM      7  C   UNL     1       0.822  -8.843   6.591  1.00  0.00     0.072 C 
ATOM      8  O   UNL     1       1.127  -9.880   7.240  1.00  0.00    -0.545 OA
ATOM      9  O   UNL     1       1.541  -7.675   6.814  1.00  0.00    -0.545 OA
ENDBRANCH   1   7
BRANCH   5  10
ATOM     10  O   UNL     1      -4.023  -8.965   5.511  1.00  0.00    -0.493 OA
ATOM     11  C   UNL     1      -4.734 -10.150   5.852  1.00  0.00     0.278 C 
ENDBRANCH   5  10
BRANCH   6  12
ATOM     12  O   UNL     1      -3.399  -8.939   2.777  1.00  0.00    -0.504 OA
ATOM     13  H   UNL     1      -4.366  -9.121   3.020  1.00  0.00     0.293 HD
ENDBRANCH   6  12
TORSDOF 3
ENDMDL
MODEL 2
REMARK VINA RESULT:    -4.854     15.615     16.846
REMARK INTER + INTRA:          -5.658
REMARK INTER:                  -5.564
REMARK INTRA:                  -0.095
REMARK UNBOUND:                -0.095
REMARK SMILES COc1cc(C(=O)[O-])ccc1O
REMARK SMILES IDX 5 1 9 2 4 3 10 4 3 5 11 6 6 7 7 8 8 9 2 10 1 11 12 12
REMARK H PARENT 12 13
REMARK Flexibility Score: inf
ROOT
ATOM      1  C   UNL     1       6.692   4.169   0.193  1.00  0.00     0.001 A 
ATOM      2  C   UNL     1       5.884   5.239  -0.227  1.00  0.00     0.014 A 
ATOM      3  C   UNL     1       7.226   3.296  -0.771  1.00  0.00     0.060 A 
ATOM      4  C   UNL     1       5.617   5.432  -1.582  1.00  0.00     0.051 A 
ATOM      5  C   UNL     1       6.959   3.487  -2.143  1.00  0.00     0.161 A 
ATOM      6  C   UNL     1       6.148   4.564  -2.541  1.00  0.00     0.157 A 
ENDROOT
BRANCH   1   7
ATOM      7  C   UNL     1       6.978   3.961   1.631  1.00  0.00     0.072 C 
ATOM      8  O   UNL     1       7.943   4.552   2.185  1.00  0.00    -0.545 OA
ATOM      9  O   UNL     1       6.184   3.111   2.392  1.00  0.00    -0.545 OA
ENDBRANCH   1   7
BRANCH   5  10
ATOM     10  O   UNL     1       7.481   2.631  -3.126  1.00  0.00    -0.493 OA
ATOM     11  C   UNL     1       8.779   2.751  -3.699  1.00  0.00     0.278 C 
ENDBRANCH   5  10
BRANCH   6  12
ATOM     12  O   UNL     1       5.859   4.790  -3.886  1.00  0.00    -0.504 OA
ATOM     13  H   UNL     1       5.944   4.062  -4.586  1.00  0.00     0.293 HD
ENDBRANCH   6  12
TORSDOF 3
ENDMDL
MODEL 3
REMARK VINA RESULT:    -4.782      2.580      5.590
REMARK INTER + INTRA:          -5.575
REMARK INTER:                  -5.502
REMARK INTRA:                  -0.073
REMARK UNBOUND:                -0.095
REMARK SMILES COc1cc(C(=O)[O-])ccc1O
REMARK SMILES IDX 5 1 9 2 4 3 10 4 3 5 11 6 6 7 7 8 8 9 2 10 1 11 12 12
REMARK H PARENT 12 13
REMARK Flexibility Score: inf
ROOT
ATOM      1  C   UNL     1       0.512  -8.620   5.354  1.00  0.00     0.001 A 
ATOM      2  C   UNL     1       0.463  -9.355   6.550  1.00  0.00     0.014 A 
ATOM      3  C   UNL     1       1.302  -7.458   5.297  1.00  0.00     0.060 A 
ATOM      4  C   UNL     1       1.190  -8.936   7.665  1.00  0.00     0.051 A 
ATOM      5  C   UNL     1       2.038  -7.031   6.421  1.00  0.00     0.161 A 
ATOM      6  C   UNL     1       1.975  -7.782   7.609  1.00  0.00     0.157 A 
ENDROOT
BRANCH   1   7
ATOM      7  C   UNL     1      -0.257  -9.061   4.169  1.00  0.00     0.072 C 
ATOM      8  O   UNL     1      -0.247 -10.269   3.810  1.00  0.00    -0.545 OA
ATOM      9  O   UNL     1      -1.004  -8.148   3.433  1.00  0.00    -0.545 OA
ENDBRANCH   1   7
BRANCH   5  10
ATOM     10  O   UNL     1       2.836  -5.876   6.391  1.00  0.00    -0.493 OA
ATOM     11  C   UNL     1       4.226  -5.858   6.083  1.00  0.00     0.278 C 
ENDBRANCH   5  10
BRANCH   6  12
ATOM     12  O   UNL     1       2.687  -7.395   8.744  1.00  0.00    -0.504 OA
ATOM     13  H   UNL     1       2.778  -6.425   9.020  1.00  0.00     0.293 HD
ENDBRANCH   6  12
TORSDOF 3
ENDMDL
MODEL 4
REMARK VINA RESULT:    -4.699      2.520      4.221
REMARK INTER + INTRA:          -5.481
REMARK INTER:                  -5.395
REMARK INTRA:                  -0.086
REMARK UNBOUND:                -0.095
REMARK SMILES COc1cc(C(=O)[O-])ccc1O
REMARK SMILES IDX 5 1 9 2 4 3 10 4 3 5 11 6 6 7 7 8 8 9 2 10 1 11 12 12
REMARK H PARENT 12 13
REMARK Flexibility Score: inf
ROOT
ATOM      1  C   UNL     1       2.728  -7.422   6.227  1.00  0.00     0.001 A 
ATOM      2  C   UNL     1       2.663  -8.304   7.318  1.00  0.00     0.014 A 
ATOM      3  C   UNL     1       1.635  -7.339   5.348  1.00  0.00     0.060 A 
ATOM      4  C   UNL     1       1.526  -9.086   7.526  1.00  0.00     0.051 A 
ATOM      5  C   UNL     1       0.483  -8.127   5.553  1.00  0.00     0.161 A 
ATOM      6  C   UNL     1       0.439  -9.004   6.652  1.00  0.00     0.157 A 
ENDROOT
BRANCH   1   7
ATOM      7  C   UNL     1       3.933  -6.591   6.003  1.00  0.00     0.072 C 
ATOM      8  O   UNL     1       3.859  -5.333   6.037  1.00  0.00    -0.545 OA
ATOM      9  O   UNL     1       5.164  -7.186   5.753  1.00  0.00    -0.545 OA
ENDBRANCH   1   7
BRANCH   5  10
ATOM     10  O   UNL     1      -0.624  -8.064   4.692  1.00  0.00    -0.493 OA
ATOM     11  C   UNL     1      -0.795  -8.871   3.531  1.00  0.00     0.278 C 
ENDBRANCH   5  10
BRANCH   6  12
ATOM     12  O   UNL     1      -0.680  -9.801   6.893  1.00  0.00    -0.504 OA
ATOM     13  H   UNL     1      -1.529  -9.430   7.303  1.00  0.00     0.293 HD
ENDBRANCH   6  12
TORSDOF 3
ENDMDL
MODEL 5
REMARK VINA RESULT:    -4.550     16.291     17.617
REMARK INTER + INTRA:          -5.310
REMARK INTER:                  -5.230
REMARK INTRA:                  -0.081
REMARK UNBOUND:                -0.095
REMARK SMILES COc1cc(C(=O)[O-])ccc1O
REMARK SMILES IDX 5 1 9 2 4 3 10 4 3 5 11 6 6 7 7 8 8 9 2 10 1 11 12 12
REMARK H PARENT 12 13
REMARK Flexibility Score: inf
ROOT
ATOM      1  C   UNL     1       6.551   4.903  -1.500  1.00  0.00     0.001 A 
ATOM      2  C   UNL     1       7.014   4.387  -0.278  1.00  0.00     0.014 A 
ATOM      3  C   UNL     1       6.838   4.209  -2.688  1.00  0.00     0.060 A 
ATOM      4  C   UNL     1       7.749   3.201  -0.246  1.00  0.00     0.051 A 
ATOM      5  C   UNL     1       7.580   3.010  -2.661  1.00  0.00     0.161 A 
ATOM      6  C   UNL     1       8.034   2.511  -1.427  1.00  0.00     0.157 A 
ENDROOT
BRANCH   1   7
ATOM      7  C   UNL     1       5.771   6.161  -1.538  1.00  0.00     0.072 C 
ATOM      8  O   UNL     1       5.047   6.496  -0.562  1.00  0.00    -0.545 OA
ATOM      9  O   UNL     1       5.827   6.992  -2.651  1.00  0.00    -0.545 OA
ENDBRANCH   1   7
BRANCH   5  10
ATOM     10  O   UNL     1       7.880   2.295  -3.832  1.00  0.00    -0.493 OA
ATOM     11  C   UNL     1       8.047   2.882  -5.119  1.00  0.00     0.278 C 
ENDBRANCH   5  10
BRANCH   6  12
ATOM     12  O   UNL     1       8.771   1.329  -1.354  1.00  0.00    -0.504 OA
ATOM     13  H   UNL     1       8.390   0.479  -0.957  1.00  0.00     0.293 HD
ENDBRANCH   6  12
TORSDOF 3
ENDMDL
MODEL 6
REMARK VINA RESULT:    -4.511      1.360      4.291
REMARK INTER + INTRA:          -5.265
REMARK INTER:                  -5.184
REMARK INTRA:                  -0.081
REMARK UNBOUND:                -0.095
REMARK SMILES COc1cc(C(=O)[O-])ccc1O
REMARK SMILES IDX 5 1 9 2 4 3 10 4 3 5 11 6 6 7 7 8 8 9 2 10 1 11 12 12
REMARK H PARENT 12 13
REMARK Flexibility Score: inf
ROOT
ATOM      1  C   UNL     1      -1.774  -9.037   4.863  1.00  0.00     0.001 A 
ATOM      2  C   UNL     1      -0.647  -8.605   4.144  1.00  0.00     0.014 A 
ATOM      3  C   UNL     1      -1.599  -9.568   6.153  1.00  0.00     0.060 A 
ATOM      4  C   UNL     1       0.627  -8.702   4.703  1.00  0.00     0.051 A 
ATOM      5  C   UNL     1      -0.313  -9.669   6.723  1.00  0.00     0.161 A 
ATOM      6  C   UNL     1       0.801  -9.230   5.986  1.00  0.00     0.157 A 
ENDROOT
BRANCH   1   7
ATOM      7  C   UNL     1      -3.127  -8.936   4.272  1.00  0.00     0.072 C 
ATOM      8  O   UNL     1      -3.277  -8.606   3.065  1.00  0.00    -0.545 OA
ATOM      9  O   UNL     1      -4.254  -9.205   5.040  1.00  0.00    -0.545 OA
ENDBRANCH   1   7
BRANCH   5  10
ATOM     10  O   UNL     1      -0.110 -10.194   8.010  1.00  0.00    -0.493 OA
ATOM     11  C   UNL     1      -1.040 -11.019   8.704  1.00  0.00     0.278 C 
ENDBRANCH   5  10
BRANCH   6  12
ATOM     12  O   UNL     1       2.090  -9.310   6.512  1.00  0.00    -0.504 OA
ATOM     13  H   UNL     1       2.911  -9.376   5.922  1.00  0.00     0.293 HD
ENDBRANCH   6  12
TORSDOF 3
ENDMDL
MODEL 7
REMARK VINA RESULT:    -4.506     15.518     16.785
REMARK INTER + INTRA:          -5.259
REMARK INTER:                  -5.164
REMARK INTRA:                  -0.095
REMARK UNBOUND:                -0.095
REMARK SMILES COc1cc(C(=O)[O-])ccc1O
REMARK SMILES IDX 5 1 9 2 4 3 10 4 3 5 11 6 6 7 7 8 8 9 2 10 1 11 12 12
REMARK H PARENT 12 13
REMARK Flexibility Score: inf
ROOT
ATOM      1  C   UNL     1       7.045   3.873   0.608  1.00  0.00     0.001 A 
ATOM      2  C   UNL     1       7.996   3.104  -0.084  1.00  0.00     0.014 A 
ATOM      3  C   UNL     1       6.152   4.676  -0.123  1.00  0.00     0.060 A 
ATOM      4  C   UNL     1       8.051   3.137  -1.478  1.00  0.00     0.051 A 
ATOM      5  C   UNL     1       6.204   4.713  -1.532  1.00  0.00     0.161 A 
ATOM      6  C   UNL     1       7.164   3.936  -2.205  1.00  0.00     0.157 A 
ENDROOT
BRANCH   1   7
ATOM      7  C   UNL     1       6.983   3.839   2.086  1.00  0.00     0.072 C 
ATOM      8  O   UNL     1       6.153   3.098   2.677  1.00  0.00    -0.545 OA
ATOM      9  O   UNL     1       7.842   4.626   2.846  1.00  0.00    -0.545 OA
ENDBRANCH   1   7
BRANCH   5  10
ATOM     10  O   UNL     1       5.324   5.505  -2.287  1.00  0.00    -0.493 OA
ATOM     11  C   UNL     1       5.415   6.921  -2.415  1.00  0.00     0.278 C 
ENDBRANCH   5  10
BRANCH   6  12
ATOM     12  O   UNL     1       7.249   3.943  -3.597  1.00  0.00    -0.504 OA
ATOM     13  H   UNL     1       6.556   4.398  -4.178  1.00  0.00     0.293 HD
ENDBRANCH   6  12
TORSDOF 3
ENDMDL
MODEL 8
REMARK VINA RESULT:    -4.405      2.453      5.037
REMARK INTER + INTRA:          -5.144
REMARK INTER:                  -5.044
REMARK INTRA:                  -0.100
REMARK UNBOUND:                -0.095
REMARK SMILES COc1cc(C(=O)[O-])ccc1O
REMARK SMILES IDX 5 1 9 2 4 3 10 4 3 5 11 6 6 7 7 8 8 9 2 10 1 11 12 12
REMARK H PARENT 12 13
REMARK Flexibility Score: inf
ROOT
ATOM      1  C   UNL     1       0.520  -8.615   5.390  1.00  0.00     0.001 A 
ATOM      2  C   UNL     1       1.212  -7.393   5.352  1.00  0.00     0.014 A 
ATOM      3  C   UNL     1       0.553  -9.384   6.566  1.00  0.00     0.060 A 
ATOM      4  C   UNL     1       1.923  -6.950   6.468  1.00  0.00     0.051 A 
ATOM      5  C   UNL     1       1.270  -8.941   7.697  1.00  0.00     0.161 A 
ATOM      6  C   UNL     1       1.956  -7.715   7.637  1.00  0.00     0.157 A 
ENDROOT
BRANCH   1   7
ATOM      7  C   UNL     1      -0.235  -9.088   4.207  1.00  0.00     0.072 C 
ATOM      8  O   UNL     1      -0.192 -10.300   3.862  1.00  0.00    -0.545 OA
ATOM      9  O   UNL     1      -1.003  -8.203   3.460  1.00  0.00    -0.545 OA
ENDBRANCH   1   7
BRANCH   5  10
ATOM     10  O   UNL     1       1.319  -9.688   8.885  1.00  0.00    -0.493 OA
ATOM     11  C   UNL     1       2.202 -10.781   9.119  1.00  0.00     0.278 C 
ENDBRANCH   5  10
BRANCH   6  12
ATOM     12  O   UNL     1       2.677  -7.239   8.732  1.00  0.00    -0.504 OA
ATOM     13  H   UNL     1       3.362  -7.807   9.216  1.00  0.00     0.293 HD
ENDBRANCH   6  12
TORSDOF 3
ENDMDL
