MODEL 1
REMARK VINA RESULT:    -2.787      0.000      0.000
REMARK INTER + INTRA:         -11.040
REMARK INTER:                  -7.022
REMARK INTRA:                  -4.018
REMARK UNBOUND:                -4.018
REMARK SMILES CCCCCCCCCCCCCCCCCCCCCCCCCCCC(=O)[O-]
REMARK SMILES IDX 15 1 16 2 17 3 18 4 19 5 20 6 21 7 22 8 23 9 24 10 25 11
REMARK SMILES IDX 26 12 27 13 28 14 29 15 30 16 14 17 13 18 12 19 11 20 10 21
REMARK SMILES IDX 9 22 8 23 7 24 6 25 5 26 4 27 3 28 2 29 1 30
REMARK H PARENT
REMARK Flexibility Score: inf
ROOT
ATOM      1  C   UNL     1     143.896 148.725 145.418  1.00  0.00     0.000 C 
ENDROOT
BRANCH   1   2
ATOM      2  C   UNL     1     144.358 150.184 145.594  1.00  0.00     0.000 C 
BRANCH   2   3
ATOM      3  C   UNL     1     143.383 151.091 146.370  1.00  0.00     0.000 C 
BRANCH   3   4
ATOM      4  C   UNL     1     144.025 151.740 147.608  1.00  0.00     0.000 C 
BRANCH   4   5
ATOM      5  C   UNL     1     145.545 151.513 147.686  1.00  0.00     0.000 C 
BRANCH   5   6
ATOM      6  C   UNL     1     146.078 151.078 149.064  1.00  0.00     0.000 C 
BRANCH   6   7
ATOM      7  C   UNL     1     145.721 149.623 149.413  1.00  0.00     0.000 C 
BRANCH   7   8
ATOM      8  C   UNL     1     145.031 149.500 150.782  1.00  0.00     0.000 C 
BRANCH   8   9
ATOM      9  C   UNL     1     143.504 149.631 150.682  1.00  0.00     0.000 C 
BRANCH   9  10
ATOM     10  C   UNL     1     142.980 150.691 151.660  1.00  0.00     0.000 C 
BRANCH  10  11
ATOM     11  C   UNL     1     142.997 152.086 151.019  1.00  0.00     0.000 C 
BRANCH  11  12
ATOM     12  C   UNL     1     143.645 153.149 151.925  1.00  0.00     0.006 C 
BRANCH  12  13
ATOM     13  C   UNL     1     145.136 152.910 152.213  1.00  0.00     0.053 C 
BRANCH  13  14
ATOM     14  C   UNL     1     145.406 152.727 153.675  1.00  0.00     0.041 C 
ATOM     15  O   UNL     1     145.805 153.698 154.371  1.00  0.00    -0.550 OA
ATOM     16  O   UNL     1     145.229 151.482 154.264  1.00  0.00    -0.550 OA
ENDBRANCH  13  14
ENDBRANCH  12  13
ENDBRANCH  11  12
ENDBRANCH  10  11
ENDBRANCH   9  10
ENDBRANCH   8   9
ENDBRANCH   7   8
ENDBRANCH   6   7
ENDBRANCH   5   6
ENDBRANCH   4   5
ENDBRANCH   3   4
ENDBRANCH   2   3
ENDBRANCH   1   2
BRANCH   1  17
ATOM     17  C   UNL     1     143.549 148.045 146.753  1.00  0.00     0.000 C 
BRANCH  17  18
ATOM     18  C   UNL     1     143.171 146.561 146.582  1.00  0.00     0.000 C 
BRANCH  18  19
ATOM     19  C   UNL     1     144.217 145.560 147.113  1.00  0.00     0.000 C 
BRANCH  19  20
ATOM     20  C   UNL     1     144.765 144.560 146.075  1.00  0.00     0.000 C 
BRANCH  20  21
ATOM     21  C   UNL     1     145.428 145.198 144.842  1.00  0.00     0.000 C 
BRANCH  21  22
ATOM     22  C   UNL     1     144.553 145.104 143.580  1.00  0.00    -0.000 C 
BRANCH  22  23
ATOM     23  C   UNL     1     145.349 144.668 142.339  1.00  0.00    -0.000 C 
BRANCH  23  24
ATOM     24  C   UNL     1     146.733 144.090 142.686  1.00  0.00    -0.000 C 
BRANCH  24  25
ATOM     25  C   UNL     1     147.881 144.882 142.024  1.00  0.00    -0.000 C 
BRANCH  25  26
ATOM     26  C   UNL     1     147.524 146.345 141.710  1.00  0.00    -0.000 C 
BRANCH  26  27
ATOM     27  C   UNL     1     147.829 147.300 142.874  1.00  0.00    -0.000 C 
BRANCH  27  28
ATOM     28  C   UNL     1     146.639 148.228 143.157  1.00  0.00    -0.000 C 
BRANCH  28  29
ATOM     29  C   UNL     1     146.745 149.566 142.409  1.00  0.00    -0.003 C 
ATOM     30  C   UNL     1     145.613 149.773 141.401  1.00  0.00     0.004 C 
ENDBRANCH  28  29
ENDBRANCH  27  28
ENDBRANCH  26  27
ENDBRANCH  25  26
ENDBRANCH  24  25
ENDBRANCH  23  24
ENDBRANCH  22  23
ENDBRANCH  21  22
ENDBRANCH  20  21
ENDBRANCH  19  20
ENDBRANCH  18  19
ENDBRANCH  17  18
ENDBRANCH   1  17
TORSDOF 26
ENDMDL
MODEL 2
REMARK VINA RESULT:    -2.759      3.331      9.306
REMARK INTER + INTRA:         -10.971
REMARK INTER:                  -6.979
REMARK INTRA:                  -3.992
REMARK UNBOUND:                -4.018
REMARK SMILES CCCCCCCCCCCCCCCCCCCCCCCCCCCC(=O)[O-]
REMARK SMILES IDX 15 1 16 2 17 3 18 4 19 5 20 6 21 7 22 8 23 9 24 10 25 11
REMARK SMILES IDX 26 12 27 13 28 14 29 15 30 16 14 17 13 18 12 19 11 20 10 21
REMARK SMILES IDX 9 22 8 23 7 24 6 25 5 26 4 27 3 28 2 29 1 30
REMARK H PARENT
REMARK Flexibility Score: inf
ROOT
ATOM      1  C   UNL     1     144.300 148.927 145.122  1.00  0.00     0.000 C 
ENDROOT
BRANCH   1   2
ATOM      2  C   UNL     1     143.096 148.559 146.009  1.00  0.00     0.000 C 
BRANCH   2   3
ATOM      3  C   UNL     1     143.387 147.522 147.111  1.00  0.00     0.000 C 
BRANCH   3   4
ATOM      4  C   UNL     1     143.299 146.071 146.607  1.00  0.00     0.000 C 
BRANCH   4   5
ATOM      5  C   UNL     1     144.676 145.400 146.462  1.00  0.00     0.000 C 
BRANCH   5   6
ATOM      6  C   UNL     1     145.152 145.176 145.014  1.00  0.00     0.000 C 
BRANCH   6   7
ATOM      7  C   UNL     1     144.001 145.203 143.994  1.00  0.00     0.000 C 
BRANCH   7   8
ATOM      8  C   UNL     1     144.356 146.003 142.730  1.00  0.00     0.000 C 
BRANCH   8   9
ATOM      9  C   UNL     1     143.252 146.994 142.333  1.00  0.00     0.000 C 
BRANCH   9  10
ATOM     10  C   UNL     1     143.658 147.798 141.091  1.00  0.00     0.000 C 
BRANCH  10  11
ATOM     11  C   UNL     1     143.766 149.294 141.416  1.00  0.00     0.000 C 
BRANCH  11  12
ATOM     12  C   UNL     1     145.184 149.851 141.192  1.00  0.00     0.006 C 
BRANCH  12  13
ATOM     13  C   UNL     1     146.295 148.790 141.243  1.00  0.00     0.053 C 
BRANCH  13  14
ATOM     14  C   UNL     1     147.070 148.847 142.523  1.00  0.00     0.041 C 
ATOM     15  O   UNL     1     147.337 149.958 143.053  1.00  0.00    -0.550 OA
ATOM     16  O   UNL     1     147.511 147.674 143.122  1.00  0.00    -0.550 OA
ENDBRANCH  13  14
ENDBRANCH  12  13
ENDBRANCH  11  12
ENDBRANCH  10  11
ENDBRANCH   9  10
ENDBRANCH   8   9
ENDBRANCH   7   8
ENDBRANCH   6   7
ENDBRANCH   5   6
ENDBRANCH   4   5
ENDBRANCH   3   4
ENDBRANCH   2   3
ENDBRANCH   1   2
BRANCH   1  17
ATOM     17  C   UNL     1     144.398 150.437 144.845  1.00  0.00     0.000 C 
BRANCH  17  18
ATOM     18  C   UNL     1     143.303 151.245 145.565  1.00  0.00     0.000 C 
BRANCH  18  19
ATOM     19  C   UNL     1     143.823 152.277 146.585  1.00  0.00     0.000 C 
BRANCH  19  20
ATOM     20  C   UNL     1     144.062 151.739 148.011  1.00  0.00     0.000 C 
BRANCH  20  21
ATOM     21  C   UNL     1     145.451 151.119 148.249  1.00  0.00     0.000 C 
BRANCH  21  22
ATOM     22  C   UNL     1     145.382 149.771 148.988  1.00  0.00    -0.000 C 
BRANCH  22  23
ATOM     23  C   UNL     1     145.808 149.881 150.461  1.00  0.00    -0.000 C 
BRANCH  23  24
ATOM     24  C   UNL     1     144.656 149.597 151.442  1.00  0.00    -0.000 C 
BRANCH  24  25
ATOM     25  C   UNL     1     144.145 150.879 152.132  1.00  0.00    -0.000 C 
BRANCH  25  26
ATOM     26  C   UNL     1     144.920 152.147 151.737  1.00  0.00    -0.000 C 
BRANCH  26  27
ATOM     27  C   UNL     1     144.754 153.291 152.748  1.00  0.00    -0.000 C 
BRANCH  27  28
ATOM     28  C   UNL     1     145.978 153.401 153.668  1.00  0.00    -0.000 C 
BRANCH  28  29
ATOM     29  C   UNL     1     146.582 154.815 153.679  1.00  0.00    -0.003 C 
ATOM     30  C   UNL     1     145.862 155.774 152.730  1.00  0.00     0.004 C 
ENDBRANCH  28  29
ENDBRANCH  27  28
ENDBRANCH  26  27
ENDBRANCH  25  26
ENDBRANCH  24  25
ENDBRANCH  23  24
ENDBRANCH  22  23
ENDBRANCH  21  22
ENDBRANCH  20  21
ENDBRANCH  19  20
ENDBRANCH  18  19
ENDBRANCH  17  18
ENDBRANCH   1  17
TORSDOF 26
ENDMDL
MODEL 3
REMARK VINA RESULT:    -2.754      1.423      2.381
REMARK INTER + INTRA:         -10.957
REMARK INTER:                  -6.896
REMARK INTRA:                  -4.061
REMARK UNBOUND:                -4.018
REMARK SMILES CCCCCCCCCCCCCCCCCCCCCCCCCCCC(=O)[O-]
REMARK SMILES IDX 15 1 16 2 17 3 18 4 19 5 20 6 21 7 22 8 23 9 24 10 25 11
REMARK SMILES IDX 26 12 27 13 28 14 29 15 30 16 14 17 13 18 12 19 11 20 10 21
REMARK SMILES IDX 9 22 8 23 7 24 6 25 5 26 4 27 3 28 2 29 1 30
REMARK H PARENT
REMARK Flexibility Score: inf
ROOT
ATOM      1  C   UNL     1     144.218 149.302 145.549  1.00  0.00     0.000 C 
ENDROOT
BRANCH   1   2
ATOM      2  C   UNL     1     144.193 150.840 145.470  1.00  0.00     0.000 C 
BRANCH   2   3
ATOM      3  C   UNL     1     144.137 151.565 146.830  1.00  0.00     0.000 C 
BRANCH   3   4
ATOM      4  C   UNL     1     145.434 151.414 147.643  1.00  0.00     0.000 C 
BRANCH   4   5
ATOM      5  C   UNL     1     145.179 151.136 149.135  1.00  0.00     0.000 C 
BRANCH   5   6
ATOM      6  C   UNL     1     143.705 150.919 149.524  1.00  0.00     0.000 C 
BRANCH   6   7
ATOM      7  C   UNL     1     143.504 149.727 150.475  1.00  0.00     0.000 C 
BRANCH   7   8
ATOM      8  C   UNL     1     144.727 149.484 151.375  1.00  0.00     0.000 C 
BRANCH   8   9
ATOM      9  C   UNL     1     144.376 149.539 152.869  1.00  0.00     0.000 C 
BRANCH   9  10
ATOM     10  C   UNL     1     143.836 150.923 153.253  1.00  0.00     0.000 C 
BRANCH  10  11
ATOM     11  C   UNL     1     144.976 151.943 153.378  1.00  0.00     0.000 C 
BRANCH  11  12
ATOM     12  C   UNL     1     144.876 153.077 152.342  1.00  0.00     0.006 C 
BRANCH  12  13
ATOM     13  C   UNL     1     144.638 154.469 152.948  1.00  0.00     0.053 C 
BRANCH  13  14
ATOM     14  C   UNL     1     145.899 155.273 153.027  1.00  0.00     0.041 C 
ATOM     15  O   UNL     1     145.923 156.457 152.599  1.00  0.00    -0.550 OA
ATOM     16  O   UNL     1     147.050 154.709 153.561  1.00  0.00    -0.550 OA
ENDBRANCH  13  14
ENDBRANCH  12  13
ENDBRANCH  11  12
ENDBRANCH  10  11
ENDBRANCH   9  10
ENDBRANCH   8   9
ENDBRANCH   7   8
ENDBRANCH   6   7
ENDBRANCH   5   6
ENDBRANCH   4   5
ENDBRANCH   3   4
ENDBRANCH   2   3
ENDBRANCH   1   2
BRANCH   1  17
ATOM     17  C   UNL     1     143.154 148.736 146.504  1.00  0.00     0.000 C 
BRANCH  17  18
ATOM     18  C   UNL     1     143.717 147.653 147.444  1.00  0.00     0.000 C 
BRANCH  18  19
ATOM     19  C   UNL     1     143.446 146.202 146.998  1.00  0.00     0.000 C 
BRANCH  19  20
ATOM     20  C   UNL     1     144.700 145.346 146.727  1.00  0.00     0.000 C 
BRANCH  20  21
ATOM     21  C   UNL     1     144.881 144.900 145.265  1.00  0.00     0.000 C 
BRANCH  21  22
ATOM     22  C   UNL     1     144.483 145.991 144.256  1.00  0.00    -0.000 C 
BRANCH  22  23
ATOM     23  C   UNL     1     143.959 145.410 142.933  1.00  0.00    -0.000 C 
BRANCH  23  24
ATOM     24  C   UNL     1     144.207 146.338 141.730  1.00  0.00    -0.000 C 
BRANCH  24  25
ATOM     25  C   UNL     1     144.056 147.829 142.100  1.00  0.00    -0.000 C 
BRANCH  25  26
ATOM     26  C   UNL     1     145.296 148.679 141.771  1.00  0.00    -0.000 C 
BRANCH  26  27
ATOM     27  C   UNL     1     146.573 147.841 141.617  1.00  0.00    -0.000 C 
BRANCH  27  28
ATOM     28  C   UNL     1     147.386 147.823 142.920  1.00  0.00    -0.000 C 
BRANCH  28  29
ATOM     29  C   UNL     1     147.961 146.432 143.236  1.00  0.00    -0.003 C 
ATOM     30  C   UNL     1     147.834 145.458 142.064  1.00  0.00     0.004 C 
ENDBRANCH  28  29
ENDBRANCH  27  28
ENDBRANCH  26  27
ENDBRANCH  25  26
ENDBRANCH  24  25
ENDBRANCH  23  24
ENDBRANCH  22  23
ENDBRANCH  21  22
ENDBRANCH  20  21
ENDBRANCH  19  20
ENDBRANCH  18  19
ENDBRANCH  17  18
ENDBRANCH   1  17
TORSDOF 26
ENDMDL
MODEL 4
REMARK VINA RESULT:    -2.746      3.655      9.558
REMARK INTER + INTRA:         -10.937
REMARK INTER:                  -7.240
REMARK INTRA:                  -3.697
REMARK UNBOUND:                -4.018
REMARK SMILES CCCCCCCCCCCCCCCCCCCCCCCCCCCC(=O)[O-]
REMARK SMILES IDX 15 1 16 2 17 3 18 4 19 5 20 6 21 7 22 8 23 9 24 10 25 11
REMARK SMILES IDX 26 12 27 13 28 14 29 15 30 16 14 17 13 18 12 19 11 20 10 21
REMARK SMILES IDX 9 22 8 23 7 24 6 25 5 26 4 27 3 28 2 29 1 30
REMARK H PARENT
REMARK Flexibility Score: inf
ROOT
ATOM      1  C   UNL     1     143.656 150.510 144.702  1.00  0.00     0.000 C 
ENDROOT
BRANCH   1   2
ATOM      2  C   UNL     1     144.253 149.194 145.234  1.00  0.00     0.000 C 
BRANCH   2   3
ATOM      3  C   UNL     1     143.241 148.233 145.889  1.00  0.00     0.000 C 
BRANCH   3   4
ATOM      4  C   UNL     1     143.791 147.555 147.155  1.00  0.00     0.000 C 
BRANCH   4   5
ATOM      5  C   UNL     1     143.642 146.023 147.130  1.00  0.00     0.000 C 
BRANCH   5   6
ATOM      6  C   UNL     1     144.680 145.273 146.274  1.00  0.00     0.000 C 
BRANCH   6   7
ATOM      7  C   UNL     1     144.078 144.670 144.993  1.00  0.00     0.000 C 
BRANCH   7   8
ATOM      8  C   UNL     1     144.735 145.226 143.719  1.00  0.00     0.000 C 
BRANCH   8   9
ATOM      9  C   UNL     1     146.107 145.858 143.995  1.00  0.00     0.000 C 
BRANCH   9  10
ATOM     10  C   UNL     1     147.026 145.728 142.773  1.00  0.00     0.000 C 
BRANCH  10  11
ATOM     11  C   UNL     1     147.767 147.044 142.500  1.00  0.00     0.000 C 
BRANCH  11  12
ATOM     12  C   UNL     1     147.006 148.276 143.021  1.00  0.00     0.006 C 
BRANCH  12  13
ATOM     13  C   UNL     1     146.727 149.345 141.953  1.00  0.00     0.053 C 
BRANCH  13  14
ATOM     14  C   UNL     1     145.305 149.317 141.484  1.00  0.00     0.041 C 
ATOM     15  O   UNL     1     144.853 150.256 140.776  1.00  0.00    -0.550 OA
ATOM     16  O   UNL     1     144.476 148.263 141.842  1.00  0.00    -0.550 OA
ENDBRANCH  13  14
ENDBRANCH  12  13
ENDBRANCH  11  12
ENDBRANCH  10  11
ENDBRANCH   9  10
ENDBRANCH   8   9
ENDBRANCH   7   8
ENDBRANCH   6   7
ENDBRANCH   5   6
ENDBRANCH   4   5
ENDBRANCH   3   4
ENDBRANCH   2   3
ENDBRANCH   1   2
BRANCH   1  17
ATOM     17  C   UNL     1     143.979 151.717 145.597  1.00  0.00     0.000 C 
BRANCH  17  18
ATOM     18  C   UNL     1     143.073 151.794 146.840  1.00  0.00     0.000 C 
BRANCH  18  19
ATOM     19  C   UNL     1     143.810 151.675 148.189  1.00  0.00     0.000 C 
BRANCH  19  20
ATOM     20  C   UNL     1     145.319 151.365 148.096  1.00  0.00     0.000 C 
BRANCH  20  21
ATOM     21  C   UNL     1     145.818 150.264 149.047  1.00  0.00     0.000 C 
BRANCH  21  22
ATOM     22  C   UNL     1     144.691 149.664 149.906  1.00  0.00    -0.000 C 
BRANCH  22  23
ATOM     23  C   UNL     1     145.073 149.555 151.391  1.00  0.00    -0.000 C 
BRANCH  23  24
ATOM     24  C   UNL     1     144.106 150.316 152.317  1.00  0.00    -0.000 C 
BRANCH  24  25
ATOM     25  C   UNL     1     144.633 151.718 152.688  1.00  0.00    -0.000 C 
BRANCH  25  26
ATOM     26  C   UNL     1     144.094 152.841 151.784  1.00  0.00    -0.000 C 
BRANCH  26  27
ATOM     27  C   UNL     1     144.178 154.228 152.437  1.00  0.00    -0.000 C 
BRANCH  27  28
ATOM     28  C   UNL     1     145.633 154.610 152.746  1.00  0.00    -0.000 C 
BRANCH  28  29
ATOM     29  C   UNL     1     145.851 156.132 152.769  1.00  0.00    -0.003 C 
ATOM     30  C   UNL     1     145.207 156.804 153.983  1.00  0.00     0.004 C 
ENDBRANCH  28  29
ENDBRANCH  27  28
ENDBRANCH  26  27
ENDBRANCH  25  26
ENDBRANCH  24  25
ENDBRANCH  23  24
ENDBRANCH  22  23
ENDBRANCH  21  22
ENDBRANCH  20  21
ENDBRANCH  19  20
ENDBRANCH  18  19
ENDBRANCH  17  18
ENDBRANCH   1  17
TORSDOF 26
ENDMDL
MODEL 5
REMARK VINA RESULT:    -2.735      1.628      3.330
REMARK INTER + INTRA:         -10.910
REMARK INTER:                  -7.388
REMARK INTRA:                  -3.522
REMARK UNBOUND:                -4.018
REMARK SMILES CCCCCCCCCCCCCCCCCCCCCCCCCCCC(=O)[O-]
REMARK SMILES IDX 15 1 16 2 17 3 18 4 19 5 20 6 21 7 22 8 23 9 24 10 25 11
REMARK SMILES IDX 26 12 27 13 28 14 29 15 30 16 14 17 13 18 12 19 11 20 10 21
REMARK SMILES IDX 9 22 8 23 7 24 6 25 5 26 4 27 3 28 2 29 1 30
REMARK H PARENT
REMARK Flexibility Score: inf
ROOT
ATOM      1  C   UNL     1     145.892 151.382 148.187  1.00  0.00     0.000 C 
ENDROOT
BRANCH   1   2
ATOM      2  C   UNL     1     145.624 150.647 149.514  1.00  0.00     0.000 C 
BRANCH   2   3
ATOM      3  C   UNL     1     145.007 151.514 150.629  1.00  0.00     0.000 C 
BRANCH   3   4
ATOM      4  C   UNL     1     143.622 151.018 151.076  1.00  0.00     0.000 C 
BRANCH   4   5
ATOM      5  C   UNL     1     143.551 149.487 151.230  1.00  0.00     0.000 C 
BRANCH   5   6
ATOM      6  C   UNL     1     144.085 148.933 152.564  1.00  0.00     0.000 C 
BRANCH   6   7
ATOM      7  C   UNL     1     143.600 149.735 153.784  1.00  0.00     0.000 C 
BRANCH   7   8
ATOM      8  C   UNL     1     144.763 150.242 154.652  1.00  0.00     0.000 C 
BRANCH   8   9
ATOM      9  C   UNL     1     144.979 151.757 154.516  1.00  0.00     0.000 C 
BRANCH   9  10
ATOM     10  C   UNL     1     143.643 152.486 154.324  1.00  0.00     0.000 C 
BRANCH  10  11
ATOM     11  C   UNL     1     143.856 154.001 154.203  1.00  0.00     0.000 C 
BRANCH  11  12
ATOM     12  C   UNL     1     144.285 154.431 152.788  1.00  0.00     0.006 C 
BRANCH  12  13
ATOM     13  C   UNL     1     145.445 155.438 152.758  1.00  0.00     0.053 C 
BRANCH  13  14
ATOM     14  C   UNL     1     146.477 155.141 153.801  1.00  0.00     0.041 C 
ATOM     15  O   UNL     1     147.357 154.264 153.590  1.00  0.00    -0.550 OA
ATOM     16  O   UNL     1     146.459 155.822 155.011  1.00  0.00    -0.550 OA
ENDBRANCH  13  14
ENDBRANCH  12  13
ENDBRANCH  11  12
ENDBRANCH  10  11
ENDBRANCH   9  10
ENDBRANCH   8   9
ENDBRANCH   7   8
ENDBRANCH   6   7
ENDBRANCH   5   6
ENDBRANCH   4   5
ENDBRANCH   3   4
ENDBRANCH   2   3
ENDBRANCH   1   2
BRANCH   1  17
ATOM     17  C   UNL     1     144.909 150.981 147.074  1.00  0.00     0.000 C 
BRANCH  17  18
ATOM     18  C   UNL     1     144.176 149.661 147.376  1.00  0.00     0.000 C 
BRANCH  18  19
ATOM     19  C   UNL     1     143.455 149.028 146.169  1.00  0.00     0.000 C 
BRANCH  19  20
ATOM     20  C   UNL     1     144.347 148.730 144.946  1.00  0.00     0.000 C 
BRANCH  20  21
ATOM     21  C   UNL     1     143.608 148.154 143.725  1.00  0.00     0.000 C 
BRANCH  21  22
ATOM     22  C   UNL     1     143.705 146.621 143.640  1.00  0.00    -0.000 C 
BRANCH  22  23
ATOM     23  C   UNL     1     144.746 146.039 144.610  1.00  0.00    -0.000 C 
BRANCH  23  24
ATOM     24  C   UNL     1     145.463 144.798 144.047  1.00  0.00    -0.000 C 
BRANCH  24  25
ATOM     25  C   UNL     1     146.291 145.121 142.786  1.00  0.00    -0.000 C 
BRANCH  25  26
ATOM     26  C   UNL     1     147.665 145.743 143.089  1.00  0.00    -0.000 C 
BRANCH  26  27
ATOM     27  C   UNL     1     147.703 147.259 142.848  1.00  0.00    -0.000 C 
BRANCH  27  28
ATOM     28  C   UNL     1     146.779 147.662 141.690  1.00  0.00    -0.000 C 
BRANCH  28  29
ATOM     29  C   UNL     1     146.652 149.186 141.540  1.00  0.00    -0.003 C 
ATOM     30  C   UNL     1     147.170 149.947 142.762  1.00  0.00     0.004 C 
ENDBRANCH  28  29
ENDBRANCH  27  28
ENDBRANCH  26  27
ENDBRANCH  25  26
ENDBRANCH  24  25
ENDBRANCH  23  24
ENDBRANCH  22  23
ENDBRANCH  21  22
ENDBRANCH  20  21
ENDBRANCH  19  20
ENDBRANCH  18  19
ENDBRANCH  17  18
ENDBRANCH   1  17
TORSDOF 26
ENDMDL
MODEL 6
REMARK VINA RESULT:    -2.731      1.788      2.657
REMARK INTER + INTRA:         -10.899
REMARK INTER:                  -6.831
REMARK INTRA:                  -4.067
REMARK UNBOUND:                -4.018
REMARK SMILES CCCCCCCCCCCCCCCCCCCCCCCCCCCC(=O)[O-]
REMARK SMILES IDX 15 1 16 2 17 3 18 4 19 5 20 6 21 7 22 8 23 9 24 10 25 11
REMARK SMILES IDX 26 12 27 13 28 14 29 15 30 16 14 17 13 18 12 19 11 20 10 21
REMARK SMILES IDX 9 22 8 23 7 24 6 25 5 26 4 27 3 28 2 29 1 30
REMARK H PARENT
REMARK Flexibility Score: inf
ROOT
ATOM      1  C   UNL     1     144.636 150.243 144.984  1.00  0.00     0.000 C 
ENDROOT
BRANCH   1   2
ATOM      2  C   UNL     1     144.348 150.589 146.457  1.00  0.00     0.000 C 
BRANCH   2   3
ATOM      3  C   UNL     1     143.856 149.412 147.322  1.00  0.00     0.000 C 
BRANCH   3   4
ATOM      4  C   UNL     1     144.630 149.276 148.645  1.00  0.00     0.000 C 
BRANCH   4   5
ATOM      5  C   UNL     1     145.588 150.453 148.904  1.00  0.00     0.000 C 
BRANCH   5   6
ATOM      6  C   UNL     1     145.329 151.241 150.201  1.00  0.00     0.000 C 
BRANCH   6   7
ATOM      7  C   UNL     1     143.834 151.494 150.461  1.00  0.00     0.000 C 
BRANCH   7   8
ATOM      8  C   UNL     1     143.318 150.737 151.696  1.00  0.00     0.000 C 
BRANCH   8   9
ATOM      9  C   UNL     1     144.444 150.026 152.461  1.00  0.00     0.000 C 
BRANCH   9  10
ATOM     10  C   UNL     1     144.422 150.406 153.946  1.00  0.00     0.000 C 
BRANCH  10  11
ATOM     11  C   UNL     1     145.404 151.550 154.236  1.00  0.00     0.000 C 
BRANCH  11  12
ATOM     12  C   UNL     1     144.706 152.915 154.367  1.00  0.00     0.006 C 
BRANCH  12  13
ATOM     13  C   UNL     1     144.995 153.887 153.213  1.00  0.00     0.053 C 
BRANCH  13  14
ATOM     14  C   UNL     1     146.312 154.581 153.376  1.00  0.00     0.041 C 
ATOM     15  O   UNL     1     146.500 155.362 154.346  1.00  0.00    -0.550 OA
ATOM     16  O   UNL     1     147.326 154.376 152.450  1.00  0.00    -0.550 OA
ENDBRANCH  13  14
ENDBRANCH  12  13
ENDBRANCH  11  12
ENDBRANCH  10  11
ENDBRANCH   9  10
ENDBRANCH   8   9
ENDBRANCH   7   8
ENDBRANCH   6   7
ENDBRANCH   5   6
ENDBRANCH   4   5
ENDBRANCH   3   4
ENDBRANCH   2   3
ENDBRANCH   1   2
BRANCH   1  17
ATOM     17  C   UNL     1     143.403 149.692 144.248  1.00  0.00     0.000 C 
BRANCH  17  18
ATOM     18  C   UNL     1     143.644 148.293 143.651  1.00  0.00     0.000 C 
BRANCH  18  19
ATOM     19  C   UNL     1     144.751 147.474 144.343  1.00  0.00     0.000 C 
BRANCH  19  20
ATOM     20  C   UNL     1     145.356 146.331 143.501  1.00  0.00     0.000 C 
BRANCH  20  21
ATOM     21  C   UNL     1     146.882 146.170 143.622  1.00  0.00     0.000 C 
BRANCH  21  22
ATOM     22  C   UNL     1     147.487 145.358 142.463  1.00  0.00    -0.000 C 
BRANCH  22  23
ATOM     23  C   UNL     1     146.439 144.947 141.417  1.00  0.00    -0.000 C 
BRANCH  23  24
ATOM     24  C   UNL     1     146.927 145.142 139.970  1.00  0.00    -0.000 C 
BRANCH  24  25
ATOM     25  C   UNL     1     146.046 146.137 139.184  1.00  0.00    -0.000 C 
BRANCH  25  26
ATOM     26  C   UNL     1     144.938 146.786 140.031  1.00  0.00    -0.000 C 
BRANCH  26  27
ATOM     27  C   UNL     1     145.124 148.301 140.203  1.00  0.00    -0.000 C 
BRANCH  27  28
ATOM     28  C   UNL     1     146.495 148.626 140.813  1.00  0.00    -0.000 C 
BRANCH  28  29
ATOM     29  C   UNL     1     146.454 149.857 141.732  1.00  0.00    -0.003 C 
ATOM     30  C   UNL     1     147.414 149.744 142.917  1.00  0.00     0.004 C 
ENDBRANCH  28  29
ENDBRANCH  27  28
ENDBRANCH  26  27
ENDBRANCH  25  26
ENDBRANCH  24  25
ENDBRANCH  23  24
ENDBRANCH  22  23
ENDBRANCH  21  22
ENDBRANCH  20  21
ENDBRANCH  19  20
ENDBRANCH  18  19
ENDBRANCH  17  18
ENDBRANCH   1  17
TORSDOF 26
ENDMDL
MODEL 7
REMARK VINA RESULT:    -2.705      3.511     10.210
REMARK INTER + INTRA:         -10.835
REMARK INTER:                  -7.969
REMARK INTRA:                  -2.866
REMARK UNBOUND:                -4.018
REMARK SMILES CCCCCCCCCCCCCCCCCCCCCCCCCCCC(=O)[O-]
REMARK SMILES IDX 15 1 16 2 17 3 18 4 19 5 20 6 21 7 22 8 23 9 24 10 25 11
REMARK SMILES IDX 26 12 27 13 28 14 29 15 30 16 14 17 13 18 12 19 11 20 10 21
REMARK SMILES IDX 9 22 8 23 7 24 6 25 5 26 4 27 3 28 2 29 1 30
REMARK H PARENT
REMARK Flexibility Score: inf
ROOT
ATOM      1  C   UNL     1     145.916 151.171 148.949  1.00  0.00     0.000 C 
ENDROOT
BRANCH   1   2
ATOM      2  C   UNL     1     145.174 151.353 147.612  1.00  0.00     0.000 C 
BRANCH   2   3
ATOM      3  C   UNL     1     143.636 151.361 147.712  1.00  0.00     0.000 C 
BRANCH   3   4
ATOM      4  C   UNL     1     143.005 150.005 147.355  1.00  0.00     0.000 C 
BRANCH   4   5
ATOM      5  C   UNL     1     143.719 149.297 146.189  1.00  0.00     0.000 C 
BRANCH   5   6
ATOM      6  C   UNL     1     143.112 149.545 144.795  1.00  0.00     0.000 C 
BRANCH   6   7
ATOM      7  C   UNL     1     144.042 150.351 143.872  1.00  0.00     0.000 C 
BRANCH   7   8
ATOM      8  C   UNL     1     144.021 149.834 142.424  1.00  0.00     0.000 C 
BRANCH   8   9
ATOM      9  C   UNL     1     145.432 149.677 141.837  1.00  0.00     0.000 C 
BRANCH   9  10
ATOM     10  C   UNL     1     146.496 149.777 142.937  1.00  0.00     0.000 C 
BRANCH  10  11
ATOM     11  C   UNL     1     147.431 148.559 142.911  1.00  0.00     0.000 C 
BRANCH  11  12
ATOM     12  C   UNL     1     146.739 147.290 142.380  1.00  0.00     0.006 C 
BRANCH  12  13
ATOM     13  C   UNL     1     146.785 146.095 143.344  1.00  0.00     0.053 C 
BRANCH  13  14
ATOM     14  C   UNL     1     145.480 145.889 144.050  1.00  0.00     0.041 C 
ATOM     15  O   UNL     1     145.423 145.167 145.080  1.00  0.00    -0.550 OA
ATOM     16  O   UNL     1     144.324 146.484 143.561  1.00  0.00    -0.550 OA
ENDBRANCH  13  14
ENDBRANCH  12  13
ENDBRANCH  11  12
ENDBRANCH  10  11
ENDBRANCH   9  10
ENDBRANCH   8   9
ENDBRANCH   7   8
ENDBRANCH   6   7
ENDBRANCH   5   6
ENDBRANCH   4   5
ENDBRANCH   3   4
ENDBRANCH   2   3
ENDBRANCH   1   2
BRANCH   1  17
ATOM     17  C   UNL     1     145.930 149.711 149.431  1.00  0.00     0.000 C 
BRANCH  17  18
ATOM     18  C   UNL     1     145.319 149.543 150.834  1.00  0.00     0.000 C 
BRANCH  18  19
ATOM     19  C   UNL     1     144.677 150.817 151.420  1.00  0.00     0.000 C 
BRANCH  19  20
ATOM     20  C   UNL     1     143.493 150.582 152.381  1.00  0.00     0.000 C 
BRANCH  20  21
ATOM     21  C   UNL     1     143.798 149.665 153.578  1.00  0.00     0.000 C 
BRANCH  21  22
ATOM     22  C   UNL     1     143.980 150.443 154.892  1.00  0.00    -0.000 C 
BRANCH  22  23
ATOM     23  C   UNL     1     145.458 150.606 155.284  1.00  0.00    -0.000 C 
BRANCH  23  24
ATOM     24  C   UNL     1     145.861 152.075 155.507  1.00  0.00    -0.000 C 
BRANCH  24  25
ATOM     25  C   UNL     1     145.635 152.942 154.250  1.00  0.00    -0.000 C 
BRANCH  25  26
ATOM     26  C   UNL     1     146.715 154.017 154.037  1.00  0.00    -0.000 C 
BRANCH  26  27
ATOM     27  C   UNL     1     146.588 154.735 152.686  1.00  0.00    -0.000 C 
BRANCH  27  28
ATOM     28  C   UNL     1     145.290 155.552 152.611  1.00  0.00    -0.000 C 
BRANCH  28  29
ATOM     29  C   UNL     1     145.535 157.062 152.759  1.00  0.00    -0.003 C 
ATOM     30  C   UNL     1     145.469 157.534 154.212  1.00  0.00     0.004 C 
ENDBRANCH  28  29
ENDBRANCH  27  28
ENDBRANCH  26  27
ENDBRANCH  25  26
ENDBRANCH  24  25
ENDBRANCH  23  24
ENDBRANCH  22  23
ENDBRANCH  21  22
ENDBRANCH  20  21
ENDBRANCH  19  20
ENDBRANCH  18  19
ENDBRANCH  17  18
ENDBRANCH   1  17
TORSDOF 26
ENDMDL
MODEL 8
REMARK VINA RESULT:    -2.669      3.641      9.986
REMARK INTER + INTRA:         -10.742
REMARK INTER:                  -7.303
REMARK INTRA:                  -3.439
REMARK UNBOUND:                -4.018
REMARK SMILES CCCCCCCCCCCCCCCCCCCCCCCCCCCC(=O)[O-]
REMARK SMILES IDX 15 1 16 2 17 3 18 4 19 5 20 6 21 7 22 8 23 9 24 10 25 11
REMARK SMILES IDX 26 12 27 13 28 14 29 15 30 16 14 17 13 18 12 19 11 20 10 21
REMARK SMILES IDX 9 22 8 23 7 24 6 25 5 26 4 27 3 28 2 29 1 30
REMARK H PARENT
REMARK Flexibility Score: inf
ROOT
ATOM      1  C   UNL     1     145.904 151.359 148.414  1.00  0.00     0.000 C 
ENDROOT
BRANCH   1   2
ATOM      2  C   UNL     1     144.703 151.567 147.474  1.00  0.00     0.000 C 
BRANCH   2   3
ATOM      3  C   UNL     1     144.414 150.399 146.511  1.00  0.00     0.000 C 
BRANCH   3   4
ATOM      4  C   UNL     1     143.347 149.430 147.048  1.00  0.00     0.000 C 
BRANCH   4   5
ATOM      5  C   UNL     1     143.951 148.203 147.755  1.00  0.00     0.000 C 
BRANCH   5   6
ATOM      6  C   UNL     1     143.737 146.857 147.038  1.00  0.00     0.000 C 
BRANCH   6   7
ATOM      7  C   UNL     1     143.296 147.021 145.573  1.00  0.00     0.000 C 
BRANCH   7   8
ATOM      8  C   UNL     1     144.463 146.844 144.587  1.00  0.00     0.000 C 
BRANCH   8   9
ATOM      9  C   UNL     1     144.573 145.406 144.060  1.00  0.00     0.000 C 
BRANCH   9  10
ATOM     10  C   UNL     1     145.905 145.190 143.331  1.00  0.00     0.000 C 
BRANCH  10  11
ATOM     11  C   UNL     1     146.915 146.287 143.694  1.00  0.00     0.000 C 
BRANCH  11  12
ATOM     12  C   UNL     1     147.535 146.959 142.455  1.00  0.00     0.006 C 
BRANCH  12  13
ATOM     13  C   UNL     1     146.553 147.818 141.644  1.00  0.00     0.053 C 
BRANCH  13  14
ATOM     14  C   UNL     1     146.630 149.266 142.017  1.00  0.00     0.041 C 
ATOM     15  O   UNL     1     147.418 149.646 142.923  1.00  0.00    -0.550 OA
ATOM     16  O   UNL     1     145.820 150.194 141.374  1.00  0.00    -0.550 OA
ENDBRANCH  13  14
ENDBRANCH  12  13
ENDBRANCH  11  12
ENDBRANCH  10  11
ENDBRANCH   9  10
ENDBRANCH   8   9
ENDBRANCH   7   8
ENDBRANCH   6   7
ENDBRANCH   5   6
ENDBRANCH   4   5
ENDBRANCH   3   4
ENDBRANCH   2   3
ENDBRANCH   1   2
BRANCH   1  17
ATOM     17  C   UNL     1     145.503 151.327 149.898  1.00  0.00     0.000 C 
BRANCH  17  18
ATOM     18  C   UNL     1     143.997 151.570 150.111  1.00  0.00     0.000 C 
BRANCH  18  19
ATOM     19  C   UNL     1     143.320 150.615 151.114  1.00  0.00     0.000 C 
BRANCH  19  20
ATOM     20  C   UNL     1     144.025 149.257 151.316  1.00  0.00     0.000 C 
BRANCH  20  21
ATOM     21  C   UNL     1     144.048 148.744 152.766  1.00  0.00     0.000 C 
BRANCH  21  22
ATOM     22  C   UNL     1     143.596 149.808 153.781  1.00  0.00    -0.000 C 
BRANCH  22  23
ATOM     23  C   UNL     1     144.726 150.240 154.729  1.00  0.00    -0.000 C 
BRANCH  23  24
ATOM     24  C   UNL     1     145.280 151.639 154.404  1.00  0.00    -0.000 C 
BRANCH  24  25
ATOM     25  C   UNL     1     144.164 152.698 154.287  1.00  0.00    -0.000 C 
BRANCH  25  26
ATOM     26  C   UNL     1     144.303 153.612 153.057  1.00  0.00    -0.000 C 
BRANCH  26  27
ATOM     27  C   UNL     1     145.765 153.893 152.680  1.00  0.00    -0.000 C 
BRANCH  27  28
ATOM     28  C   UNL     1     146.251 155.217 153.287  1.00  0.00    -0.000 C 
BRANCH  28  29
ATOM     29  C   UNL     1     145.512 156.436 152.710  1.00  0.00    -0.003 C 
ATOM     30  C   UNL     1     145.529 157.640 153.652  1.00  0.00     0.004 C 
ENDBRANCH  28  29
ENDBRANCH  27  28
ENDBRANCH  26  27
ENDBRANCH  25  26
ENDBRANCH  24  25
ENDBRANCH  23  24
ENDBRANCH  22  23
ENDBRANCH  21  22
ENDBRANCH  20  21
ENDBRANCH  19  20
ENDBRANCH  18  19
ENDBRANCH  17  18
ENDBRANCH   1  17
TORSDOF 26
ENDMDL
MODEL 9
REMARK VINA RESULT:    -2.646      4.404     10.914
REMARK INTER + INTRA:         -10.685
REMARK INTER:                  -7.429
REMARK INTRA:                  -3.256
REMARK UNBOUND:                -4.018
REMARK SMILES CCCCCCCCCCCCCCCCCCCCCCCCCCCC(=O)[O-]
REMARK SMILES IDX 15 1 16 2 17 3 18 4 19 5 20 6 21 7 22 8 23 9 24 10 25 11
REMARK SMILES IDX 26 12 27 13 28 14 29 15 30 16 14 17 13 18 12 19 11 20 10 21
REMARK SMILES IDX 9 22 8 23 7 24 6 25 5 26 4 27 3 28 2 29 1 30
REMARK H PARENT
REMARK Flexibility Score: inf
ROOT
ATOM      1  C   UNL     1     146.004 151.345 148.525  1.00  0.00     0.000 C 
ENDROOT
BRANCH   1   2
ATOM      2  C   UNL     1     145.100 151.721 147.336  1.00  0.00     0.000 C 
BRANCH   2   3
ATOM      3  C   UNL     1     143.590 151.519 147.571  1.00  0.00     0.000 C 
BRANCH   3   4
ATOM      4  C   UNL     1     142.977 150.453 146.648  1.00  0.00     0.000 C 
BRANCH   4   5
ATOM      5  C   UNL     1     144.015 149.445 146.121  1.00  0.00     0.000 C 
BRANCH   5   6
ATOM      6  C   UNL     1     143.500 148.468 145.047  1.00  0.00     0.000 C 
BRANCH   6   7
ATOM      7  C   UNL     1     144.366 148.462 143.776  1.00  0.00     0.000 C 
BRANCH   7   8
ATOM      8  C   UNL     1     144.956 149.847 143.463  1.00  0.00     0.000 C 
BRANCH   8   9
ATOM      9  C   UNL     1     146.441 149.778 143.076  1.00  0.00     0.000 C 
BRANCH   9  10
ATOM     10  C   UNL     1     146.843 148.346 142.702  1.00  0.00     0.000 C 
BRANCH  10  11
ATOM     11  C   UNL     1     146.781 148.136 141.182  1.00  0.00     0.000 C 
BRANCH  11  12
ATOM     12  C   UNL     1     145.919 146.925 140.784  1.00  0.00     0.006 C 
BRANCH  12  13
ATOM     13  C   UNL     1     144.542 147.290 140.210  1.00  0.00     0.053 C 
BRANCH  13  14
ATOM     14  C   UNL     1     144.584 148.551 139.402  1.00  0.00     0.041 C 
ATOM     15  O   UNL     1     144.986 148.525 138.208  1.00  0.00    -0.550 OA
ATOM     16  O   UNL     1     144.193 149.756 139.971  1.00  0.00    -0.550 OA
ENDBRANCH  13  14
ENDBRANCH  12  13
ENDBRANCH  11  12
ENDBRANCH  10  11
ENDBRANCH   9  10
ENDBRANCH   8   9
ENDBRANCH   7   8
ENDBRANCH   6   7
ENDBRANCH   5   6
ENDBRANCH   4   5
ENDBRANCH   3   4
ENDBRANCH   2   3
ENDBRANCH   1   2
BRANCH   1  17
ATOM     17  C   UNL     1     145.215 150.790 149.722  1.00  0.00     0.000 C 
BRANCH  17  18
ATOM     18  C   UNL     1     145.240 151.735 150.938  1.00  0.00     0.000 C 
BRANCH  18  19
ATOM     19  C   UNL     1     143.853 152.113 151.496  1.00  0.00     0.000 C 
BRANCH  19  20
ATOM     20  C   UNL     1     143.553 151.612 152.924  1.00  0.00     0.000 C 
BRANCH  20  21
ATOM     21  C   UNL     1     144.406 150.419 153.389  1.00  0.00     0.000 C 
BRANCH  21  22
ATOM     22  C   UNL     1     144.904 150.572 154.836  1.00  0.00    -0.000 C 
BRANCH  22  23
ATOM     23  C   UNL     1     145.946 151.692 154.989  1.00  0.00    -0.000 C 
BRANCH  23  24
ATOM     24  C   UNL     1     145.443 152.867 155.847  1.00  0.00    -0.000 C 
BRANCH  24  25
ATOM     25  C   UNL     1     145.637 154.229 155.147  1.00  0.00    -0.000 C 
BRANCH  25  26
ATOM     26  C   UNL     1     146.688 154.204 154.024  1.00  0.00    -0.000 C 
BRANCH  26  27
ATOM     27  C   UNL     1     146.191 154.850 152.723  1.00  0.00    -0.000 C 
BRANCH  27  28
ATOM     28  C   UNL     1     145.710 156.288 152.964  1.00  0.00    -0.000 C 
BRANCH  28  29
ATOM     29  C   UNL     1     144.496 156.656 152.097  1.00  0.00    -0.003 C 
ATOM     30  C   UNL     1     143.289 155.751 152.352  1.00  0.00     0.004 C 
ENDBRANCH  28  29
ENDBRANCH  27  28
ENDBRANCH  26  27
ENDBRANCH  25  26
ENDBRANCH  24  25
ENDBRANCH  23  24
ENDBRANCH  22  23
ENDBRANCH  21  22
ENDBRANCH  20  21
ENDBRANCH  19  20
ENDBRANCH  18  19
ENDBRANCH  17  18
ENDBRANCH   1  17
TORSDOF 26
ENDMDL
