MODEL 1
REMARK VINA RESULT:    -5.037      0.000      0.000
REMARK INTER + INTRA:          -5.037
REMARK INTER:                  -5.037
REMARK INTRA:                   0.000
REMARK UNBOUND:                 0.000
REMARK SMILES CC(C)=C1CC[C@H](C)CC1=O
REMARK SMILES IDX 8 1 7 2 6 3 5 4 4 5 2 6 1 7 3 8 10 9 11 10 9 11
REMARK H PARENT
REMARK Flexibility Score: inf
ROOT
ATOM      1  C   UNL     1      14.965  14.071  14.948  1.00  0.00     0.008 C 
ATOM      2  C   UNL     1      13.578  14.360  14.365  1.00  0.00    -0.006 C 
ATOM      3  C   UNL     1      12.811  15.348  15.258  1.00  0.00     0.008 C 
ATOM      4  C   UNL     1      11.381  15.570  14.745  1.00  0.00     0.039 C 
ATOM      5  C   UNL     1      11.344  15.961  13.273  1.00  0.00    -0.006 C 
ATOM      6  C   UNL     1      10.372  16.786  12.783  1.00  0.00    -0.070 C 
ATOM      7  C   UNL     1      10.357  17.226  11.337  1.00  0.00     0.039 C 
ATOM      8  C   UNL     1       9.282  17.331  13.677  1.00  0.00     0.039 C 
ATOM      9  C   UNL     1      12.353  15.299  12.394  1.00  0.00     0.159 C 
ATOM     10  O   UNL     1      12.098  15.039  11.187  1.00  0.00    -0.295 OA
ATOM     11  C   UNL     1      13.699  14.925  12.942  1.00  0.00     0.084 C 
ENDROOT
TORSDOF 0
ENDMDL
MODEL 2
REMARK VINA RESULT:    -4.608      1.746      2.817
REMARK INTER + INTRA:          -4.608
REMARK INTER:                  -4.608
REMARK INTRA:                   0.000
REMARK UNBOUND:                 0.000
REMARK SMILES CC(C)=C1CC[C@H](C)CC1=O
REMARK SMILES IDX 8 1 7 2 6 3 5 4 4 5 2 6 1 7 3 8 10 9 11 10 9 11
REMARK H PARENT
REMARK Flexibility Score: inf
ROOT
ATOM      1  C   UNL     1      14.156  13.806  16.952  1.00  0.00     0.008 C 
ATOM      2  C   UNL     1      13.790  14.651  15.727  1.00  0.00    -0.006 C 
ATOM      3  C   UNL     1      14.526  14.139  14.479  1.00  0.00     0.008 C 
ATOM      4  C   UNL     1      14.253  15.035  13.263  1.00  0.00     0.039 C 
ATOM      5  C   UNL     1      12.765  15.250  13.019  1.00  0.00    -0.006 C 
ATOM      6  C   UNL     1      12.271  15.424  11.758  1.00  0.00    -0.070 C 
ATOM      7  C   UNL     1      10.790  15.581  11.498  1.00  0.00     0.039 C 
ATOM      8  C   UNL     1      13.183  15.428  10.552  1.00  0.00     0.039 C 
ATOM      9  C   UNL     1      11.912  15.375  14.238  1.00  0.00     0.159 C 
ATOM     10  O   UNL     1      10.885  16.104  14.247  1.00  0.00    -0.295 OA
ATOM     11  C   UNL     1      12.274  14.627  15.489  1.00  0.00     0.084 C 
ENDROOT
TORSDOF 0
ENDMDL
MODEL 3
REMARK VINA RESULT:    -4.525      1.548      4.726
REMARK INTER + INTRA:          -4.525
REMARK INTER:                  -4.525
REMARK INTRA:                   0.000
REMARK UNBOUND:                 0.000
REMARK SMILES CC(C)=C1CC[C@H](C)CC1=O
REMARK SMILES IDX 8 1 7 2 6 3 5 4 4 5 2 6 1 7 3 8 10 9 11 10 9 11
REMARK H PARENT
REMARK Flexibility Score: inf
ROOT
ATOM      1  C   UNL     1       8.486  18.380  12.178  1.00  0.00     0.008 C 
ATOM      2  C   UNL     1       9.455  17.195  12.120  1.00  0.00    -0.006 C 
ATOM      3  C   UNL     1      10.404  17.331  10.919  1.00  0.00     0.008 C 
ATOM      4  C   UNL     1      11.315  16.103  10.785  1.00  0.00     0.039 C 
ATOM      5  C   UNL     1      12.051  15.779  12.079  1.00  0.00    -0.006 C 
ATOM      6  C   UNL     1      13.296  15.218  12.065  1.00  0.00    -0.070 C 
ATOM      7  C   UNL     1      14.060  14.944  13.340  1.00  0.00     0.039 C 
ATOM      8  C   UNL     1      13.989  14.880  10.764  1.00  0.00     0.039 C 
ATOM      9  C   UNL     1      11.285  16.000  13.341  1.00  0.00     0.159 C 
ATOM     10  O   UNL     1      11.471  15.274  14.355  1.00  0.00    -0.295 OA
ATOM     11  C   UNL     1      10.266  17.099  13.421  1.00  0.00     0.084 C 
ENDROOT
TORSDOF 0
ENDMDL
MODEL 4
REMARK VINA RESULT:    -4.400      1.701      4.700
REMARK INTER + INTRA:          -4.400
REMARK INTER:                  -4.400
REMARK INTRA:                   0.000
REMARK UNBOUND:                 0.000
REMARK SMILES CC(C)=C1CC[C@H](C)CC1=O
REMARK SMILES IDX 8 1 7 2 6 3 5 4 4 5 2 6 1 7 3 8 10 9 11 10 9 11
REMARK H PARENT
REMARK Flexibility Score: inf
ROOT
ATOM      1  C   UNL     1      10.478  16.903  11.588  1.00  0.00     0.008 C 
ATOM      2  C   UNL     1      11.227  15.848  12.410  1.00  0.00    -0.006 C 
ATOM      3  C   UNL     1      12.692  15.750  11.956  1.00  0.00     0.008 C 
ATOM      4  C   UNL     1      13.432  14.627  12.696  1.00  0.00     0.039 C 
ATOM      5  C   UNL     1      13.295  14.737  14.209  1.00  0.00    -0.006 C 
ATOM      6  C   UNL     1      14.291  14.320  15.044  1.00  0.00    -0.070 C 
ATOM      7  C   UNL     1      14.190  14.476  16.544  1.00  0.00     0.039 C 
ATOM      8  C   UNL     1      15.567  13.716  14.502  1.00  0.00     0.039 C 
ATOM      9  C   UNL     1      11.972  15.212  14.714  1.00  0.00     0.159 C 
ATOM     10  O   UNL     1      11.508  14.809  15.814  1.00  0.00    -0.295 OA
ATOM     11  C   UNL     1      11.164  16.186  13.906  1.00  0.00     0.084 C 
ENDROOT
TORSDOF 0
ENDMDL
MODEL 5
REMARK VINA RESULT:    -4.312      2.142      3.360
REMARK INTER + INTRA:          -4.312
REMARK INTER:                  -4.312
REMARK INTRA:                   0.000
REMARK UNBOUND:                 0.000
REMARK SMILES CC(C)=C1CC[C@H](C)CC1=O
REMARK SMILES IDX 8 1 7 2 6 3 5 4 4 5 2 6 1 7 3 8 10 9 11 10 9 11
REMARK H PARENT
REMARK Flexibility Score: inf
ROOT
ATOM      1  C   UNL     1      13.481  14.528   9.875  1.00  0.00     0.008 C 
ATOM      2  C   UNL     1      12.754  15.556  10.748  1.00  0.00    -0.006 C 
ATOM      3  C   UNL     1      11.593  16.200   9.973  1.00  0.00     0.008 C 
ATOM      4  C   UNL     1      10.918  17.306  10.795  1.00  0.00     0.039 C 
ATOM      5  C   UNL     1      10.503  16.830  12.182  1.00  0.00    -0.006 C 
ATOM      6  C   UNL     1       9.402  17.342  12.807  1.00  0.00    -0.070 C 
ATOM      7  C   UNL     1       8.948  16.838  14.158  1.00  0.00     0.039 C 
ATOM      8  C   UNL     1       8.558  18.414  12.156  1.00  0.00     0.039 C 
ATOM      9  C   UNL     1      11.432  15.871  12.851  1.00  0.00     0.159 C 
ATOM     10  O   UNL     1      11.571  15.861  14.103  1.00  0.00    -0.295 OA
ATOM     11  C   UNL     1      12.226  14.897  12.030  1.00  0.00     0.084 C 
ENDROOT
TORSDOF 0
ENDMDL
MODEL 6
REMARK VINA RESULT:    -3.789      1.329      3.984
REMARK INTER + INTRA:          -3.789
REMARK INTER:                  -3.789
REMARK INTRA:                   0.000
REMARK UNBOUND:                 0.000
REMARK SMILES CC(C)=C1CC[C@H](C)CC1=O
REMARK SMILES IDX 8 1 7 2 6 3 5 4 4 5 2 6 1 7 3 8 10 9 11 10 9 11
REMARK H PARENT
REMARK Flexibility Score: inf
ROOT
ATOM      1  C   UNL     1      10.640  16.572   9.912  1.00  0.00     0.008 C 
ATOM      2  C   UNL     1      11.431  16.454  11.219  1.00  0.00    -0.006 C 
ATOM      3  C   UNL     1      10.487  16.169  12.398  1.00  0.00     0.008 C 
ATOM      4  C   UNL     1      11.248  16.150  13.731  1.00  0.00     0.039 C 
ATOM      5  C   UNL     1      12.448  15.213  13.703  1.00  0.00    -0.006 C 
ATOM      6  C   UNL     1      12.861  14.555  14.826  1.00  0.00    -0.070 C 
ATOM      7  C   UNL     1      14.015  13.580  14.799  1.00  0.00     0.039 C 
ATOM      8  C   UNL     1      12.153  14.742  16.149  1.00  0.00     0.039 C 
ATOM      9  C   UNL     1      13.204  15.154  12.417  1.00  0.00     0.159 C 
ATOM     10  O   UNL     1      14.448  14.952  12.397  1.00  0.00    -0.295 OA
ATOM     11  C   UNL     1      12.485  15.343  11.112  1.00  0.00     0.084 C 
ENDROOT
TORSDOF 0
ENDMDL
MODEL 7
REMARK VINA RESULT:    -3.551      1.282      4.169
REMARK INTER + INTRA:          -3.551
REMARK INTER:                  -3.551
REMARK INTRA:                   0.000
REMARK UNBOUND:                 0.000
REMARK SMILES CC(C)=C1CC[C@H](C)CC1=O
REMARK SMILES IDX 8 1 7 2 6 3 5 4 4 5 2 6 1 7 3 8 10 9 11 10 9 11
REMARK H PARENT
REMARK Flexibility Score: inf
ROOT
ATOM      1  C   UNL     1      10.053  16.576  11.753  1.00  0.00     0.008 C 
ATOM      2  C   UNL     1      11.214  16.322  12.720  1.00  0.00    -0.006 C 
ATOM      3  C   UNL     1      10.694  15.760  14.053  1.00  0.00     0.008 C 
ATOM      4  C   UNL     1      11.830  15.597  15.072  1.00  0.00     0.039 C 
ATOM      5  C   UNL     1      13.000  14.795  14.516  1.00  0.00    -0.006 C 
ATOM      6  C   UNL     1      13.767  14.005  15.324  1.00  0.00    -0.070 C 
ATOM      7  C   UNL     1      14.894  13.161  14.775  1.00  0.00     0.039 C 
ATOM      8  C   UNL     1      13.497  13.907  16.808  1.00  0.00     0.039 C 
ATOM      9  C   UNL     1      13.322  15.019  13.075  1.00  0.00     0.159 C 
ATOM     10  O   UNL     1      14.505  14.941  12.649  1.00  0.00    -0.295 OA
ATOM     11  C   UNL     1      12.227  15.348  12.102  1.00  0.00     0.084 C 
ENDROOT
TORSDOF 0
ENDMDL
MODEL 8
REMARK VINA RESULT:    -2.533      1.792      4.153
REMARK INTER + INTRA:          -2.533
REMARK INTER:                  -2.533
REMARK INTRA:                   0.000
REMARK UNBOUND:                 0.000
REMARK SMILES CC(C)=C1CC[C@H](C)CC1=O
REMARK SMILES IDX 8 1 7 2 6 3 5 4 4 5 2 6 1 7 3 8 10 9 11 10 9 11
REMARK H PARENT
REMARK Flexibility Score: inf
ROOT
ATOM      1  C   UNL     1       7.996  17.578  14.310  1.00  0.00     0.008 C 
ATOM      2  C   UNL     1       9.361  17.428  13.630  1.00  0.00    -0.006 C 
ATOM      3  C   UNL     1      10.131  16.235  14.218  1.00  0.00     0.008 C 
ATOM      4  C   UNL     1      11.542  16.132  13.622  1.00  0.00     0.039 C 
ATOM      5  C   UNL     1      11.532  16.128  12.098  1.00  0.00    -0.006 C 
ATOM      6  C   UNL     1      12.473  15.443  11.385  1.00  0.00    -0.070 C 
ATOM      7  C   UNL     1      12.441  15.385   9.875  1.00  0.00     0.039 C 
ATOM      8  C   UNL     1      13.575  14.673  12.077  1.00  0.00     0.039 C 
ATOM      9  C   UNL     1      10.514  17.006  11.448  1.00  0.00     0.159 C 
ATOM     10  O   UNL     1      10.741  17.561  10.339  1.00  0.00    -0.295 OA
ATOM     11  C   UNL     1       9.191  17.246  12.115  1.00  0.00     0.084 C 
ENDROOT
TORSDOF 0
ENDMDL
MODEL 9
REMARK VINA RESULT:    -2.499      2.563      4.667
REMARK INTER + INTRA:          -2.499
REMARK INTER:                  -2.499
REMARK INTRA:                   0.000
REMARK UNBOUND:                 0.000
REMARK SMILES CC(C)=C1CC[C@H](C)CC1=O
REMARK SMILES IDX 8 1 7 2 6 3 5 4 4 5 2 6 1 7 3 8 10 9 11 10 9 11
REMARK H PARENT
REMARK Flexibility Score: inf
ROOT
ATOM      1  C   UNL     1      12.803  15.888  11.098  1.00  0.00     0.008 C 
ATOM      2  C   UNL     1      12.965  15.589  12.592  1.00  0.00    -0.006 C 
ATOM      3  C   UNL     1      12.143  14.353  12.988  1.00  0.00     0.008 C 
ATOM      4  C   UNL     1      12.210  14.099  14.501  1.00  0.00     0.039 C 
ATOM      5  C   UNL     1      13.642  14.040  15.019  1.00  0.00    -0.006 C 
ATOM      6  C   UNL     1      13.981  13.246  16.076  1.00  0.00    -0.070 C 
ATOM      7  C   UNL     1      15.407  13.135  16.563  1.00  0.00     0.039 C 
ATOM      8  C   UNL     1      12.946  12.404  16.788  1.00  0.00     0.039 C 
ATOM      9  C   UNL     1      14.608  14.983  14.381  1.00  0.00     0.159 C 
ATOM     10  O   UNL     1      15.569  15.474  15.032  1.00  0.00    -0.295 OA
ATOM     11  C   UNL     1      14.444  15.368  12.939  1.00  0.00     0.084 C 
ENDROOT
TORSDOF 0
ENDMDL
