MODEL 1
REMARK VINA RESULT:    -5.184      0.000      0.000
REMARK INTER + INTRA:          -6.369
REMARK INTER:                  -6.093
REMARK INTRA:                  -0.276
REMARK UNBOUND:                -0.276
REMARK SMILES O=c1cc(-c2ccc(O)c(O)c2)oc2cc(O)cc(O)c12
REMARK SMILES IDX 4 1 3 2 2 3 1 4 21 5 19 6 18 7 16 8 15 9 14 10 13 11 5 12
REMARK SMILES IDX 6 13 7 14 8 15 12 16 10 17 9 18 11 20 20 22 17 24
REMARK H PARENT 9 19 11 21 20 23 17 25
REMARK Flexibility Score: inf
ROOT
ATOM      1  C   UNL     1      24.311  29.653   6.347  1.00  0.00     0.138 A 
ATOM      2  C   UNL     1      25.428  29.764   7.186  1.00  0.00     0.100 A 
ATOM      3  C   UNL     1      26.298  28.681   7.326  1.00  0.00     0.197 A 
ATOM      4  O   UNL     1      27.259  28.793   8.129  1.00  0.00    -0.289 OA
ATOM      5  C   UNL     1      26.065  27.493   6.593  1.00  0.00     0.107 A 
ATOM      6  C   UNL     1      26.902  26.336   6.629  1.00  0.00     0.134 A 
ATOM      7  C   UNL     1      26.515  25.183   5.935  1.00  0.00     0.093 A 
ATOM      8  C   UNL     1      25.352  25.163   5.160  1.00  0.00     0.123 A 
ATOM      9  C   UNL     1      24.556  26.302   5.079  1.00  0.00     0.094 A 
ATOM     10  C   UNL     1      24.896  27.458   5.786  1.00  0.00     0.146 A 
ATOM     11  O   UNL     1      24.098  28.516   5.694  1.00  0.00    -0.456 OA
ENDROOT
BRANCH   1  12
ATOM     12  C   UNL     1      23.356  30.774   6.160  1.00  0.00     0.021 A 
ATOM     13  C   UNL     1      22.951  31.125   4.860  1.00  0.00     0.016 A 
ATOM     14  C   UNL     1      22.047  32.172   4.655  1.00  0.00     0.051 A 
ATOM     15  C   UNL     1      21.528  32.878   5.746  1.00  0.00     0.157 A 
ATOM     16  C   UNL     1      22.817  31.480   7.253  1.00  0.00     0.062 A 
ATOM     17  C   UNL     1      21.910  32.530   7.047  1.00  0.00     0.158 A 
BRANCH  15  18
ATOM     18  O   UNL     1      20.627  33.923   5.546  1.00  0.00    -0.504 OA
ATOM     19  H   UNL     1      20.358  34.542   6.302  1.00  0.00     0.293 HD
ENDBRANCH  15  18
BRANCH  17  20
ATOM     20  O   UNL     1      21.381  33.228   8.131  1.00  0.00    -0.504 OA
ATOM     21  H   UNL     1      21.471  32.883   9.079  1.00  0.00     0.293 HD
ENDBRANCH  17  20
ENDBRANCH   1  12
BRANCH   6  22
ATOM     22  O   UNL     1      28.124  26.274   7.307  1.00  0.00    -0.507 OA
ATOM     23  H   UNL     1      28.238  26.013   8.273  1.00  0.00     0.293 HD
ENDBRANCH   6  22
BRANCH   8  24
ATOM     24  O   UNL     1      24.985  24.016   4.461  1.00  0.00    -0.508 OA
ATOM     25  H   UNL     1      25.127  23.091   4.849  1.00  0.00     0.293 HD
ENDBRANCH   8  24
TORSDOF 5
ENDMDL
MODEL 2
REMARK VINA RESULT:    -5.112      2.255      6.124
REMARK INTER + INTRA:          -6.285
REMARK INTER:                  -5.996
REMARK INTRA:                  -0.288
REMARK UNBOUND:                -0.276
REMARK SMILES O=c1cc(-c2ccc(O)c(O)c2)oc2cc(O)cc(O)c12
REMARK SMILES IDX 4 1 3 2 2 3 1 4 21 5 19 6 18 7 16 8 15 9 14 10 13 11 5 12
REMARK SMILES IDX 6 13 7 14 8 15 12 16 10 17 9 18 11 20 20 22 17 24
REMARK H PARENT 9 19 11 21 20 23 17 25
REMARK Flexibility Score: inf
ROOT
ATOM      1  C   UNL     1      24.772  27.377   6.171  1.00  0.00     0.138 A 
ATOM      2  C   UNL     1      26.169  27.322   6.264  1.00  0.00     0.100 A 
ATOM      3  C   UNL     1      26.868  28.399   6.813  1.00  0.00     0.197 A 
ATOM      4  O   UNL     1      28.125  28.342   6.831  1.00  0.00    -0.289 OA
ATOM      5  C   UNL     1      26.159  29.521   7.304  1.00  0.00     0.107 A 
ATOM      6  C   UNL     1      26.762  30.662   7.916  1.00  0.00     0.134 A 
ATOM      7  C   UNL     1      25.964  31.755   8.274  1.00  0.00     0.093 A 
ATOM      8  C   UNL     1      24.578  31.726   8.096  1.00  0.00     0.123 A 
ATOM      9  C   UNL     1      23.975  30.598   7.546  1.00  0.00     0.094 A 
ATOM     10  C   UNL     1      24.747  29.504   7.147  1.00  0.00     0.146 A 
ATOM     11  O   UNL     1      24.132  28.455   6.611  1.00  0.00    -0.456 OA
ENDROOT
BRANCH   1  12
ATOM     12  C   UNL     1      23.979  26.260   5.599  1.00  0.00     0.021 A 
ATOM     13  C   UNL     1      24.366  25.700   4.368  1.00  0.00     0.016 A 
ATOM     14  C   UNL     1      23.641  24.643   3.810  1.00  0.00     0.051 A 
ATOM     15  C   UNL     1      22.525  24.123   4.477  1.00  0.00     0.157 A 
ATOM     16  C   UNL     1      22.864  25.722   6.269  1.00  0.00     0.062 A 
ATOM     17  C   UNL     1      22.138  24.661   5.709  1.00  0.00     0.158 A 
BRANCH  15  18
ATOM     18  O   UNL     1      21.800  23.070   3.923  1.00  0.00    -0.504 OA
ATOM     19  H   UNL     1      21.251  23.190   3.079  1.00  0.00     0.293 HD
ENDBRANCH  15  18
BRANCH  17  20
ATOM     20  O   UNL     1      21.033  24.132   6.375  1.00  0.00    -0.504 OA
ATOM     21  H   UNL     1      20.943  24.191   7.383  1.00  0.00     0.293 HD
ENDBRANCH  17  20
ENDBRANCH   1  12
BRANCH   6  22
ATOM     22  O   UNL     1      28.125  30.763   8.212  1.00  0.00    -0.507 OA
ATOM     23  H   UNL     1      28.648  31.624   8.246  1.00  0.00     0.293 HD
ENDBRANCH   6  22
BRANCH   8  24
ATOM     24  O   UNL     1      23.791  32.813   8.470  1.00  0.00    -0.508 OA
ATOM     25  H   UNL     1      22.963  33.072   7.947  1.00  0.00     0.293 HD
ENDBRANCH   8  24
TORSDOF 5
ENDMDL
MODEL 3
REMARK VINA RESULT:    -4.714      1.161      2.799
REMARK INTER + INTRA:          -5.817
REMARK INTER:                  -5.538
REMARK INTRA:                  -0.279
REMARK UNBOUND:                -0.276
REMARK SMILES O=c1cc(-c2ccc(O)c(O)c2)oc2cc(O)cc(O)c12
REMARK SMILES IDX 4 1 3 2 2 3 1 4 21 5 19 6 18 7 16 8 15 9 14 10 13 11 5 12
REMARK SMILES IDX 6 13 7 14 8 15 12 16 10 17 9 18 11 20 20 22 17 24
REMARK H PARENT 9 19 11 21 20 23 17 25
REMARK Flexibility Score: inf
ROOT
ATOM      1  C   UNL     1      23.296  29.250   5.145  1.00  0.00     0.138 A 
ATOM      2  C   UNL     1      22.692  28.189   4.456  1.00  0.00     0.100 A 
ATOM      3  C   UNL     1      23.284  26.926   4.475  1.00  0.00     0.197 A 
ATOM      4  O   UNL     1      22.748  26.009   3.801  1.00  0.00    -0.289 OA
ATOM      5  C   UNL     1      24.471  26.716   5.219  1.00  0.00     0.107 A 
ATOM      6  C   UNL     1      25.146  25.464   5.340  1.00  0.00     0.134 A 
ATOM      7  C   UNL     1      26.367  25.401   6.023  1.00  0.00     0.093 A 
ATOM      8  C   UNL     1      26.907  26.534   6.640  1.00  0.00     0.123 A 
ATOM      9  C   UNL     1      26.231  27.749   6.569  1.00  0.00     0.094 A 
ATOM     10  C   UNL     1      25.028  27.852   5.866  1.00  0.00     0.146 A 
ATOM     11  O   UNL     1      24.426  29.034   5.809  1.00  0.00    -0.456 OA
ENDROOT
BRANCH   1  12
ATOM     12  C   UNL     1      22.707  30.613   5.160  1.00  0.00     0.021 A 
ATOM     13  C   UNL     1      22.487  31.282   3.943  1.00  0.00     0.016 A 
ATOM     14  C   UNL     1      21.927  32.563   3.928  1.00  0.00     0.051 A 
ATOM     15  C   UNL     1      21.570  33.191   5.127  1.00  0.00     0.157 A 
ATOM     16  C   UNL     1      22.332  31.245   6.361  1.00  0.00     0.062 A 
ATOM     17  C   UNL     1      21.769  32.530   6.345  1.00  0.00     0.158 A 
BRANCH  15  18
ATOM     18  O   UNL     1      21.013  34.468   5.116  1.00  0.00    -0.504 OA
ATOM     19  H   UNL     1      20.768  34.932   4.249  1.00  0.00     0.293 HD
ENDBRANCH  15  18
BRANCH  17  20
ATOM     20  O   UNL     1      21.402  33.154   7.535  1.00  0.00    -0.504 OA
ATOM     21  H   UNL     1      22.041  33.760   8.036  1.00  0.00     0.293 HD
ENDBRANCH  17  20
ENDBRANCH   1  12
BRANCH   6  22
ATOM     22  O   UNL     1      24.656  24.257   4.832  1.00  0.00    -0.507 OA
ATOM     23  H   UNL     1      24.690  23.979   3.864  1.00  0.00     0.293 HD
ENDBRANCH   6  22
BRANCH   8  24
ATOM     24  O   UNL     1      28.114  26.458   7.330  1.00  0.00    -0.508 OA
ATOM     25  H   UNL     1      28.295  27.030   8.146  1.00  0.00     0.293 HD
ENDBRANCH   8  24
TORSDOF 5
ENDMDL
MODEL 4
REMARK VINA RESULT:    -4.712      1.580      6.550
REMARK INTER + INTRA:          -5.815
REMARK INTER:                  -5.547
REMARK INTRA:                  -0.268
REMARK UNBOUND:                -0.276
REMARK SMILES O=c1cc(-c2ccc(O)c(O)c2)oc2cc(O)cc(O)c12
REMARK SMILES IDX 4 1 3 2 2 3 1 4 21 5 19 6 18 7 16 8 15 9 14 10 13 11 5 12
REMARK SMILES IDX 6 13 7 14 8 15 12 16 10 17 9 18 11 20 20 22 17 24
REMARK H PARENT 9 19 11 21 20 23 17 25
REMARK Flexibility Score: inf
ROOT
ATOM      1  C   UNL     1      24.982  28.048   5.991  1.00  0.00     0.138 A 
ATOM      2  C   UNL     1      26.188  28.374   6.628  1.00  0.00     0.100 A 
ATOM      3  C   UNL     1      26.295  29.575   7.331  1.00  0.00     0.197 A 
ATOM      4  O   UNL     1      27.407  29.865   7.843  1.00  0.00    -0.289 OA
ATOM      5  C   UNL     1      25.177  30.438   7.425  1.00  0.00     0.107 A 
ATOM      6  C   UNL     1      25.158  31.672   8.144  1.00  0.00     0.134 A 
ATOM      7  C   UNL     1      24.022  32.488   8.084  1.00  0.00     0.093 A 
ATOM      8  C   UNL     1      22.883  32.088   7.380  1.00  0.00     0.123 A 
ATOM      9  C   UNL     1      22.874  30.863   6.717  1.00  0.00     0.094 A 
ATOM     10  C   UNL     1      24.003  30.042   6.729  1.00  0.00     0.146 A 
ATOM     11  O   UNL     1      23.957  28.890   6.069  1.00  0.00    -0.456 OA
ENDROOT
BRANCH   1  12
ATOM     12  C   UNL     1      24.812  26.783   5.233  1.00  0.00     0.021 A 
ATOM     13  C   UNL     1      24.498  26.837   3.864  1.00  0.00     0.016 A 
ATOM     14  C   UNL     1      24.339  25.661   3.124  1.00  0.00     0.051 A 
ATOM     15  C   UNL     1      24.501  24.414   3.739  1.00  0.00     0.157 A 
ATOM     16  C   UNL     1      24.987  25.525   5.841  1.00  0.00     0.062 A 
ATOM     17  C   UNL     1      24.829  24.346   5.098  1.00  0.00     0.158 A 
BRANCH  15  18
ATOM     18  O   UNL     1      24.343  23.240   3.006  1.00  0.00    -0.504 OA
ATOM     19  H   UNL     1      24.311  23.248   1.993  1.00  0.00     0.293 HD
ENDBRANCH  15  18
BRANCH  17  20
ATOM     20  O   UNL     1      25.001  23.102   5.703  1.00  0.00    -0.504 OA
ATOM     21  H   UNL     1      24.282  22.390   5.666  1.00  0.00     0.293 HD
ENDBRANCH  17  20
ENDBRANCH   1  12
BRANCH   6  22
ATOM     22  O   UNL     1      26.211  32.129   8.942  1.00  0.00    -0.507 OA
ATOM     23  H   UNL     1      26.294  33.063   9.313  1.00  0.00     0.293 HD
ENDBRANCH   6  22
BRANCH   8  24
ATOM     24  O   UNL     1      21.752  32.900   7.339  1.00  0.00    -0.508 OA
ATOM     25  H   UNL     1      21.428  33.314   6.473  1.00  0.00     0.293 HD
ENDBRANCH   8  24
TORSDOF 5
ENDMDL
MODEL 5
REMARK VINA RESULT:    -4.661      2.869      6.602
REMARK INTER + INTRA:          -5.755
REMARK INTER:                  -5.474
REMARK INTRA:                  -0.281
REMARK UNBOUND:                -0.276
REMARK SMILES O=c1cc(-c2ccc(O)c(O)c2)oc2cc(O)cc(O)c12
REMARK SMILES IDX 4 1 3 2 2 3 1 4 21 5 19 6 18 7 16 8 15 9 14 10 13 11 5 12
REMARK SMILES IDX 6 13 7 14 8 15 12 16 10 17 9 18 11 20 20 22 17 24
REMARK H PARENT 9 19 11 21 20 23 17 25
REMARK Flexibility Score: inf
ROOT
ATOM      1  C   UNL     1      23.342  28.012   4.814  1.00  0.00     0.138 A 
ATOM      2  C   UNL     1      24.703  28.039   4.479  1.00  0.00     0.100 A 
ATOM      3  C   UNL     1      25.333  29.262   4.245  1.00  0.00     0.197 A 
ATOM      4  O   UNL     1      26.540  29.249   3.891  1.00  0.00    -0.289 OA
ATOM      5  C   UNL     1      24.603  30.467   4.382  1.00  0.00     0.107 A 
ATOM      6  C   UNL     1      25.147  31.775   4.202  1.00  0.00     0.134 A 
ATOM      7  C   UNL     1      24.303  32.889   4.268  1.00  0.00     0.093 A 
ATOM      8  C   UNL     1      22.944  32.749   4.566  1.00  0.00     0.123 A 
ATOM      9  C   UNL     1      22.414  31.481   4.793  1.00  0.00     0.094 A 
ATOM     10  C   UNL     1      23.223  30.346   4.700  1.00  0.00     0.146 A 
ATOM     11  O   UNL     1      22.672  29.155   4.906  1.00  0.00    -0.456 OA
ENDROOT
BRANCH   1  12
ATOM     12  C   UNL     1      22.623  26.739   5.076  1.00  0.00     0.021 A 
ATOM     13  C   UNL     1      23.092  25.878   6.084  1.00  0.00     0.016 A 
ATOM     14  C   UNL     1      22.430  24.677   6.356  1.00  0.00     0.051 A 
ATOM     15  C   UNL     1      21.285  24.323   5.633  1.00  0.00     0.157 A 
ATOM     16  C   UNL     1      21.463  26.382   4.362  1.00  0.00     0.062 A 
ATOM     17  C   UNL     1      20.799  25.178   4.637  1.00  0.00     0.158 A 
BRANCH  15  18
ATOM     18  O   UNL     1      20.624  23.126   5.901  1.00  0.00    -0.504 OA
ATOM     19  H   UNL     1      20.368  22.862   6.845  1.00  0.00     0.293 HD
ENDBRANCH  15  18
BRANCH  17  20
ATOM     20  O   UNL     1      19.652  24.826   3.927  1.00  0.00    -0.504 OA
ATOM     21  H   UNL     1      19.684  24.619   2.936  1.00  0.00     0.293 HD
ENDBRANCH  17  20
ENDBRANCH   1  12
BRANCH   6  22
ATOM     22  O   UNL     1      26.503  32.035   3.979  1.00  0.00    -0.507 OA
ATOM     23  H   UNL     1      26.904  32.950   3.847  1.00  0.00     0.293 HD
ENDBRANCH   6  22
BRANCH   8  24
ATOM     24  O   UNL     1      22.115  33.865   4.645  1.00  0.00    -0.508 OA
ATOM     25  H   UNL     1      21.162  33.794   4.981  1.00  0.00     0.293 HD
ENDBRANCH   8  24
TORSDOF 5
ENDMDL
MODEL 6
REMARK VINA RESULT:    -4.625      1.376      7.314
REMARK INTER + INTRA:          -5.712
REMARK INTER:                  -5.446
REMARK INTRA:                  -0.266
REMARK UNBOUND:                -0.276
REMARK SMILES O=c1cc(-c2ccc(O)c(O)c2)oc2cc(O)cc(O)c12
REMARK SMILES IDX 4 1 3 2 2 3 1 4 21 5 19 6 18 7 16 8 15 9 14 10 13 11 5 12
REMARK SMILES IDX 6 13 7 14 8 15 12 16 10 17 9 18 11 20 20 22 17 24
REMARK H PARENT 9 19 11 21 20 23 17 25
REMARK Flexibility Score: inf
ROOT
ATOM      1  C   UNL     1      24.491  28.778   5.649  1.00  0.00     0.138 A 
ATOM      2  C   UNL     1      23.999  28.976   4.351  1.00  0.00     0.100 A 
ATOM      3  C   UNL     1      23.125  30.034   4.097  1.00  0.00     0.197 A 
ATOM      4  O   UNL     1      22.658  30.151   2.935  1.00  0.00    -0.289 OA
ATOM      5  C   UNL     1      22.771  30.920   5.142  1.00  0.00     0.107 A 
ATOM      6  C   UNL     1      21.916  32.055   4.994  1.00  0.00     0.134 A 
ATOM      7  C   UNL     1      21.558  32.802   6.123  1.00  0.00     0.093 A 
ATOM      8  C   UNL     1      22.072  32.491   7.386  1.00  0.00     0.123 A 
ATOM      9  C   UNL     1      22.946  31.417   7.532  1.00  0.00     0.094 A 
ATOM     10  C   UNL     1      23.295  30.632   6.431  1.00  0.00     0.146 A 
ATOM     11  O   UNL     1      24.118  29.606   6.619  1.00  0.00    -0.456 OA
ENDROOT
BRANCH   1  12
ATOM     12  C   UNL     1      25.424  27.671   5.974  1.00  0.00     0.021 A 
ATOM     13  C   UNL     1      26.740  27.971   6.367  1.00  0.00     0.016 A 
ATOM     14  C   UNL     1      27.638  26.948   6.686  1.00  0.00     0.051 A 
ATOM     15  C   UNL     1      27.232  25.610   6.625  1.00  0.00     0.157 A 
ATOM     16  C   UNL     1      25.020  26.323   5.929  1.00  0.00     0.062 A 
ATOM     17  C   UNL     1      25.921  25.296   6.250  1.00  0.00     0.158 A 
BRANCH  15  18
ATOM     18  O   UNL     1      28.125  24.587   6.941  1.00  0.00    -0.504 OA
ATOM     19  H   UNL     1      27.823  23.621   7.002  1.00  0.00     0.293 HD
ENDBRANCH  15  18
BRANCH  17  20
ATOM     20  O   UNL     1      25.518  23.963   6.202  1.00  0.00    -0.504 OA
ATOM     21  H   UNL     1      25.905  23.316   5.525  1.00  0.00     0.293 HD
ENDBRANCH  17  20
ENDBRANCH   1  12
BRANCH   6  22
ATOM     22  O   UNL     1      21.411  32.500   3.768  1.00  0.00    -0.507 OA
ATOM     23  H   UNL     1      21.157  33.453   3.558  1.00  0.00     0.293 HD
ENDBRANCH   6  22
BRANCH   8  24
ATOM     24  O   UNL     1      21.723  33.250   8.500  1.00  0.00    -0.508 OA
ATOM     25  H   UNL     1      22.166  34.140   8.695  1.00  0.00     0.293 HD
ENDBRANCH   8  24
TORSDOF 5
ENDMDL
MODEL 7
REMARK VINA RESULT:    -4.573      2.520      6.587
REMARK INTER + INTRA:          -5.651
REMARK INTER:                  -5.376
REMARK INTRA:                  -0.275
REMARK UNBOUND:                -0.276
REMARK SMILES O=c1cc(-c2ccc(O)c(O)c2)oc2cc(O)cc(O)c12
REMARK SMILES IDX 4 1 3 2 2 3 1 4 21 5 19 6 18 7 16 8 15 9 14 10 13 11 5 12
REMARK SMILES IDX 6 13 7 14 8 15 12 16 10 17 9 18 11 20 20 22 17 24
REMARK H PARENT 9 19 11 21 20 23 17 25
REMARK Flexibility Score: inf
ROOT
ATOM      1  C   UNL     1      23.631  27.057   5.603  1.00  0.00     0.138 A 
ATOM      2  C   UNL     1      22.869  28.170   5.223  1.00  0.00     0.100 A 
ATOM      3  C   UNL     1      23.311  29.453   5.547  1.00  0.00     0.197 A 
ATOM      4  O   UNL     1      22.577  30.428   5.242  1.00  0.00    -0.289 OA
ATOM      5  C   UNL     1      24.541  29.623   6.226  1.00  0.00     0.107 A 
ATOM      6  C   UNL     1      25.111  30.884   6.580  1.00  0.00     0.134 A 
ATOM      7  C   UNL     1      26.286  30.923   7.339  1.00  0.00     0.093 A 
ATOM      8  C   UNL     1      26.947  29.747   7.706  1.00  0.00     0.123 A 
ATOM      9  C   UNL     1      26.427  28.513   7.323  1.00  0.00     0.094 A 
ATOM     10  C   UNL     1      25.237  28.440   6.596  1.00  0.00     0.146 A 
ATOM     11  O   UNL     1      24.767  27.241   6.267  1.00  0.00    -0.456 OA
ENDROOT
BRANCH   1  12
ATOM     12  C   UNL     1      23.209  25.670   5.280  1.00  0.00     0.021 A 
ATOM     13  C   UNL     1      24.138  24.783   4.708  1.00  0.00     0.016 A 
ATOM     14  C   UNL     1      23.769  23.469   4.401  1.00  0.00     0.051 A 
ATOM     15  C   UNL     1      22.471  23.020   4.670  1.00  0.00     0.157 A 
ATOM     16  C   UNL     1      21.910  25.206   5.560  1.00  0.00     0.062 A 
ATOM     17  C   UNL     1      21.541  23.888   5.253  1.00  0.00     0.158 A 
BRANCH  15  18
ATOM     18  O   UNL     1      22.100  21.712   4.364  1.00  0.00    -0.504 OA
ATOM     19  H   UNL     1      22.137  20.975   5.059  1.00  0.00     0.293 HD
ENDBRANCH  15  18
BRANCH  17  20
ATOM     20  O   UNL     1      20.253  23.433   5.529  1.00  0.00    -0.504 OA
ATOM     21  H   UNL     1      20.086  22.507   5.904  1.00  0.00     0.293 HD
ENDBRANCH  17  20
ENDBRANCH   1  12
BRANCH   6  22
ATOM     22  O   UNL     1      24.577  32.119   6.197  1.00  0.00    -0.507 OA
ATOM     23  H   UNL     1      24.559  32.475   5.255  1.00  0.00     0.293 HD
ENDBRANCH   6  22
BRANCH   8  24
ATOM     24  O   UNL     1      28.125  29.796   8.447  1.00  0.00    -0.508 OA
ATOM     25  H   UNL     1      28.457  28.993   8.969  1.00  0.00     0.293 HD
ENDBRANCH   8  24
TORSDOF 5
ENDMDL
MODEL 8
REMARK VINA RESULT:    -4.452      2.401      4.106
REMARK INTER + INTRA:          -5.509
REMARK INTER:                  -5.216
REMARK INTRA:                  -0.293
REMARK UNBOUND:                -0.276
REMARK SMILES O=c1cc(-c2ccc(O)c(O)c2)oc2cc(O)cc(O)c12
REMARK SMILES IDX 4 1 3 2 2 3 1 4 21 5 19 6 18 7 16 8 15 9 14 10 13 11 5 12
REMARK SMILES IDX 6 13 7 14 8 15 12 16 10 17 9 18 11 20 20 22 17 24
REMARK H PARENT 9 19 11 21 20 23 17 25
REMARK Flexibility Score: inf
ROOT
ATOM      1  C   UNL     1      24.885  27.582   6.179  1.00  0.00     0.138 A 
ATOM      2  C   UNL     1      25.827  27.031   5.299  1.00  0.00     0.100 A 
ATOM      3  C   UNL     1      25.550  25.822   4.658  1.00  0.00     0.197 A 
ATOM      4  O   UNL     1      26.439  25.326   3.919  1.00  0.00    -0.289 OA
ATOM      5  C   UNL     1      24.307  25.181   4.873  1.00  0.00     0.107 A 
ATOM      6  C   UNL     1      23.899  23.963   4.248  1.00  0.00     0.134 A 
ATOM      7  C   UNL     1      22.685  23.372   4.614  1.00  0.00     0.093 A 
ATOM      8  C   UNL     1      21.834  23.984   5.540  1.00  0.00     0.123 A 
ATOM      9  C   UNL     1      22.200  25.197   6.117  1.00  0.00     0.094 A 
ATOM     10  C   UNL     1      23.421  25.795   5.799  1.00  0.00     0.146 A 
ATOM     11  O   UNL     1      23.738  26.944   6.387  1.00  0.00    -0.456 OA
ENDROOT
BRANCH   1  12
ATOM     12  C   UNL     1      25.126  28.865   6.884  1.00  0.00     0.021 A 
ATOM     13  C   UNL     1      26.385  29.108   7.462  1.00  0.00     0.016 A 
ATOM     14  C   UNL     1      26.642  30.311   8.126  1.00  0.00     0.051 A 
ATOM     15  C   UNL     1      25.649  31.293   8.215  1.00  0.00     0.157 A 
ATOM     16  C   UNL     1      24.137  29.864   6.967  1.00  0.00     0.062 A 
ATOM     17  C   UNL     1      24.396  31.071   7.632  1.00  0.00     0.158 A 
BRANCH  15  18
ATOM     18  O   UNL     1      25.900  32.493   8.877  1.00  0.00    -0.504 OA
ATOM     19  H   UNL     1      26.134  33.340   8.370  1.00  0.00     0.293 HD
ENDBRANCH  15  18
BRANCH  17  20
ATOM     20  O   UNL     1      23.414  32.057   7.714  1.00  0.00    -0.504 OA
ATOM     21  H   UNL     1      22.731  32.065   8.463  1.00  0.00     0.293 HD
ENDBRANCH  17  20
ENDBRANCH   1  12
BRANCH   6  22
ATOM     22  O   UNL     1      24.634  23.309   3.254  1.00  0.00    -0.507 OA
ATOM     23  H   UNL     1      25.636  23.198   3.252  1.00  0.00     0.293 HD
ENDBRANCH   6  22
BRANCH   8  24
ATOM     24  O   UNL     1      20.621  23.396   5.886  1.00  0.00    -0.508 OA
ATOM     25  H   UNL     1      19.768  23.940   5.955  1.00  0.00     0.293 HD
ENDBRANCH   8  24
TORSDOF 5
ENDMDL
