MODEL 1
REMARK VINA RESULT:    -6.490      0.000      0.000
REMARK INTER + INTRA:         -10.419
REMARK INTER:                  -9.525
REMARK INTRA:                  -0.894
REMARK UNBOUND:                -0.894
REMARK SMILES O=c1c(O[C@H]2O[C@H](CO)[C@H](O)[C@@H](O)[C@H]2O)c(-c2ccc(O)c(O)c2)oc2cc(O)cc(O)c12
REMARK SMILES IDX 4 1 3 2 16 3 25 4 2 5 26 6 1 7 33 8 27 9 31 10 28 11 30 12
REMARK SMILES IDX 17 13 18 14 19 15 20 16 24 17 22 18 21 19 23 21 32 23 29 25
REMARK SMILES IDX 5 27 14 28 6 29 12 30 7 31 10 32 15 33 13 35 8 37 9 38 11 40
REMARK H PARENT 21 20 23 22 32 24 29 26 15 34 13 36 9 39 11 41
REMARK Flexibility Score: inf
ROOT
ATOM      1  O   UNL     1      -6.866 -18.881  -7.954  1.00  0.00    -0.454 OA
ENDROOT
BRANCH   1   2
ATOM      2  C   UNL     1      -7.974 -19.322  -7.221  1.00  0.00     0.214 A 
ATOM      3  C   UNL     1      -7.882 -20.381  -6.297  1.00  0.00     0.180 A 
ATOM      4  O   UNL     1      -8.981 -20.814  -5.688  1.00  0.00    -0.452 OA
ATOM      5  C   UNL     1      -9.216 -18.717  -7.443  1.00  0.00     0.239 A 
ATOM      6  C   UNL     1     -10.187 -20.299  -5.895  1.00  0.00     0.146 A 
ATOM      7  O   UNL     1      -9.265 -17.715  -8.202  1.00  0.00    -0.285 OA
ATOM      8  C   UNL     1     -10.377 -19.231  -6.812  1.00  0.00     0.111 A 
ATOM      9  C   UNL     1     -11.268 -20.827  -5.184  1.00  0.00     0.094 A 
ATOM     10  C   UNL     1     -11.702 -18.746  -7.028  1.00  0.00     0.134 A 
ATOM     11  C   UNL     1     -12.551 -20.314  -5.365  1.00  0.00     0.123 A 
ATOM     12  C   UNL     1     -12.761 -19.277  -6.280  1.00  0.00     0.093 A 
BRANCH   3  13
ATOM     13  C   UNL     1      -6.602 -21.047  -5.963  1.00  0.00     0.025 A 
ATOM     14  C   UNL     1      -5.630 -20.420  -5.160  1.00  0.00     0.016 A 
ATOM     15  C   UNL     1      -4.438 -21.084  -4.846  1.00  0.00     0.051 A 
ATOM     16  C   UNL     1      -4.212 -22.390  -5.300  1.00  0.00     0.157 A 
ATOM     17  C   UNL     1      -6.375 -22.361  -6.409  1.00  0.00     0.062 A 
ATOM     18  C   UNL     1      -5.185 -23.033  -6.086  1.00  0.00     0.158 A 
BRANCH  16  19
ATOM     19  O   UNL     1      -3.021 -23.034  -4.955  1.00  0.00    -0.504 OA
ATOM     20  H   UNL     1      -2.518 -22.814  -4.103  1.00  0.00     0.293 HD
ENDBRANCH  16  19
BRANCH  18  21
ATOM     21  O   UNL     1      -4.962 -24.330  -6.551  1.00  0.00    -0.504 OA
ATOM     22  H   UNL     1      -5.338 -25.140  -6.070  1.00  0.00     0.293 HD
ENDBRANCH  18  21
ENDBRANCH   3  13
BRANCH  10  23
ATOM     23  O   UNL     1     -12.036 -17.776  -7.980  1.00  0.00    -0.507 OA
ATOM     24  H   UNL     1     -11.544 -16.907  -8.119  1.00  0.00     0.293 HD
ENDBRANCH  10  23
BRANCH  11  25
ATOM     25  O   UNL     1     -13.614 -20.851  -4.639  1.00  0.00    -0.508 OA
ATOM     26  H   UNL     1     -13.576 -20.938  -3.631  1.00  0.00     0.293 HD
ENDBRANCH  11  25
ENDBRANCH   1   2
BRANCH   1  27
ATOM     27  C   UNL     1      -6.191 -19.738  -8.876  1.00  0.00     0.339 C 
ATOM     28  C   UNL     1      -4.670 -19.741  -8.590  1.00  0.00     0.214 C 
ATOM     29  O   UNL     1      -6.440 -19.288 -10.196  1.00  0.00    -0.332 OA
ATOM     30  C   UNL     1      -3.856 -20.081  -9.875  1.00  0.00     0.180 C 
ATOM     31  C   UNL     1      -6.034 -20.252 -11.166  1.00  0.00     0.179 C 
ATOM     32  C   UNL     1      -4.688 -20.969 -10.818  1.00  0.00     0.177 C 
BRANCH  28  33
ATOM     33  O   UNL     1      -4.273 -18.498  -8.065  1.00  0.00    -0.384 OA
ATOM     34  H   UNL     1      -4.397 -17.828  -8.791  1.00  0.00     0.211 HD
ENDBRANCH  28  33
BRANCH  30  35
ATOM     35  O   UNL     1      -3.496 -18.901 -10.561  1.00  0.00    -0.387 OA
ATOM     36  H   UNL     1      -4.305 -18.591 -11.048  1.00  0.00     0.211 HD
ENDBRANCH  30  35
BRANCH  31  37
ATOM     37  C   UNL     1      -7.186 -21.224 -11.489  1.00  0.00     0.191 C 
BRANCH  37  38
ATOM     38  O   UNL     1      -7.920 -21.518 -10.329  1.00  0.00    -0.394 OA
ATOM     39  H   UNL     1      -7.894 -20.705  -9.756  1.00  0.00     0.210 HD
ENDBRANCH  37  38
ENDBRANCH  31  37
BRANCH  32  40
ATOM     40  O   UNL     1      -4.925 -22.215 -10.203  1.00  0.00    -0.387 OA
ATOM     41  H   UNL     1      -5.911 -22.335 -10.155  1.00  0.00     0.211 HD
ENDBRANCH  32  40
ENDBRANCH   1  27
TORSDOF 12
ENDMDL
MODEL 2
REMARK VINA RESULT:    -6.424      2.205      6.519
REMARK INTER + INTRA:         -10.322
REMARK INTER:                  -9.516
REMARK INTRA:                  -0.807
REMARK UNBOUND:                -0.894
REMARK SMILES O=c1c(O[C@H]2O[C@H](CO)[C@H](O)[C@@H](O)[C@H]2O)c(-c2ccc(O)c(O)c2)oc2cc(O)cc(O)c12
REMARK SMILES IDX 4 1 3 2 16 3 25 4 2 5 26 6 1 7 33 8 27 9 31 10 28 11 30 12
REMARK SMILES IDX 17 13 18 14 19 15 20 16 24 17 22 18 21 19 23 21 32 23 29 25
REMARK SMILES IDX 5 27 14 28 6 29 12 30 7 31 10 32 15 33 13 35 8 37 9 38 11 40
REMARK H PARENT 21 20 23 22 32 24 29 26 15 34 13 36 9 39 11 41
REMARK Flexibility Score: inf
ROOT
ATOM      1  O   UNL     1      -8.471 -19.206  -7.902  1.00  0.00    -0.454 OA
ENDROOT
BRANCH   1   2
ATOM      2  C   UNL     1      -7.527 -20.129  -8.367  1.00  0.00     0.214 A 
ATOM      3  C   UNL     1      -6.192 -20.120  -7.918  1.00  0.00     0.180 A 
ATOM      4  O   UNL     1      -5.317 -20.965  -8.453  1.00  0.00    -0.452 OA
ATOM      5  C   UNL     1      -7.914 -21.062  -9.336  1.00  0.00     0.239 A 
ATOM      6  C   UNL     1      -5.627 -21.841  -9.401  1.00  0.00     0.146 A 
ATOM      7  O   UNL     1      -9.129 -21.117  -9.661  1.00  0.00    -0.285 OA
ATOM      8  C   UNL     1      -6.947 -21.919  -9.919  1.00  0.00     0.111 A 
ATOM      9  C   UNL     1      -4.624 -22.691  -9.876  1.00  0.00     0.094 A 
ATOM     10  C   UNL     1      -7.212 -22.849 -10.969  1.00  0.00     0.134 A 
ATOM     11  C   UNL     1      -4.905 -23.629 -10.867  1.00  0.00     0.123 A 
ATOM     12  C   UNL     1      -6.194 -23.706 -11.405  1.00  0.00     0.093 A 
BRANCH   3  13
ATOM     13  C   UNL     1      -5.707 -19.202  -6.863  1.00  0.00     0.025 A 
ATOM     14  C   UNL     1      -5.683 -17.806  -7.050  1.00  0.00     0.016 A 
ATOM     15  C   UNL     1      -5.237 -16.963  -6.025  1.00  0.00     0.051 A 
ATOM     16  C   UNL     1      -4.839 -17.495  -4.792  1.00  0.00     0.157 A 
ATOM     17  C   UNL     1      -5.315 -19.730  -5.620  1.00  0.00     0.062 A 
ATOM     18  C   UNL     1      -4.877 -18.886  -4.587  1.00  0.00     0.158 A 
BRANCH  16  19
ATOM     19  O   UNL     1      -4.416 -16.628  -3.781  1.00  0.00    -0.504 OA
ATOM     20  H   UNL     1      -4.568 -15.627  -3.832  1.00  0.00     0.293 HD
ENDBRANCH  16  19
BRANCH  18  21
ATOM     21  O   UNL     1      -4.471 -19.424  -3.364  1.00  0.00    -0.504 OA
ATOM     22  H   UNL     1      -4.703 -18.977  -2.483  1.00  0.00     0.293 HD
ENDBRANCH  18  21
ENDBRANCH   3  13
BRANCH  10  23
ATOM     23  O   UNL     1      -8.439 -22.949 -11.636  1.00  0.00    -0.507 OA
ATOM     24  H   UNL     1      -8.549 -23.104 -12.627  1.00  0.00     0.293 HD
ENDBRANCH  10  23
BRANCH  11  25
ATOM     25  O   UNL     1      -3.891 -24.472 -11.321  1.00  0.00    -0.508 OA
ATOM     26  H   UNL     1      -3.222 -24.886 -10.683  1.00  0.00     0.293 HD
ENDBRANCH  11  25
ENDBRANCH   1   2
BRANCH   1  27
ATOM     27  C   UNL     1      -9.709 -19.628  -7.328  1.00  0.00     0.339 C 
ATOM     28  C   UNL     1     -10.874 -18.764  -7.869  1.00  0.00     0.214 C 
ATOM     29  O   UNL     1      -9.629 -19.514  -5.918  1.00  0.00    -0.332 OA
ATOM     30  C   UNL     1     -12.056 -18.714  -6.856  1.00  0.00     0.180 C 
ATOM     31  C   UNL     1     -10.716 -20.177  -5.274  1.00  0.00     0.179 C 
ATOM     32  C   UNL     1     -12.088 -19.997  -6.004  1.00  0.00     0.177 C 
BRANCH  28  33
ATOM     33  O   UNL     1     -10.418 -17.467  -8.165  1.00  0.00    -0.384 OA
ATOM     34  H   UNL     1     -10.311 -17.419  -9.153  1.00  0.00     0.211 HD
ENDBRANCH  28  33
BRANCH  30  35
ATOM     35  O   UNL     1     -11.928 -17.601  -5.998  1.00  0.00    -0.387 OA
ATOM     36  H   UNL     1     -11.755 -17.956  -5.086  1.00  0.00     0.211 HD
ENDBRANCH  30  35
BRANCH  31  37
ATOM     37  C   UNL     1     -10.363 -21.649  -4.980  1.00  0.00     0.191 C 
BRANCH  37  38
ATOM     38  O   UNL     1     -11.382 -22.258  -4.230  1.00  0.00    -0.394 OA
ATOM     39  H   UNL     1     -11.892 -22.839  -4.856  1.00  0.00     0.210 HD
ENDBRANCH  37  38
ENDBRANCH  31  37
BRANCH  32  40
ATOM     40  O   UNL     1     -12.370 -21.103  -6.830  1.00  0.00    -0.387 OA
ATOM     41  H   UNL     1     -13.348 -21.272  -6.769  1.00  0.00     0.211 HD
ENDBRANCH  32  40
ENDBRANCH   1  27
TORSDOF 12
ENDMDL
MODEL 3
REMARK VINA RESULT:    -6.252      1.872      2.911
REMARK INTER + INTRA:         -10.070
REMARK INTER:                  -9.083
REMARK INTRA:                  -0.987
REMARK UNBOUND:                -0.894
REMARK SMILES O=c1c(O[C@H]2O[C@H](CO)[C@H](O)[C@@H](O)[C@H]2O)c(-c2ccc(O)c(O)c2)oc2cc(O)cc(O)c12
REMARK SMILES IDX 4 1 3 2 16 3 25 4 2 5 26 6 1 7 33 8 27 9 31 10 28 11 30 12
REMARK SMILES IDX 17 13 18 14 19 15 20 16 24 17 22 18 21 19 23 21 32 23 29 25
REMARK SMILES IDX 5 27 14 28 6 29 12 30 7 31 10 32 15 33 13 35 8 37 9 38 11 40
REMARK H PARENT 21 20 23 22 32 24 29 26 15 34 13 36 9 39 11 41
REMARK Flexibility Score: inf
ROOT
ATOM      1  O   UNL     1      -6.168 -19.271  -8.013  1.00  0.00    -0.454 OA
ENDROOT
BRANCH   1   2
ATOM      2  C   UNL     1      -7.316 -19.642  -7.302  1.00  0.00     0.214 A 
ATOM      3  C   UNL     1      -7.363 -20.815  -6.523  1.00  0.00     0.180 A 
ATOM      4  O   UNL     1      -8.502 -21.163  -5.934  1.00  0.00    -0.452 OA
ATOM      5  C   UNL     1      -8.461 -18.844  -7.401  1.00  0.00     0.239 A 
ATOM      6  C   UNL     1      -9.624 -20.460  -6.031  1.00  0.00     0.146 A 
ATOM      7  O   UNL     1      -8.377 -17.754  -8.026  1.00  0.00    -0.285 OA
ATOM      8  C   UNL     1      -9.672 -19.266  -6.799  1.00  0.00     0.111 A 
ATOM      9  C   UNL     1     -10.758 -20.917  -5.354  1.00  0.00     0.094 A 
ATOM     10  C   UNL     1     -10.917 -18.574  -6.904  1.00  0.00     0.134 A 
ATOM     11  C   UNL     1     -11.955 -20.209  -5.423  1.00  0.00     0.123 A 
ATOM     12  C   UNL     1     -12.028 -19.043  -6.191  1.00  0.00     0.093 A 
BRANCH   3  13
ATOM     13  C   UNL     1      -6.187 -21.693  -6.322  1.00  0.00     0.025 A 
ATOM     14  C   UNL     1      -5.875 -22.729  -7.224  1.00  0.00     0.016 A 
ATOM     15  C   UNL     1      -4.745 -23.529  -7.018  1.00  0.00     0.051 A 
ATOM     16  C   UNL     1      -3.896 -23.289  -5.930  1.00  0.00     0.157 A 
ATOM     17  C   UNL     1      -5.326 -21.451  -5.237  1.00  0.00     0.062 A 
ATOM     18  C   UNL     1      -4.187 -22.245  -5.034  1.00  0.00     0.158 A 
BRANCH  16  19
ATOM     19  O   UNL     1      -2.765 -24.093  -5.760  1.00  0.00    -0.504 OA
ATOM     20  H   UNL     1      -2.190 -24.043  -4.927  1.00  0.00     0.293 HD
ENDBRANCH  16  19
BRANCH  18  21
ATOM     21  O   UNL     1      -3.350 -22.008  -3.941  1.00  0.00    -0.504 OA
ATOM     22  H   UNL     1      -3.318 -22.641  -3.149  1.00  0.00     0.293 HD
ENDBRANCH  18  21
ENDBRANCH   3  13
BRANCH  10  23
ATOM     23  O   UNL     1     -11.124 -17.451  -7.714  1.00  0.00    -0.507 OA
ATOM     24  H   UNL     1     -11.125 -16.496  -7.390  1.00  0.00     0.293 HD
ENDBRANCH  10  23
BRANCH  11  25
ATOM     25  O   UNL     1     -13.072 -20.680  -4.733  1.00  0.00    -0.508 OA
ATOM     26  H   UNL     1     -13.487 -20.151  -3.975  1.00  0.00     0.293 HD
ENDBRANCH  11  25
ENDBRANCH   1   2
BRANCH   1  27
ATOM     27  C   UNL     1      -4.899 -19.148  -7.371  1.00  0.00     0.339 C 
ATOM     28  C   UNL     1      -4.883 -17.906  -6.448  1.00  0.00     0.214 C 
ATOM     29  O   UNL     1      -3.889 -19.037  -8.359  1.00  0.00    -0.332 OA
ATOM     30  C   UNL     1      -3.435 -17.360  -6.263  1.00  0.00     0.180 C 
ATOM     31  C   UNL     1      -2.586 -19.193  -7.798  1.00  0.00     0.179 C 
ATOM     32  C   UNL     1      -2.409 -18.499  -6.407  1.00  0.00     0.177 C 
BRANCH  28  33
ATOM     33  O   UNL     1      -5.727 -16.907  -6.965  1.00  0.00    -0.384 OA
ATOM     34  H   UNL     1      -6.103 -17.262  -7.816  1.00  0.00     0.211 HD
ENDBRANCH  28  33
BRANCH  30  35
ATOM     35  O   UNL     1      -3.152 -16.368  -7.226  1.00  0.00    -0.387 OA
ATOM     36  H   UNL     1      -3.933 -15.753  -7.247  1.00  0.00     0.211 HD
ENDBRANCH  30  35
BRANCH  31  37
ATOM     37  C   UNL     1      -2.159 -20.674  -7.807  1.00  0.00     0.191 C 
BRANCH  37  38
ATOM     38  O   UNL     1      -2.675 -21.328  -8.938  1.00  0.00    -0.394 OA
ATOM     39  H   UNL     1      -3.608 -21.004  -9.058  1.00  0.00     0.210 HD
ENDBRANCH  37  38
ENDBRANCH  31  37
BRANCH  32  40
ATOM     40  O   UNL     1      -2.582 -19.423  -5.357  1.00  0.00    -0.387 OA
ATOM     41  H   UNL     1      -1.861 -19.249  -4.694  1.00  0.00     0.211 HD
ENDBRANCH  32  40
ENDBRANCH   1  27
TORSDOF 12
ENDMDL
MODEL 4
REMARK VINA RESULT:    -6.237      1.757      3.285
REMARK INTER + INTRA:         -10.047
REMARK INTER:                  -9.135
REMARK INTRA:                  -0.913
REMARK UNBOUND:                -0.894
REMARK SMILES O=c1c(O[C@H]2O[C@H](CO)[C@H](O)[C@@H](O)[C@H]2O)c(-c2ccc(O)c(O)c2)oc2cc(O)cc(O)c12
REMARK SMILES IDX 4 1 3 2 16 3 25 4 2 5 26 6 1 7 33 8 27 9 31 10 28 11 30 12
REMARK SMILES IDX 17 13 18 14 19 15 20 16 24 17 22 18 21 19 23 21 32 23 29 25
REMARK SMILES IDX 5 27 14 28 6 29 12 30 7 31 10 32 15 33 13 35 8 37 9 38 11 40
REMARK H PARENT 21 20 23 22 32 24 29 26 15 34 13 36 9 39 11 41
REMARK Flexibility Score: inf
ROOT
ATOM      1  O   UNL     1      -5.994 -19.799  -8.083  1.00  0.00    -0.454 OA
ENDROOT
BRANCH   1   2
ATOM      2  C   UNL     1      -7.200 -19.975  -7.394  1.00  0.00     0.214 A 
ATOM      3  C   UNL     1      -7.390 -21.032  -6.483  1.00  0.00     0.180 A 
ATOM      4  O   UNL     1      -8.581 -21.202  -5.917  1.00  0.00    -0.452 OA
ATOM      5  C   UNL     1      -8.260 -19.096  -7.648  1.00  0.00     0.239 A 
ATOM      6  C   UNL     1      -9.626 -20.419  -6.157  1.00  0.00     0.146 A 
ATOM      7  O   UNL     1      -8.047 -18.105  -8.394  1.00  0.00    -0.285 OA
ATOM      8  C   UNL     1      -9.529 -19.330  -7.064  1.00  0.00     0.111 A 
ATOM      9  C   UNL     1     -10.825 -20.686  -5.490  1.00  0.00     0.094 A 
ATOM     10  C   UNL     1     -10.698 -18.549  -7.316  1.00  0.00     0.134 A 
ATOM     11  C   UNL     1     -11.946 -19.887  -5.706  1.00  0.00     0.123 A 
ATOM     12  C   UNL     1     -11.877 -18.824  -6.612  1.00  0.00     0.093 A 
BRANCH   3  13
ATOM     13  C   UNL     1      -6.313 -21.980  -6.117  1.00  0.00     0.025 A 
ATOM     14  C   UNL     1      -6.210 -23.251  -6.714  1.00  0.00     0.016 A 
ATOM     15  C   UNL     1      -5.168 -24.116  -6.361  1.00  0.00     0.051 A 
ATOM     16  C   UNL     1      -4.198 -23.716  -5.434  1.00  0.00     0.157 A 
ATOM     17  C   UNL     1      -5.331 -21.580  -5.193  1.00  0.00     0.062 A 
ATOM     18  C   UNL     1      -4.279 -22.442  -4.845  1.00  0.00     0.158 A 
BRANCH  16  19
ATOM     19  O   UNL     1      -3.159 -24.595  -5.114  1.00  0.00    -0.504 OA
ATOM     20  H   UNL     1      -3.210 -25.222  -4.320  1.00  0.00     0.293 HD
ENDBRANCH  16  19
BRANCH  18  21
ATOM     21  O   UNL     1      -3.322 -22.041  -3.911  1.00  0.00    -0.504 OA
ATOM     22  H   UNL     1      -2.844 -21.149  -3.987  1.00  0.00     0.293 HD
ENDBRANCH  18  21
ENDBRANCH   3  13
BRANCH  10  23
ATOM     23  O   UNL     1     -10.763 -17.522  -8.265  1.00  0.00    -0.507 OA
ATOM     24  H   UNL     1     -10.495 -17.609  -9.233  1.00  0.00     0.293 HD
ENDBRANCH  10  23
BRANCH  11  25
ATOM     25  O   UNL     1     -13.130 -20.167  -5.024  1.00  0.00    -0.508 OA
ATOM     26  H   UNL     1     -13.449 -19.587  -4.258  1.00  0.00     0.293 HD
ENDBRANCH  11  25
ENDBRANCH   1   2
BRANCH   1  27
ATOM     27  C   UNL     1      -5.094 -18.740  -7.755  1.00  0.00     0.339 C 
ATOM     28  C   UNL     1      -4.221 -18.379  -8.981  1.00  0.00     0.214 C 
ATOM     29  O   UNL     1      -4.274 -19.148  -6.673  1.00  0.00    -0.332 OA
ATOM     30  C   UNL     1      -2.860 -17.762  -8.540  1.00  0.00     0.180 C 
ATOM     31  C   UNL     1      -3.554 -18.049  -6.116  1.00  0.00     0.179 C 
ATOM     32  C   UNL     1      -3.008 -17.045  -7.185  1.00  0.00     0.177 C 
BRANCH  28  33
ATOM     33  O   UNL     1      -4.014 -19.518  -9.780  1.00  0.00    -0.384 OA
ATOM     34  H   UNL     1      -3.243 -20.009  -9.385  1.00  0.00     0.211 HD
ENDBRANCH  28  33
BRANCH  30  35
ATOM     35  O   UNL     1      -1.875 -18.766  -8.419  1.00  0.00    -0.387 OA
ATOM     36  H   UNL     1      -1.857 -19.260  -9.281  1.00  0.00     0.211 HD
ENDBRANCH  30  35
BRANCH  31  37
ATOM     37  C   UNL     1      -4.365 -17.374  -4.993  1.00  0.00     0.191 C 
BRANCH  37  38
ATOM     38  O   UNL     1      -4.122 -18.006  -3.763  1.00  0.00    -0.394 OA
ATOM     39  H   UNL     1      -4.976 -18.435  -3.486  1.00  0.00     0.210 HD
ENDBRANCH  37  38
ENDBRANCH  31  37
BRANCH  32  40
ATOM     40  O   UNL     1      -3.873 -15.942  -7.329  1.00  0.00    -0.387 OA
ATOM     41  H   UNL     1      -4.015 -15.808  -8.305  1.00  0.00     0.211 HD
ENDBRANCH  32  40
ENDBRANCH   1  27
TORSDOF 12
ENDMDL
MODEL 5
REMARK VINA RESULT:    -6.013      2.348      6.572
REMARK INTER + INTRA:          -9.719
REMARK INTER:                  -8.593
REMARK INTRA:                  -1.126
REMARK UNBOUND:                -0.894
REMARK SMILES O=c1c(O[C@H]2O[C@H](CO)[C@H](O)[C@@H](O)[C@H]2O)c(-c2ccc(O)c(O)c2)oc2cc(O)cc(O)c12
REMARK SMILES IDX 4 1 3 2 16 3 25 4 2 5 26 6 1 7 33 8 27 9 31 10 28 11 30 12
REMARK SMILES IDX 17 13 18 14 19 15 20 16 24 17 22 18 21 19 23 21 32 23 29 25
REMARK SMILES IDX 5 27 14 28 6 29 12 30 7 31 10 32 15 33 13 35 8 37 9 38 11 40
REMARK H PARENT 21 20 23 22 32 24 29 26 15 34 13 36 9 39 11 41
REMARK Flexibility Score: inf
ROOT
ATOM      1  O   UNL     1      -6.229 -20.283  -6.604  1.00  0.00    -0.454 OA
ENDROOT
BRANCH   1   2
ATOM      2  C   UNL     1      -6.579 -20.800  -7.857  1.00  0.00     0.214 A 
ATOM      3  C   UNL     1      -7.859 -20.605  -8.412  1.00  0.00     0.180 A 
ATOM      4  O   UNL     1      -8.166 -21.185  -9.568  1.00  0.00    -0.452 OA
ATOM      5  C   UNL     1      -5.641 -21.565  -8.560  1.00  0.00     0.239 A 
ATOM      6  C   UNL     1      -7.324 -21.951 -10.251  1.00  0.00     0.146 A 
ATOM      7  O   UNL     1      -4.475 -21.655  -8.095  1.00  0.00    -0.285 OA
ATOM      8  C   UNL     1      -6.013 -22.207  -9.767  1.00  0.00     0.111 A 
ATOM      9  C   UNL     1      -7.754 -22.496 -11.464  1.00  0.00     0.094 A 
ATOM     10  C   UNL     1      -5.167 -23.075 -10.522  1.00  0.00     0.134 A 
ATOM     11  C   UNL     1      -6.903 -23.301 -12.217  1.00  0.00     0.123 A 
ATOM     12  C   UNL     1      -5.616 -23.583 -11.746  1.00  0.00     0.093 A 
BRANCH   3  13
ATOM     13  C   UNL     1      -8.897 -19.771  -7.764  1.00  0.00     0.025 A 
ATOM     14  C   UNL     1      -8.899 -18.367  -7.883  1.00  0.00     0.016 A 
ATOM     15  C   UNL     1      -9.906 -17.608  -7.275  1.00  0.00     0.051 A 
ATOM     16  C   UNL     1     -10.938 -18.236  -6.567  1.00  0.00     0.157 A 
ATOM     17  C   UNL     1      -9.940 -20.397  -7.060  1.00  0.00     0.062 A 
ATOM     18  C   UNL     1     -10.956 -19.638  -6.457  1.00  0.00     0.158 A 
BRANCH  16  19
ATOM     19  O   UNL     1     -11.939 -17.453  -5.985  1.00  0.00    -0.504 OA
ATOM     20  H   UNL     1     -12.041 -16.467  -6.196  1.00  0.00     0.293 HD
ENDBRANCH  16  19
BRANCH  18  21
ATOM     21  O   UNL     1     -11.976 -20.270  -5.743  1.00  0.00    -0.504 OA
ATOM     22  H   UNL     1     -12.866 -20.495  -6.174  1.00  0.00     0.293 HD
ENDBRANCH  18  21
ENDBRANCH   3  13
BRANCH  10  23
ATOM     23  O   UNL     1      -3.898 -23.492 -10.101  1.00  0.00    -0.507 OA
ATOM     24  H   UNL     1      -3.707 -23.994  -9.247  1.00  0.00     0.293 HD
ENDBRANCH  10  23
BRANCH  11  25
ATOM     25  O   UNL     1      -7.350 -23.829 -13.428  1.00  0.00    -0.508 OA
ATOM     26  H   UNL     1      -6.917 -23.575 -14.309  1.00  0.00     0.293 HD
ENDBRANCH  11  25
ENDBRANCH   1   2
BRANCH   1  27
ATOM     27  C   UNL     1      -5.215 -19.287  -6.463  1.00  0.00     0.339 C 
ATOM     28  C   UNL     1      -4.494 -19.444  -5.103  1.00  0.00     0.214 C 
ATOM     29  O   UNL     1      -5.810 -18.004  -6.556  1.00  0.00    -0.332 OA
ATOM     30  C   UNL     1      -3.897 -18.087  -4.622  1.00  0.00     0.180 C 
ATOM     31  C   UNL     1      -4.829 -16.979  -6.706  1.00  0.00     0.179 C 
ATOM     32  C   UNL     1      -3.552 -17.194  -5.828  1.00  0.00     0.177 C 
BRANCH  28  33
ATOM     33  O   UNL     1      -5.380 -19.965  -4.142  1.00  0.00    -0.384 OA
ATOM     34  H   UNL     1      -5.508 -20.927  -4.364  1.00  0.00     0.211 HD
ENDBRANCH  28  33
BRANCH  30  35
ATOM     35  O   UNL     1      -4.818 -17.404  -3.799  1.00  0.00    -0.387 OA
ATOM     36  H   UNL     1      -4.293 -16.776  -3.236  1.00  0.00     0.211 HD
ENDBRANCH  30  35
BRANCH  31  37
ATOM     37  C   UNL     1      -4.519 -16.729  -8.195  1.00  0.00     0.191 C 
BRANCH  37  38
ATOM     38  O   UNL     1      -3.822 -15.521  -8.356  1.00  0.00    -0.394 OA
ATOM     39  H   UNL     1      -3.367 -15.333  -7.492  1.00  0.00     0.210 HD
ENDBRANCH  37  38
ENDBRANCH  31  37
BRANCH  32  40
ATOM     40  O   UNL     1      -2.520 -17.795  -6.578  1.00  0.00    -0.387 OA
ATOM     41  H   UNL     1      -2.875 -17.946  -7.495  1.00  0.00     0.211 HD
ENDBRANCH  32  40
ENDBRANCH   1  27
TORSDOF 12
ENDMDL
MODEL 6
REMARK VINA RESULT:    -6.001      2.308      6.619
REMARK INTER + INTRA:          -9.702
REMARK INTER:                  -8.829
REMARK INTRA:                  -0.873
REMARK UNBOUND:                -0.894
REMARK SMILES O=c1c(O[C@H]2O[C@H](CO)[C@H](O)[C@@H](O)[C@H]2O)c(-c2ccc(O)c(O)c2)oc2cc(O)cc(O)c12
REMARK SMILES IDX 4 1 3 2 16 3 25 4 2 5 26 6 1 7 33 8 27 9 31 10 28 11 30 12
REMARK SMILES IDX 17 13 18 14 19 15 20 16 24 17 22 18 21 19 23 21 32 23 29 25
REMARK SMILES IDX 5 27 14 28 6 29 12 30 7 31 10 32 15 33 13 35 8 37 9 38 11 40
REMARK H PARENT 21 20 23 22 32 24 29 26 15 34 13 36 9 39 11 41
REMARK Flexibility Score: inf
ROOT
ATOM      1  O   UNL     1      -6.534 -21.418  -8.761  1.00  0.00    -0.454 OA
ENDROOT
BRANCH   1   2
ATOM      2  C   UNL     1      -5.944 -20.181  -8.478  1.00  0.00     0.214 A 
ATOM      3  C   UNL     1      -6.647 -19.153  -7.818  1.00  0.00     0.180 A 
ATOM      4  O   UNL     1      -6.067 -17.970  -7.647  1.00  0.00    -0.452 OA
ATOM      5  C   UNL     1      -4.630 -19.946  -8.898  1.00  0.00     0.239 A 
ATOM      6  C   UNL     1      -4.838 -17.688  -8.062  1.00  0.00     0.146 A 
ATOM      7  O   UNL     1      -3.985 -20.902  -9.403  1.00  0.00    -0.285 OA
ATOM      8  C   UNL     1      -4.055 -18.660  -8.740  1.00  0.00     0.111 A 
ATOM      9  C   UNL     1      -4.327 -16.412  -7.811  1.00  0.00     0.094 A 
ATOM     10  C   UNL     1      -2.757 -18.287  -9.204  1.00  0.00     0.134 A 
ATOM     11  C   UNL     1      -3.040 -16.073  -8.224  1.00  0.00     0.123 A 
ATOM     12  C   UNL     1      -2.262 -17.009  -8.913  1.00  0.00     0.093 A 
BRANCH   3  13
ATOM     13  C   UNL     1      -8.022 -19.328  -7.296  1.00  0.00     0.025 A 
ATOM     14  C   UNL     1      -8.327 -20.304  -6.327  1.00  0.00     0.016 A 
ATOM     15  C   UNL     1      -9.632 -20.431  -5.839  1.00  0.00     0.051 A 
ATOM     16  C   UNL     1     -10.643 -19.570  -6.285  1.00  0.00     0.157 A 
ATOM     17  C   UNL     1      -9.038 -18.461  -7.734  1.00  0.00     0.062 A 
ATOM     18  C   UNL     1     -10.347 -18.580  -7.239  1.00  0.00     0.158 A 
BRANCH  16  19
ATOM     19  O   UNL     1     -11.933 -19.709  -5.767  1.00  0.00    -0.504 OA
ATOM     20  H   UNL     1     -12.105 -20.103  -4.848  1.00  0.00     0.293 HD
ENDBRANCH  16  19
BRANCH  18  21
ATOM     21  O   UNL     1     -11.352 -17.726  -7.696  1.00  0.00    -0.504 OA
ATOM     22  H   UNL     1     -11.148 -16.780  -7.999  1.00  0.00     0.293 HD
ENDBRANCH  18  21
ENDBRANCH   3  13
BRANCH  10  23
ATOM     23  O   UNL     1      -1.933 -19.114  -9.976  1.00  0.00    -0.507 OA
ATOM     24  H   UNL     1      -2.250 -19.904 -10.518  1.00  0.00     0.293 HD
ENDBRANCH  10  23
BRANCH  11  25
ATOM     25  O   UNL     1      -2.547 -14.796  -7.956  1.00  0.00    -0.508 OA
ATOM     26  H   UNL     1      -1.622 -14.512  -8.256  1.00  0.00     0.293 HD
ENDBRANCH  11  25
ENDBRANCH   1   2
BRANCH   1  27
ATOM     27  C   UNL     1      -6.451 -22.006 -10.060  1.00  0.00     0.339 C 
ATOM     28  C   UNL     1      -7.714 -21.663 -10.886  1.00  0.00     0.214 C 
ATOM     29  O   UNL     1      -6.321 -23.411  -9.925  1.00  0.00    -0.332 OA
ATOM     30  C   UNL     1      -7.988 -22.746 -11.971  1.00  0.00     0.180 C 
ATOM     31  C   UNL     1      -5.952 -24.025 -11.159  1.00  0.00     0.179 C 
ATOM     32  C   UNL     1      -6.671 -23.416 -12.408  1.00  0.00     0.177 C 
BRANCH  28  33
ATOM     33  O   UNL     1      -8.825 -21.520 -10.035  1.00  0.00    -0.384 OA
ATOM     34  H   UNL     1      -8.711 -20.653  -9.559  1.00  0.00     0.211 HD
ENDBRANCH  28  33
BRANCH  30  35
ATOM     35  O   UNL     1      -8.860 -23.739 -11.473  1.00  0.00    -0.387 OA
ATOM     36  H   UNL     1      -8.903 -24.457 -12.158  1.00  0.00     0.211 HD
ENDBRANCH  30  35
BRANCH  31  37
ATOM     37  C   UNL     1      -4.419 -24.093 -11.302  1.00  0.00     0.191 C 
BRANCH  37  38
ATOM     38  O   UNL     1      -4.065 -24.725 -12.505  1.00  0.00    -0.394 OA
ATOM     39  H   UNL     1      -3.472 -24.097 -12.997  1.00  0.00     0.210 HD
ENDBRANCH  37  38
ENDBRANCH  31  37
BRANCH  32  40
ATOM     40  O   UNL     1      -5.851 -22.465 -13.048  1.00  0.00    -0.387 OA
ATOM     41  H   UNL     1      -6.015 -21.590 -12.603  1.00  0.00     0.211 HD
ENDBRANCH  32  40
ENDBRANCH   1  27
TORSDOF 12
ENDMDL
MODEL 7
REMARK VINA RESULT:    -5.854      1.858      4.476
REMARK INTER + INTRA:          -9.486
REMARK INTER:                  -8.179
REMARK INTRA:                  -1.307
REMARK UNBOUND:                -0.894
REMARK SMILES O=c1c(O[C@H]2O[C@H](CO)[C@H](O)[C@@H](O)[C@H]2O)c(-c2ccc(O)c(O)c2)oc2cc(O)cc(O)c12
REMARK SMILES IDX 4 1 3 2 16 3 25 4 2 5 26 6 1 7 33 8 27 9 31 10 28 11 30 12
REMARK SMILES IDX 17 13 18 14 19 15 20 16 24 17 22 18 21 19 23 21 32 23 29 25
REMARK SMILES IDX 5 27 14 28 6 29 12 30 7 31 10 32 15 33 13 35 8 37 9 38 11 40
REMARK H PARENT 21 20 23 22 32 24 29 26 15 34 13 36 9 39 11 41
REMARK Flexibility Score: inf
ROOT
ATOM      1  O   UNL     1      -5.894 -20.990  -6.167  1.00  0.00    -0.454 OA
ENDROOT
BRANCH   1   2
ATOM      2  C   UNL     1      -7.008 -20.270  -6.614  1.00  0.00     0.214 A 
ATOM      3  C   UNL     1      -6.880 -19.118  -7.415  1.00  0.00     0.180 A 
ATOM      4  O   UNL     1      -7.965 -18.426  -7.743  1.00  0.00    -0.452 OA
ATOM      5  C   UNL     1      -8.285 -20.686  -6.219  1.00  0.00     0.239 A 
ATOM      6  C   UNL     1      -9.192 -18.759  -7.361  1.00  0.00     0.146 A 
ATOM      7  O   UNL     1      -8.390 -21.766  -5.580  1.00  0.00    -0.285 OA
ATOM      8  C   UNL     1      -9.418 -19.901  -6.548  1.00  0.00     0.111 A 
ATOM      9  C   UNL     1     -10.260 -17.962  -7.781  1.00  0.00     0.094 A 
ATOM     10  C   UNL     1     -10.754 -20.185  -6.129  1.00  0.00     0.134 A 
ATOM     11  C   UNL     1     -11.565 -18.276  -7.408  1.00  0.00     0.123 A 
ATOM     12  C   UNL     1     -11.806 -19.384  -6.590  1.00  0.00     0.093 A 
BRANCH   3  13
ATOM     13  C   UNL     1      -5.575 -18.633  -7.919  1.00  0.00     0.025 A 
ATOM     14  C   UNL     1      -4.997 -19.151  -9.095  1.00  0.00     0.016 A 
ATOM     15  C   UNL     1      -3.771 -18.657  -9.557  1.00  0.00     0.051 A 
ATOM     16  C   UNL     1      -3.121 -17.622  -8.873  1.00  0.00     0.157 A 
ATOM     17  C   UNL     1      -4.922 -17.588  -7.242  1.00  0.00     0.062 A 
ATOM     18  C   UNL     1      -3.698 -17.084  -7.709  1.00  0.00     0.158 A 
BRANCH  16  19
ATOM     19  O   UNL     1      -1.908 -17.137  -9.368  1.00  0.00    -0.504 OA
ATOM     20  H   UNL     1      -1.390 -17.621 -10.093  1.00  0.00     0.293 HD
ENDBRANCH  16  19
BRANCH  18  21
ATOM     21  O   UNL     1      -3.049 -16.060  -7.016  1.00  0.00    -0.504 OA
ATOM     22  H   UNL     1      -3.201 -15.083  -7.246  1.00  0.00     0.293 HD
ENDBRANCH  18  21
ENDBRANCH   3  13
BRANCH  10  23
ATOM     23  O   UNL     1     -11.095 -21.214  -5.242  1.00  0.00    -0.507 OA
ATOM     24  H   UNL     1     -11.582 -22.060  -5.496  1.00  0.00     0.293 HD
ENDBRANCH  10  23
BRANCH  11  25
ATOM     25  O   UNL     1     -12.617 -17.471  -7.846  1.00  0.00    -0.508 OA
ATOM     26  H   UNL     1     -13.437 -17.866  -8.290  1.00  0.00     0.293 HD
ENDBRANCH  11  25
ENDBRANCH   1   2
BRANCH   1  27
ATOM     27  C   UNL     1      -5.546 -22.255  -6.730  1.00  0.00     0.339 C 
ATOM     28  C   UNL     1      -5.055 -23.218  -5.623  1.00  0.00     0.214 C 
ATOM     29  O   UNL     1      -4.532 -22.067  -7.702  1.00  0.00    -0.332 OA
ATOM     30  C   UNL     1      -4.089 -24.295  -6.202  1.00  0.00     0.180 C 
ATOM     31  C   UNL     1      -4.341 -23.238  -8.495  1.00  0.00     0.179 C 
ATOM     32  C   UNL     1      -4.417 -24.572  -7.682  1.00  0.00     0.177 C 
BRANCH  28  33
ATOM     33  O   UNL     1      -4.430 -22.493  -4.593  1.00  0.00    -0.384 OA
ATOM     34  H   UNL     1      -3.524 -22.247  -4.925  1.00  0.00     0.211 HD
ENDBRANCH  28  33
BRANCH  30  35
ATOM     35  O   UNL     1      -2.749 -23.862  -6.107  1.00  0.00    -0.387 OA
ATOM     36  H   UNL     1      -2.177 -24.672  -6.177  1.00  0.00     0.211 HD
ENDBRANCH  30  35
BRANCH  31  37
ATOM     37  C   UNL     1      -5.259 -23.218  -9.733  1.00  0.00     0.191 C 
BRANCH  37  38
ATOM     38  O   UNL     1      -5.058 -24.368 -10.514  1.00  0.00    -0.394 OA
ATOM     39  H   UNL     1      -5.562 -24.233 -11.361  1.00  0.00     0.210 HD
ENDBRANCH  37  38
ENDBRANCH  31  37
BRANCH  32  40
ATOM     40  O   UNL     1      -5.699 -25.150  -7.778  1.00  0.00    -0.387 OA
ATOM     41  H   UNL     1      -5.949 -25.147  -8.741  1.00  0.00     0.211 HD
ENDBRANCH  32  40
ENDBRANCH   1  27
TORSDOF 12
ENDMDL
MODEL 8
REMARK VINA RESULT:    -5.819      1.180      1.985
REMARK INTER + INTRA:          -9.435
REMARK INTER:                  -8.414
REMARK INTRA:                  -1.021
REMARK UNBOUND:                -0.894
REMARK SMILES O=c1c(O[C@H]2O[C@H](CO)[C@H](O)[C@@H](O)[C@H]2O)c(-c2ccc(O)c(O)c2)oc2cc(O)cc(O)c12
REMARK SMILES IDX 4 1 3 2 16 3 25 4 2 5 26 6 1 7 33 8 27 9 31 10 28 11 30 12
REMARK SMILES IDX 17 13 18 14 19 15 20 16 24 17 22 18 21 19 23 21 32 23 29 25
REMARK SMILES IDX 5 27 14 28 6 29 12 30 7 31 10 32 15 33 13 35 8 37 9 38 11 40
REMARK H PARENT 21 20 23 22 32 24 29 26 15 34 13 36 9 39 11 41
REMARK Flexibility Score: inf
ROOT
ATOM      1  O   UNL     1      -6.441 -19.507  -7.930  1.00  0.00    -0.454 OA
ENDROOT
BRANCH   1   2
ATOM      2  C   UNL     1      -7.615 -19.800  -7.226  1.00  0.00     0.214 A 
ATOM      3  C   UNL     1      -7.686 -20.863  -6.305  1.00  0.00     0.180 A 
ATOM      4  O   UNL     1      -8.847 -21.149  -5.725  1.00  0.00    -0.452 OA
ATOM      5  C   UNL     1      -8.762 -19.037  -7.476  1.00  0.00     0.239 A 
ATOM      6  C   UNL     1      -9.969 -20.479  -5.959  1.00  0.00     0.146 A 
ATOM      7  O   UNL     1      -8.659 -18.035  -8.232  1.00  0.00    -0.285 OA
ATOM      8  C   UNL     1      -9.994 -19.395  -6.876  1.00  0.00     0.111 A 
ATOM      9  C   UNL     1     -11.128 -20.862  -5.277  1.00  0.00     0.094 A 
ATOM     10  C   UNL     1     -11.239 -18.740  -7.122  1.00  0.00     0.134 A 
ATOM     11  C   UNL     1     -12.327 -20.184  -5.488  1.00  0.00     0.123 A 
ATOM     12  C   UNL     1     -12.377 -19.128  -6.403  1.00  0.00     0.093 A 
BRANCH   3  13
ATOM     13  C   UNL     1      -6.513 -21.691  -5.943  1.00  0.00     0.025 A 
ATOM     14  C   UNL     1      -6.529 -23.094  -6.075  1.00  0.00     0.016 A 
ATOM     15  C   UNL     1      -5.397 -23.848  -5.743  1.00  0.00     0.051 A 
ATOM     16  C   UNL     1      -4.227 -23.215  -5.306  1.00  0.00     0.157 A 
ATOM     17  C   UNL     1      -5.333 -21.060  -5.513  1.00  0.00     0.062 A 
ATOM     18  C   UNL     1      -4.193 -21.813  -5.189  1.00  0.00     0.158 A 
BRANCH  16  19
ATOM     19  O   UNL     1      -3.107 -23.992  -5.000  1.00  0.00    -0.504 OA
ATOM     20  H   UNL     1      -3.046 -24.536  -4.146  1.00  0.00     0.293 HD
ENDBRANCH  16  19
BRANCH  18  21
ATOM     21  O   UNL     1      -3.033 -21.177  -4.744  1.00  0.00    -0.504 OA
ATOM     22  H   UNL     1      -2.995 -20.708  -3.845  1.00  0.00     0.293 HD
ENDBRANCH  18  21
ENDBRANCH   3  13
BRANCH  10  23
ATOM     23  O   UNL     1     -11.419 -17.733  -8.078  1.00  0.00    -0.507 OA
ATOM     24  H   UNL     1     -10.867 -16.892  -8.144  1.00  0.00     0.293 HD
ENDBRANCH  10  23
BRANCH  11  25
ATOM     25  O   UNL     1     -13.469 -20.578  -4.791  1.00  0.00    -0.508 OA
ATOM     26  H   UNL     1     -13.875 -19.996  -4.068  1.00  0.00     0.293 HD
ENDBRANCH  11  25
ENDBRANCH   1   2
BRANCH   1  27
ATOM     27  C   UNL     1      -6.013 -20.305  -9.034  1.00  0.00     0.339 C 
ATOM     28  C   UNL     1      -5.896 -19.437 -10.310  1.00  0.00     0.214 C 
ATOM     29  O   UNL     1      -6.945 -21.352  -9.238  1.00  0.00    -0.332 OA
ATOM     30  C   UNL     1      -6.086 -20.297 -11.595  1.00  0.00     0.180 C 
ATOM     31  C   UNL     1      -6.438 -22.341 -10.133  1.00  0.00     0.179 C 
ATOM     32  C   UNL     1      -5.639 -21.749 -11.341  1.00  0.00     0.177 C 
BRANCH  28  33
ATOM     33  O   UNL     1      -6.833 -18.389 -10.271  1.00  0.00    -0.384 OA
ATOM     34  H   UNL     1      -7.732 -18.806 -10.360  1.00  0.00     0.211 HD
ENDBRANCH  28  33
BRANCH  30  35
ATOM     35  O   UNL     1      -7.440 -20.301 -11.994  1.00  0.00    -0.387 OA
ATOM     36  H   UNL     1      -7.921 -19.677 -11.389  1.00  0.00     0.211 HD
ENDBRANCH  30  35
BRANCH  31  37
ATOM     37  C   UNL     1      -5.672 -23.436  -9.364  1.00  0.00     0.191 C 
BRANCH  37  38
ATOM     38  O   UNL     1      -6.448 -24.602  -9.265  1.00  0.00    -0.394 OA
ATOM     39  H   UNL     1      -6.104 -25.112  -8.483  1.00  0.00     0.210 HD
ENDBRANCH  37  38
ENDBRANCH  31  37
BRANCH  32  40
ATOM     40  O   UNL     1      -4.252 -21.778 -11.092  1.00  0.00    -0.387 OA
ATOM     41  H   UNL     1      -4.119 -22.274 -10.239  1.00  0.00     0.211 HD
ENDBRANCH  32  40
ENDBRANCH   1  27
TORSDOF 12
ENDMDL
MODEL 9
REMARK VINA RESULT:    -5.723      1.971      6.436
REMARK INTER + INTRA:          -9.294
REMARK INTER:                  -8.137
REMARK INTRA:                  -1.157
REMARK UNBOUND:                -0.894
REMARK SMILES O=c1c(O[C@H]2O[C@H](CO)[C@H](O)[C@@H](O)[C@H]2O)c(-c2ccc(O)c(O)c2)oc2cc(O)cc(O)c12
REMARK SMILES IDX 4 1 3 2 16 3 25 4 2 5 26 6 1 7 33 8 27 9 31 10 28 11 30 12
REMARK SMILES IDX 17 13 18 14 19 15 20 16 24 17 22 18 21 19 23 21 32 23 29 25
REMARK SMILES IDX 5 27 14 28 6 29 12 30 7 31 10 32 15 33 13 35 8 37 9 38 11 40
REMARK H PARENT 21 20 23 22 32 24 29 26 15 34 13 36 9 39 11 41
REMARK Flexibility Score: inf
ROOT
ATOM      1  O   UNL     1      -6.696 -18.359  -7.485  1.00  0.00    -0.454 OA
ENDROOT
BRANCH   1   2
ATOM      2  C   UNL     1      -6.756 -19.337  -8.485  1.00  0.00     0.214 A 
ATOM      3  C   UNL     1      -7.766 -20.319  -8.508  1.00  0.00     0.180 A 
ATOM      4  O   UNL     1      -7.730 -21.272  -9.433  1.00  0.00    -0.452 OA
ATOM      5  C   UNL     1      -5.760 -19.362  -9.468  1.00  0.00     0.239 A 
ATOM      6  C   UNL     1      -6.785 -21.359 -10.361  1.00  0.00     0.146 A 
ATOM      7  O   UNL     1      -4.918 -18.426  -9.488  1.00  0.00    -0.285 OA
ATOM      8  C   UNL     1      -5.724 -20.417 -10.413  1.00  0.00     0.111 A 
ATOM      9  C   UNL     1      -6.859 -22.399 -11.292  1.00  0.00     0.094 A 
ATOM     10  C   UNL     1      -4.710 -20.586 -11.405  1.00  0.00     0.134 A 
ATOM     11  C   UNL     1      -5.893 -22.527 -12.287  1.00  0.00     0.123 A 
ATOM     12  C   UNL     1      -4.828 -21.621 -12.341  1.00  0.00     0.093 A 
BRANCH   3  13
ATOM     13  C   UNL     1      -8.886 -20.341  -7.539  1.00  0.00     0.025 A 
ATOM     14  C   UNL     1      -8.679 -20.634  -6.177  1.00  0.00     0.016 A 
ATOM     15  C   UNL     1      -9.755 -20.628  -5.281  1.00  0.00     0.051 A 
ATOM     16  C   UNL     1     -11.043 -20.301  -5.723  1.00  0.00     0.157 A 
ATOM     17  C   UNL     1     -10.179 -20.005  -7.975  1.00  0.00     0.062 A 
ATOM     18  C   UNL     1     -11.258 -19.988  -7.077  1.00  0.00     0.158 A 
BRANCH  16  19
ATOM     19  O   UNL     1     -12.094 -20.285  -4.803  1.00  0.00    -0.504 OA
ATOM     20  H   UNL     1     -12.135 -20.929  -4.021  1.00  0.00     0.293 HD
ENDBRANCH  16  19
BRANCH  18  21
ATOM     21  O   UNL     1     -12.542 -19.672  -7.527  1.00  0.00    -0.504 OA
ATOM     22  H   UNL     1     -12.726 -19.453  -8.500  1.00  0.00     0.293 HD
ENDBRANCH  18  21
ENDBRANCH   3  13
BRANCH  10  23
ATOM     23  O   UNL     1      -3.560 -19.793 -11.493  1.00  0.00    -0.507 OA
ATOM     24  H   UNL     1      -3.532 -18.852 -11.854  1.00  0.00     0.293 HD
ENDBRANCH  10  23
BRANCH  11  25
ATOM     25  O   UNL     1      -5.991 -23.567 -13.211  1.00  0.00    -0.508 OA
ATOM     26  H   UNL     1      -5.311 -24.317 -13.238  1.00  0.00     0.293 HD
ENDBRANCH  11  25
ENDBRANCH   1   2
BRANCH   1  27
ATOM     27  C   UNL     1      -5.773 -18.457  -6.399  1.00  0.00     0.339 C 
ATOM     28  C   UNL     1      -4.953 -17.151  -6.275  1.00  0.00     0.214 C 
ATOM     29  O   UNL     1      -4.910 -19.558  -6.622  1.00  0.00    -0.332 OA
ATOM     30  C   UNL     1      -3.568 -17.417  -5.611  1.00  0.00     0.180 C 
ATOM     31  C   UNL     1      -4.156 -19.880  -5.454  1.00  0.00     0.179 C 
ATOM     32  C   UNL     1      -3.650 -18.629  -4.664  1.00  0.00     0.177 C 
BRANCH  28  33
ATOM     33  O   UNL     1      -4.790 -16.557  -7.540  1.00  0.00    -0.384 OA
ATOM     34  H   UNL     1      -4.682 -15.580  -7.385  1.00  0.00     0.211 HD
ENDBRANCH  28  33
BRANCH  30  35
ATOM     35  O   UNL     1      -2.588 -17.673  -6.593  1.00  0.00    -0.387 OA
ATOM     36  H   UNL     1      -2.361 -18.638  -6.532  1.00  0.00     0.211 HD
ENDBRANCH  30  35
BRANCH  31  37
ATOM     37  C   UNL     1      -4.911 -20.899  -4.578  1.00  0.00     0.191 C 
BRANCH  37  38
ATOM     38  O   UNL     1      -4.250 -21.078  -3.352  1.00  0.00    -0.394 OA
ATOM     39  H   UNL     1      -3.615 -20.319  -3.253  1.00  0.00     0.210 HD
ENDBRANCH  37  38
ENDBRANCH  31  37
BRANCH  32  40
ATOM     40  O   UNL     1      -4.512 -18.328  -3.590  1.00  0.00    -0.387 OA
ATOM     41  H   UNL     1      -5.442 -18.473  -3.912  1.00  0.00     0.211 HD
ENDBRANCH  32  40
ENDBRANCH   1  27
TORSDOF 12
ENDMDL
