MODEL 1
REMARK VINA RESULT:    -3.728      0.000      0.000
REMARK INTER + INTRA:          -4.400
REMARK INTER:                  -4.382
REMARK INTRA:                  -0.018
REMARK UNBOUND:                -0.018
REMARK SMILES CCCCC(=O)[O-]
REMARK SMILES IDX 4 1 5 2 6 3 7 4 3 5 2 6 1 7
REMARK H PARENT
REMARK Flexibility Score: inf
ROOT
ATOM      1  C   UNL     1       7.753   9.694   2.868  1.00  0.00     0.053 C 
ENDROOT
BRANCH   1   2
ATOM      2  C   UNL     1       8.962   8.909   2.457  1.00  0.00     0.041 C 
ATOM      3  O   UNL     1       9.921   9.481   1.875  1.00  0.00    -0.550 OA
ATOM      4  O   UNL     1       9.042   7.554   2.748  1.00  0.00    -0.550 OA
ENDBRANCH   1   2
BRANCH   1   5
ATOM      5  C   UNL     1       6.511   8.802   2.998  1.00  0.00     0.006 C 
BRANCH   5   6
ATOM      6  C   UNL     1       5.216   9.559   2.670  1.00  0.00    -0.003 C 
ATOM      7  C   UNL     1       4.275   8.700   1.831  1.00  0.00     0.004 C 
ENDBRANCH   5   6
ENDBRANCH   1   5
TORSDOF 3
ENDMDL
MODEL 2
REMARK VINA RESULT:    -3.576      3.000      4.091
REMARK INTER + INTRA:          -4.222
REMARK INTER:                  -4.199
REMARK INTRA:                  -0.022
REMARK UNBOUND:                -0.018
REMARK SMILES CCCCC(=O)[O-]
REMARK SMILES IDX 4 1 5 2 6 3 7 4 3 5 2 6 1 7
REMARK H PARENT
REMARK Flexibility Score: inf
ROOT
ATOM      1  C   UNL     1       6.228   9.535   1.905  1.00  0.00     0.053 C 
ENDROOT
BRANCH   1   2
ATOM      2  C   UNL     1       4.838   9.233   2.377  1.00  0.00     0.041 C 
ATOM      3  O   UNL     1       4.378   9.807   3.399  1.00  0.00    -0.550 OA
ATOM      4  O   UNL     1       4.041   8.343   1.669  1.00  0.00    -0.550 OA
ENDBRANCH   1   2
BRANCH   1   5
ATOM      5  C   UNL     1       7.231   9.561   3.066  1.00  0.00     0.006 C 
BRANCH   5   6
ATOM      6  C   UNL     1       8.683   9.455   2.580  1.00  0.00    -0.003 C 
ATOM      7  C   UNL     1       9.066   8.005   2.299  1.00  0.00     0.004 C 
ENDBRANCH   5   6
ENDBRANCH   1   5
TORSDOF 3
ENDMDL
MODEL 3
REMARK VINA RESULT:    -3.506      1.650      2.308
REMARK INTER + INTRA:          -4.139
REMARK INTER:                  -4.105
REMARK INTRA:                  -0.034
REMARK UNBOUND:                -0.018
REMARK SMILES CCCCC(=O)[O-]
REMARK SMILES IDX 4 1 5 2 6 3 7 4 3 5 2 6 1 7
REMARK H PARENT
REMARK Flexibility Score: inf
ROOT
ATOM      1  C   UNL     1       6.135   9.503   2.114  1.00  0.00     0.053 C 
ENDROOT
BRANCH   1   2
ATOM      2  C   UNL     1       7.065   9.219   3.255  1.00  0.00     0.041 C 
ATOM      3  O   UNL     1       6.712   9.470   4.437  1.00  0.00    -0.550 OA
ATOM      4  O   UNL     1       8.306   8.645   3.015  1.00  0.00    -0.550 OA
ENDBRANCH   1   2
BRANCH   1   5
ATOM      5  C   UNL     1       4.664   9.408   2.541  1.00  0.00     0.006 C 
BRANCH   5   6
ATOM      6  C   UNL     1       3.834   8.552   1.575  1.00  0.00    -0.003 C 
ATOM      7  C   UNL     1       4.160   8.888   0.122  1.00  0.00     0.004 C 
ENDBRANCH   5   6
ENDBRANCH   1   5
TORSDOF 3
ENDMDL
MODEL 4
REMARK VINA RESULT:    -3.174     22.908     23.516
REMARK INTER + INTRA:          -3.748
REMARK INTER:                  -3.666
REMARK INTRA:                  -0.083
REMARK UNBOUND:                -0.018
REMARK SMILES CCCCC(=O)[O-]
REMARK SMILES IDX 4 1 5 2 6 3 7 4 3 5 2 6 1 7
REMARK H PARENT
REMARK Flexibility Score: inf
ROOT
ATOM      1  C   UNL     1      -7.919  -7.755  -5.264  1.00  0.00     0.053 C 
ENDROOT
BRANCH   1   2
ATOM      2  C   UNL     1      -8.490  -6.694  -4.373  1.00  0.00     0.041 C 
ATOM      3  O   UNL     1      -8.148  -5.491  -4.521  1.00  0.00    -0.550 OA
ATOM      4  O   UNL     1      -9.424  -7.030  -3.402  1.00  0.00    -0.550 OA
ENDBRANCH   1   2
BRANCH   1   5
ATOM      5  C   UNL     1      -6.472  -8.098  -4.886  1.00  0.00     0.006 C 
BRANCH   5   6
ATOM      6  C   UNL     1      -5.502  -7.896  -6.059  1.00  0.00    -0.003 C 
ATOM      7  C   UNL     1      -6.258  -7.707  -7.371  1.00  0.00     0.004 C 
ENDBRANCH   5   6
ENDBRANCH   1   5
TORSDOF 3
ENDMDL
MODEL 5
REMARK VINA RESULT:    -3.120     23.175     23.733
REMARK INTER + INTRA:          -3.685
REMARK INTER:                  -3.669
REMARK INTRA:                  -0.016
REMARK UNBOUND:                -0.018
REMARK SMILES CCCCC(=O)[O-]
REMARK SMILES IDX 4 1 5 2 6 3 7 4 3 5 2 6 1 7
REMARK H PARENT
REMARK Flexibility Score: inf
ROOT
ATOM      1  C   UNL     1      -8.112  -7.738  -5.156  1.00  0.00     0.053 C 
ENDROOT
BRANCH   1   2
ATOM      2  C   UNL     1      -9.027  -6.793  -4.438  1.00  0.00     0.041 C 
ATOM      3  O   UNL     1      -9.353  -7.014  -3.242  1.00  0.00    -0.550 OA
ATOM      4  O   UNL     1      -9.491  -5.652  -5.079  1.00  0.00    -0.550 OA
ENDBRANCH   1   2
BRANCH   1   5
ATOM      5  C   UNL     1      -6.671  -7.210  -5.204  1.00  0.00     0.006 C 
BRANCH   5   6
ATOM      6  C   UNL     1      -5.743  -8.129  -6.009  1.00  0.00    -0.003 C 
ATOM      7  C   UNL     1      -5.598  -7.641  -7.448  1.00  0.00     0.004 C 
ENDBRANCH   5   6
ENDBRANCH   1   5
TORSDOF 3
ENDMDL
MODEL 6
REMARK VINA RESULT:    -3.076     22.944     23.691
REMARK INTER + INTRA:          -3.633
REMARK INTER:                  -3.563
REMARK INTRA:                  -0.070
REMARK UNBOUND:                -0.018
REMARK SMILES CCCCC(=O)[O-]
REMARK SMILES IDX 4 1 5 2 6 3 7 4 3 5 2 6 1 7
REMARK H PARENT
REMARK Flexibility Score: inf
ROOT
ATOM      1  C   UNL     1      -8.006  -7.632  -5.370  1.00  0.00     0.053 C 
ENDROOT
BRANCH   1   2
ATOM      2  C   UNL     1      -8.537  -6.647  -4.372  1.00  0.00     0.041 C 
ATOM      3  O   UNL     1      -9.303  -7.031  -3.450  1.00  0.00    -0.550 OA
ATOM      4  O   UNL     1      -8.158  -5.313  -4.442  1.00  0.00    -0.550 OA
ENDBRANCH   1   2
BRANCH   1   5
ATOM      5  C   UNL     1      -6.472  -7.634  -5.407  1.00  0.00     0.006 C 
BRANCH   5   6
ATOM      6  C   UNL     1      -5.872  -8.750  -4.540  1.00  0.00    -0.003 C 
ATOM      7  C   UNL     1      -6.511 -10.099  -4.860  1.00  0.00     0.004 C 
ENDBRANCH   5   6
ENDBRANCH   1   5
TORSDOF 3
ENDMDL
MODEL 7
REMARK VINA RESULT:    -2.800     23.350     23.858
REMARK INTER + INTRA:          -3.309
REMARK INTER:                  -3.275
REMARK INTRA:                  -0.033
REMARK UNBOUND:                -0.018
REMARK SMILES CCCCC(=O)[O-]
REMARK SMILES IDX 4 1 5 2 6 3 7 4 3 5 2 6 1 7
REMARK H PARENT
REMARK Flexibility Score: inf
ROOT
ATOM      1  C   UNL     1      -7.270  -7.723  -6.354  1.00  0.00     0.053 C 
ENDROOT
BRANCH   1   2
ATOM      2  C   UNL     1      -7.604  -8.228  -4.983  1.00  0.00     0.041 C 
ATOM      3  O   UNL     1      -8.573  -7.738  -4.346  1.00  0.00    -0.550 OA
ATOM      4  O   UNL     1      -6.865  -9.263  -4.424  1.00  0.00    -0.550 OA
ENDBRANCH   1   2
BRANCH   1   5
ATOM      5  C   UNL     1      -5.755  -7.600  -6.563  1.00  0.00     0.006 C 
BRANCH   5   6
ATOM      6  C   UNL     1      -5.310  -8.151  -7.925  1.00  0.00    -0.003 C 
ATOM      7  C   UNL     1      -4.169  -7.322  -8.508  1.00  0.00     0.004 C 
ENDBRANCH   5   6
ENDBRANCH   1   5
TORSDOF 3
ENDMDL
MODEL 8
REMARK VINA RESULT:    -2.776     23.197     23.729
REMARK INTER + INTRA:          -3.281
REMARK INTER:                  -3.187
REMARK INTRA:                  -0.094
REMARK UNBOUND:                -0.018
REMARK SMILES CCCCC(=O)[O-]
REMARK SMILES IDX 4 1 5 2 6 3 7 4 3 5 2 6 1 7
REMARK H PARENT
REMARK Flexibility Score: inf
ROOT
ATOM      1  C   UNL     1      -6.634  -7.866  -5.523  1.00  0.00     0.053 C 
ENDROOT
BRANCH   1   2
ATOM      2  C   UNL     1      -6.499  -7.728  -7.009  1.00  0.00     0.041 C 
ATOM      3  O   UNL     1      -7.512  -7.834  -7.749  1.00  0.00    -0.550 OA
ATOM      4  O   UNL     1      -5.260  -7.450  -7.571  1.00  0.00    -0.550 OA
ENDBRANCH   1   2
BRANCH   1   5
ATOM      5  C   UNL     1      -8.105  -7.878  -5.084  1.00  0.00     0.006 C 
BRANCH   5   6
ATOM      6  C   UNL     1      -8.539  -6.538  -4.473  1.00  0.00    -0.003 C 
ATOM      7  C   UNL     1      -9.746  -5.964  -5.208  1.00  0.00     0.004 C 
ENDBRANCH   5   6
ENDBRANCH   1   5
TORSDOF 3
ENDMDL
MODEL 9
REMARK VINA RESULT:    -2.756     22.692     24.040
REMARK INTER + INTRA:          -3.258
REMARK INTER:                  -3.162
REMARK INTRA:                  -0.096
REMARK UNBOUND:                -0.018
REMARK SMILES CCCCC(=O)[O-]
REMARK SMILES IDX 4 1 5 2 6 3 7 4 3 5 2 6 1 7
REMARK H PARENT
REMARK Flexibility Score: inf
ROOT
ATOM      1  C   UNL     1      -7.487  -7.941  -5.996  1.00  0.00     0.053 C 
ENDROOT
BRANCH   1   2
ATOM      2  C   UNL     1      -7.018  -8.976  -5.019  1.00  0.00     0.041 C 
ATOM      3  O   UNL     1      -7.534 -10.125  -5.017  1.00  0.00    -0.550 OA
ATOM      4  O   UNL     1      -5.989  -8.682  -4.135  1.00  0.00    -0.550 OA
ENDBRANCH   1   2
BRANCH   1   5
ATOM      5  C   UNL     1      -8.982  -7.637  -5.830  1.00  0.00     0.006 C 
BRANCH   5   6
ATOM      6  C   UNL     1      -9.262  -6.759  -4.603  1.00  0.00    -0.003 C 
ATOM      7  C   UNL     1      -8.255  -5.618  -4.500  1.00  0.00     0.004 C 
ENDBRANCH   5   6
ENDBRANCH   1   5
TORSDOF 3
ENDMDL
