MODEL 1
REMARK VINA RESULT:     4.281      0.000      0.000
REMARK INTER + INTRA:           6.114
REMARK INTER:                   6.283
REMARK INTRA:                  -0.169
REMARK UNBOUND:                -0.169
REMARK SMILES O=C([O-])CCCCCCCC(=O)[O-]
REMARK SMILES IDX 7 1 6 2 5 3 4 4 2 5 1 6 3 7 8 8 9 9 10 10 11 11 12 12 13 13
REMARK H PARENT
REMARK Flexibility Score: inf
ROOT
ATOM      1  C   UNL     1     -34.958  15.555  16.980  1.00  0.00     0.000 C 
ENDROOT
BRANCH   1   2
ATOM      2  C   UNL     1     -34.393  14.383  17.797  1.00  0.00     0.000 C 
BRANCH   2   3
ATOM      3  C   UNL     1     -33.749  13.301  16.915  1.00  0.00     0.006 C 
BRANCH   3   4
ATOM      4  C   UNL     1     -33.761  11.917  17.575  1.00  0.00     0.053 C 
BRANCH   4   5
ATOM      5  C   UNL     1     -32.966  11.935  18.842  1.00  0.00     0.041 C 
ATOM      6  O   UNL     1     -31.746  12.247  18.821  1.00  0.00    -0.550 OA
ATOM      7  O   UNL     1     -33.584  11.659  20.054  1.00  0.00    -0.550 OA
ENDBRANCH   4   5
ENDBRANCH   3   4
ENDBRANCH   2   3
ENDBRANCH   1   2
BRANCH   1   8
ATOM      8  C   UNL     1     -35.184  16.785  17.868  1.00  0.00     0.000 C 
BRANCH   8   9
ATOM      9  C   UNL     1     -36.671  16.961  18.196  1.00  0.00     0.006 C 
BRANCH   9  10
ATOM     10  C   UNL     1     -37.467  15.707  17.826  1.00  0.00     0.053 C 
BRANCH  10  11
ATOM     11  C   UNL     1     -38.800  15.713  18.505  1.00  0.00     0.041 C 
ATOM     12  O   UNL     1     -38.975  15.054  19.563  1.00  0.00    -0.550 OA
ATOM     13  O   UNL     1     -39.864  16.408  17.943  1.00  0.00    -0.550 OA
ENDBRANCH  10  11
ENDBRANCH   9  10
ENDBRANCH   8   9
ENDBRANCH   1   8
TORSDOF 8
ENDMDL
MODEL 2
REMARK VINA RESULT:     4.410      0.052      5.996
REMARK INTER + INTRA:           6.304
REMARK INTER:                   6.503
REMARK INTRA:                  -0.199
REMARK UNBOUND:                -0.169
REMARK SMILES O=C([O-])CCCCCCCC(=O)[O-]
REMARK SMILES IDX 7 1 6 2 5 3 4 4 2 5 1 6 3 7 8 8 9 9 10 10 11 11 12 12 13 13
REMARK H PARENT
REMARK Flexibility Score: inf
ROOT
ATOM      1  C   UNL     1     -34.920  15.560  16.972  1.00  0.00     0.000 C 
ENDROOT
BRANCH   1   2
ATOM      2  C   UNL     1     -35.207  16.781  17.859  1.00  0.00     0.000 C 
BRANCH   2   3
ATOM      3  C   UNL     1     -36.701  16.935  18.189  1.00  0.00     0.006 C 
BRANCH   3   4
ATOM      4  C   UNL     1     -37.523  15.701  17.796  1.00  0.00     0.053 C 
BRANCH   4   5
ATOM      5  C   UNL     1     -38.833  15.695  18.519  1.00  0.00     0.041 C 
ATOM      6  O   UNL     1     -38.945  15.097  19.622  1.00  0.00    -0.550 OA
ATOM      7  O   UNL     1     -39.917  16.392  18.001  1.00  0.00    -0.550 OA
ENDBRANCH   4   5
ENDBRANCH   3   4
ENDBRANCH   2   3
ENDBRANCH   1   2
BRANCH   1   8
ATOM      8  C   UNL     1     -34.402  14.384  17.809  1.00  0.00     0.000 C 
BRANCH   8   9
ATOM      9  C   UNL     1     -33.707  13.343  16.924  1.00  0.00     0.006 C 
BRANCH   9  10
ATOM     10  C   UNL     1     -33.747  11.956  17.572  1.00  0.00     0.053 C 
BRANCH  10  11
ATOM     11  C   UNL     1     -32.985  11.957  18.859  1.00  0.00     0.041 C 
ATOM     12  O   UNL     1     -31.754  12.222  18.866  1.00  0.00    -0.550 OA
ATOM     13  O   UNL     1     -33.623  11.618  20.046  1.00  0.00    -0.550 OA
ENDBRANCH  10  11
ENDBRANCH   9  10
ENDBRANCH   8   9
ENDBRANCH   1   8
TORSDOF 8
ENDMDL
MODEL 3
REMARK VINA RESULT:     4.440      2.045      5.778
REMARK INTER + INTRA:           6.347
REMARK INTER:                   6.743
REMARK INTRA:                  -0.396
REMARK UNBOUND:                -0.169
REMARK SMILES O=C([O-])CCCCCCCC(=O)[O-]
REMARK SMILES IDX 7 1 6 2 5 3 4 4 2 5 1 6 3 7 8 8 9 9 10 10 11 11 12 12 13 13
REMARK H PARENT
REMARK Flexibility Score: inf
ROOT
ATOM      1  C   UNL     1     -33.895  12.337  17.178  1.00  0.00     0.000 C 
ENDROOT
BRANCH   1   2
ATOM      2  C   UNL     1     -34.094  13.742  16.591  1.00  0.00     0.000 C 
BRANCH   2   3
ATOM      3  C   UNL     1     -34.844  14.683  17.548  1.00  0.00     0.006 C 
BRANCH   3   4
ATOM      4  C   UNL     1     -35.157  16.044  16.913  1.00  0.00     0.053 C 
BRANCH   4   5
ATOM      5  C   UNL     1     -35.782  16.958  17.919  1.00  0.00     0.041 C 
ATOM      6  O   UNL     1     -35.117  17.907  18.413  1.00  0.00    -0.550 OA
ATOM      7  O   UNL     1     -37.115  16.794  18.274  1.00  0.00    -0.550 OA
ENDBRANCH   4   5
ENDBRANCH   3   4
ENDBRANCH   2   3
ENDBRANCH   1   2
BRANCH   1   8
ATOM      8  C   UNL     1     -32.489  12.184  17.772  1.00  0.00     0.000 C 
BRANCH   8   9
ATOM      9  C   UNL     1     -32.548  11.556  19.170  1.00  0.00     0.006 C 
BRANCH   9  10
ATOM     10  C   UNL     1     -33.666  12.184  20.007  1.00  0.00     0.053 C 
BRANCH  10  11
ATOM     11  C   UNL     1     -34.054  11.273  21.128  1.00  0.00     0.041 C 
ATOM     12  O   UNL     1     -34.187  10.038  20.925  1.00  0.00    -0.550 OA
ATOM     13  O   UNL     1     -34.318  11.795  22.389  1.00  0.00    -0.550 OA
ENDBRANCH  10  11
ENDBRANCH   9  10
ENDBRANCH   8   9
ENDBRANCH   1   8
TORSDOF 8
ENDMDL
MODEL 4
REMARK VINA RESULT:     4.622      2.089      3.234
REMARK INTER + INTRA:           6.615
REMARK INTER:                   7.013
REMARK INTRA:                  -0.398
REMARK UNBOUND:                -0.169
REMARK SMILES O=C([O-])CCCCCCCC(=O)[O-]
REMARK SMILES IDX 7 1 6 2 5 3 4 4 2 5 1 6 3 7 8 8 9 9 10 10 11 11 12 12 13 13
REMARK H PARENT
REMARK Flexibility Score: inf
ROOT
ATOM      1  C   UNL     1     -34.005  12.328  17.129  1.00  0.00     0.000 C 
ENDROOT
BRANCH   1   2
ATOM      2  C   UNL     1     -32.633  12.276  17.817  1.00  0.00     0.000 C 
BRANCH   2   3
ATOM      3  C   UNL     1     -32.691  11.620  19.206  1.00  0.00     0.006 C 
BRANCH   3   4
ATOM      4  C   UNL     1     -33.722  12.282  20.129  1.00  0.00     0.053 C 
BRANCH   4   5
ATOM      5  C   UNL     1     -34.130  11.340  21.217  1.00  0.00     0.041 C 
ATOM      6  O   UNL     1     -34.170  10.100  21.000  1.00  0.00    -0.550 OA
ATOM      7  O   UNL     1     -34.415  11.825  22.487  1.00  0.00    -0.550 OA
ENDBRANCH   4   5
ENDBRANCH   3   4
ENDBRANCH   2   3
ENDBRANCH   1   2
BRANCH   1   8
ATOM      8  C   UNL     1     -34.260  13.710  16.516  1.00  0.00     0.000 C 
BRANCH   8   9
ATOM      9  C   UNL     1     -34.750  14.702  17.577  1.00  0.00     0.006 C 
BRANCH   9  10
ATOM     10  C   UNL     1     -35.169  16.028  16.938  1.00  0.00     0.053 C 
BRANCH  10  11
ATOM     11  C   UNL     1     -35.806  16.922  17.955  1.00  0.00     0.041 C 
ATOM     12  O   UNL     1     -36.994  16.722  18.319  1.00  0.00    -0.550 OA
ATOM     13  O   UNL     1     -35.103  18.006  18.466  1.00  0.00    -0.550 OA
ENDBRANCH  10  11
ENDBRANCH   9  10
ENDBRANCH   8   9
ENDBRANCH   1   8
TORSDOF 8
ENDMDL
