MODEL 1
REMARK VINA RESULT:    -3.753      0.000      0.000
REMARK INTER + INTRA:          -4.726
REMARK INTER:                  -4.411
REMARK INTRA:                  -0.315
REMARK UNBOUND:                -0.315
REMARK SMILES O=c1c(O)c(-c2ccc(O)c(O)c2)oc2cc(O)ccc12
REMARK SMILES IDX 5 1 3 2 2 3 1 4 21 5 15 6 14 7 16 8 17 9 19 10 20 11 6 12
REMARK SMILES IDX 7 13 8 14 9 15 13 16 11 17 10 18 12 20 4 22 18 24
REMARK H PARENT 10 19 12 21 4 23 18 25
REMARK Flexibility Score: inf
ROOT
ATOM      1  C   UNL     1      24.151  18.713  -7.001  1.00  0.00     0.180 A 
ATOM      2  C   UNL     1      23.274  19.475  -7.802  1.00  0.00     0.208 A 
ATOM      3  C   UNL     1      22.722  20.651  -7.270  1.00  0.00     0.235 A 
ATOM      4  O   UNL     1      21.927  21.344  -7.962  1.00  0.00    -0.285 OA
ATOM      5  C   UNL     1      23.068  21.049  -5.969  1.00  0.00     0.069 A 
ATOM      6  C   UNL     1      23.971  20.244  -5.240  1.00  0.00     0.142 A 
ATOM      7  O   UNL     1      24.465  19.134  -5.777  1.00  0.00    -0.452 OA
ATOM      8  C   UNL     1      24.348  20.611  -3.944  1.00  0.00     0.094 A 
ATOM      9  C   UNL     1      23.833  21.775  -3.363  1.00  0.00     0.119 A 
ATOM     10  C   UNL     1      22.936  22.576  -4.082  1.00  0.00     0.047 A 
ATOM     11  C   UNL     1      22.553  22.218  -5.379  1.00  0.00     0.020 A 
ENDROOT
BRANCH   1  12
ATOM     12  C   UNL     1      24.760  17.453  -7.484  1.00  0.00     0.025 A 
ATOM     13  C   UNL     1      26.007  17.444  -8.128  1.00  0.00     0.016 A 
ATOM     14  C   UNL     1      26.550  16.244  -8.596  1.00  0.00     0.051 A 
ATOM     15  C   UNL     1      25.857  15.039  -8.443  1.00  0.00     0.157 A 
ATOM     16  C   UNL     1      24.053  16.248  -7.349  1.00  0.00     0.062 A 
ATOM     17  C   UNL     1      24.590  15.041  -7.814  1.00  0.00     0.158 A 
BRANCH  15  18
ATOM     18  O   UNL     1      26.457  13.875  -8.929  1.00  0.00    -0.504 OA
ATOM     19  H   UNL     1      26.986  13.828  -9.788  1.00  0.00     0.293 HD
ENDBRANCH  15  18
BRANCH  17  20
ATOM     20  O   UNL     1      23.836  13.880  -7.635  1.00  0.00    -0.504 OA
ATOM     21  H   UNL     1      23.717  13.415  -6.746  1.00  0.00     0.293 HD
ENDBRANCH  17  20
ENDBRANCH   1  12
BRANCH   2  22
ATOM     22  O   UNL     1      22.987  19.081  -9.110  1.00  0.00    -0.502 OA
ATOM     23  H   UNL     1      23.244  19.641  -9.914  1.00  0.00     0.293 HD
ENDBRANCH   2  22
BRANCH   9  24
ATOM     24  O   UNL     1      24.219  22.127  -2.072  1.00  0.00    -0.508 OA
ATOM     25  H   UNL     1      24.017  23.043  -1.689  1.00  0.00     0.293 HD
ENDBRANCH   9  24
TORSDOF 5
ENDMDL
MODEL 2
REMARK VINA RESULT:    -3.505     17.058     19.024
REMARK INTER + INTRA:          -4.435
REMARK INTER:                  -4.111
REMARK INTRA:                  -0.324
REMARK UNBOUND:                -0.315
REMARK SMILES O=c1c(O)c(-c2ccc(O)c(O)c2)oc2cc(O)ccc12
REMARK SMILES IDX 5 1 3 2 2 3 1 4 21 5 15 6 14 7 16 8 17 9 19 10 20 11 6 12
REMARK SMILES IDX 7 13 8 14 9 15 13 16 11 17 10 18 12 20 4 22 18 24
REMARK H PARENT 10 19 12 21 4 23 18 25
REMARK Flexibility Score: inf
ROOT
ATOM      1  C   UNL     1      25.717  28.220   9.565  1.00  0.00     0.180 A 
ATOM      2  C   UNL     1      25.230  29.347  10.259  1.00  0.00     0.208 A 
ATOM      3  C   UNL     1      25.840  30.592  10.042  1.00  0.00     0.235 A 
ATOM      4  O   UNL     1      25.430  31.613  10.659  1.00  0.00    -0.285 OA
ATOM      5  C   UNL     1      26.903  30.690   9.129  1.00  0.00     0.069 A 
ATOM      6  C   UNL     1      27.317  29.519   8.456  1.00  0.00     0.142 A 
ATOM      7  O   UNL     1      26.717  28.358   8.697  1.00  0.00    -0.452 OA
ATOM      8  C   UNL     1      28.365  29.576   7.532  1.00  0.00     0.094 A 
ATOM      9  C   UNL     1      29.009  30.791   7.271  1.00  0.00     0.119 A 
ATOM     10  C   UNL     1      28.602  31.954   7.938  1.00  0.00     0.047 A 
ATOM     11  C   UNL     1      27.555  31.908   8.862  1.00  0.00     0.020 A 
ENDROOT
BRANCH   1  12
ATOM     12  C   UNL     1      25.138  26.871   9.754  1.00  0.00     0.025 A 
ATOM     13  C   UNL     1      25.633  25.993  10.730  1.00  0.00     0.016 A 
ATOM     14  C   UNL     1      25.086  24.715  10.873  1.00  0.00     0.051 A 
ATOM     15  C   UNL     1      24.049  24.285  10.039  1.00  0.00     0.157 A 
ATOM     16  C   UNL     1      24.112  26.433   8.901  1.00  0.00     0.062 A 
ATOM     17  C   UNL     1      23.557  25.155   9.037  1.00  0.00     0.158 A 
BRANCH  15  18
ATOM     18  O   UNL     1      23.543  22.998  10.236  1.00  0.00    -0.504 OA
ATOM     19  H   UNL     1      23.024  22.714  11.054  1.00  0.00     0.293 HD
ENDBRANCH  15  18
BRANCH  17  20
ATOM     20  O   UNL     1      22.531  24.793   8.162  1.00  0.00    -0.504 OA
ATOM     21  H   UNL     1      21.550  24.941   8.349  1.00  0.00     0.293 HD
ENDBRANCH  17  20
ENDBRANCH   1  12
BRANCH   2  22
ATOM     22  O   UNL     1      24.139  29.229  11.124  1.00  0.00    -0.502 OA
ATOM     23  H   UNL     1      23.348  28.630  10.920  1.00  0.00     0.293 HD
ENDBRANCH   2  22
BRANCH   9  24
ATOM     24  O   UNL     1      30.051  30.830   6.348  1.00  0.00    -0.508 OA
ATOM     25  H   UNL     1      30.548  29.990   6.073  1.00  0.00     0.293 HD
ENDBRANCH   9  24
TORSDOF 5
ENDMDL
MODEL 3
REMARK VINA RESULT:    -3.447     19.004     20.969
REMARK INTER + INTRA:          -4.366
REMARK INTER:                  -4.061
REMARK INTRA:                  -0.305
REMARK UNBOUND:                -0.315
REMARK SMILES O=c1c(O)c(-c2ccc(O)c(O)c2)oc2cc(O)ccc12
REMARK SMILES IDX 5 1 3 2 2 3 1 4 21 5 15 6 14 7 16 8 17 9 19 10 20 11 6 12
REMARK SMILES IDX 7 13 8 14 9 15 13 16 11 17 10 18 12 20 4 22 18 24
REMARK H PARENT 10 19 12 21 4 23 18 25
REMARK Flexibility Score: inf
ROOT
ATOM      1  C   UNL     1      28.728  31.483   8.675  1.00  0.00     0.180 A 
ATOM      2  C   UNL     1      28.671  32.560   7.766  1.00  0.00     0.208 A 
ATOM      3  C   UNL     1      29.873  33.102   7.283  1.00  0.00     0.235 A 
ATOM      4  O   UNL     1      29.849  34.073   6.478  1.00  0.00    -0.285 OA
ATOM      5  C   UNL     1      31.095  32.552   7.699  1.00  0.00     0.069 A 
ATOM      6  C   UNL     1      31.067  31.459   8.593  1.00  0.00     0.142 A 
ATOM      7  O   UNL     1      29.908  30.980   9.033  1.00  0.00    -0.452 OA
ATOM      8  C   UNL     1      32.264  30.876   9.024  1.00  0.00     0.094 A 
ATOM      9  C   UNL     1      33.492  31.372   8.573  1.00  0.00     0.119 A 
ATOM     10  C   UNL     1      33.524  32.457   7.687  1.00  0.00     0.047 A 
ATOM     11  C   UNL     1      32.334  33.046   7.250  1.00  0.00     0.020 A 
ENDROOT
BRANCH   1  12
ATOM     12  C   UNL     1      27.507  30.869   9.242  1.00  0.00     0.025 A 
ATOM     13  C   UNL     1      26.825  31.457  10.318  1.00  0.00     0.016 A 
ATOM     14  C   UNL     1      25.688  30.845  10.852  1.00  0.00     0.051 A 
ATOM     15  C   UNL     1      25.220  29.633  10.334  1.00  0.00     0.157 A 
ATOM     16  C   UNL     1      27.052  29.641   8.736  1.00  0.00     0.062 A 
ATOM     17  C   UNL     1      25.913  29.020   9.264  1.00  0.00     0.158 A 
BRANCH  15  18
ATOM     18  O   UNL     1      24.076  29.076  10.910  1.00  0.00    -0.504 OA
ATOM     19  H   UNL     1      24.092  28.336  11.596  1.00  0.00     0.293 HD
ENDBRANCH  15  18
BRANCH  17  20
ATOM     20  O   UNL     1      25.512  27.807   8.702  1.00  0.00    -0.504 OA
ATOM     21  H   UNL     1      25.765  27.503   7.773  1.00  0.00     0.293 HD
ENDBRANCH  17  20
ENDBRANCH   1  12
BRANCH   2  22
ATOM     22  O   UNL     1      27.440  33.055   7.332  1.00  0.00    -0.502 OA
ATOM     23  H   UNL     1      27.253  34.047   7.251  1.00  0.00     0.293 HD
ENDBRANCH   2  22
BRANCH   9  24
ATOM     24  O   UNL     1      34.674  30.780   9.012  1.00  0.00    -0.508 OA
ATOM     25  H   UNL     1      35.530  30.843   8.474  1.00  0.00     0.293 HD
ENDBRANCH   9  24
TORSDOF 5
ENDMDL
MODEL 4
REMARK VINA RESULT:    -3.440      3.651      6.729
REMARK INTER + INTRA:          -4.358
REMARK INTER:                  -4.040
REMARK INTRA:                  -0.319
REMARK UNBOUND:                -0.315
REMARK SMILES O=c1c(O)c(-c2ccc(O)c(O)c2)oc2cc(O)ccc12
REMARK SMILES IDX 5 1 3 2 2 3 1 4 21 5 15 6 14 7 16 8 17 9 19 10 20 11 6 12
REMARK SMILES IDX 7 13 8 14 9 15 13 16 11 17 10 18 12 20 4 22 18 24
REMARK H PARENT 10 19 12 21 4 23 18 25
REMARK Flexibility Score: inf
ROOT
ATOM      1  C   UNL     1      26.770  16.694  -6.728  1.00  0.00     0.180 A 
ATOM      2  C   UNL     1      26.863  15.436  -6.096  1.00  0.00     0.208 A 
ATOM      3  C   UNL     1      28.116  15.001  -5.635  1.00  0.00     0.235 A 
ATOM      4  O   UNL     1      28.227  13.875  -5.076  1.00  0.00    -0.285 OA
ATOM      5  C   UNL     1      29.237  15.831  -5.795  1.00  0.00     0.069 A 
ATOM      6  C   UNL     1      29.057  17.086  -6.416  1.00  0.00     0.142 A 
ATOM      7  O   UNL     1      27.855  17.457  -6.847  1.00  0.00    -0.452 OA
ATOM      8  C   UNL     1      30.147  17.946  -6.586  1.00  0.00     0.094 A 
ATOM      9  C   UNL     1      31.419  17.568  -6.142  1.00  0.00     0.119 A 
ATOM     10  C   UNL     1      31.602  16.323  -5.526  1.00  0.00     0.047 A 
ATOM     11  C   UNL     1      30.518  15.456  -5.351  1.00  0.00     0.020 A 
ENDROOT
BRANCH   1  12
ATOM     12  C   UNL     1      25.490  17.215  -7.257  1.00  0.00     0.025 A 
ATOM     13  C   UNL     1      25.038  16.876  -8.541  1.00  0.00     0.016 A 
ATOM     14  C   UNL     1      23.837  17.400  -9.027  1.00  0.00     0.051 A 
ATOM     15  C   UNL     1      23.075  18.279  -8.251  1.00  0.00     0.157 A 
ATOM     16  C   UNL     1      24.738  18.114  -6.484  1.00  0.00     0.062 A 
ATOM     17  C   UNL     1      23.533  18.644  -6.963  1.00  0.00     0.158 A 
BRANCH  15  18
ATOM     18  O   UNL     1      21.883  18.763  -8.794  1.00  0.00    -0.504 OA
ATOM     19  H   UNL     1      21.044  18.211  -8.897  1.00  0.00     0.293 HD
ENDBRANCH  15  18
BRANCH  17  20
ATOM     20  O   UNL     1      22.833  19.523  -6.135  1.00  0.00    -0.504 OA
ATOM     21  H   UNL     1      21.877  19.382  -5.842  1.00  0.00     0.293 HD
ENDBRANCH  17  20
ENDBRANCH   1  12
BRANCH   2  22
ATOM     22  O   UNL     1      25.722  14.653  -5.907  1.00  0.00    -0.502 OA
ATOM     23  H   UNL     1      25.021  14.877  -5.212  1.00  0.00     0.293 HD
ENDBRANCH   2  22
BRANCH   9  24
ATOM     24  O   UNL     1      32.493  18.437  -6.318  1.00  0.00    -0.508 OA
ATOM     25  H   UNL     1      33.451  18.109  -6.279  1.00  0.00     0.293 HD
ENDBRANCH   9  24
TORSDOF 5
ENDMDL
MODEL 5
REMARK VINA RESULT:    -3.426      2.370      6.323
REMARK INTER + INTRA:          -4.342
REMARK INTER:                  -4.022
REMARK INTRA:                  -0.320
REMARK UNBOUND:                -0.315
REMARK SMILES O=c1c(O)c(-c2ccc(O)c(O)c2)oc2cc(O)ccc12
REMARK SMILES IDX 5 1 3 2 2 3 1 4 21 5 15 6 14 7 16 8 17 9 19 10 20 11 6 12
REMARK SMILES IDX 7 13 8 14 9 15 13 16 11 17 10 18 12 20 4 22 18 24
REMARK H PARENT 10 19 12 21 4 23 18 25
REMARK Flexibility Score: inf
ROOT
ATOM      1  C   UNL     1      24.829  18.123  -7.042  1.00  0.00     0.180 A 
ATOM      2  C   UNL     1      24.187  17.062  -7.714  1.00  0.00     0.208 A 
ATOM      3  C   UNL     1      24.699  15.762  -7.573  1.00  0.00     0.235 A 
ATOM      4  O   UNL     1      24.148  14.798  -8.172  1.00  0.00    -0.285 OA
ATOM      5  C   UNL     1      25.820  15.547  -6.756  1.00  0.00     0.069 A 
ATOM      6  C   UNL     1      26.392  16.658  -6.099  1.00  0.00     0.142 A 
ATOM      7  O   UNL     1      25.882  17.874  -6.265  1.00  0.00    -0.452 OA
ATOM      8  C   UNL     1      27.505  16.485  -5.269  1.00  0.00     0.094 A 
ATOM      9  C   UNL     1      28.056  15.212  -5.086  1.00  0.00     0.119 A 
ATOM     10  C   UNL     1      27.493  14.107  -5.738  1.00  0.00     0.047 A 
ATOM     11  C   UNL     1      26.380  14.270  -6.569  1.00  0.00     0.020 A 
ENDROOT
BRANCH   1  12
ATOM     12  C   UNL     1      24.360  19.522  -7.155  1.00  0.00     0.025 A 
ATOM     13  C   UNL     1      24.891  20.396  -8.116  1.00  0.00     0.016 A 
ATOM     14  C   UNL     1      24.449  21.719  -8.187  1.00  0.00     0.051 A 
ATOM     15  C   UNL     1      23.484  22.199  -7.296  1.00  0.00     0.157 A 
ATOM     16  C   UNL     1      23.408  20.007  -6.245  1.00  0.00     0.062 A 
ATOM     17  C   UNL     1      22.959  21.332  -6.309  1.00  0.00     0.158 A 
BRANCH  15  18
ATOM     18  O   UNL     1      23.083  23.531  -7.422  1.00  0.00    -0.504 OA
ATOM     19  H   UNL     1      23.596  24.229  -7.941  1.00  0.00     0.293 HD
ENDBRANCH  15  18
BRANCH  17  20
ATOM     20  O   UNL     1      22.001  21.742  -5.379  1.00  0.00    -0.504 OA
ATOM     21  H   UNL     1      21.221  21.172  -5.082  1.00  0.00     0.293 HD
ENDBRANCH  17  20
ENDBRANCH   1  12
BRANCH   2  22
ATOM     22  O   UNL     1      23.043  17.298  -8.480  1.00  0.00    -0.502 OA
ATOM     23  H   UNL     1      22.114  17.309  -8.077  1.00  0.00     0.293 HD
ENDBRANCH   2  22
BRANCH   9  24
ATOM     24  O   UNL     1      29.164  15.057  -4.257  1.00  0.00    -0.508 OA
ATOM     25  H   UNL     1      30.006  14.595  -4.578  1.00  0.00     0.293 HD
ENDBRANCH   9  24
TORSDOF 5
ENDMDL
MODEL 6
REMARK VINA RESULT:    -3.260     18.901     20.467
REMARK INTER + INTRA:          -4.147
REMARK INTER:                  -3.832
REMARK INTRA:                  -0.316
REMARK UNBOUND:                -0.315
REMARK SMILES O=c1c(O)c(-c2ccc(O)c(O)c2)oc2cc(O)ccc12
REMARK SMILES IDX 5 1 3 2 2 3 1 4 21 5 15 6 14 7 16 8 17 9 19 10 20 11 6 12
REMARK SMILES IDX 7 13 8 14 9 15 13 16 11 17 10 18 12 20 4 22 18 24
REMARK H PARENT 10 19 12 21 4 23 18 25
REMARK Flexibility Score: inf
ROOT
ATOM      1  C   UNL     1      28.447  31.680   8.012  1.00  0.00     0.180 A 
ATOM      2  C   UNL     1      29.740  31.890   8.536  1.00  0.00     0.208 A 
ATOM      3  C   UNL     1      30.713  32.485   7.718  1.00  0.00     0.235 A 
ATOM      4  O   UNL     1      31.880  32.673   8.159  1.00  0.00    -0.285 OA
ATOM      5  C   UNL     1      30.374  32.873   6.412  1.00  0.00     0.069 A 
ATOM      6  C   UNL     1      29.052  32.651   5.970  1.00  0.00     0.142 A 
ATOM      7  O   UNL     1      28.162  32.076   6.773  1.00  0.00    -0.452 OA
ATOM      8  C   UNL     1      28.672  33.032   4.678  1.00  0.00     0.094 A 
ATOM      9  C   UNL     1      29.598  33.634   3.820  1.00  0.00     0.119 A 
ATOM     10  C   UNL     1      30.912  33.855   4.254  1.00  0.00     0.047 A 
ATOM     11  C   UNL     1      31.301  33.478   5.543  1.00  0.00     0.020 A 
ENDROOT
BRANCH   1  12
ATOM     12  C   UNL     1      27.372  31.043   8.805  1.00  0.00     0.025 A 
ATOM     13  C   UNL     1      26.542  31.796   9.649  1.00  0.00     0.016 A 
ATOM     14  C   UNL     1      25.550  31.169  10.406  1.00  0.00     0.051 A 
ATOM     15  C   UNL     1      25.376  29.782  10.347  1.00  0.00     0.157 A 
ATOM     16  C   UNL     1      27.214  29.649   8.760  1.00  0.00     0.062 A 
ATOM     17  C   UNL     1      26.222  29.011   9.515  1.00  0.00     0.158 A 
BRANCH  15  18
ATOM     18  O   UNL     1      24.363  29.217  11.125  1.00  0.00    -0.504 OA
ATOM     19  H   UNL     1      24.247  28.224  11.267  1.00  0.00     0.293 HD
ENDBRANCH  15  18
BRANCH  17  20
ATOM     20  O   UNL     1      26.115  27.623   9.412  1.00  0.00    -0.504 OA
ATOM     21  H   UNL     1      26.494  27.082   8.648  1.00  0.00     0.293 HD
ENDBRANCH  17  20
ENDBRANCH   1  12
BRANCH   2  22
ATOM     22  O   UNL     1      30.035  31.538   9.855  1.00  0.00    -0.502 OA
ATOM     23  H   UNL     1      29.874  32.167  10.632  1.00  0.00     0.293 HD
ENDBRANCH   2  22
BRANCH   9  24
ATOM     24  O   UNL     1      29.203  34.007   2.538  1.00  0.00    -0.508 OA
ATOM     25  H   UNL     1      28.456  33.524   2.051  1.00  0.00     0.293 HD
ENDBRANCH   9  24
TORSDOF 5
ENDMDL
MODEL 7
REMARK VINA RESULT:    -3.245      3.535      5.325
REMARK INTER + INTRA:          -4.129
REMARK INTER:                  -3.827
REMARK INTRA:                  -0.302
REMARK UNBOUND:                -0.315
REMARK SMILES O=c1c(O)c(-c2ccc(O)c(O)c2)oc2cc(O)ccc12
REMARK SMILES IDX 5 1 3 2 2 3 1 4 21 5 15 6 14 7 16 8 17 9 19 10 20 11 6 12
REMARK SMILES IDX 7 13 8 14 9 15 13 16 11 17 10 18 12 20 4 22 18 24
REMARK H PARENT 10 19 12 21 4 23 18 25
REMARK Flexibility Score: inf
ROOT
ATOM      1  C   UNL     1      26.624  15.912  -6.330  1.00  0.00     0.180 A 
ATOM      2  C   UNL     1      26.094  15.232  -7.446  1.00  0.00     0.208 A 
ATOM      3  C   UNL     1      25.006  15.798  -8.130  1.00  0.00     0.235 A 
ATOM      4  O   UNL     1      24.507  15.203  -9.125  1.00  0.00    -0.285 OA
ATOM      5  C   UNL     1      24.487  17.029  -7.702  1.00  0.00     0.069 A 
ATOM      6  C   UNL     1      25.088  17.659  -6.591  1.00  0.00     0.142 A 
ATOM      7  O   UNL     1      26.111  17.086  -5.965  1.00  0.00    -0.452 OA
ATOM      8  C   UNL     1      24.606  18.892  -6.138  1.00  0.00     0.094 A 
ATOM      9  C   UNL     1      23.527  19.507  -6.783  1.00  0.00     0.119 A 
ATOM     10  C   UNL     1      22.927  18.884  -7.886  1.00  0.00     0.047 A 
ATOM     11  C   UNL     1      23.401  17.652  -8.346  1.00  0.00     0.020 A 
ENDROOT
BRANCH   1  12
ATOM     12  C   UNL     1      27.758  15.372  -5.547  1.00  0.00     0.025 A 
ATOM     13  C   UNL     1      27.568  14.371  -4.582  1.00  0.00     0.016 A 
ATOM     14  C   UNL     1      28.651  13.894  -3.839  1.00  0.00     0.051 A 
ATOM     15  C   UNL     1      29.935  14.414  -4.032  1.00  0.00     0.157 A 
ATOM     16  C   UNL     1      29.041  15.911  -5.728  1.00  0.00     0.062 A 
ATOM     17  C   UNL     1      30.132  15.439  -4.987  1.00  0.00     0.158 A 
BRANCH  15  18
ATOM     18  O   UNL     1      30.974  13.892  -3.259  1.00  0.00    -0.504 OA
ATOM     19  H   UNL     1      31.365  14.354  -2.452  1.00  0.00     0.293 HD
ENDBRANCH  15  18
BRANCH  17  20
ATOM     20  O   UNL     1      31.382  16.014  -5.229  1.00  0.00    -0.504 OA
ATOM     21  H   UNL     1      31.529  16.819  -5.820  1.00  0.00     0.293 HD
ENDBRANCH  17  20
ENDBRANCH   1  12
BRANCH   2  22
ATOM     22  O   UNL     1      26.662  14.032  -7.880  1.00  0.00    -0.502 OA
ATOM     23  H   UNL     1      27.367  13.998  -8.607  1.00  0.00     0.293 HD
ENDBRANCH   2  22
BRANCH   9  24
ATOM     24  O   UNL     1      23.060  20.734  -6.320  1.00  0.00    -0.508 OA
ATOM     25  H   UNL     1      22.201  20.808  -5.788  1.00  0.00     0.293 HD
ENDBRANCH   9  24
TORSDOF 5
ENDMDL
MODEL 8
REMARK VINA RESULT:    -3.201      1.428      6.509
REMARK INTER + INTRA:          -4.077
REMARK INTER:                  -3.755
REMARK INTRA:                  -0.322
REMARK UNBOUND:                -0.315
REMARK SMILES O=c1c(O)c(-c2ccc(O)c(O)c2)oc2cc(O)ccc12
REMARK SMILES IDX 5 1 3 2 2 3 1 4 21 5 15 6 14 7 16 8 17 9 19 10 20 11 6 12
REMARK SMILES IDX 7 13 8 14 9 15 13 16 11 17 10 18 12 20 4 22 18 24
REMARK H PARENT 10 19 12 21 4 23 18 25
REMARK Flexibility Score: inf
ROOT
ATOM      1  C   UNL     1      24.375  19.628  -6.003  1.00  0.00     0.180 A 
ATOM      2  C   UNL     1      23.468  19.770  -7.074  1.00  0.00     0.208 A 
ATOM      3  C   UNL     1      23.330  18.714  -7.988  1.00  0.00     0.235 A 
ATOM      4  O   UNL     1      22.534  18.821  -8.961  1.00  0.00    -0.285 OA
ATOM      5  C   UNL     1      24.079  17.540  -7.806  1.00  0.00     0.069 A 
ATOM      6  C   UNL     1      24.948  17.467  -6.695  1.00  0.00     0.142 A 
ATOM      7  O   UNL     1      25.056  18.493  -5.857  1.00  0.00    -0.452 OA
ATOM      8  C   UNL     1      25.704  16.311  -6.473  1.00  0.00     0.094 A 
ATOM      9  C   UNL     1      25.605  15.225  -7.349  1.00  0.00     0.119 A 
ATOM     10  C   UNL     1      24.745  15.294  -8.453  1.00  0.00     0.047 A 
ATOM     11  C   UNL     1      23.984  16.444  -8.683  1.00  0.00     0.020 A 
ENDROOT
BRANCH   1  12
ATOM     12  C   UNL     1      24.590  20.702  -5.008  1.00  0.00     0.025 A 
ATOM     13  C   UNL     1      25.525  21.726  -5.228  1.00  0.00     0.016 A 
ATOM     14  C   UNL     1      25.727  22.716  -4.262  1.00  0.00     0.051 A 
ATOM     15  C   UNL     1      25.014  22.697  -3.059  1.00  0.00     0.157 A 
ATOM     16  C   UNL     1      23.890  20.668  -3.791  1.00  0.00     0.062 A 
ATOM     17  C   UNL     1      24.085  21.657  -2.819  1.00  0.00     0.158 A 
BRANCH  15  18
ATOM     18  O   UNL     1      25.260  23.717  -2.138  1.00  0.00    -0.504 OA
ATOM     19  H   UNL     1      24.548  24.142  -1.562  1.00  0.00     0.293 HD
ENDBRANCH  15  18
BRANCH  17  20
ATOM     20  O   UNL     1      23.345  21.565  -1.638  1.00  0.00    -0.504 OA
ATOM     21  H   UNL     1      23.477  22.170  -0.840  1.00  0.00     0.293 HD
ENDBRANCH  17  20
ENDBRANCH   1  12
BRANCH   2  22
ATOM     22  O   UNL     1      22.700  20.929  -7.202  1.00  0.00    -0.502 OA
ATOM     23  H   UNL     1      22.267  21.198  -8.077  1.00  0.00     0.293 HD
ENDBRANCH   2  22
BRANCH   9  24
ATOM     24  O   UNL     1      26.365  14.082  -7.113  1.00  0.00    -0.508 OA
ATOM     25  H   UNL     1      27.370  14.077  -7.244  1.00  0.00     0.293 HD
ENDBRANCH   9  24
TORSDOF 5
ENDMDL
MODEL 9
REMARK VINA RESULT:    -3.186     16.200     19.975
REMARK INTER + INTRA:          -4.059
REMARK INTER:                  -3.764
REMARK INTRA:                  -0.296
REMARK UNBOUND:                -0.315
REMARK SMILES O=c1c(O)c(-c2ccc(O)c(O)c2)oc2cc(O)ccc12
REMARK SMILES IDX 5 1 3 2 2 3 1 4 21 5 15 6 14 7 16 8 17 9 19 10 20 11 6 12
REMARK SMILES IDX 7 13 8 14 9 15 13 16 11 17 10 18 12 20 4 22 18 24
REMARK H PARENT 10 19 12 21 4 23 18 25
REMARK Flexibility Score: inf
ROOT
ATOM      1  C   UNL     1      27.542  30.092   8.776  1.00  0.00     0.180 A 
ATOM      2  C   UNL     1      26.705  30.385   9.873  1.00  0.00     0.208 A 
ATOM      3  C   UNL     1      25.633  29.523  10.156  1.00  0.00     0.235 A 
ATOM      4  O   UNL     1      24.864  29.770  11.125  1.00  0.00    -0.285 OA
ATOM      5  C   UNL     1      25.432  28.387   9.356  1.00  0.00     0.069 A 
ATOM      6  C   UNL     1      26.328  28.151   8.291  1.00  0.00     0.142 A 
ATOM      7  O   UNL     1      27.325  28.996   8.052  1.00  0.00    -0.452 OA
ATOM      8  C   UNL     1      26.166  27.025   7.476  1.00  0.00     0.094 A 
ATOM      9  C   UNL     1      25.119  26.129   7.713  1.00  0.00     0.119 A 
ATOM     10  C   UNL     1      24.227  26.360   8.768  1.00  0.00     0.047 A 
ATOM     11  C   UNL     1      24.379  27.482   9.588  1.00  0.00     0.020 A 
ENDROOT
BRANCH   1  12
ATOM     12  C   UNL     1      28.681  30.961   8.404  1.00  0.00     0.025 A 
ATOM     13  C   UNL     1      29.988  30.673   8.826  1.00  0.00     0.016 A 
ATOM     14  C   UNL     1      31.044  31.521   8.481  1.00  0.00     0.051 A 
ATOM     15  C   UNL     1      30.815  32.675   7.724  1.00  0.00     0.157 A 
ATOM     16  C   UNL     1      28.446  32.130   7.663  1.00  0.00     0.062 A 
ATOM     17  C   UNL     1      29.498  32.985   7.312  1.00  0.00     0.158 A 
BRANCH  15  18
ATOM     18  O   UNL     1      31.914  33.478   7.410  1.00  0.00    -0.504 OA
ATOM     19  H   UNL     1      32.786  33.466   7.918  1.00  0.00     0.293 HD
ENDBRANCH  15  18
BRANCH  17  20
ATOM     20  O   UNL     1      29.191  34.123   6.564  1.00  0.00    -0.504 OA
ATOM     21  H   UNL     1      29.356  35.068   6.878  1.00  0.00     0.293 HD
ENDBRANCH  17  20
ENDBRANCH   1  12
BRANCH   2  22
ATOM     22  O   UNL     1      26.959  31.496  10.681  1.00  0.00    -0.502 OA
ATOM     23  H   UNL     1      26.456  31.664  11.544  1.00  0.00     0.293 HD
ENDBRANCH   2  22
BRANCH   9  24
ATOM     24  O   UNL     1      24.973  25.012   6.893  1.00  0.00    -0.508 OA
ATOM     25  H   UNL     1      25.366  24.114   7.146  1.00  0.00     0.293 HD
ENDBRANCH   9  24
TORSDOF 5
ENDMDL
