MODEL 1
REMARK VINA RESULT:    -2.827      0.000      0.000
REMARK INTER + INTRA:          -3.567
REMARK INTER:                  -3.488
REMARK INTRA:                  -0.079
REMARK UNBOUND:                -0.079
REMARK SMILES CCCCCC(=O)[O-]
REMARK SMILES IDX 4 1 5 2 6 3 7 4 8 5 3 6 2 7 1 8
REMARK H PARENT
REMARK Flexibility Score: inf
ROOT
ATOM      1  C   UNL     1      38.512  37.095  19.241  1.00  0.00     0.006 C 
ENDROOT
BRANCH   1   2
ATOM      2  C   UNL     1      37.556  37.699  20.275  1.00  0.00     0.053 C 
BRANCH   2   3
ATOM      3  C   UNL     1      37.365  39.161  20.022  1.00  0.00     0.041 C 
ATOM      4  O   UNL     1      36.287  39.725  20.346  1.00  0.00    -0.550 OA
ATOM      5  O   UNL     1      38.398  39.912  19.475  1.00  0.00    -0.550 OA
ENDBRANCH   2   3
ENDBRANCH   1   2
BRANCH   1   6
ATOM      6  C   UNL     1      38.467  35.560  19.281  1.00  0.00     0.000 C 
BRANCH   6   7
ATOM      7  C   UNL     1      38.465  34.933  17.879  1.00  0.00    -0.003 C 
ATOM      8  C   UNL     1      39.201  35.787  16.847  1.00  0.00     0.004 C 
ENDBRANCH   6   7
ENDBRANCH   1   6
TORSDOF 4
ENDMDL
MODEL 2
REMARK VINA RESULT:    -2.729      2.586      3.654
REMARK INTER + INTRA:          -3.447
REMARK INTER:                  -3.263
REMARK INTRA:                  -0.184
REMARK UNBOUND:                -0.079
REMARK SMILES CCCCCC(=O)[O-]
REMARK SMILES IDX 4 1 5 2 6 3 7 4 8 5 3 6 2 7 1 8
REMARK H PARENT
REMARK Flexibility Score: inf
ROOT
ATOM      1  C   UNL     1      38.117  39.752  19.161  1.00  0.00     0.006 C 
ENDROOT
BRANCH   1   2
ATOM      2  C   UNL     1      39.533  40.220  18.815  1.00  0.00     0.053 C 
BRANCH   2   3
ATOM      3  C   UNL     1      40.105  39.388  17.711  1.00  0.00     0.041 C 
ATOM      4  O   UNL     1      40.691  38.305  17.971  1.00  0.00    -0.550 OA
ATOM      5  O   UNL     1      39.946  39.786  16.389  1.00  0.00    -0.550 OA
ENDBRANCH   2   3
ENDBRANCH   1   2
BRANCH   1   6
ATOM      6  C   UNL     1      38.113  38.917  20.451  1.00  0.00     0.000 C 
BRANCH   6   7
ATOM      7  C   UNL     1      37.384  37.576  20.283  1.00  0.00    -0.003 C 
ATOM      8  C   UNL     1      38.202  36.551  19.500  1.00  0.00     0.004 C 
ENDBRANCH   6   7
ENDBRANCH   1   6
TORSDOF 4
ENDMDL
MODEL 3
REMARK VINA RESULT:    -2.588      2.910      4.350
REMARK INTER + INTRA:          -3.272
REMARK INTER:                  -3.086
REMARK INTRA:                  -0.186
REMARK UNBOUND:                -0.079
REMARK SMILES CCCCCC(=O)[O-]
REMARK SMILES IDX 4 1 5 2 6 3 7 4 8 5 3 6 2 7 1 8
REMARK H PARENT
REMARK Flexibility Score: inf
ROOT
ATOM      1  C   UNL     1      39.338  39.619  19.132  1.00  0.00     0.006 C 
ENDROOT
BRANCH   1   2
ATOM      2  C   UNL     1      39.649  39.356  17.656  1.00  0.00     0.053 C 
BRANCH   2   3
ATOM      3  C   UNL     1      40.132  37.954  17.462  1.00  0.00     0.041 C 
ATOM      4  O   UNL     1      40.211  37.464  16.305  1.00  0.00    -0.550 OA
ATOM      5  O   UNL     1      40.544  37.204  18.557  1.00  0.00    -0.550 OA
ENDBRANCH   2   3
ENDBRANCH   1   2
BRANCH   1   6
ATOM      6  C   UNL     1      37.876  40.054  19.317  1.00  0.00     0.000 C 
BRANCH   6   7
ATOM      7  C   UNL     1      37.135  39.204  20.360  1.00  0.00    -0.003 C 
ATOM      8  C   UNL     1      37.469  37.716  20.257  1.00  0.00     0.004 C 
ENDBRANCH   6   7
ENDBRANCH   1   6
TORSDOF 4
ENDMDL
MODEL 4
REMARK VINA RESULT:    -2.568      1.830      2.472
REMARK INTER + INTRA:          -3.247
REMARK INTER:                  -3.140
REMARK INTRA:                  -0.107
REMARK UNBOUND:                -0.079
REMARK SMILES CCCCCC(=O)[O-]
REMARK SMILES IDX 4 1 5 2 6 3 7 4 8 5 3 6 2 7 1 8
REMARK H PARENT
REMARK Flexibility Score: inf
ROOT
ATOM      1  C   UNL     1      39.404  38.701  18.832  1.00  0.00     0.006 C 
ENDROOT
BRANCH   1   2
ATOM      2  C   UNL     1      38.347  39.705  19.302  1.00  0.00     0.053 C 
BRANCH   2   3
ATOM      3  C   UNL     1      37.260  39.007  20.058  1.00  0.00     0.041 C 
ATOM      4  O   UNL     1      36.239  39.643  20.430  1.00  0.00    -0.550 OA
ATOM      5  O   UNL     1      37.352  37.644  20.306  1.00  0.00    -0.550 OA
ENDBRANCH   2   3
ENDBRANCH   1   2
BRANCH   1   6
ATOM      6  C   UNL     1      39.942  39.079  17.444  1.00  0.00     0.000 C 
BRANCH   6   7
ATOM      7  C   UNL     1      40.415  37.857  16.641  1.00  0.00    -0.003 C 
ATOM      8  C   UNL     1      39.739  36.560  17.082  1.00  0.00     0.004 C 
ENDBRANCH   6   7
ENDBRANCH   1   6
TORSDOF 4
ENDMDL
MODEL 5
REMARK VINA RESULT:    -2.553      2.676      4.084
REMARK INTER + INTRA:          -3.229
REMARK INTER:                  -3.101
REMARK INTRA:                  -0.128
REMARK UNBOUND:                -0.079
REMARK SMILES CCCCCC(=O)[O-]
REMARK SMILES IDX 4 1 5 2 6 3 7 4 8 5 3 6 2 7 1 8
REMARK H PARENT
REMARK Flexibility Score: inf
ROOT
ATOM      1  C   UNL     1      38.680  36.600  18.923  1.00  0.00     0.006 C 
ENDROOT
BRANCH   1   2
ATOM      2  C   UNL     1      39.817  37.573  18.597  1.00  0.00     0.053 C 
BRANCH   2   3
ATOM      3  C   UNL     1      40.056  37.627  17.121  1.00  0.00     0.041 C 
ATOM      4  O   UNL     1      39.878  36.602  16.413  1.00  0.00    -0.550 OA
ATOM      5  O   UNL     1      40.426  38.824  16.521  1.00  0.00    -0.550 OA
ENDBRANCH   2   3
ENDBRANCH   1   2
BRANCH   1   6
ATOM      6  C   UNL     1      37.736  37.192  19.981  1.00  0.00     0.000 C 
BRANCH   6   7
ATOM      7  C   UNL     1      37.951  38.699  20.187  1.00  0.00    -0.003 C 
ATOM      8  C   UNL     1      36.642  39.487  20.205  1.00  0.00     0.004 C 
ENDBRANCH   6   7
ENDBRANCH   1   6
TORSDOF 4
ENDMDL
MODEL 6
REMARK VINA RESULT:    -2.531     13.924     14.735
REMARK INTER + INTRA:          -3.202
REMARK INTER:                  -3.099
REMARK INTRA:                  -0.102
REMARK UNBOUND:                -0.079
REMARK SMILES CCCCCC(=O)[O-]
REMARK SMILES IDX 4 1 5 2 6 3 7 4 8 5 3 6 2 7 1 8
REMARK H PARENT
REMARK Flexibility Score: inf
ROOT
ATOM      1  C   UNL     1      23.526  35.583  17.717  1.00  0.00     0.006 C 
ENDROOT
BRANCH   1   2
ATOM      2  C   UNL     1      24.581  34.937  16.814  1.00  0.00     0.053 C 
BRANCH   2   3
ATOM      3  C   UNL     1      25.954  35.173  17.361  1.00  0.00     0.041 C 
ATOM      4  O   UNL     1      26.957  35.114  16.602  1.00  0.00    -0.550 OA
ATOM      5  O   UNL     1      26.121  35.507  18.699  1.00  0.00    -0.550 OA
ENDBRANCH   2   3
ENDBRANCH   1   2
BRANCH   1   6
ATOM      6  C   UNL     1      22.820  36.741  16.996  1.00  0.00     0.000 C 
BRANCH   6   7
ATOM      7  C   UNL     1      21.485  37.120  17.655  1.00  0.00    -0.003 C 
ATOM      8  C   UNL     1      21.192  36.303  18.912  1.00  0.00     0.004 C 
ENDBRANCH   6   7
ENDBRANCH   1   6
TORSDOF 4
ENDMDL
MODEL 7
REMARK VINA RESULT:    -2.379     24.583     25.554
REMARK INTER + INTRA:          -3.014
REMARK INTER:                  -2.950
REMARK INTRA:                  -0.064
REMARK UNBOUND:                -0.079
REMARK SMILES CCCCCC(=O)[O-]
REMARK SMILES IDX 4 1 5 2 6 3 7 4 8 5 3 6 2 7 1 8
REMARK H PARENT
REMARK Flexibility Score: inf
ROOT
ATOM      1  C   UNL     1      24.484  54.389  31.045  1.00  0.00     0.006 C 
ENDROOT
BRANCH   1   2
ATOM      2  C   UNL     1      22.990  54.571  30.760  1.00  0.00     0.053 C 
BRANCH   2   3
ATOM      3  C   UNL     1      22.666  54.137  29.365  1.00  0.00     0.041 C 
ATOM      4  O   UNL     1      22.086  54.928  28.575  1.00  0.00    -0.550 OA
ATOM      5  O   UNL     1      23.049  52.878  28.923  1.00  0.00    -0.550 OA
ENDBRANCH   2   3
ENDBRANCH   1   2
BRANCH   1   6
ATOM      6  C   UNL     1      24.877  55.064  32.369  1.00  0.00     0.000 C 
BRANCH   6   7
ATOM      7  C   UNL     1      24.243  54.381  33.590  1.00  0.00    -0.003 C 
ATOM      8  C   UNL     1      24.828  54.873  34.913  1.00  0.00     0.004 C 
ENDBRANCH   6   7
ENDBRANCH   1   6
TORSDOF 4
ENDMDL
