MODEL 1
REMARK VINA RESULT:    -7.584      0.000      0.000
REMARK INTER + INTRA:          -9.427
REMARK INTER:                  -9.136
REMARK INTRA:                  -0.291
REMARK UNBOUND:                -0.291
REMARK SMILES O=c1c(O)c(-c2ccc(O)c(O)c2)oc2cc(O)cc(O)c12
REMARK SMILES IDX 5 1 3 2 2 3 1 4 22 5 20 6 19 7 17 8 16 9 15 10 14 11 6 12
REMARK SMILES IDX 7 13 8 14 9 15 13 16 11 17 10 18 12 20 4 22 21 24 18 26
REMARK H PARENT 10 19 12 21 4 23 21 25 18 27
REMARK Flexibility Score: inf
ROOT
ATOM      1  C   UNL     1       8.107  -2.031  -0.169  1.00  0.00     0.180 A 
ATOM      2  C   UNL     1       8.241  -0.881   0.627  1.00  0.00     0.208 A 
ATOM      3  C   UNL     1       8.697  -1.016   1.948  1.00  0.00     0.238 A 
ATOM      4  O   UNL     1       8.867   0.022   2.638  1.00  0.00    -0.285 OA
ATOM      5  C   UNL     1       8.997  -2.301   2.462  1.00  0.00     0.111 A 
ATOM      6  C   UNL     1       9.428  -2.560   3.798  1.00  0.00     0.134 A 
ATOM      7  C   UNL     1       9.822  -3.855   4.158  1.00  0.00     0.093 A 
ATOM      8  C   UNL     1       9.739  -4.911   3.252  1.00  0.00     0.123 A 
ATOM      9  C   UNL     1       9.263  -4.681   1.960  1.00  0.00     0.094 A 
ATOM     10  C   UNL     1       8.897  -3.393   1.561  1.00  0.00     0.146 A 
ATOM     11  O   UNL     1       8.459  -3.214   0.320  1.00  0.00    -0.452 OA
ENDROOT
BRANCH   1  12
ATOM     12  C   UNL     1       7.609  -1.971  -1.563  1.00  0.00     0.025 A 
ATOM     13  C   UNL     1       8.512  -2.133  -2.626  1.00  0.00     0.016 A 
ATOM     14  C   UNL     1       8.060  -2.101  -3.949  1.00  0.00     0.051 A 
ATOM     15  C   UNL     1       6.699  -1.922  -4.225  1.00  0.00     0.157 A 
ATOM     16  C   UNL     1       6.240  -1.813  -1.845  1.00  0.00     0.062 A 
ATOM     17  C   UNL     1       5.787  -1.782  -3.172  1.00  0.00     0.158 A 
BRANCH  15  18
ATOM     18  O   UNL     1       6.244  -1.886  -5.542  1.00  0.00    -0.504 OA
ATOM     19  H   UNL     1       5.901  -1.029  -5.961  1.00  0.00     0.293 HD
ENDBRANCH  15  18
BRANCH  17  20
ATOM     20  O   UNL     1       4.431  -1.618  -3.450  1.00  0.00    -0.504 OA
ATOM     21  H   UNL     1       3.965  -2.168  -4.163  1.00  0.00     0.293 HD
ENDBRANCH  17  20
ENDBRANCH   1  12
BRANCH   2  22
ATOM     22  O   UNL     1       7.960   0.381   0.094  1.00  0.00    -0.502 OA
ATOM     23  H   UNL     1       7.294   1.014   0.518  1.00  0.00     0.293 HD
ENDBRANCH   2  22
BRANCH   6  24
ATOM     24  O   UNL     1       9.460  -1.594   4.808  1.00  0.00    -0.507 OA
ATOM     25  H   UNL     1       9.382  -1.790   5.794  1.00  0.00     0.293 HD
ENDBRANCH   6  24
BRANCH   8  26
ATOM     26  O   UNL     1      10.125  -6.189   3.650  1.00  0.00    -0.508 OA
ATOM     27  H   UNL     1       9.500  -6.793   4.172  1.00  0.00     0.293 HD
ENDBRANCH   8  26
TORSDOF 6
ENDMDL
MODEL 2
REMARK VINA RESULT:    -7.557      1.574      2.105
REMARK INTER + INTRA:          -9.395
REMARK INTER:                  -9.078
REMARK INTRA:                  -0.317
REMARK UNBOUND:                -0.291
REMARK SMILES O=c1c(O)c(-c2ccc(O)c(O)c2)oc2cc(O)cc(O)c12
REMARK SMILES IDX 5 1 3 2 2 3 1 4 22 5 20 6 19 7 17 8 16 9 15 10 14 11 6 12
REMARK SMILES IDX 7 13 8 14 9 15 13 16 11 17 10 18 12 20 4 22 21 24 18 26
REMARK H PARENT 10 19 12 21 4 23 21 25 18 27
REMARK Flexibility Score: inf
ROOT
ATOM      1  C   UNL     1       8.816  -1.029  -1.590  1.00  0.00     0.180 A 
ATOM      2  C   UNL     1       8.581   0.138  -0.842  1.00  0.00     0.208 A 
ATOM      3  C   UNL     1       8.652   0.074   0.559  1.00  0.00     0.238 A 
ATOM      4  O   UNL     1       8.494   1.132   1.221  1.00  0.00    -0.285 OA
ATOM      5  C   UNL     1       8.940  -1.158   1.194  1.00  0.00     0.111 A 
ATOM      6  C   UNL     1       8.996  -1.348   2.608  1.00  0.00     0.134 A 
ATOM      7  C   UNL     1       9.419  -2.579   3.123  1.00  0.00     0.093 A 
ATOM      8  C   UNL     1       9.723  -3.647   2.280  1.00  0.00     0.123 A 
ATOM      9  C   UNL     1       9.614  -3.491   0.897  1.00  0.00     0.094 A 
ATOM     10  C   UNL     1       9.230  -2.264   0.352  1.00  0.00     0.146 A 
ATOM     11  O   UNL     1       9.149  -2.153  -0.968  1.00  0.00    -0.452 OA
ENDROOT
BRANCH   1  12
ATOM     12  C   UNL     1       8.734  -1.045  -3.069  1.00  0.00     0.025 A 
ATOM     13  C   UNL     1       9.868  -0.706  -3.827  1.00  0.00     0.016 A 
ATOM     14  C   UNL     1       9.820  -0.735  -5.223  1.00  0.00     0.051 A 
ATOM     15  C   UNL     1       8.644  -1.118  -5.881  1.00  0.00     0.157 A 
ATOM     16  C   UNL     1       7.563  -1.450  -3.734  1.00  0.00     0.062 A 
ATOM     17  C   UNL     1       7.516  -1.480  -5.136  1.00  0.00     0.158 A 
BRANCH  15  18
ATOM     18  O   UNL     1       8.591  -1.146  -7.273  1.00  0.00    -0.504 OA
ATOM     19  H   UNL     1       7.954  -1.762  -7.767  1.00  0.00     0.293 HD
ENDBRANCH  15  18
BRANCH  17  20
ATOM     20  O   UNL     1       6.352  -1.875  -5.793  1.00  0.00    -0.504 OA
ATOM     21  H   UNL     1       6.072  -2.849  -5.839  1.00  0.00     0.293 HD
ENDBRANCH  17  20
ENDBRANCH   1  12
BRANCH   2  22
ATOM     22  O   UNL     1       8.320   1.349  -1.490  1.00  0.00    -0.502 OA
ATOM     23  H   UNL     1       7.814   1.398  -2.366  1.00  0.00     0.293 HD
ENDBRANCH   2  22
BRANCH   6  24
ATOM     24  O   UNL     1       8.625  -0.375   3.541  1.00  0.00    -0.507 OA
ATOM     25  H   UNL     1       8.764   0.617   3.423  1.00  0.00     0.293 HD
ENDBRANCH   6  24
BRANCH   8  26
ATOM     26  O   UNL     1      10.125  -4.863   2.829  1.00  0.00    -0.508 OA
ATOM     27  H   UNL     1       9.932  -5.097   3.796  1.00  0.00     0.293 HD
ENDBRANCH   8  26
TORSDOF 6
ENDMDL
MODEL 3
REMARK VINA RESULT:    -7.549      1.113      1.440
REMARK INTER + INTRA:          -9.385
REMARK INTER:                  -9.201
REMARK INTRA:                  -0.184
REMARK UNBOUND:                -0.291
REMARK SMILES O=c1c(O)c(-c2ccc(O)c(O)c2)oc2cc(O)cc(O)c12
REMARK SMILES IDX 5 1 3 2 2 3 1 4 22 5 20 6 19 7 17 8 16 9 15 10 14 11 6 12
REMARK SMILES IDX 7 13 8 14 9 15 13 16 11 17 10 18 12 20 4 22 21 24 18 26
REMARK H PARENT 10 19 12 21 4 23 21 25 18 27
REMARK Flexibility Score: inf
ROOT
ATOM      1  C   UNL     1       7.680  -1.796  -1.251  1.00  0.00     0.180 A 
ATOM      2  C   UNL     1       7.651  -0.498  -0.712  1.00  0.00     0.208 A 
ATOM      3  C   UNL     1       8.091  -0.299   0.606  1.00  0.00     0.238 A 
ATOM      4  O   UNL     1       8.114   0.872   1.065  1.00  0.00    -0.285 OA
ATOM      5  C   UNL     1       8.538  -1.401   1.374  1.00  0.00     0.111 A 
ATOM      6  C   UNL     1       8.968  -1.322   2.733  1.00  0.00     0.134 A 
ATOM      7  C   UNL     1       9.513  -2.454   3.352  1.00  0.00     0.093 A 
ATOM      8  C   UNL     1       9.584  -3.676   2.685  1.00  0.00     0.123 A 
ATOM      9  C   UNL     1       9.111  -3.780   1.376  1.00  0.00     0.094 A 
ATOM     10  C   UNL     1       8.595  -2.660   0.720  1.00  0.00     0.146 A 
ATOM     11  O   UNL     1       8.166  -2.798  -0.529  1.00  0.00    -0.452 OA
ENDROOT
BRANCH   1  12
ATOM     12  C   UNL     1       7.209  -2.088  -2.625  1.00  0.00     0.025 A 
ATOM     13  C   UNL     1       8.108  -2.620  -3.565  1.00  0.00     0.016 A 
ATOM     14  C   UNL     1       7.680  -2.923  -4.860  1.00  0.00     0.051 A 
ATOM     15  C   UNL     1       6.344  -2.714  -5.230  1.00  0.00     0.157 A 
ATOM     16  C   UNL     1       5.864  -1.900  -2.994  1.00  0.00     0.062 A 
ATOM     17  C   UNL     1       5.435  -2.206  -4.294  1.00  0.00     0.158 A 
BRANCH  15  18
ATOM     18  O   UNL     1       5.914  -3.012  -6.521  1.00  0.00    -0.504 OA
ATOM     19  H   UNL     1       5.385  -3.854  -6.722  1.00  0.00     0.293 HD
ENDBRANCH  15  18
BRANCH  17  20
ATOM     20  O   UNL     1       4.104  -2.012  -4.660  1.00  0.00    -0.504 OA
ATOM     21  H   UNL     1       3.721  -1.083  -4.797  1.00  0.00     0.293 HD
ENDBRANCH  17  20
ENDBRANCH   1  12
BRANCH   2  22
ATOM     22  O   UNL     1       7.226   0.580  -1.494  1.00  0.00    -0.502 OA
ATOM     23  H   UNL     1       6.674   0.457  -2.334  1.00  0.00     0.293 HD
ENDBRANCH   2  22
BRANCH   6  24
ATOM     24  O   UNL     1       8.857  -0.172   3.520  1.00  0.00    -0.507 OA
ATOM     25  H   UNL     1       8.728   0.761   3.160  1.00  0.00     0.293 HD
ENDBRANCH   6  24
BRANCH   8  26
ATOM     26  O   UNL     1      10.118  -4.785   3.338  1.00  0.00    -0.508 OA
ATOM     27  H   UNL     1      10.190  -5.686   2.878  1.00  0.00     0.293 HD
ENDBRANCH   8  26
TORSDOF 6
ENDMDL
MODEL 4
REMARK VINA RESULT:    -7.449      1.547      6.739
REMARK INTER + INTRA:          -9.264
REMARK INTER:                  -9.640
REMARK INTRA:                   0.376
REMARK UNBOUND:                -0.291
REMARK SMILES O=c1c(O)c(-c2ccc(O)c(O)c2)oc2cc(O)cc(O)c12
REMARK SMILES IDX 5 1 3 2 2 3 1 4 22 5 20 6 19 7 17 8 16 9 15 10 14 11 6 12
REMARK SMILES IDX 7 13 8 14 9 15 13 16 11 17 10 18 12 20 4 22 21 24 18 26
REMARK H PARENT 10 19 12 21 4 23 21 25 18 27
REMARK Flexibility Score: inf
ROOT
ATOM      1  C   UNL     1       8.727  -1.943   1.613  1.00  0.00     0.180 A 
ATOM      2  C   UNL     1       8.598  -0.569   1.877  1.00  0.00     0.208 A 
ATOM      3  C   UNL     1       8.406   0.315   0.804  1.00  0.00     0.238 A 
ATOM      4  O   UNL     1       8.236   1.537   1.051  1.00  0.00    -0.285 OA
ATOM      5  C   UNL     1       8.362  -0.183  -0.521  1.00  0.00     0.111 A 
ATOM      6  C   UNL     1       8.213   0.627  -1.687  1.00  0.00     0.134 A 
ATOM      7  C   UNL     1       8.051   0.014  -2.936  1.00  0.00     0.093 A 
ATOM      8  C   UNL     1       8.099  -1.372  -3.070  1.00  0.00     0.123 A 
ATOM      9  C   UNL     1       8.305  -2.172  -1.945  1.00  0.00     0.094 A 
ATOM     10  C   UNL     1       8.433  -1.592  -0.680  1.00  0.00     0.146 A 
ATOM     11  O   UNL     1       8.616  -2.387   0.367  1.00  0.00    -0.452 OA
ENDROOT
BRANCH   1  12
ATOM     12  C   UNL     1       8.957  -2.934   2.690  1.00  0.00     0.025 A 
ATOM     13  C   UNL     1       8.756  -4.299   2.427  1.00  0.00     0.016 A 
ATOM     14  C   UNL     1       8.988  -5.253   3.422  1.00  0.00     0.051 A 
ATOM     15  C   UNL     1       9.438  -4.857   4.688  1.00  0.00     0.157 A 
ATOM     16  C   UNL     1       9.430  -2.544   3.956  1.00  0.00     0.062 A 
ATOM     17  C   UNL     1       9.663  -3.501   4.954  1.00  0.00     0.158 A 
BRANCH  15  18
ATOM     18  O   UNL     1       9.668  -5.805   5.684  1.00  0.00    -0.504 OA
ATOM     19  H   UNL     1      10.538  -5.827   6.204  1.00  0.00     0.293 HD
ENDBRANCH  15  18
BRANCH  17  20
ATOM     20  O   UNL     1      10.125  -3.112   6.211  1.00  0.00    -0.504 OA
ATOM     21  H   UNL     1      10.783  -3.679   6.733  1.00  0.00     0.293 HD
ENDBRANCH  17  20
ENDBRANCH   1  12
BRANCH   2  22
ATOM     22  O   UNL     1       8.622  -0.100   3.194  1.00  0.00    -0.502 OA
ATOM     23  H   UNL     1       7.784  -0.006   3.754  1.00  0.00     0.293 HD
ENDBRANCH   2  22
BRANCH   6  24
ATOM     24  O   UNL     1       8.243   2.024  -1.676  1.00  0.00    -0.507 OA
ATOM     25  H   UNL     1       8.012   2.610  -2.463  1.00  0.00     0.293 HD
ENDBRANCH   6  24
BRANCH   8  26
ATOM     26  O   UNL     1       7.951  -1.946  -4.331  1.00  0.00    -0.508 OA
ATOM     27  H   UNL     1       7.089  -2.404  -4.607  1.00  0.00     0.293 HD
ENDBRANCH   8  26
TORSDOF 6
ENDMDL
MODEL 5
REMARK VINA RESULT:    -7.331      2.047      6.740
REMARK INTER + INTRA:          -9.122
REMARK INTER:                  -9.051
REMARK INTRA:                  -0.072
REMARK UNBOUND:                -0.291
REMARK SMILES O=c1c(O)c(-c2ccc(O)c(O)c2)oc2cc(O)cc(O)c12
REMARK SMILES IDX 5 1 3 2 2 3 1 4 22 5 20 6 19 7 17 8 16 9 15 10 14 11 6 12
REMARK SMILES IDX 7 13 8 14 9 15 13 16 11 17 10 18 12 20 4 22 21 24 18 26
REMARK H PARENT 10 19 12 21 4 23 21 25 18 27
REMARK Flexibility Score: inf
ROOT
ATOM      1  C   UNL     1       8.362  -1.152   0.072  1.00  0.00     0.180 A 
ATOM      2  C   UNL     1       8.216   0.237   0.228  1.00  0.00     0.208 A 
ATOM      3  C   UNL     1       8.255   1.058  -0.911  1.00  0.00     0.238 A 
ATOM      4  O   UNL     1       8.069   2.294  -0.770  1.00  0.00    -0.285 OA
ATOM      5  C   UNL     1       8.456   0.481  -2.188  1.00  0.00     0.111 A 
ATOM      6  C   UNL     1       8.553   1.222  -3.405  1.00  0.00     0.134 A 
ATOM      7  C   UNL     1       8.620   0.537  -4.625  1.00  0.00     0.093 A 
ATOM      8  C   UNL     1       8.661  -0.855  -4.669  1.00  0.00     0.123 A 
ATOM      9  C   UNL     1       8.628  -1.588  -3.482  1.00  0.00     0.094 A 
ATOM     10  C   UNL     1       8.524  -0.935  -2.251  1.00  0.00     0.146 A 
ATOM     11  O   UNL     1       8.483  -1.668  -1.145  1.00  0.00    -0.452 OA
ENDROOT
BRANCH   1  12
ATOM     12  C   UNL     1       8.358  -2.079   1.227  1.00  0.00     0.025 A 
ATOM     13  C   UNL     1       7.504  -3.195   1.213  1.00  0.00     0.016 A 
ATOM     14  C   UNL     1       7.498  -4.094   2.283  1.00  0.00     0.051 A 
ATOM     15  C   UNL     1       8.356  -3.900   3.374  1.00  0.00     0.157 A 
ATOM     16  C   UNL     1       9.232  -1.900   2.314  1.00  0.00     0.062 A 
ATOM     17  C   UNL     1       9.227  -2.803   3.387  1.00  0.00     0.158 A 
BRANCH  15  18
ATOM     18  O   UNL     1       8.352  -4.792   4.444  1.00  0.00    -0.504 OA
ATOM     19  H   UNL     1       7.686  -5.556   4.494  1.00  0.00     0.293 HD
ENDBRANCH  15  18
BRANCH  17  20
ATOM     20  O   UNL     1      10.089  -2.620   4.467  1.00  0.00    -0.504 OA
ATOM     21  H   UNL     1      10.913  -3.197   4.592  1.00  0.00     0.293 HD
ENDBRANCH  17  20
ENDBRANCH   1  12
BRANCH   2  22
ATOM     22  O   UNL     1       7.998   0.783   1.496  1.00  0.00    -0.502 OA
ATOM     23  H   UNL     1       8.756   1.055   2.109  1.00  0.00     0.293 HD
ENDBRANCH   2  22
BRANCH   6  24
ATOM     24  O   UNL     1       8.613   2.617  -3.467  1.00  0.00    -0.507 OA
ATOM     25  H   UNL     1       9.068   3.203  -2.785  1.00  0.00     0.293 HD
ENDBRANCH   6  24
BRANCH   8  26
ATOM     26  O   UNL     1       8.745  -1.502  -5.901  1.00  0.00    -0.508 OA
ATOM     27  H   UNL     1       9.074  -2.458  -5.976  1.00  0.00     0.293 HD
ENDBRANCH   8  26
TORSDOF 6
ENDMDL
MODEL 6
REMARK VINA RESULT:    -7.302      2.220      7.116
REMARK INTER + INTRA:          -9.087
REMARK INTER:                  -9.366
REMARK INTRA:                   0.279
REMARK UNBOUND:                -0.291
REMARK SMILES O=c1c(O)c(-c2ccc(O)c(O)c2)oc2cc(O)cc(O)c12
REMARK SMILES IDX 5 1 3 2 2 3 1 4 22 5 20 6 19 7 17 8 16 9 15 10 14 11 6 12
REMARK SMILES IDX 7 13 8 14 9 15 13 16 11 17 10 18 12 20 4 22 21 24 18 26
REMARK H PARENT 10 19 12 21 4 23 21 25 18 27
REMARK Flexibility Score: inf
ROOT
ATOM      1  C   UNL     1       9.039  -2.121   1.118  1.00  0.00     0.180 A 
ATOM      2  C   UNL     1       9.308  -2.623  -0.167  1.00  0.00     0.208 A 
ATOM      3  C   UNL     1       9.166  -1.771  -1.274  1.00  0.00     0.238 A 
ATOM      4  O   UNL     1       9.461  -2.211  -2.415  1.00  0.00    -0.285 OA
ATOM      5  C   UNL     1       8.741  -0.434  -1.084  1.00  0.00     0.111 A 
ATOM      6  C   UNL     1       8.525   0.505  -2.138  1.00  0.00     0.134 A 
ATOM      7  C   UNL     1       8.232   1.838  -1.824  1.00  0.00     0.093 A 
ATOM      8  C   UNL     1       8.082   2.251  -0.502  1.00  0.00     0.123 A 
ATOM      9  C   UNL     1       8.232   1.328   0.534  1.00  0.00     0.094 A 
ATOM     10  C   UNL     1       8.561  -0.001   0.255  1.00  0.00     0.146 A 
ATOM     11  O   UNL     1       8.706  -0.845   1.270  1.00  0.00    -0.452 OA
ENDROOT
BRANCH   1  12
ATOM     12  C   UNL     1       9.142  -2.966   2.331  1.00  0.00     0.025 A 
ATOM     13  C   UNL     1       8.850  -4.337   2.244  1.00  0.00     0.016 A 
ATOM     14  C   UNL     1       8.961  -5.157   3.370  1.00  0.00     0.051 A 
ATOM     15  C   UNL     1       9.380  -4.621   4.595  1.00  0.00     0.157 A 
ATOM     16  C   UNL     1       9.582  -2.437   3.558  1.00  0.00     0.062 A 
ATOM     17  C   UNL     1       9.695  -3.260   4.688  1.00  0.00     0.158 A 
BRANCH  15  18
ATOM     18  O   UNL     1       9.489  -5.434   5.721  1.00  0.00    -0.504 OA
ATOM     19  H   UNL     1       9.243  -6.417   5.691  1.00  0.00     0.293 HD
ENDBRANCH  15  18
BRANCH  17  20
ATOM     20  O   UNL     1      10.125  -2.732   5.904  1.00  0.00    -0.504 OA
ATOM     21  H   UNL     1       9.593  -2.020   6.391  1.00  0.00     0.293 HD
ENDBRANCH  17  20
ENDBRANCH   1  12
BRANCH   2  22
ATOM     22  O   UNL     1       9.747  -3.940  -0.329  1.00  0.00    -0.502 OA
ATOM     23  H   UNL     1       9.209  -4.736  -0.009  1.00  0.00     0.293 HD
ENDBRANCH   2  22
BRANCH   6  24
ATOM     24  O   UNL     1       8.560   0.175  -3.495  1.00  0.00    -0.507 OA
ATOM     25  H   UNL     1       9.136  -0.549  -3.897  1.00  0.00     0.293 HD
ENDBRANCH   6  24
BRANCH   8  26
ATOM     26  O   UNL     1       7.774   3.582  -0.228  1.00  0.00    -0.508 OA
ATOM     27  H   UNL     1       8.198   4.075   0.550  1.00  0.00     0.293 HD
ENDBRANCH   8  26
TORSDOF 6
ENDMDL
MODEL 7
REMARK VINA RESULT:    -7.040      3.074      7.495
REMARK INTER + INTRA:          -8.772
REMARK INTER:                  -8.506
REMARK INTRA:                  -0.265
REMARK UNBOUND:                -0.291
REMARK SMILES O=c1c(O)c(-c2ccc(O)c(O)c2)oc2cc(O)cc(O)c12
REMARK SMILES IDX 5 1 3 2 2 3 1 4 22 5 20 6 19 7 17 8 16 9 15 10 14 11 6 12
REMARK SMILES IDX 7 13 8 14 9 15 13 16 11 17 10 18 12 20 4 22 21 24 18 26
REMARK H PARENT 10 19 12 21 4 23 21 25 18 27
REMARK Flexibility Score: inf
ROOT
ATOM      1  C   UNL     1       6.951  -1.977  -3.305  1.00  0.00     0.180 A 
ATOM      2  C   UNL     1       5.637  -2.069  -3.796  1.00  0.00     0.208 A 
ATOM      3  C   UNL     1       5.397  -2.813  -4.962  1.00  0.00     0.238 A 
ATOM      4  O   UNL     1       4.212  -2.936  -5.366  1.00  0.00    -0.285 OA
ATOM      5  C   UNL     1       6.475  -3.440  -5.632  1.00  0.00     0.111 A 
ATOM      6  C   UNL     1       6.353  -4.185  -6.844  1.00  0.00     0.134 A 
ATOM      7  C   UNL     1       7.465  -4.872  -7.347  1.00  0.00     0.093 A 
ATOM      8  C   UNL     1       8.707  -4.789  -6.720  1.00  0.00     0.123 A 
ATOM      9  C   UNL     1       8.852  -4.015  -5.568  1.00  0.00     0.094 A 
ATOM     10  C   UNL     1       7.753  -3.347  -5.022  1.00  0.00     0.146 A 
ATOM     11  O   UNL     1       7.930  -2.631  -3.918  1.00  0.00    -0.452 OA
ENDROOT
BRANCH   1  12
ATOM     12  C   UNL     1       7.286  -1.190  -2.095  1.00  0.00     0.025 A 
ATOM     13  C   UNL     1       7.859   0.085  -2.238  1.00  0.00     0.016 A 
ATOM     14  C   UNL     1       8.163   0.854  -1.111  1.00  0.00     0.051 A 
ATOM     15  C   UNL     1       7.885   0.366   0.173  1.00  0.00     0.157 A 
ATOM     16  C   UNL     1       6.989  -1.666  -0.805  1.00  0.00     0.062 A 
ATOM     17  C   UNL     1       7.294  -0.894   0.325  1.00  0.00     0.158 A 
BRANCH  15  18
ATOM     18  O   UNL     1       8.189   1.128   1.299  1.00  0.00    -0.504 OA
ATOM     19  H   UNL     1       8.925   0.854   1.941  1.00  0.00     0.293 HD
ENDBRANCH  15  18
BRANCH  17  20
ATOM     20  O   UNL     1       7.005  -1.371   1.603  1.00  0.00    -0.504 OA
ATOM     21  H   UNL     1       6.277  -2.058   1.761  1.00  0.00     0.293 HD
ENDBRANCH  17  20
ENDBRANCH   1  12
BRANCH   2  22
ATOM     22  O   UNL     1       4.585  -1.459  -3.107  1.00  0.00    -0.502 OA
ATOM     23  H   UNL     1       3.889  -0.888  -3.571  1.00  0.00     0.293 HD
ENDBRANCH   2  22
BRANCH   6  24
ATOM     24  O   UNL     1       5.180  -4.258  -7.600  1.00  0.00    -0.507 OA
ATOM     25  H   UNL     1       5.039  -4.875  -8.385  1.00  0.00     0.293 HD
ENDBRANCH   6  24
BRANCH   8  26
ATOM     26  O   UNL     1       9.795  -5.473  -7.258  1.00  0.00    -0.508 OA
ATOM     27  H   UNL     1      10.711  -5.438  -6.823  1.00  0.00     0.293 HD
ENDBRANCH   8  26
TORSDOF 6
ENDMDL
MODEL 8
REMARK VINA RESULT:    -6.901      1.603      7.080
REMARK INTER + INTRA:          -8.604
REMARK INTER:                  -8.289
REMARK INTRA:                  -0.315
REMARK UNBOUND:                -0.291
REMARK SMILES O=c1c(O)c(-c2ccc(O)c(O)c2)oc2cc(O)cc(O)c12
REMARK SMILES IDX 5 1 3 2 2 3 1 4 22 5 20 6 19 7 17 8 16 9 15 10 14 11 6 12
REMARK SMILES IDX 7 13 8 14 9 15 13 16 11 17 10 18 12 20 4 22 21 24 18 26
REMARK H PARENT 10 19 12 21 4 23 21 25 18 27
REMARK Flexibility Score: inf
ROOT
ATOM      1  C   UNL     1       7.639  -2.040  -1.292  1.00  0.00     0.180 A 
ATOM      2  C   UNL     1       6.289  -1.872  -1.646  1.00  0.00     0.208 A 
ATOM      3  C   UNL     1       5.924  -1.963  -2.999  1.00  0.00     0.238 A 
ATOM      4  O   UNL     1       4.707  -1.866  -3.304  1.00  0.00    -0.285 OA
ATOM      5  C   UNL     1       6.915  -2.202  -3.981  1.00  0.00     0.111 A 
ATOM      6  C   UNL     1       6.664  -2.273  -5.385  1.00  0.00     0.134 A 
ATOM      7  C   UNL     1       7.698  -2.645  -6.253  1.00  0.00     0.093 A 
ATOM      8  C   UNL     1       8.986  -2.885  -5.778  1.00  0.00     0.123 A 
ATOM      9  C   UNL     1       9.257  -2.761  -4.415  1.00  0.00     0.094 A 
ATOM     10  C   UNL     1       8.238  -2.426  -3.519  1.00  0.00     0.146 A 
ATOM     11  O   UNL     1       8.534  -2.329  -2.229  1.00  0.00    -0.452 OA
ENDROOT
BRANCH   1  12
ATOM     12  C   UNL     1       8.104  -1.933   0.111  1.00  0.00     0.025 A 
ATOM     13  C   UNL     1       8.369  -3.104   0.840  1.00  0.00     0.016 A 
ATOM     14  C   UNL     1       8.829  -3.028   2.158  1.00  0.00     0.051 A 
ATOM     15  C   UNL     1       9.045  -1.780   2.759  1.00  0.00     0.157 A 
ATOM     16  C   UNL     1       8.344  -0.684   0.711  1.00  0.00     0.062 A 
ATOM     17  C   UNL     1       8.806  -0.608   2.033  1.00  0.00     0.158 A 
BRANCH  15  18
ATOM     18  O   UNL     1       9.501  -1.699   4.073  1.00  0.00    -0.504 OA
ATOM     19  H   UNL     1       9.789  -0.816   4.480  1.00  0.00     0.293 HD
ENDBRANCH  15  18
BRANCH  17  20
ATOM     20  O   UNL     1       9.036   0.632   2.628  1.00  0.00    -0.504 OA
ATOM     21  H   UNL     1       8.319   1.102   3.169  1.00  0.00     0.293 HD
ENDBRANCH  17  20
ENDBRANCH   1  12
BRANCH   2  22
ATOM     22  O   UNL     1       5.324  -1.658  -0.658  1.00  0.00    -0.502 OA
ATOM     23  H   UNL     1       4.647  -0.907  -0.713  1.00  0.00     0.293 HD
ENDBRANCH   2  22
BRANCH   6  24
ATOM     24  O   UNL     1       5.435  -1.963  -5.974  1.00  0.00    -0.507 OA
ATOM     25  H   UNL     1       5.021  -1.044  -5.991  1.00  0.00     0.293 HD
ENDBRANCH   6  24
BRANCH   8  26
ATOM     26  O   UNL     1       9.994  -3.238  -6.673  1.00  0.00    -0.508 OA
ATOM     27  H   UNL     1      10.881  -2.748  -6.692  1.00  0.00     0.293 HD
ENDBRANCH   8  26
TORSDOF 6
ENDMDL
MODEL 9
REMARK VINA RESULT:    -6.826      2.162      3.506
REMARK INTER + INTRA:          -8.513
REMARK INTER:                  -8.182
REMARK INTRA:                  -0.331
REMARK UNBOUND:                -0.291
REMARK SMILES O=c1c(O)c(-c2ccc(O)c(O)c2)oc2cc(O)cc(O)c12
REMARK SMILES IDX 5 1 3 2 2 3 1 4 22 5 20 6 19 7 17 8 16 9 15 10 14 11 6 12
REMARK SMILES IDX 7 13 8 14 9 15 13 16 11 17 10 18 12 20 4 22 21 24 18 26
REMARK H PARENT 10 19 12 21 4 23 21 25 18 27
REMARK Flexibility Score: inf
ROOT
ATOM      1  C   UNL     1       7.791  -1.690  -2.988  1.00  0.00     0.180 A 
ATOM      2  C   UNL     1       7.981  -0.297  -2.947  1.00  0.00     0.208 A 
ATOM      3  C   UNL     1       8.172   0.326  -1.704  1.00  0.00     0.238 A 
ATOM      4  O   UNL     1       8.396   1.564  -1.677  1.00  0.00    -0.285 OA
ATOM      5  C   UNL     1       8.154  -0.446  -0.517  1.00  0.00     0.111 A 
ATOM      6  C   UNL     1       8.296   0.087   0.800  1.00  0.00     0.134 A 
ATOM      7  C   UNL     1       8.394  -0.786   1.890  1.00  0.00     0.093 A 
ATOM      8  C   UNL     1       8.289  -2.165   1.721  1.00  0.00     0.123 A 
ATOM      9  C   UNL     1       8.089  -2.694   0.445  1.00  0.00     0.094 A 
ATOM     10  C   UNL     1       8.024  -1.852  -0.667  1.00  0.00     0.146 A 
ATOM     11  O   UNL     1       7.845  -2.395  -1.865  1.00  0.00    -0.452 OA
ENDROOT
BRANCH   1  12
ATOM     12  C   UNL     1       7.558  -2.415  -4.259  1.00  0.00     0.025 A 
ATOM     13  C   UNL     1       8.639  -3.037  -4.906  1.00  0.00     0.016 A 
ATOM     14  C   UNL     1       8.439  -3.745  -6.095  1.00  0.00     0.051 A 
ATOM     15  C   UNL     1       7.155  -3.853  -6.644  1.00  0.00     0.157 A 
ATOM     16  C   UNL     1       6.268  -2.545  -4.803  1.00  0.00     0.062 A 
ATOM     17  C   UNL     1       6.067  -3.256  -5.995  1.00  0.00     0.158 A 
BRANCH  15  18
ATOM     18  O   UNL     1       6.951  -4.556  -7.831  1.00  0.00    -0.504 OA
ATOM     19  H   UNL     1       7.499  -5.378  -8.060  1.00  0.00     0.293 HD
ENDBRANCH  15  18
BRANCH  17  20
ATOM     20  O   UNL     1       4.788  -3.378  -6.537  1.00  0.00    -0.504 OA
ATOM     21  H   UNL     1       3.963  -3.401  -5.948  1.00  0.00     0.293 HD
ENDBRANCH  17  20
ENDBRANCH   1  12
BRANCH   2  22
ATOM     22  O   UNL     1       8.017   0.443  -4.132  1.00  0.00    -0.502 OA
ATOM     23  H   UNL     1       7.288   0.383  -4.832  1.00  0.00     0.293 HD
ENDBRANCH   2  22
BRANCH   6  24
ATOM     24  O   UNL     1       8.319   1.454   1.089  1.00  0.00    -0.507 OA
ATOM     25  H   UNL     1       8.059   2.183   0.442  1.00  0.00     0.293 HD
ENDBRANCH   6  24
BRANCH   8  26
ATOM     26  O   UNL     1       8.375  -3.002   2.832  1.00  0.00    -0.508 OA
ATOM     27  H   UNL     1       9.244  -3.119   3.341  1.00  0.00     0.293 HD
ENDBRANCH   8  26
TORSDOF 6
ENDMDL
