MODEL 1
REMARK VINA RESULT:    -4.673      0.000      0.000
REMARK INTER + INTRA:          -7.395
REMARK INTER:                  -7.132
REMARK INTRA:                  -0.263
REMARK UNBOUND:                -0.263
REMARK SMILES CC1=CCC[C@H](C)C(=O)C[C@@H](C(C)C)C(=O)C1
REMARK SMILES IDX 8 1 9 2 6 3 7 4 5 5 4 6 3 7 2 8 1 9 10 11 11 12 15 13 16 14
REMARK SMILES IDX 17 15 12 17 13 18 14 19
REMARK H PARENT
REMARK Flexibility Score: 70.00
ROOT
ATOM      1  C   UNL     1     -25.622 -53.326  24.160  1.00  0.00     0.136 C 
ATOM      2  O   UNL     1     -25.113 -53.050  23.083  1.00  0.00    -0.299 OA
ENDROOT
BRANCH   1   3
ATOM      3  C   UNL     1     -27.029 -53.898  24.217  1.00  0.00     0.053 C 
ATOM      4  C   UNL     1     -27.055 -55.364  24.682  1.00  0.00     0.016 C 
BRANCH   3   5
ATOM      5  C   UNL     1     -28.001 -53.012  25.036  1.00  0.00     0.015 C 
BRANCH   5   6
ATOM      6  C   UNL     1     -28.474 -53.563  26.399  1.00  0.00     0.028 C 
BRANCH   6   7
ATOM      7  C   UNL     1     -28.011 -52.794  27.615  1.00  0.00    -0.028 C 
ATOM      8  C   UNL     1     -26.986 -53.131  28.431  1.00  0.00    -0.070 CG0
ATOM      9  C   UNL     1     -26.630 -52.179  29.546  1.00  0.00     0.039 C 
ATOM     10  G   UNL     1     -26.172 -54.401  28.270  1.00  0.00     0.000 G0
ENDBRANCH   6   7
ENDBRANCH   5   6
ENDBRANCH   3   5
ENDBRANCH   1   3
BRANCH   1  11
ATOM     11  C   UNL     1     -24.840 -53.060  25.425  1.00  0.00     0.087 C 
BRANCH  11  12
ATOM     12  C   UNL     1     -24.501 -54.365  26.191  1.00  0.00     0.066 C 
BRANCH  12  13
ATOM     13  C   UNL     1     -24.776 -54.198  27.680  1.00  0.00     0.140 C 
ATOM     14  O   UNL     1     -23.850 -53.940  28.435  1.00  0.00    -0.299 OA
BRANCH  13  15
ATOM     15  C   UNL     1     -26.147 -54.399  28.283  1.00  0.00     0.106 CG0
ATOM     16  G   UNL     1     -26.949 -53.118  28.409  1.00  0.00     0.000 G0
ENDBRANCH  13  15
ENDBRANCH  12  13
BRANCH  12  17
ATOM     17  C   UNL     1     -23.045 -54.878  25.940  1.00  0.00    -0.006 C 
ATOM     18  C   UNL     1     -23.035 -56.120  25.034  1.00  0.00     0.008 C 
ATOM     19  C   UNL     1     -22.093 -53.811  25.368  1.00  0.00     0.008 C 
ENDBRANCH  12  17
ENDBRANCH  11  12
ENDBRANCH   1  11
TORSDOF 1
ENDMDL
MODEL 2
REMARK VINA RESULT:    -4.415      2.067      2.774
REMARK INTER + INTRA:          -7.001
REMARK INTER:                  -6.755
REMARK INTRA:                  -0.246
REMARK UNBOUND:                -0.263
REMARK SMILES CC1=CCC[C@H](C)C(=O)C[C@@H](C(C)C)C(=O)C1
REMARK SMILES IDX 8 1 9 2 6 3 7 4 5 5 4 6 3 7 2 8 1 9 10 11 11 12 15 13 16 14
REMARK SMILES IDX 17 15 12 17 13 18 14 19
REMARK H PARENT
REMARK Flexibility Score: 70.00
ROOT
ATOM      1  C   UNL     1     -25.551 -53.186  24.790  1.00  0.00     0.136 C 
ATOM      2  O   UNL     1     -26.208 -53.465  23.796  1.00  0.00    -0.299 OA
ENDROOT
BRANCH   1   3
ATOM      3  C   UNL     1     -26.231 -53.051  26.143  1.00  0.00     0.053 C 
ATOM      4  C   UNL     1     -27.627 -52.412  26.044  1.00  0.00     0.016 C 
BRANCH   3   5
ATOM      5  C   UNL     1     -26.257 -54.382  26.933  1.00  0.00     0.015 C 
BRANCH   5   6
ATOM      6  C   UNL     1     -25.457 -54.431  28.254  1.00  0.00     0.028 C 
BRANCH   6   7
ATOM      7  C   UNL     1     -24.920 -53.108  28.746  1.00  0.00    -0.028 C 
ATOM      8  C   UNL     1     -23.650 -52.661  28.611  1.00  0.00    -0.070 CG0
ATOM      9  C   UNL     1     -23.337 -51.268  29.100  1.00  0.00     0.039 C 
ATOM     10  G   UNL     1     -22.538 -53.479  27.982  1.00  0.00     0.000 G0
ENDBRANCH   6   7
ENDBRANCH   5   6
ENDBRANCH   3   5
ENDBRANCH   1   3
BRANCH   1  11
ATOM     11  C   UNL     1     -24.066 -52.949  24.639  1.00  0.00     0.087 C 
BRANCH  11  12
ATOM     12  C   UNL     1     -23.226 -53.955  25.466  1.00  0.00     0.066 C 
BRANCH  12  13
ATOM     13  C   UNL     1     -22.378 -53.223  26.498  1.00  0.00     0.140 C 
ATOM     14  O   UNL     1     -21.511 -52.448  26.120  1.00  0.00    -0.299 OA
BRANCH  13  15
ATOM     15  C   UNL     1     -22.519 -53.458  27.984  1.00  0.00     0.106 CG0
ATOM     16  G   UNL     1     -23.639 -52.658  28.622  1.00  0.00     0.000 G0
ENDBRANCH  13  15
ENDBRANCH  12  13
BRANCH  12  17
ATOM     17  C   UNL     1     -22.348 -54.907  24.588  1.00  0.00    -0.006 C 
ATOM     18  C   UNL     1     -22.958 -56.316  24.507  1.00  0.00     0.008 C 
ATOM     19  C   UNL     1     -22.074 -54.378  23.168  1.00  0.00     0.008 C 
ENDBRANCH  12  17
ENDBRANCH  11  12
ENDBRANCH   1  11
TORSDOF 1
ENDMDL
MODEL 3
REMARK VINA RESULT:    -4.341      2.066      4.288
REMARK INTER + INTRA:          -6.888
REMARK INTER:                  -6.650
REMARK INTRA:                  -0.238
REMARK UNBOUND:                -0.263
REMARK SMILES CC1=CCC[C@H](C)C(=O)C[C@@H](C(C)C)C(=O)C1
REMARK SMILES IDX 8 1 9 2 6 3 7 4 5 5 4 6 3 7 2 8 1 9 10 11 11 12 15 13 16 14
REMARK SMILES IDX 17 15 12 17 13 18 14 19
REMARK H PARENT
REMARK Flexibility Score: 70.00
ROOT
ATOM      1  C   UNL     1     -25.590 -55.004  25.535  1.00  0.00     0.136 C 
ATOM      2  O   UNL     1     -26.305 -55.410  24.629  1.00  0.00    -0.299 OA
ENDROOT
BRANCH   1   3
ATOM      3  C   UNL     1     -24.119 -54.723  25.281  1.00  0.00     0.053 C 
ATOM      4  C   UNL     1     -23.367 -55.950  24.738  1.00  0.00     0.016 C 
BRANCH   3   5
ATOM      5  C   UNL     1     -23.893 -53.468  24.403  1.00  0.00     0.015 C 
BRANCH   5   6
ATOM      6  C   UNL     1     -23.280 -52.229  25.093  1.00  0.00     0.028 C 
BRANCH   6   7
ATOM      7  C   UNL     1     -22.474 -52.503  26.341  1.00  0.00    -0.028 C 
ATOM      8  C   UNL     1     -22.902 -52.356  27.616  1.00  0.00    -0.070 CG0
ATOM      9  C   UNL     1     -21.964 -52.767  28.725  1.00  0.00     0.039 C 
ATOM     10  G   UNL     1     -24.273 -51.820  27.982  1.00  0.00     0.000 G0
ENDBRANCH   6   7
ENDBRANCH   5   6
ENDBRANCH   3   5
ENDBRANCH   1   3
BRANCH   1  11
ATOM     11  C   UNL     1     -26.191 -54.820  26.910  1.00  0.00     0.087 C 
BRANCH  11  12
ATOM     12  C   UNL     1     -26.358 -53.323  27.280  1.00  0.00     0.066 C 
BRANCH  12  13
ATOM     13  C   UNL     1     -25.298 -52.901  28.289  1.00  0.00     0.140 C 
ATOM     14  O   UNL     1     -25.289 -53.414  29.399  1.00  0.00    -0.299 OA
BRANCH  13  15
ATOM     15  C   UNL     1     -24.282 -51.820  28.000  1.00  0.00     0.106 CG0
ATOM     16  G   UNL     1     -22.919 -52.357  27.607  1.00  0.00     0.000 G0
ENDBRANCH  13  15
ENDBRANCH  12  13
BRANCH  12  17
ATOM     17  C   UNL     1     -27.794 -52.960  27.783  1.00  0.00    -0.006 C 
ATOM     18  C   UNL     1     -27.887 -51.481  28.195  1.00  0.00     0.008 C 
ATOM     19  C   UNL     1     -28.914 -53.291  26.780  1.00  0.00     0.008 C 
ENDBRANCH  12  17
ENDBRANCH  11  12
ENDBRANCH   1  11
TORSDOF 1
ENDMDL
MODEL 4
REMARK VINA RESULT:    -4.257      2.159      4.102
REMARK INTER + INTRA:          -6.759
REMARK INTER:                  -6.342
REMARK INTRA:                  -0.417
REMARK UNBOUND:                -0.263
REMARK SMILES CC1=CCC[C@H](C)C(=O)C[C@@H](C(C)C)C(=O)C1
REMARK SMILES IDX 8 1 9 2 6 3 7 4 5 5 4 6 3 7 2 8 1 9 10 11 11 12 15 13 16 14
REMARK SMILES IDX 17 15 12 17 13 18 14 19
REMARK H PARENT
REMARK Flexibility Score: 70.00
ROOT
ATOM      1  C   UNL     1     -23.258 -53.522  24.672  1.00  0.00     0.136 C 
ATOM      2  O   UNL     1     -23.405 -53.568  23.458  1.00  0.00    -0.299 OA
ENDROOT
BRANCH   1   3
ATOM      3  C   UNL     1     -22.044 -52.832  25.270  1.00  0.00     0.053 C 
ATOM      4  C   UNL     1     -20.718 -53.376  24.712  1.00  0.00     0.016 C 
BRANCH   3   5
ATOM      5  C   UNL     1     -22.126 -51.288  25.172  1.00  0.00     0.015 C 
BRANCH   5   6
ATOM      6  C   UNL     1     -22.882 -50.551  26.299  1.00  0.00     0.028 C 
BRANCH   6   7
ATOM      7  C   UNL     1     -22.802 -51.186  27.668  1.00  0.00    -0.028 C 
ATOM      8  C   UNL     1     -23.835 -51.717  28.363  1.00  0.00    -0.070 CG0
ATOM      9  C   UNL     1     -23.528 -52.383  29.682  1.00  0.00     0.039 C 
ATOM     10  G   UNL     1     -25.272 -51.691  27.876  1.00  0.00     0.000 G0
ENDBRANCH   6   7
ENDBRANCH   5   6
ENDBRANCH   3   5
ENDBRANCH   1   3
BRANCH   1  11
ATOM     11  C   UNL     1     -24.287 -54.190  25.554  1.00  0.00     0.087 C 
BRANCH  11  12
ATOM     12  C   UNL     1     -25.544 -53.306  25.761  1.00  0.00     0.066 C 
BRANCH  12  13
ATOM     13  C   UNL     1     -25.742 -52.995  27.238  1.00  0.00     0.140 C 
ATOM     14  O   UNL     1     -26.332 -53.798  27.946  1.00  0.00    -0.299 OA
BRANCH  13  15
ATOM     15  C   UNL     1     -25.291 -51.696  27.865  1.00  0.00     0.106 CG0
ATOM     16  G   UNL     1     -23.851 -51.720  28.342  1.00  0.00     0.000 G0
ENDBRANCH  13  15
ENDBRANCH  12  13
BRANCH  12  17
ATOM     17  C   UNL     1     -26.843 -53.911  25.132  1.00  0.00    -0.006 C 
ATOM     18  C   UNL     1     -27.302 -53.103  23.908  1.00  0.00     0.008 C 
ATOM     19  C   UNL     1     -26.726 -55.400  24.758  1.00  0.00     0.008 C 
ENDBRANCH  12  17
ENDBRANCH  11  12
ENDBRANCH   1  11
TORSDOF 1
ENDMDL
MODEL 5
REMARK VINA RESULT:    -4.146      2.481      4.086
REMARK INTER + INTRA:          -6.591
REMARK INTER:                  -6.235
REMARK INTRA:                  -0.356
REMARK UNBOUND:                -0.263
REMARK SMILES CC1=CCC[C@H](C)C(=O)C[C@@H](C(C)C)C(=O)C1
REMARK SMILES IDX 8 1 9 2 6 3 7 4 5 5 4 6 3 7 2 8 1 9 10 11 11 12 15 13 16 14
REMARK SMILES IDX 17 15 12 17 13 18 14 19
REMARK H PARENT
REMARK Flexibility Score: 70.00
ROOT
ATOM      1  C   UNL     1     -21.219 -53.559  24.757  1.00  0.00     0.136 C 
ATOM      2  O   UNL     1     -20.071 -53.970  24.658  1.00  0.00    -0.299 OA
ENDROOT
BRANCH   1   3
ATOM      3  C   UNL     1     -22.323 -54.159  23.903  1.00  0.00     0.053 C 
ATOM      4  C   UNL     1     -22.016 -54.084  22.398  1.00  0.00     0.016 C 
BRANCH   3   5
ATOM      5  C   UNL     1     -22.707 -55.593  24.346  1.00  0.00     0.015 C 
BRANCH   5   6
ATOM      6  C   UNL     1     -23.837 -55.726  25.391  1.00  0.00     0.028 C 
BRANCH   6   7
ATOM      7  C   UNL     1     -25.034 -54.827  25.183  1.00  0.00    -0.028 C 
ATOM      8  C   UNL     1     -25.425 -53.818  25.996  1.00  0.00    -0.070 CG0
ATOM      9  C   UNL     1     -26.604 -52.981  25.563  1.00  0.00     0.039 C 
ATOM     10  G   UNL     1     -24.731 -53.479  27.302  1.00  0.00     0.000 G0
ENDBRANCH   6   7
ENDBRANCH   5   6
ENDBRANCH   3   5
ENDBRANCH   1   3
BRANCH   1  11
ATOM     11  C   UNL     1     -21.506 -52.426  25.716  1.00  0.00     0.087 C 
BRANCH  11  12
ATOM     12  C   UNL     1     -22.137 -52.927  27.041  1.00  0.00     0.066 C 
BRANCH  12  13
ATOM     13  C   UNL     1     -23.590 -52.482  27.143  1.00  0.00     0.140 C 
ATOM     14  O   UNL     1     -23.852 -51.288  27.145  1.00  0.00    -0.299 OA
BRANCH  13  15
ATOM     15  C   UNL     1     -24.732 -53.458  27.305  1.00  0.00     0.106 CG0
ATOM     16  G   UNL     1     -25.408 -53.823  25.997  1.00  0.00     0.000 G0
ENDBRANCH  13  15
ENDBRANCH  12  13
BRANCH  12  17
ATOM     17  C   UNL     1     -21.328 -52.513  28.314  1.00  0.00    -0.006 C 
ATOM     18  C   UNL     1     -21.620 -53.454  29.495  1.00  0.00     0.008 C 
ATOM     19  C   UNL     1     -19.808 -52.416  28.090  1.00  0.00     0.008 C 
ENDBRANCH  12  17
ENDBRANCH  11  12
ENDBRANCH   1  11
TORSDOF 1
ENDMDL
MODEL 6
REMARK VINA RESULT:    -4.082      3.759      5.653
REMARK INTER + INTRA:          -6.492
REMARK INTER:                  -6.247
REMARK INTRA:                  -0.246
REMARK UNBOUND:                -0.263
REMARK SMILES CC1=CCC[C@H](C)C(=O)C[C@@H](C(C)C)C(=O)C1
REMARK SMILES IDX 8 1 9 2 6 3 7 4 5 5 4 6 3 7 2 8 1 9 10 11 11 12 15 13 16 14
REMARK SMILES IDX 17 15 12 17 13 18 14 19
REMARK H PARENT
REMARK Flexibility Score: 70.00
ROOT
ATOM      1  C   UNL     1     -20.051 -51.228  24.430  1.00  0.00     0.136 C 
ATOM      2  O   UNL     1     -18.851 -50.995  24.386  1.00  0.00    -0.299 OA
ENDROOT
BRANCH   1   3
ATOM      3  C   UNL     1     -20.654 -52.304  23.543  1.00  0.00     0.053 C 
ATOM      4  C   UNL     1     -19.803 -52.588  22.294  1.00  0.00     0.016 C 
BRANCH   3   5
ATOM      5  C   UNL     1     -20.993 -53.600  24.322  1.00  0.00     0.015 C 
BRANCH   5   6
ATOM      6  C   UNL     1     -22.489 -53.914  24.546  1.00  0.00     0.028 C 
BRANCH   6   7
ATOM      7  C   UNL     1     -22.888 -54.232  25.968  1.00  0.00    -0.028 C 
ATOM      8  C   UNL     1     -23.239 -53.334  26.918  1.00  0.00    -0.070 CG0
ATOM      9  C   UNL     1     -23.688 -53.865  28.258  1.00  0.00     0.039 C 
ATOM     10  G   UNL     1     -23.219 -51.833  26.699  1.00  0.00     0.000 G0
ENDBRANCH   6   7
ENDBRANCH   5   6
ENDBRANCH   3   5
ENDBRANCH   1   3
BRANCH   1  11
ATOM     11  C   UNL     1     -20.919 -50.407  25.356  1.00  0.00     0.087 C 
BRANCH  11  12
ATOM     12  C   UNL     1     -20.754 -50.828  26.840  1.00  0.00     0.066 C 
BRANCH  12  13
ATOM     13  C   UNL     1     -22.111 -51.125  27.465  1.00  0.00     0.140 C 
ATOM     14  O   UNL     1     -22.307 -50.836  28.636  1.00  0.00    -0.299 OA
BRANCH  13  15
ATOM     15  C   UNL     1     -23.220 -51.823  26.712  1.00  0.00     0.106 CG0
ATOM     16  G   UNL     1     -23.242 -53.326  26.919  1.00  0.00     0.000 G0
ENDBRANCH  13  15
ENDBRANCH  12  13
BRANCH  12  17
ATOM     17  C   UNL     1     -19.951 -49.795  27.697  1.00  0.00    -0.006 C 
ATOM     18  C   UNL     1     -18.683 -50.426  28.294  1.00  0.00     0.008 C 
ATOM     19  C   UNL     1     -19.583 -48.503  26.944  1.00  0.00     0.008 C 
ENDBRANCH  12  17
ENDBRANCH  11  12
ENDBRANCH   1  11
TORSDOF 1
ENDMDL
MODEL 7
REMARK VINA RESULT:    -4.073      5.362      7.314
REMARK INTER + INTRA:          -6.478
REMARK INTER:                  -6.272
REMARK INTRA:                  -0.206
REMARK UNBOUND:                -0.263
REMARK SMILES CC1=CCC[C@H](C)C(=O)C[C@@H](C(C)C)C(=O)C1
REMARK SMILES IDX 8 1 9 2 6 3 7 4 5 5 4 6 3 7 2 8 1 9 10 11 11 12 15 13 16 14
REMARK SMILES IDX 17 15 12 17 13 18 14 19
REMARK H PARENT
REMARK Flexibility Score: 70.00
ROOT
ATOM      1  C   UNL     1     -18.783 -50.065  29.093  1.00  0.00     0.136 C 
ATOM      2  O   UNL     1     -17.621 -49.682  29.075  1.00  0.00    -0.299 OA
ENDROOT
BRANCH   1   3
ATOM      3  C   UNL     1     -19.543 -50.264  27.793  1.00  0.00     0.053 C 
ATOM      4  C   UNL     1     -19.562 -49.000  26.917  1.00  0.00     0.016 C 
BRANCH   3   5
ATOM      5  C   UNL     1     -19.063 -51.509  27.005  1.00  0.00     0.015 C 
BRANCH   5   6
ATOM      6  C   UNL     1     -20.042 -52.700  26.909  1.00  0.00     0.028 C 
BRANCH   6   7
ATOM      7  C   UNL     1     -21.510 -52.354  27.003  1.00  0.00    -0.028 C 
ATOM      8  C   UNL     1     -22.291 -52.478  28.102  1.00  0.00    -0.070 CG0
ATOM      9  C   UNL     1     -23.717 -51.994  28.010  1.00  0.00     0.039 C 
ATOM     10  G   UNL     1     -21.801 -53.060  29.414  1.00  0.00     0.000 G0
ENDBRANCH   6   7
ENDBRANCH   5   6
ENDBRANCH   3   5
ENDBRANCH   1   3
BRANCH   1  11
ATOM     11  C   UNL     1     -19.450 -50.302  30.428  1.00  0.00     0.087 C 
BRANCH  11  12
ATOM     12  C   UNL     1     -19.813 -51.794  30.644  1.00  0.00     0.066 C 
BRANCH  12  13
ATOM     13  C   UNL     1     -21.298 -52.024  30.394  1.00  0.00     0.140 C 
ATOM     14  O   UNL     1     -22.120 -51.382  31.032  1.00  0.00    -0.299 OA
BRANCH  13  15
ATOM     15  C   UNL     1     -21.809 -53.065  29.425  1.00  0.00     0.106 CG0
ATOM     16  G   UNL     1     -22.279 -52.487  28.104  1.00  0.00     0.000 G0
ENDBRANCH  13  15
ENDBRANCH  12  13
BRANCH  12  17
ATOM     17  C   UNL     1     -19.385 -52.345  32.044  1.00  0.00    -0.006 C 
ATOM     18  C   UNL     1     -19.441 -53.881  32.083  1.00  0.00     0.008 C 
ATOM     19  C   UNL     1     -17.999 -51.864  32.512  1.00  0.00     0.008 C 
ENDBRANCH  12  17
ENDBRANCH  11  12
ENDBRANCH   1  11
TORSDOF 1
ENDMDL
MODEL 8
REMARK VINA RESULT:    -4.017      2.609      4.880
REMARK INTER + INTRA:          -6.393
REMARK INTER:                  -6.153
REMARK INTRA:                  -0.240
REMARK UNBOUND:                -0.263
REMARK SMILES CC1=CCC[C@H](C)C(=O)C[C@@H](C(C)C)C(=O)C1
REMARK SMILES IDX 8 1 9 2 6 3 7 4 5 5 4 6 3 7 2 8 1 9 10 11 11 12 15 13 16 14
REMARK SMILES IDX 17 15 12 17 13 18 14 19
REMARK H PARENT
REMARK Flexibility Score: 70.00
ROOT
ATOM      1  C   UNL     1     -23.304 -53.753  24.704  1.00  0.00     0.136 C 
ATOM      2  O   UNL     1     -24.131 -53.025  24.172  1.00  0.00    -0.299 OA
ENDROOT
BRANCH   1   3
ATOM      3  C   UNL     1     -21.933 -53.940  24.076  1.00  0.00     0.053 C 
ATOM      4  C   UNL     1     -22.007 -54.240  22.570  1.00  0.00     0.016 C 
BRANCH   3   5
ATOM      5  C   UNL     1     -20.968 -52.769  24.388  1.00  0.00     0.015 C 
BRANCH   5   6
ATOM      6  C   UNL     1     -20.130 -52.875  25.682  1.00  0.00     0.028 C 
BRANCH   6   7
ATOM      7  C   UNL     1     -20.485 -51.896  26.777  1.00  0.00    -0.028 C 
ATOM      8  C   UNL     1     -21.209 -52.168  27.887  1.00  0.00    -0.070 CG0
ATOM      9  C   UNL     1     -21.380 -51.066  28.904  1.00  0.00     0.039 C 
ATOM     10  G   UNL     1     -21.839 -53.520  28.165  1.00  0.00     0.000 G0
ENDBRANCH   6   7
ENDBRANCH   5   6
ENDBRANCH   3   5
ENDBRANCH   1   3
BRANCH   1  11
ATOM     11  C   UNL     1     -23.685 -54.481  25.973  1.00  0.00     0.087 C 
BRANCH  11  12
ATOM     12  C   UNL     1     -24.239 -53.519  27.056  1.00  0.00     0.066 C 
BRANCH  12  13
ATOM     13  C   UNL     1     -23.327 -53.505  28.276  1.00  0.00     0.140 C 
ATOM     14  O   UNL     1     -23.820 -53.428  29.391  1.00  0.00    -0.299 OA
BRANCH  13  15
ATOM     15  C   UNL     1     -21.820 -53.522  28.166  1.00  0.00     0.106 CG0
ATOM     16  G   UNL     1     -21.217 -52.160  27.875  1.00  0.00     0.000 G0
ENDBRANCH  13  15
ENDBRANCH  12  13
BRANCH  12  17
ATOM     17  C   UNL     1     -25.719 -53.821  27.461  1.00  0.00    -0.006 C 
ATOM     18  C   UNL     1     -26.608 -52.576  27.306  1.00  0.00     0.008 C 
ATOM     19  C   UNL     1     -26.349 -55.006  26.705  1.00  0.00     0.008 C 
ENDBRANCH  12  17
ENDBRANCH  11  12
ENDBRANCH   1  11
TORSDOF 1
ENDMDL
MODEL 9
REMARK VINA RESULT:    -3.977      2.012      3.675
REMARK INTER + INTRA:          -6.332
REMARK INTER:                  -6.171
REMARK INTRA:                  -0.161
REMARK UNBOUND:                -0.263
REMARK SMILES CC1=CCC[C@H](C)C(=O)C[C@@H](C(C)C)C(=O)C1
REMARK SMILES IDX 8 1 9 2 6 3 7 4 5 5 4 6 3 7 2 8 1 9 10 11 11 12 15 13 16 14
REMARK SMILES IDX 17 15 12 17 13 18 14 19
REMARK H PARENT
REMARK Flexibility Score: 70.00
ROOT
ATOM      1  C   UNL     1     -23.411 -52.438  27.851  1.00  0.00     0.136 C 
ATOM      2  O   UNL     1     -23.217 -51.593  26.988  1.00  0.00    -0.299 OA
ENDROOT
BRANCH   1   3
ATOM      3  C   UNL     1     -23.527 -52.030  29.310  1.00  0.00     0.053 C 
ATOM      4  C   UNL     1     -22.225 -51.426  29.862  1.00  0.00     0.016 C 
BRANCH   3   5
ATOM      5  C   UNL     1     -24.749 -51.117  29.579  1.00  0.00     0.015 C 
BRANCH   5   6
ATOM      6  C   UNL     1     -26.147 -51.770  29.493  1.00  0.00     0.028 C 
BRANCH   6   7
ATOM      7  C   UNL     1     -26.841 -51.664  28.156  1.00  0.00    -0.028 C 
ATOM      8  C   UNL     1     -27.054 -52.677  27.284  1.00  0.00    -0.070 CG0
ATOM      9  C   UNL     1     -27.847 -52.377  26.035  1.00  0.00     0.039 C 
ATOM     10  G   UNL     1     -26.555 -54.092  27.508  1.00  0.00     0.000 G0
ENDBRANCH   6   7
ENDBRANCH   5   6
ENDBRANCH   3   5
ENDBRANCH   1   3
BRANCH   1  11
ATOM     11  C   UNL     1     -23.499 -53.890  27.441  1.00  0.00     0.087 C 
BRANCH  11  12
ATOM     12  C   UNL     1     -24.284 -54.077  26.116  1.00  0.00     0.066 C 
BRANCH  12  13
ATOM     13  C   UNL     1     -25.680 -54.621  26.394  1.00  0.00     0.140 C 
ATOM     14  O   UNL     1     -26.142 -55.487  25.666  1.00  0.00    -0.299 OA
BRANCH  13  15
ATOM     15  C   UNL     1     -26.555 -54.090  27.506  1.00  0.00     0.106 CG0
ATOM     16  G   UNL     1     -27.043 -52.673  27.271  1.00  0.00     0.000 G0
ENDBRANCH  13  15
ENDBRANCH  12  13
BRANCH  12  17
ATOM     17  C   UNL     1     -23.534 -54.959  25.064  1.00  0.00    -0.006 C 
ATOM     18  C   UNL     1     -23.203 -54.157  23.795  1.00  0.00     0.008 C 
ATOM     19  C   UNL     1     -22.257 -55.630  25.602  1.00  0.00     0.008 C 
ENDBRANCH  12  17
ENDBRANCH  11  12
ENDBRANCH   1  11
TORSDOF 1
ENDMDL
