MODEL 1
REMARK VINA RESULT:    -5.391      0.000      0.000
REMARK INTER + INTRA:          -6.517
REMARK INTER:                  -6.179
REMARK INTRA:                  -0.339
REMARK UNBOUND:                -0.339
REMARK SMILES COc1ccc(C(C)=O)c(O)c1
REMARK SMILES IDX 6 1 10 2 12 3 3 4 4 5 5 6 7 7 8 8 9 9 11 10 2 12 1 13
REMARK H PARENT 11 11
REMARK Flexibility Score: inf
ROOT
ATOM      1  C   UNL     1       8.318   0.036  -0.657  1.00  0.00     0.059 A 
ATOM      2  C   UNL     1       7.253  -0.435   0.145  1.00  0.00     0.130 A 
ATOM      3  C   UNL     1       7.379  -1.650   0.836  1.00  0.00     0.093 A 
ATOM      4  C   UNL     1       8.565  -2.401   0.756  1.00  0.00     0.122 A 
ATOM      5  C   UNL     1       9.621  -1.924  -0.022  1.00  0.00     0.047 A 
ATOM      6  C   UNL     1       9.503  -0.719  -0.718  1.00  0.00     0.019 A 
ENDROOT
BRANCH   1   7
ATOM      7  C   UNL     1       8.240   1.306  -1.428  1.00  0.00     0.163 C 
ATOM      8  C   UNL     1       8.662   1.404  -2.863  1.00  0.00     0.093 C 
ATOM      9  O   UNL     1       7.804   2.346  -0.863  1.00  0.00    -0.294 OA
ENDBRANCH   1   7
BRANCH   2  10
ATOM     10  O   UNL     1       6.079   0.305   0.278  1.00  0.00    -0.507 OA
ATOM     11  H   UNL     1       5.456   0.464  -0.505  1.00  0.00     0.293 HD
ENDBRANCH   2  10
BRANCH   4  12
ATOM     12  O   UNL     1       8.732  -3.620   1.431  1.00  0.00    -0.497 OA
ATOM     13  C   UNL     1       7.759  -4.204   2.291  1.00  0.00     0.278 C 
ENDBRANCH   4  12
TORSDOF 3
ENDMDL
MODEL 2
REMARK VINA RESULT:    -5.220      1.597      2.015
REMARK INTER + INTRA:          -6.321
REMARK INTER:                  -5.991
REMARK INTRA:                  -0.331
REMARK UNBOUND:                -0.339
REMARK SMILES COc1ccc(C(C)=O)c(O)c1
REMARK SMILES IDX 6 1 10 2 12 3 3 4 4 5 5 6 7 7 8 8 9 9 11 10 2 12 1 13
REMARK H PARENT 11 11
REMARK Flexibility Score: inf
ROOT
ATOM      1  C   UNL     1       7.903  -0.376   0.298  1.00  0.00     0.059 A 
ATOM      2  C   UNL     1       8.722  -0.750   1.389  1.00  0.00     0.130 A 
ATOM      3  C   UNL     1       8.568  -2.013   1.980  1.00  0.00     0.093 A 
ATOM      4  C   UNL     1       7.617  -2.925   1.490  1.00  0.00     0.122 A 
ATOM      5  C   UNL     1       6.823  -2.559   0.401  1.00  0.00     0.047 A 
ATOM      6  C   UNL     1       6.964  -1.302  -0.191  1.00  0.00     0.019 A 
ENDROOT
BRANCH   1   7
ATOM      7  C   UNL     1       8.004   0.954  -0.360  1.00  0.00     0.163 C 
ATOM      8  C   UNL     1       8.268   1.107  -1.828  1.00  0.00     0.093 C 
ATOM      9  O   UNL     1       7.866   1.999   0.332  1.00  0.00    -0.294 OA
ENDBRANCH   1   7
BRANCH   2  10
ATOM     10  O   UNL     1       9.701   0.114   1.876  1.00  0.00    -0.507 OA
ATOM     11  H   UNL     1       9.538   0.709   2.680  1.00  0.00     0.293 HD
ENDBRANCH   2  10
BRANCH   4  12
ATOM     12  O   UNL     1       7.433  -4.198   2.051  1.00  0.00    -0.497 OA
ATOM     13  C   UNL     1       7.757  -4.539   3.395  1.00  0.00     0.278 C 
ENDBRANCH   4  12
TORSDOF 3
ENDMDL
MODEL 3
REMARK VINA RESULT:    -5.033      2.126      4.948
REMARK INTER + INTRA:          -6.107
REMARK INTER:                  -5.785
REMARK INTRA:                  -0.322
REMARK UNBOUND:                -0.339
REMARK SMILES COc1ccc(C(C)=O)c(O)c1
REMARK SMILES IDX 6 1 10 2 12 3 3 4 4 5 5 6 7 7 8 8 9 9 11 10 2 12 1 13
REMARK H PARENT 11 11
REMARK Flexibility Score: inf
ROOT
ATOM      1  C   UNL     1       9.342  -2.149   2.131  1.00  0.00     0.059 A 
ATOM      2  C   UNL     1       9.002  -0.779   2.215  1.00  0.00     0.130 A 
ATOM      3  C   UNL     1       9.009   0.017   1.059  1.00  0.00     0.093 A 
ATOM      4  C   UNL     1       9.335  -0.536  -0.191  1.00  0.00     0.122 A 
ATOM      5  C   UNL     1       9.652  -1.893  -0.273  1.00  0.00     0.047 A 
ATOM      6  C   UNL     1       9.654  -2.693   0.872  1.00  0.00     0.019 A 
ENDROOT
BRANCH   1   7
ATOM      7  C   UNL     1       9.371  -3.041   3.321  1.00  0.00     0.163 C 
ATOM      8  C   UNL     1       8.977  -4.487   3.253  1.00  0.00     0.093 C 
ATOM      9  O   UNL     1       9.737  -2.576   4.435  1.00  0.00    -0.294 OA
ENDBRANCH   1   7
BRANCH   2  10
ATOM     10  O   UNL     1       8.635  -0.208   3.433  1.00  0.00    -0.507 OA
ATOM     11  H   UNL     1       8.872  -0.640   4.318  1.00  0.00     0.293 HD
ENDBRANCH   2  10
BRANCH   4  12
ATOM     12  O   UNL     1       9.352   0.225  -1.370  1.00  0.00    -0.497 OA
ATOM     13  C   UNL     1       8.307   1.101  -1.779  1.00  0.00     0.278 C 
ENDBRANCH   4  12
TORSDOF 3
ENDMDL
MODEL 4
REMARK VINA RESULT:    -4.936      1.921      3.110
REMARK INTER + INTRA:          -5.997
REMARK INTER:                  -5.657
REMARK INTRA:                  -0.340
REMARK UNBOUND:                -0.339
REMARK SMILES COc1ccc(C(C)=O)c(O)c1
REMARK SMILES IDX 6 1 10 2 12 3 3 4 4 5 5 6 7 7 8 8 9 9 11 10 2 12 1 13
REMARK H PARENT 11 11
REMARK Flexibility Score: inf
ROOT
ATOM      1  C   UNL     1       7.965  -1.890   1.305  1.00  0.00     0.059 A 
ATOM      2  C   UNL     1       7.328  -3.149   1.405  1.00  0.00     0.130 A 
ATOM      3  C   UNL     1       7.811  -4.109   2.308  1.00  0.00     0.093 A 
ATOM      4  C   UNL     1       8.915  -3.828   3.132  1.00  0.00     0.122 A 
ATOM      5  C   UNL     1       9.528  -2.577   3.044  1.00  0.00     0.047 A 
ATOM      6  C   UNL     1       9.060  -1.617   2.145  1.00  0.00     0.019 A 
ENDROOT
BRANCH   1   7
ATOM      7  C   UNL     1       7.512  -0.837   0.356  1.00  0.00     0.163 C 
ATOM      8  C   UNL     1       8.442  -0.179  -0.619  1.00  0.00     0.093 C 
ATOM      9  O   UNL     1       6.304  -0.476   0.363  1.00  0.00    -0.294 OA
ENDBRANCH   1   7
BRANCH   2  10
ATOM     10  O   UNL     1       6.208  -3.446   0.631  1.00  0.00    -0.507 OA
ATOM     11  H   UNL     1       5.300  -3.040   0.826  1.00  0.00     0.293 HD
ENDBRANCH   2  10
BRANCH   4  12
ATOM     12  O   UNL     1       9.427  -4.759   4.048  1.00  0.00    -0.497 OA
ATOM     13  C   UNL     1       9.762  -4.459   5.399  1.00  0.00     0.278 C 
ENDBRANCH   4  12
TORSDOF 3
ENDMDL
MODEL 5
REMARK VINA RESULT:    -4.930      1.451      4.837
REMARK INTER + INTRA:          -5.989
REMARK INTER:                  -5.652
REMARK INTRA:                  -0.337
REMARK UNBOUND:                -0.339
REMARK SMILES COc1ccc(C(C)=O)c(O)c1
REMARK SMILES IDX 6 1 10 2 12 3 3 4 4 5 5 6 7 7 8 8 9 9 11 10 2 12 1 13
REMARK H PARENT 11 11
REMARK Flexibility Score: inf
ROOT
ATOM      1  C   UNL     1       8.106  -2.511   1.416  1.00  0.00     0.059 A 
ATOM      2  C   UNL     1       6.925  -2.325   0.659  1.00  0.00     0.130 A 
ATOM      3  C   UNL     1       6.707  -1.112  -0.012  1.00  0.00     0.093 A 
ATOM      4  C   UNL     1       7.658  -0.079   0.043  1.00  0.00     0.122 A 
ATOM      5  C   UNL     1       8.831  -0.273   0.776  1.00  0.00     0.047 A 
ATOM      6  C   UNL     1       9.056  -1.474   1.452  1.00  0.00     0.019 A 
ENDROOT
BRANCH   1   7
ATOM      7  C   UNL     1       8.388  -3.765   2.164  1.00  0.00     0.163 C 
ATOM      8  C   UNL     1       9.707  -4.473   2.079  1.00  0.00     0.093 C 
ATOM      9  O   UNL     1       7.492  -4.261   2.901  1.00  0.00    -0.294 OA
ENDBRANCH   1   7
BRANCH   2  10
ATOM     10  O   UNL     1       5.979  -3.343   0.551  1.00  0.00    -0.507 OA
ATOM     11  H   UNL     1       5.751  -3.946   1.333  1.00  0.00     0.293 HD
ENDBRANCH   2  10
BRANCH   4  12
ATOM     12  O   UNL     1       7.479   1.147  -0.614  1.00  0.00    -0.497 OA
ATOM     13  C   UNL     1       8.224   1.568  -1.753  1.00  0.00     0.278 C 
ENDBRANCH   4  12
TORSDOF 3
ENDMDL
MODEL 6
REMARK VINA RESULT:    -4.925     11.707     12.944
REMARK INTER + INTRA:          -5.983
REMARK INTER:                  -5.687
REMARK INTRA:                  -0.296
REMARK UNBOUND:                -0.339
REMARK SMILES COc1ccc(C(C)=O)c(O)c1
REMARK SMILES IDX 6 1 10 2 12 3 3 4 4 5 5 6 7 7 8 8 9 9 11 10 2 12 1 13
REMARK H PARENT 11 11
REMARK Flexibility Score: inf
ROOT
ATOM      1  C   UNL     1      -4.446  -3.707  -1.347  1.00  0.00     0.059 A 
ATOM      2  C   UNL     1      -4.403  -4.240  -2.657  1.00  0.00     0.130 A 
ATOM      3  C   UNL     1      -3.167  -4.492  -3.271  1.00  0.00     0.093 A 
ATOM      4  C   UNL     1      -1.962  -4.235  -2.593  1.00  0.00     0.122 A 
ATOM      5  C   UNL     1      -2.009  -3.727  -1.294  1.00  0.00     0.047 A 
ATOM      6  C   UNL     1      -3.233  -3.467  -0.675  1.00  0.00     0.019 A 
ENDROOT
BRANCH   1   7
ATOM      7  C   UNL     1      -5.723  -3.402  -0.648  1.00  0.00     0.163 C 
ATOM      8  C   UNL     1      -6.166  -4.143   0.577  1.00  0.00     0.093 C 
ATOM      9  O   UNL     1      -6.469  -2.488  -1.094  1.00  0.00    -0.294 OA
ENDBRANCH   1   7
BRANCH   2  10
ATOM     10  O   UNL     1      -5.578  -4.543  -3.342  1.00  0.00    -0.507 OA
ATOM     11  H   UNL     1      -6.076  -5.413  -3.192  1.00  0.00     0.293 HD
ENDBRANCH   2  10
BRANCH   4  12
ATOM     12  O   UNL     1      -0.706  -4.474  -3.171  1.00  0.00    -0.497 OA
ATOM     13  C   UNL     1      -0.373  -4.180  -4.524  1.00  0.00     0.278 C 
ENDBRANCH   4  12
TORSDOF 3
ENDMDL
MODEL 7
REMARK VINA RESULT:    -4.892      1.925      4.335
REMARK INTER + INTRA:          -5.945
REMARK INTER:                  -5.611
REMARK INTRA:                  -0.334
REMARK UNBOUND:                -0.339
REMARK SMILES COc1ccc(C(C)=O)c(O)c1
REMARK SMILES IDX 6 1 10 2 12 3 3 4 4 5 5 6 7 7 8 8 9 9 11 10 2 12 1 13
REMARK H PARENT 11 11
REMARK Flexibility Score: inf
ROOT
ATOM      1  C   UNL     1       8.882  -0.373   0.185  1.00  0.00     0.059 A 
ATOM      2  C   UNL     1       7.863   0.405  -0.415  1.00  0.00     0.130 A 
ATOM      3  C   UNL     1       7.949   0.744  -1.774  1.00  0.00     0.093 A 
ATOM      4  C   UNL     1       9.030   0.304  -2.557  1.00  0.00     0.122 A 
ATOM      5  C   UNL     1      10.023  -0.480  -1.967  1.00  0.00     0.047 A 
ATOM      6  C   UNL     1       9.951  -0.818  -0.614  1.00  0.00     0.019 A 
ENDROOT
BRANCH   1   7
ATOM      7  C   UNL     1       8.858  -0.750   1.623  1.00  0.00     0.163 C 
ATOM      8  C   UNL     1       9.185  -2.135   2.097  1.00  0.00     0.093 C 
ATOM      9  O   UNL     1       8.553   0.118   2.486  1.00  0.00    -0.294 OA
ENDBRANCH   1   7
BRANCH   2  10
ATOM     10  O   UNL     1       6.758   0.825   0.323  1.00  0.00    -0.507 OA
ATOM     11  H   UNL     1       6.071   1.464  -0.060  1.00  0.00     0.293 HD
ENDBRANCH   2  10
BRANCH   4  12
ATOM     12  O   UNL     1       9.152   0.619  -3.919  1.00  0.00    -0.497 OA
ATOM     13  C   UNL     1       8.693  -0.209  -4.982  1.00  0.00     0.278 C 
ENDBRANCH   4  12
TORSDOF 3
ENDMDL
MODEL 8
REMARK VINA RESULT:    -4.843      2.202      4.790
REMARK INTER + INTRA:          -5.890
REMARK INTER:                  -5.547
REMARK INTRA:                  -0.343
REMARK UNBOUND:                -0.339
REMARK SMILES COc1ccc(C(C)=O)c(O)c1
REMARK SMILES IDX 6 1 10 2 12 3 3 4 4 5 5 6 7 7 8 8 9 9 11 10 2 12 1 13
REMARK H PARENT 11 11
REMARK Flexibility Score: inf
ROOT
ATOM      1  C   UNL     1       7.229  -0.850  -1.064  1.00  0.00     0.059 A 
ATOM      2  C   UNL     1       7.691   0.478  -1.216  1.00  0.00     0.130 A 
ATOM      3  C   UNL     1       8.208   0.904  -2.449  1.00  0.00     0.093 A 
ATOM      4  C   UNL     1       8.258   0.028  -3.548  1.00  0.00     0.122 A 
ATOM      5  C   UNL     1       7.784  -1.277  -3.399  1.00  0.00     0.047 A 
ATOM      6  C   UNL     1       7.273  -1.712  -2.174  1.00  0.00     0.019 A 
ENDROOT
BRANCH   1   7
ATOM      7  C   UNL     1       6.687  -1.367   0.221  1.00  0.00     0.163 C 
ATOM      8  C   UNL     1       7.234  -2.591   0.891  1.00  0.00     0.093 C 
ATOM      9  O   UNL     1       5.730  -0.761   0.777  1.00  0.00    -0.294 OA
ENDBRANCH   1   7
BRANCH   2  10
ATOM     10  O   UNL     1       7.620   1.384  -0.159  1.00  0.00    -0.507 OA
ATOM     11  H   UNL     1       6.733   1.727   0.193  1.00  0.00     0.293 HD
ENDBRANCH   2  10
BRANCH   4  12
ATOM     12  O   UNL     1       8.766   0.414  -4.797  1.00  0.00    -0.497 OA
ATOM     13  C   UNL     1       8.565  -0.310  -6.007  1.00  0.00     0.278 C 
ENDBRANCH   4  12
TORSDOF 3
ENDMDL
MODEL 9
REMARK VINA RESULT:    -4.725     11.703     12.949
REMARK INTER + INTRA:          -5.755
REMARK INTER:                  -5.421
REMARK INTRA:                  -0.333
REMARK UNBOUND:                -0.339
REMARK SMILES COc1ccc(C(C)=O)c(O)c1
REMARK SMILES IDX 6 1 10 2 12 3 3 4 4 5 5 6 7 7 8 8 9 9 11 10 2 12 1 13
REMARK H PARENT 11 11
REMARK Flexibility Score: inf
ROOT
ATOM      1  C   UNL     1      -4.671  -3.682  -1.145  1.00  0.00     0.059 A 
ATOM      2  C   UNL     1      -3.437  -3.733  -0.454  1.00  0.00     0.130 A 
ATOM      3  C   UNL     1      -2.260  -4.059  -1.146  1.00  0.00     0.093 A 
ATOM      4  C   UNL     1      -2.288  -4.320  -2.527  1.00  0.00     0.122 A 
ATOM      5  C   UNL     1      -3.504  -4.250  -3.208  1.00  0.00     0.047 A 
ATOM      6  C   UNL     1      -4.682  -3.933  -2.529  1.00  0.00     0.019 A 
ENDROOT
BRANCH   1   7
ATOM      7  C   UNL     1      -5.955  -3.361  -0.466  1.00  0.00     0.163 C 
ATOM      8  C   UNL     1      -6.840  -2.234  -0.910  1.00  0.00     0.093 C 
ATOM      9  O   UNL     1      -6.324  -4.054   0.521  1.00  0.00    -0.294 OA
ENDBRANCH   1   7
BRANCH   2  10
ATOM     10  O   UNL     1      -3.368  -3.441   0.907  1.00  0.00    -0.507 OA
ATOM     11  H   UNL     1      -2.976  -4.096   1.574  1.00  0.00     0.293 HD
ENDBRANCH   2  10
BRANCH   4  12
ATOM     12  O   UNL     1      -1.134  -4.647  -3.255  1.00  0.00    -0.497 OA
ATOM     13  C   UNL     1      -0.751  -4.027  -4.478  1.00  0.00     0.278 C 
ENDBRANCH   4  12
TORSDOF 3
ENDMDL
