MODEL 1
REMARK VINA RESULT:    -7.286      0.000      0.000
REMARK INTER + INTRA:          -9.065
REMARK INTER:                  -8.776
REMARK INTRA:                  -0.289
REMARK UNBOUND:                -0.289
REMARK SMILES O=c1c(O)c(-c2ccc(O)c(O)c2)oc2cc(O)cc(O)c12
REMARK SMILES IDX 5 1 3 2 2 3 1 4 22 5 20 6 19 7 17 8 16 9 15 10 14 11 6 12
REMARK SMILES IDX 7 13 8 14 9 15 13 16 11 17 10 18 12 20 4 22 21 24 18 26
REMARK H PARENT 10 19 12 21 4 23 21 25 18 27
REMARK Flexibility Score: inf
ROOT
ATOM      1  C   UNL     1     -36.803  -9.377  21.783  1.00  0.00     0.180 A 
ATOM      2  C   UNL     1     -36.458 -10.704  21.470  1.00  0.00     0.208 A 
ATOM      3  C   UNL     1     -35.149 -11.145  21.721  1.00  0.00     0.238 A 
ATOM      4  O   UNL     1     -34.832 -12.316  21.388  1.00  0.00    -0.285 OA
ATOM      5  C   UNL     1     -34.205 -10.259  22.296  1.00  0.00     0.111 A 
ATOM      6  C   UNL     1     -32.863 -10.611  22.629  1.00  0.00     0.134 A 
ATOM      7  C   UNL     1     -31.979  -9.619  23.070  1.00  0.00     0.093 A 
ATOM      8  C   UNL     1     -32.408  -8.301  23.253  1.00  0.00     0.123 A 
ATOM      9  C   UNL     1     -33.732  -7.962  22.987  1.00  0.00     0.094 A 
ATOM     10  C   UNL     1     -34.628  -8.922  22.511  1.00  0.00     0.146 A 
ATOM     11  O   UNL     1     -35.878  -8.552  22.259  1.00  0.00    -0.452 OA
ENDROOT
BRANCH   1  12
ATOM     12  C   UNL     1     -38.170  -8.848  21.571  1.00  0.00     0.025 A 
ATOM     13  C   UNL     1     -39.060  -8.785  22.654  1.00  0.00     0.016 A 
ATOM     14  C   UNL     1     -40.361  -8.309  22.474  1.00  0.00     0.051 A 
ATOM     15  C   UNL     1     -40.797  -7.903  21.209  1.00  0.00     0.157 A 
ATOM     16  C   UNL     1     -38.616  -8.459  20.295  1.00  0.00     0.062 A 
ATOM     17  C   UNL     1     -39.922  -7.982  20.113  1.00  0.00     0.158 A 
BRANCH  15  18
ATOM     18  O   UNL     1     -42.100  -7.429  21.059  1.00  0.00    -0.504 OA
ATOM     19  H   UNL     1     -42.652  -7.623  20.233  1.00  0.00     0.293 HD
ENDBRANCH  15  18
BRANCH  17  20
ATOM     20  O   UNL     1     -40.354  -7.593  18.845  1.00  0.00    -0.504 OA
ATOM     21  H   UNL     1     -39.767  -7.042  18.230  1.00  0.00     0.293 HD
ENDBRANCH  17  20
ENDBRANCH   1  12
BRANCH   2  22
ATOM     22  O   UNL     1     -37.399 -11.555  20.884  1.00  0.00    -0.502 OA
ATOM     23  H   UNL     1     -37.134 -12.338  20.299  1.00  0.00     0.293 HD
ENDBRANCH   2  22
BRANCH   6  24
ATOM     24  O   UNL     1     -32.360 -11.913  22.570  1.00  0.00    -0.507 OA
ATOM     25  H   UNL     1     -31.867 -12.305  21.782  1.00  0.00     0.293 HD
ENDBRANCH   6  24
BRANCH   8  26
ATOM     26  O   UNL     1     -31.526  -7.324  23.709  1.00  0.00    -0.508 OA
ATOM     27  H   UNL     1     -31.767  -6.709  24.478  1.00  0.00     0.293 HD
ENDBRANCH   8  26
TORSDOF 6
ENDMDL
MODEL 2
REMARK VINA RESULT:    -6.913      1.452      7.006
REMARK INTER + INTRA:          -8.616
REMARK INTER:                  -8.288
REMARK INTRA:                  -0.328
REMARK UNBOUND:                -0.289
REMARK SMILES O=c1c(O)c(-c2ccc(O)c(O)c2)oc2cc(O)cc(O)c12
REMARK SMILES IDX 5 1 3 2 2 3 1 4 22 5 20 6 19 7 17 8 16 9 15 10 14 11 6 12
REMARK SMILES IDX 7 13 8 14 9 15 13 16 11 17 10 18 12 20 4 22 21 24 18 26
REMARK H PARENT 10 19 12 21 4 23 21 25 18 27
REMARK Flexibility Score: inf
ROOT
ATOM      1  C   UNL     1     -36.362  -8.685  21.984  1.00  0.00     0.180 A 
ATOM      2  C   UNL     1     -37.406  -8.837  22.913  1.00  0.00     0.208 A 
ATOM      3  C   UNL     1     -38.724  -8.570  22.507  1.00  0.00     0.238 A 
ATOM      4  O   UNL     1     -39.646  -8.654  23.359  1.00  0.00    -0.285 OA
ATOM      5  C   UNL     1     -38.983  -8.171  21.174  1.00  0.00     0.111 A 
ATOM      6  C   UNL     1     -40.283  -7.913  20.644  1.00  0.00     0.134 A 
ATOM      7  C   UNL     1     -40.410  -7.397  19.349  1.00  0.00     0.093 A 
ATOM      8  C   UNL     1     -39.288  -7.192  18.541  1.00  0.00     0.123 A 
ATOM      9  C   UNL     1     -38.020  -7.497  19.029  1.00  0.00     0.094 A 
ATOM     10  C   UNL     1     -37.858  -7.978  20.330  1.00  0.00     0.146 A 
ATOM     11  O   UNL     1     -36.630  -8.245  20.759  1.00  0.00    -0.452 OA
ENDROOT
BRANCH   1  12
ATOM     12  C   UNL     1     -34.951  -8.972  22.330  1.00  0.00     0.025 A 
ATOM     13  C   UNL     1     -34.098  -7.915  22.682  1.00  0.00     0.016 A 
ATOM     14  C   UNL     1     -32.758  -8.160  22.992  1.00  0.00     0.051 A 
ATOM     15  C   UNL     1     -32.246  -9.460  22.941  1.00  0.00     0.157 A 
ATOM     16  C   UNL     1     -34.430 -10.277  22.258  1.00  0.00     0.062 A 
ATOM     17  C   UNL     1     -33.085 -10.524  22.569  1.00  0.00     0.158 A 
BRANCH  15  18
ATOM     18  O   UNL     1     -30.906  -9.675  23.258  1.00  0.00    -0.504 OA
ATOM     19  H   UNL     1     -30.318 -10.298  22.719  1.00  0.00     0.293 HD
ENDBRANCH  15  18
BRANCH  17  20
ATOM     20  O   UNL     1     -32.578 -11.822  22.501  1.00  0.00    -0.504 OA
ATOM     21  H   UNL     1     -33.053 -12.551  21.981  1.00  0.00     0.293 HD
ENDBRANCH  17  20
ENDBRANCH   1  12
BRANCH   2  22
ATOM     22  O   UNL     1     -37.125  -9.210  24.230  1.00  0.00    -0.502 OA
ATOM     23  H   UNL     1     -36.718 -10.108  24.466  1.00  0.00     0.293 HD
ENDBRANCH   2  22
BRANCH   6  24
ATOM     24  O   UNL     1     -41.471  -8.170  21.333  1.00  0.00    -0.507 OA
ATOM     25  H   UNL     1     -41.956  -9.055  21.332  1.00  0.00     0.293 HD
ENDBRANCH   6  24
BRANCH   8  26
ATOM     26  O   UNL     1     -39.425  -6.694  17.247  1.00  0.00    -0.508 OA
ATOM     27  H   UNL     1     -40.324  -6.396  16.886  1.00  0.00     0.293 HD
ENDBRANCH   8  26
TORSDOF 6
ENDMDL
MODEL 3
REMARK VINA RESULT:    -6.899      1.876      6.971
REMARK INTER + INTRA:          -8.599
REMARK INTER:                  -8.325
REMARK INTRA:                  -0.274
REMARK UNBOUND:                -0.289
REMARK SMILES O=c1c(O)c(-c2ccc(O)c(O)c2)oc2cc(O)cc(O)c12
REMARK SMILES IDX 5 1 3 2 2 3 1 4 22 5 20 6 19 7 17 8 16 9 15 10 14 11 6 12
REMARK SMILES IDX 7 13 8 14 9 15 13 16 11 17 10 18 12 20 4 22 21 24 18 26
REMARK H PARENT 10 19 12 21 4 23 21 25 18 27
REMARK Flexibility Score: inf
ROOT
ATOM      1  C   UNL     1     -34.471  -9.805  22.463  1.00  0.00     0.180 A 
ATOM      2  C   UNL     1     -35.104 -10.873  21.803  1.00  0.00     0.208 A 
ATOM      3  C   UNL     1     -36.497 -10.836  21.628  1.00  0.00     0.238 A 
ATOM      4  O   UNL     1     -37.064 -11.820  21.085  1.00  0.00    -0.285 OA
ATOM      5  C   UNL     1     -37.237  -9.725  22.100  1.00  0.00     0.111 A 
ATOM      6  C   UNL     1     -38.646  -9.564  21.941  1.00  0.00     0.134 A 
ATOM      7  C   UNL     1     -39.292  -8.489  22.563  1.00  0.00     0.093 A 
ATOM      8  C   UNL     1     -38.570  -7.532  23.283  1.00  0.00     0.123 A 
ATOM      9  C   UNL     1     -37.187  -7.649  23.392  1.00  0.00     0.094 A 
ATOM     10  C   UNL     1     -36.519  -8.731  22.814  1.00  0.00     0.146 A 
ATOM     11  O   UNL     1     -35.201  -8.809  22.952  1.00  0.00    -0.452 OA
ENDROOT
BRANCH   1  12
ATOM     12  C   UNL     1     -33.005  -9.761  22.662  1.00  0.00     0.025 A 
ATOM     13  C   UNL     1     -32.216  -8.971  21.810  1.00  0.00     0.016 A 
ATOM     14  C   UNL     1     -30.829  -8.931  21.966  1.00  0.00     0.051 A 
ATOM     15  C   UNL     1     -30.206  -9.688  22.963  1.00  0.00     0.157 A 
ATOM     16  C   UNL     1     -32.375 -10.539  23.651  1.00  0.00     0.062 A 
ATOM     17  C   UNL     1     -30.982 -10.500  23.808  1.00  0.00     0.158 A 
BRANCH  15  18
ATOM     18  O   UNL     1     -28.820  -9.626  23.097  1.00  0.00    -0.504 OA
ATOM     19  H   UNL     1     -28.195  -9.790  22.318  1.00  0.00     0.293 HD
ENDBRANCH  15  18
BRANCH  17  20
ATOM     20  O   UNL     1     -30.367 -11.269  24.795  1.00  0.00    -0.504 OA
ATOM     21  H   UNL     1     -29.380 -11.497  24.752  1.00  0.00     0.293 HD
ENDBRANCH  17  20
ENDBRANCH   1  12
BRANCH   2  22
ATOM     22  O   UNL     1     -34.358 -11.970  21.364  1.00  0.00    -0.502 OA
ATOM     23  H   UNL     1     -33.986 -12.665  22.001  1.00  0.00     0.293 HD
ENDBRANCH   2  22
BRANCH   6  24
ATOM     24  O   UNL     1     -39.446 -10.409  21.168  1.00  0.00    -0.507 OA
ATOM     25  H   UNL     1     -40.382 -10.698  21.411  1.00  0.00     0.293 HD
ENDBRANCH   6  24
BRANCH   8  26
ATOM     26  O   UNL     1     -39.219  -6.456  23.884  1.00  0.00    -0.508 OA
ATOM     27  H   UNL     1     -38.901  -5.503  23.751  1.00  0.00     0.293 HD
ENDBRANCH   8  26
TORSDOF 6
ENDMDL
MODEL 4
REMARK VINA RESULT:    -6.673      1.231      2.965
REMARK INTER + INTRA:          -8.327
REMARK INTER:                  -7.996
REMARK INTRA:                  -0.331
REMARK UNBOUND:                -0.289
REMARK SMILES O=c1c(O)c(-c2ccc(O)c(O)c2)oc2cc(O)cc(O)c12
REMARK SMILES IDX 5 1 3 2 2 3 1 4 22 5 20 6 19 7 17 8 16 9 15 10 14 11 6 12
REMARK SMILES IDX 7 13 8 14 9 15 13 16 11 17 10 18 12 20 4 22 21 24 18 26
REMARK H PARENT 10 19 12 21 4 23 21 25 18 27
REMARK Flexibility Score: inf
ROOT
ATOM      1  C   UNL     1     -36.407  -8.029  22.006  1.00  0.00     0.180 A 
ATOM      2  C   UNL     1     -35.675  -6.871  22.323  1.00  0.00     0.208 A 
ATOM      3  C   UNL     1     -34.307  -6.989  22.619  1.00  0.00     0.238 A 
ATOM      4  O   UNL     1     -33.671  -5.957  22.956  1.00  0.00    -0.285 OA
ATOM      5  C   UNL     1     -33.685  -8.260  22.578  1.00  0.00     0.111 A 
ATOM      6  C   UNL     1     -32.297  -8.491  22.820  1.00  0.00     0.134 A 
ATOM      7  C   UNL     1     -31.817  -9.805  22.882  1.00  0.00     0.093 A 
ATOM      8  C   UNL     1     -32.661 -10.893  22.645  1.00  0.00     0.123 A 
ATOM      9  C   UNL     1     -34.004 -10.674  22.348  1.00  0.00     0.094 A 
ATOM     10  C   UNL     1     -34.520  -9.377  22.316  1.00  0.00     0.146 A 
ATOM     11  O   UNL     1     -35.809  -9.214  22.041  1.00  0.00    -0.452 OA
ENDROOT
BRANCH   1  12
ATOM     12  C   UNL     1     -37.845  -7.980  21.659  1.00  0.00     0.025 A 
ATOM     13  C   UNL     1     -38.805  -8.148  22.669  1.00  0.00     0.016 A 
ATOM     14  C   UNL     1     -40.167  -8.127  22.360  1.00  0.00     0.051 A 
ATOM     15  C   UNL     1     -40.592  -7.954  21.040  1.00  0.00     0.157 A 
ATOM     16  C   UNL     1     -38.273  -7.827  20.327  1.00  0.00     0.062 A 
ATOM     17  C   UNL     1     -39.640  -7.807  20.017  1.00  0.00     0.158 A 
BRANCH  15  18
ATOM     18  O   UNL     1     -41.958  -7.934  20.762  1.00  0.00    -0.504 OA
ATOM     19  H   UNL     1     -42.408  -7.139  20.326  1.00  0.00     0.293 HD
ENDBRANCH  15  18
BRANCH  17  20
ATOM     20  O   UNL     1     -40.056  -7.648  18.695  1.00  0.00    -0.504 OA
ATOM     21  H   UNL     1     -39.391  -7.505  17.943  1.00  0.00     0.293 HD
ENDBRANCH  17  20
ENDBRANCH   1  12
BRANCH   2  22
ATOM     22  O   UNL     1     -36.314  -5.629  22.380  1.00  0.00    -0.502 OA
ATOM     23  H   UNL     1     -36.917  -5.362  23.148  1.00  0.00     0.293 HD
ENDBRANCH   2  22
BRANCH   6  24
ATOM     24  O   UNL     1     -31.353  -7.473  22.978  1.00  0.00    -0.507 OA
ATOM     25  H   UNL     1     -31.112  -7.044  23.859  1.00  0.00     0.293 HD
ENDBRANCH   6  24
BRANCH   8  26
ATOM     26  O   UNL     1     -32.171 -12.196  22.692  1.00  0.00    -0.508 OA
ATOM     27  H   UNL     1     -31.472 -12.524  22.035  1.00  0.00     0.293 HD
ENDBRANCH   8  26
TORSDOF 6
ENDMDL
MODEL 5
REMARK VINA RESULT:    -6.664      2.326      7.676
REMARK INTER + INTRA:          -8.316
REMARK INTER:                  -8.243
REMARK INTRA:                  -0.073
REMARK UNBOUND:                -0.289
REMARK SMILES O=c1c(O)c(-c2ccc(O)c(O)c2)oc2cc(O)cc(O)c12
REMARK SMILES IDX 5 1 3 2 2 3 1 4 22 5 20 6 19 7 17 8 16 9 15 10 14 11 6 12
REMARK SMILES IDX 7 13 8 14 9 15 13 16 11 17 10 18 12 20 4 22 21 24 18 26
REMARK H PARENT 10 19 12 21 4 23 21 25 18 27
REMARK Flexibility Score: inf
ROOT
ATOM      1  C   UNL     1     -33.120  -9.482  22.150  1.00  0.00     0.180 A 
ATOM      2  C   UNL     1     -33.318  -8.284  21.442  1.00  0.00     0.208 A 
ATOM      3  C   UNL     1     -34.568  -8.040  20.850  1.00  0.00     0.238 A 
ATOM      4  O   UNL     1     -34.721  -6.991  20.171  1.00  0.00    -0.285 OA
ATOM      5  C   UNL     1     -35.609  -8.989  20.988  1.00  0.00     0.111 A 
ATOM      6  C   UNL     1     -36.927  -8.827  20.464  1.00  0.00     0.134 A 
ATOM      7  C   UNL     1     -37.838  -9.888  20.547  1.00  0.00     0.093 A 
ATOM      8  C   UNL     1     -37.499 -11.080  21.194  1.00  0.00     0.123 A 
ATOM      9  C   UNL     1     -36.235 -11.223  21.760  1.00  0.00     0.094 A 
ATOM     10  C   UNL     1     -35.293 -10.197  21.662  1.00  0.00     0.146 A 
ATOM     11  O   UNL     1     -34.096 -10.381  22.206  1.00  0.00    -0.452 OA
ENDROOT
BRANCH   1  12
ATOM     12  C   UNL     1     -31.839  -9.797  22.823  1.00  0.00     0.025 A 
ATOM     13  C   UNL     1     -31.822 -10.008  24.210  1.00  0.00     0.016 A 
ATOM     14  C   UNL     1     -30.621 -10.286  24.869  1.00  0.00     0.051 A 
ATOM     15  C   UNL     1     -29.420 -10.343  24.156  1.00  0.00     0.157 A 
ATOM     16  C   UNL     1     -30.627  -9.834  22.110  1.00  0.00     0.062 A 
ATOM     17  C   UNL     1     -29.421 -10.112  22.770  1.00  0.00     0.158 A 
BRANCH  15  18
ATOM     18  O   UNL     1     -28.238 -10.626  24.839  1.00  0.00    -0.504 OA
ATOM     19  H   UNL     1     -27.785 -11.529  24.781  1.00  0.00     0.293 HD
ENDBRANCH  15  18
BRANCH  17  20
ATOM     20  O   UNL     1     -28.225 -10.154  22.055  1.00  0.00    -0.504 OA
ATOM     21  H   UNL     1     -27.677 -11.003  21.985  1.00  0.00     0.293 HD
ENDBRANCH  17  20
ENDBRANCH   1  12
BRANCH   2  22
ATOM     22  O   UNL     1     -32.269  -7.370  21.300  1.00  0.00    -0.502 OA
ATOM     23  H   UNL     1     -32.378  -6.382  21.496  1.00  0.00     0.293 HD
ENDBRANCH   2  22
BRANCH   6  24
ATOM     24  O   UNL     1     -37.396  -7.646  19.883  1.00  0.00    -0.507 OA
ATOM     25  H   UNL     1     -37.481  -7.489  18.890  1.00  0.00     0.293 HD
ENDBRANCH   6  24
BRANCH   8  26
ATOM     26  O   UNL     1     -38.417 -12.123  21.287  1.00  0.00    -0.508 OA
ATOM     27  H   UNL     1     -38.403 -12.774  22.063  1.00  0.00     0.293 HD
ENDBRANCH   8  26
TORSDOF 6
ENDMDL
MODEL 6
REMARK VINA RESULT:    -6.464      3.189      5.935
REMARK INTER + INTRA:          -8.076
REMARK INTER:                  -8.173
REMARK INTRA:                   0.097
REMARK UNBOUND:                -0.289
REMARK SMILES O=c1c(O)c(-c2ccc(O)c(O)c2)oc2cc(O)cc(O)c12
REMARK SMILES IDX 5 1 3 2 2 3 1 4 22 5 20 6 19 7 17 8 16 9 15 10 14 11 6 12
REMARK SMILES IDX 7 13 8 14 9 15 13 16 11 17 10 18 12 20 4 22 21 24 18 26
REMARK H PARENT 10 19 12 21 4 23 21 25 18 27
REMARK Flexibility Score: inf
ROOT
ATOM      1  C   UNL     1     -37.210  -7.992  20.243  1.00  0.00     0.180 A 
ATOM      2  C   UNL     1     -38.151  -7.546  19.299  1.00  0.00     0.208 A 
ATOM      3  C   UNL     1     -38.123  -6.202  18.892  1.00  0.00     0.238 A 
ATOM      4  O   UNL     1     -39.002  -5.796  18.089  1.00  0.00    -0.285 OA
ATOM      5  C   UNL     1     -37.144  -5.326  19.421  1.00  0.00     0.111 A 
ATOM      6  C   UNL     1     -36.998  -3.956  19.050  1.00  0.00     0.134 A 
ATOM      7  C   UNL     1     -36.080  -3.149  19.734  1.00  0.00     0.093 A 
ATOM      8  C   UNL     1     -35.257  -3.681  20.730  1.00  0.00     0.123 A 
ATOM      9  C   UNL     1     -35.351  -5.031  21.057  1.00  0.00     0.094 A 
ATOM     10  C   UNL     1     -36.283  -5.852  20.418  1.00  0.00     0.146 A 
ATOM     11  O   UNL     1     -36.347  -7.131  20.770  1.00  0.00    -0.452 OA
ENDROOT
BRANCH   1  12
ATOM     12  C   UNL     1     -37.161  -9.399  20.701  1.00  0.00     0.025 A 
ATOM     13  C   UNL     1     -38.347 -10.040  21.090  1.00  0.00     0.016 A 
ATOM     14  C   UNL     1     -38.321 -11.361  21.546  1.00  0.00     0.051 A 
ATOM     15  C   UNL     1     -37.112 -12.056  21.633  1.00  0.00     0.157 A 
ATOM     16  C   UNL     1     -35.942 -10.093  20.809  1.00  0.00     0.062 A 
ATOM     17  C   UNL     1     -35.915 -11.419  21.266  1.00  0.00     0.158 A 
BRANCH  15  18
ATOM     18  O   UNL     1     -37.117 -13.374  22.088  1.00  0.00    -0.504 OA
ATOM     19  H   UNL     1     -37.861 -14.021  21.857  1.00  0.00     0.293 HD
ENDBRANCH  15  18
BRANCH  17  20
ATOM     20  O   UNL     1     -34.702 -12.101  21.364  1.00  0.00    -0.504 OA
ATOM     21  H   UNL     1     -34.659 -13.064  21.678  1.00  0.00     0.293 HD
ENDBRANCH  17  20
ENDBRANCH   1  12
BRANCH   2  22
ATOM     22  O   UNL     1     -39.122  -8.422  18.806  1.00  0.00    -0.502 OA
ATOM     23  H   UNL     1     -38.990  -9.426  18.788  1.00  0.00     0.293 HD
ENDBRANCH   2  22
BRANCH   6  24
ATOM     24  O   UNL     1     -37.705  -3.350  18.007  1.00  0.00    -0.507 OA
ATOM     25  H   UNL     1     -37.310  -2.695  17.349  1.00  0.00     0.293 HD
ENDBRANCH   6  24
BRANCH   8  26
ATOM     26  O   UNL     1     -34.335  -2.875  21.394  1.00  0.00    -0.508 OA
ATOM     27  H   UNL     1     -34.238  -2.900  22.403  1.00  0.00     0.293 HD
ENDBRANCH   8  26
TORSDOF 6
ENDMDL
MODEL 7
REMARK VINA RESULT:    -6.396      2.177      3.891
REMARK INTER + INTRA:          -7.993
REMARK INTER:                  -8.430
REMARK INTRA:                   0.437
REMARK UNBOUND:                -0.289
REMARK SMILES O=c1c(O)c(-c2ccc(O)c(O)c2)oc2cc(O)cc(O)c12
REMARK SMILES IDX 5 1 3 2 2 3 1 4 22 5 20 6 19 7 17 8 16 9 15 10 14 11 6 12
REMARK SMILES IDX 7 13 8 14 9 15 13 16 11 17 10 18 12 20 4 22 21 24 18 26
REMARK H PARENT 10 19 12 21 4 23 21 25 18 27
REMARK Flexibility Score: inf
ROOT
ATOM      1  C   UNL     1     -33.682  -9.598  22.351  1.00  0.00     0.180 A 
ATOM      2  C   UNL     1     -32.727 -10.615  22.520  1.00  0.00     0.208 A 
ATOM      3  C   UNL     1     -31.439 -10.273  22.966  1.00  0.00     0.238 A 
ATOM      4  O   UNL     1     -30.573 -11.181  23.062  1.00  0.00    -0.285 OA
ATOM      5  C   UNL     1     -31.129  -8.922  23.252  1.00  0.00     0.111 A 
ATOM      6  C   UNL     1     -29.869  -8.468  23.747  1.00  0.00     0.134 A 
ATOM      7  C   UNL     1     -29.631  -7.093  23.870  1.00  0.00     0.093 A 
ATOM      8  C   UNL     1     -30.630  -6.160  23.578  1.00  0.00     0.123 A 
ATOM      9  C   UNL     1     -31.881  -6.597  23.152  1.00  0.00     0.094 A 
ATOM     10  C   UNL     1     -32.137  -7.960  22.985  1.00  0.00     0.146 A 
ATOM     11  O   UNL     1     -33.340  -8.332  22.565  1.00  0.00    -0.452 OA
ENDROOT
BRANCH   1  12
ATOM     12  C   UNL     1     -35.066  -9.883  21.910  1.00  0.00     0.025 A 
ATOM     13  C   UNL     1     -35.929  -8.817  21.610  1.00  0.00     0.016 A 
ATOM     14  C   UNL     1     -37.245  -9.062  21.213  1.00  0.00     0.051 A 
ATOM     15  C   UNL     1     -37.725 -10.372  21.122  1.00  0.00     0.157 A 
ATOM     16  C   UNL     1     -35.557 -11.200  21.839  1.00  0.00     0.062 A 
ATOM     17  C   UNL     1     -36.878 -11.447  21.440  1.00  0.00     0.158 A 
BRANCH  15  18
ATOM     18  O   UNL     1     -39.043 -10.587  20.719  1.00  0.00    -0.504 OA
ATOM     19  H   UNL     1     -39.521 -11.464  20.885  1.00  0.00     0.293 HD
ENDBRANCH  15  18
BRANCH  17  20
ATOM     20  O   UNL     1     -37.354 -12.756  21.366  1.00  0.00    -0.504 OA
ATOM     21  H   UNL     1     -37.051 -13.390  20.636  1.00  0.00     0.293 HD
ENDBRANCH  17  20
ENDBRANCH   1  12
BRANCH   2  22
ATOM     22  O   UNL     1     -33.048 -11.940  22.211  1.00  0.00    -0.502 OA
ATOM     23  H   UNL     1     -33.316 -12.614  22.918  1.00  0.00     0.293 HD
ENDBRANCH   2  22
BRANCH   6  24
ATOM     24  O   UNL     1     -28.838  -9.319  24.154  1.00  0.00    -0.507 OA
ATOM     25  H   UNL     1     -28.552  -9.458  25.111  1.00  0.00     0.293 HD
ENDBRANCH   6  24
BRANCH   8  26
ATOM     26  O   UNL     1     -30.389  -4.795  23.719  1.00  0.00    -0.508 OA
ATOM     27  H   UNL     1     -30.489  -4.156  22.939  1.00  0.00     0.293 HD
ENDBRANCH   8  26
TORSDOF 6
ENDMDL
MODEL 8
REMARK VINA RESULT:    -6.361      2.262      4.563
REMARK INTER + INTRA:          -7.952
REMARK INTER:                  -8.455
REMARK INTRA:                   0.503
REMARK UNBOUND:                -0.289
REMARK SMILES O=c1c(O)c(-c2ccc(O)c(O)c2)oc2cc(O)cc(O)c12
REMARK SMILES IDX 5 1 3 2 2 3 1 4 22 5 20 6 19 7 17 8 16 9 15 10 14 11 6 12
REMARK SMILES IDX 7 13 8 14 9 15 13 16 11 17 10 18 12 20 4 22 21 24 18 26
REMARK H PARENT 10 19 12 21 4 23 21 25 18 27
REMARK Flexibility Score: inf
ROOT
ATOM      1  C   UNL     1     -33.729  -9.448  22.523  1.00  0.00     0.180 A 
ATOM      2  C   UNL     1     -33.433  -8.076  22.603  1.00  0.00     0.208 A 
ATOM      3  C   UNL     1     -32.140  -7.679  22.980  1.00  0.00     0.238 A 
ATOM      4  O   UNL     1     -31.897  -6.451  23.103  1.00  0.00    -0.285 OA
ATOM      5  C   UNL     1     -31.155  -8.658  23.255  1.00  0.00     0.111 A 
ATOM      6  C   UNL     1     -29.802  -8.370  23.607  1.00  0.00     0.134 A 
ATOM      7  C   UNL     1     -28.950  -9.414  23.986  1.00  0.00     0.093 A 
ATOM      8  C   UNL     1     -29.383 -10.742  23.962  1.00  0.00     0.123 A 
ATOM      9  C   UNL     1     -30.684 -11.038  23.563  1.00  0.00     0.094 A 
ATOM     10  C   UNL     1     -31.568 -10.015  23.214  1.00  0.00     0.146 A 
ATOM     11  O   UNL     1     -32.803 -10.341  22.851  1.00  0.00    -0.452 OA
ENDROOT
BRANCH   1  12
ATOM     12  C   UNL     1     -35.062  -9.943  22.108  1.00  0.00     0.025 A 
ATOM     13  C   UNL     1     -36.152  -9.058  22.089  1.00  0.00     0.016 A 
ATOM     14  C   UNL     1     -37.422  -9.508  21.721  1.00  0.00     0.051 A 
ATOM     15  C   UNL     1     -37.627 -10.849  21.381  1.00  0.00     0.157 A 
ATOM     16  C   UNL     1     -35.274 -11.296  21.785  1.00  0.00     0.062 A 
ATOM     17  C   UNL     1     -36.549 -11.749  21.417  1.00  0.00     0.158 A 
BRANCH  15  18
ATOM     18  O   UNL     1     -38.905 -11.269  21.015  1.00  0.00    -0.504 OA
ATOM     19  H   UNL     1     -39.481 -10.742  20.370  1.00  0.00     0.293 HD
ENDBRANCH  15  18
BRANCH  17  20
ATOM     20  O   UNL     1     -36.749 -13.090  21.092  1.00  0.00    -0.504 OA
ATOM     21  H   UNL     1     -37.421 -13.662  21.590  1.00  0.00     0.293 HD
ENDBRANCH  17  20
ENDBRANCH   1  12
BRANCH   2  22
ATOM     22  O   UNL     1     -34.427  -7.127  22.348  1.00  0.00    -0.502 OA
ATOM     23  H   UNL     1     -35.305  -7.364  21.901  1.00  0.00     0.293 HD
ENDBRANCH   2  22
BRANCH   6  24
ATOM     24  O   UNL     1     -29.244  -7.089  23.574  1.00  0.00    -0.507 OA
ATOM     25  H   UNL     1     -29.767  -6.237  23.436  1.00  0.00     0.293 HD
ENDBRANCH   6  24
BRANCH   8  26
ATOM     26  O   UNL     1     -28.523 -11.777  24.325  1.00  0.00    -0.508 OA
ATOM     27  H   UNL     1     -28.869 -12.632  24.744  1.00  0.00     0.293 HD
ENDBRANCH   8  26
TORSDOF 6
ENDMDL
MODEL 9
REMARK VINA RESULT:    -6.222      3.160      6.352
REMARK INTER + INTRA:          -7.784
REMARK INTER:                  -7.851
REMARK INTRA:                   0.067
REMARK UNBOUND:                -0.289
REMARK SMILES O=c1c(O)c(-c2ccc(O)c(O)c2)oc2cc(O)cc(O)c12
REMARK SMILES IDX 5 1 3 2 2 3 1 4 22 5 20 6 19 7 17 8 16 9 15 10 14 11 6 12
REMARK SMILES IDX 7 13 8 14 9 15 13 16 11 17 10 18 12 20 4 22 21 24 18 26
REMARK H PARENT 10 19 12 21 4 23 21 25 18 27
REMARK Flexibility Score: inf
ROOT
ATOM      1  C   UNL     1     -36.631  -8.031  20.771  1.00  0.00     0.180 A 
ATOM      2  C   UNL     1     -35.834  -7.165  21.540  1.00  0.00     0.208 A 
ATOM      3  C   UNL     1     -35.842  -5.791  21.248  1.00  0.00     0.238 A 
ATOM      4  O   UNL     1     -35.085  -5.030  21.904  1.00  0.00    -0.285 OA
ATOM      5  C   UNL     1     -36.661  -5.299  20.203  1.00  0.00     0.111 A 
ATOM      6  C   UNL     1     -36.778  -3.922  19.847  1.00  0.00     0.134 A 
ATOM      7  C   UNL     1     -37.514  -3.563  18.711  1.00  0.00     0.093 A 
ATOM      8  C   UNL     1     -38.193  -4.525  17.958  1.00  0.00     0.123 A 
ATOM      9  C   UNL     1     -38.133  -5.864  18.334  1.00  0.00     0.094 A 
ATOM     10  C   UNL     1     -37.376  -6.258  19.440  1.00  0.00     0.146 A 
ATOM     11  O   UNL     1     -37.337  -7.547  19.755  1.00  0.00    -0.452 OA
ENDROOT
BRANCH   1  12
ATOM     12  C   UNL     1     -36.694  -9.486  21.036  1.00  0.00     0.025 A 
ATOM     13  C   UNL     1     -35.502 -10.214  21.177  1.00  0.00     0.016 A 
ATOM     14  C   UNL     1     -35.538 -11.592  21.406  1.00  0.00     0.051 A 
ATOM     15  C   UNL     1     -36.760 -12.266  21.483  1.00  0.00     0.157 A 
ATOM     16  C   UNL     1     -37.923 -10.169  21.092  1.00  0.00     0.062 A 
ATOM     17  C   UNL     1     -37.960 -11.552  21.321  1.00  0.00     0.158 A 
BRANCH  15  18
ATOM     18  O   UNL     1     -36.765 -13.641  21.715  1.00  0.00    -0.504 OA
ATOM     19  H   UNL     1     -37.547 -14.228  21.455  1.00  0.00     0.293 HD
ENDBRANCH  15  18
BRANCH  17  20
ATOM     20  O   UNL     1     -39.182 -12.219  21.382  1.00  0.00    -0.504 OA
ATOM     21  H   UNL     1     -39.995 -11.801  21.821  1.00  0.00     0.293 HD
ENDBRANCH  17  20
ENDBRANCH   1  12
BRANCH   2  22
ATOM     22  O   UNL     1     -35.017  -7.676  22.553  1.00  0.00    -0.502 OA
ATOM     23  H   UNL     1     -35.384  -8.217  23.327  1.00  0.00     0.293 HD
ENDBRANCH   2  22
BRANCH   6  24
ATOM     24  O   UNL     1     -36.217  -2.875  20.583  1.00  0.00    -0.507 OA
ATOM     25  H   UNL     1     -36.204  -2.824  21.591  1.00  0.00     0.293 HD
ENDBRANCH   6  24
BRANCH   8  26
ATOM     26  O   UNL     1     -38.937  -4.157  16.840  1.00  0.00    -0.508 OA
ATOM     27  H   UNL     1     -39.171  -4.826  16.115  1.00  0.00     0.293 HD
ENDBRANCH   8  26
TORSDOF 6
ENDMDL
