MODEL 1
REMARK VINA RESULT:    -6.226      0.000      0.000
REMARK INTER + INTRA:          -7.764
REMARK INTER:                  -7.500
REMARK INTRA:                  -0.265
REMARK UNBOUND:                -0.265
REMARK SMILES O=c1c(O)c(-c2ccc(O)c(O)c2)oc2cc(O)cc(O)c12
REMARK SMILES IDX 5 1 3 2 2 3 1 4 22 5 20 6 19 7 17 8 16 9 15 10 14 11 6 12
REMARK SMILES IDX 7 13 8 14 9 15 13 16 11 17 10 18 12 20 4 22 21 24 18 26
REMARK H PARENT 10 19 12 21 4 23 21 25 18 27
REMARK Flexibility Score: inf
ROOT
ATOM      1  C   UNL     1     -20.342  39.827  -3.658  1.00  0.00     0.180 A 
ATOM      2  C   UNL     1     -19.988  40.782  -4.627  1.00  0.00     0.208 A 
ATOM      3  C   UNL     1     -19.822  40.370  -5.960  1.00  0.00     0.238 A 
ATOM      4  O   UNL     1     -19.558  41.238  -6.832  1.00  0.00    -0.285 OA
ATOM      5  C   UNL     1     -19.996  39.007  -6.303  1.00  0.00     0.111 A 
ATOM      6  C   UNL     1     -19.813  38.472  -7.614  1.00  0.00     0.134 A 
ATOM      7  C   UNL     1     -20.139  37.133  -7.865  1.00  0.00     0.093 A 
ATOM      8  C   UNL     1     -20.579  36.294  -6.837  1.00  0.00     0.123 A 
ATOM      9  C   UNL     1     -20.704  36.792  -5.543  1.00  0.00     0.094 A 
ATOM     10  C   UNL     1     -20.420  38.133  -5.269  1.00  0.00     0.146 A 
ATOM     11  O   UNL     1     -20.563  38.570  -4.023  1.00  0.00    -0.452 OA
ENDROOT
BRANCH   1  12
ATOM     12  C   UNL     1     -20.512  40.180  -2.230  1.00  0.00     0.025 A 
ATOM     13  C   UNL     1     -19.547  39.827  -1.270  1.00  0.00     0.016 A 
ATOM     14  C   UNL     1     -19.739  40.149   0.076  1.00  0.00     0.051 A 
ATOM     15  C   UNL     1     -20.903  40.815   0.485  1.00  0.00     0.157 A 
ATOM     16  C   UNL     1     -21.685  40.829  -1.812  1.00  0.00     0.062 A 
ATOM     17  C   UNL     1     -21.880  41.154  -0.465  1.00  0.00     0.158 A 
BRANCH  15  18
ATOM     18  O   UNL     1     -21.090  41.137   1.827  1.00  0.00    -0.504 OA
ATOM     19  H   UNL     1     -21.660  41.926   2.110  1.00  0.00     0.293 HD
ENDBRANCH  15  18
BRANCH  17  20
ATOM     20  O   UNL     1     -23.053  41.810  -0.089  1.00  0.00    -0.504 OA
ATOM     21  H   UNL     1     -23.922  41.690  -0.593  1.00  0.00     0.293 HD
ENDBRANCH  17  20
ENDBRANCH   1  12
BRANCH   2  22
ATOM     22  O   UNL     1     -19.843  42.125  -4.271  1.00  0.00    -0.502 OA
ATOM     23  H   UNL     1     -20.159  42.489  -3.381  1.00  0.00     0.293 HD
ENDBRANCH   2  22
BRANCH   6  24
ATOM     24  O   UNL     1     -19.292  39.199  -8.688  1.00  0.00    -0.507 OA
ATOM     25  H   UNL     1     -19.847  39.635  -9.409  1.00  0.00     0.293 HD
ENDBRANCH   6  24
BRANCH   8  26
ATOM     26  O   UNL     1     -20.887  34.960  -7.093  1.00  0.00    -0.508 OA
ATOM     27  H   UNL     1     -21.499  34.431  -6.482  1.00  0.00     0.293 HD
ENDBRANCH   8  26
TORSDOF 6
ENDMDL
MODEL 2
REMARK VINA RESULT:    -5.803      1.625      3.467
REMARK INTER + INTRA:          -7.255
REMARK INTER:                  -6.942
REMARK INTRA:                  -0.313
REMARK UNBOUND:                -0.265
REMARK SMILES O=c1c(O)c(-c2ccc(O)c(O)c2)oc2cc(O)cc(O)c12
REMARK SMILES IDX 5 1 3 2 2 3 1 4 22 5 20 6 19 7 17 8 16 9 15 10 14 11 6 12
REMARK SMILES IDX 7 13 8 14 9 15 13 16 11 17 10 18 12 20 4 22 21 24 18 26
REMARK H PARENT 10 19 12 21 4 23 21 25 18 27
REMARK Flexibility Score: inf
ROOT
ATOM      1  C   UNL     1     -19.890  39.909  -3.308  1.00  0.00     0.180 A 
ATOM      2  C   UNL     1     -20.445  38.802  -3.974  1.00  0.00     0.208 A 
ATOM      3  C   UNL     1     -20.107  38.577  -5.318  1.00  0.00     0.238 A 
ATOM      4  O   UNL     1     -20.564  37.555  -5.893  1.00  0.00    -0.285 OA
ATOM      5  C   UNL     1     -19.233  39.470  -5.985  1.00  0.00     0.111 A 
ATOM      6  C   UNL     1     -18.856  39.362  -7.357  1.00  0.00     0.134 A 
ATOM      7  C   UNL     1     -17.883  40.225  -7.875  1.00  0.00     0.093 A 
ATOM      8  C   UNL     1     -17.323  41.235  -7.089  1.00  0.00     0.123 A 
ATOM      9  C   UNL     1     -17.729  41.387  -5.765  1.00  0.00     0.094 A 
ATOM     10  C   UNL     1     -18.672  40.518  -5.209  1.00  0.00     0.146 A 
ATOM     11  O   UNL     1     -19.022  40.690  -3.941  1.00  0.00    -0.452 OA
ENDROOT
BRANCH   1  12
ATOM     12  C   UNL     1     -20.217  40.226  -1.899  1.00  0.00     0.025 A 
ATOM     13  C   UNL     1     -21.203  41.173  -1.571  1.00  0.00     0.016 A 
ATOM     14  C   UNL     1     -21.478  41.474  -0.235  1.00  0.00     0.051 A 
ATOM     15  C   UNL     1     -20.763  40.843   0.793  1.00  0.00     0.157 A 
ATOM     16  C   UNL     1     -19.490  39.613  -0.866  1.00  0.00     0.062 A 
ATOM     17  C   UNL     1     -19.763  39.911   0.474  1.00  0.00     0.158 A 
BRANCH  15  18
ATOM     18  O   UNL     1     -21.042  41.144   2.125  1.00  0.00    -0.504 OA
ATOM     19  H   UNL     1     -21.751  40.641   2.646  1.00  0.00     0.293 HD
ENDBRANCH  15  18
BRANCH  17  20
ATOM     20  O   UNL     1     -19.028  39.273   1.474  1.00  0.00    -0.504 OA
ATOM     21  H   UNL     1     -19.470  38.718   2.196  1.00  0.00     0.293 HD
ENDBRANCH  17  20
ENDBRANCH   1  12
BRANCH   2  22
ATOM     22  O   UNL     1     -21.288  37.921  -3.292  1.00  0.00    -0.502 OA
ATOM     23  H   UNL     1     -21.186  37.727  -2.303  1.00  0.00     0.293 HD
ENDBRANCH   2  22
BRANCH   6  24
ATOM     24  O   UNL     1     -19.421  38.449  -8.252  1.00  0.00    -0.507 OA
ATOM     25  H   UNL     1     -20.345  38.529  -8.648  1.00  0.00     0.293 HD
ENDBRANCH   6  24
BRANCH   8  26
ATOM     26  O   UNL     1     -16.367  42.100  -7.617  1.00  0.00    -0.508 OA
ATOM     27  H   UNL     1     -16.396  42.392  -8.588  1.00  0.00     0.293 HD
ENDBRANCH   8  26
TORSDOF 6
ENDMDL
MODEL 3
REMARK VINA RESULT:    -5.801      2.834      5.214
REMARK INTER + INTRA:          -7.253
REMARK INTER:                  -6.933
REMARK INTRA:                  -0.320
REMARK UNBOUND:                -0.265
REMARK SMILES O=c1c(O)c(-c2ccc(O)c(O)c2)oc2cc(O)cc(O)c12
REMARK SMILES IDX 5 1 3 2 2 3 1 4 22 5 20 6 19 7 17 8 16 9 15 10 14 11 6 12
REMARK SMILES IDX 7 13 8 14 9 15 13 16 11 17 10 18 12 20 4 22 21 24 18 26
REMARK H PARENT 10 19 12 21 4 23 21 25 18 27
REMARK Flexibility Score: inf
ROOT
ATOM      1  C   UNL     1     -20.067  40.535   0.807  1.00  0.00     0.180 A 
ATOM      2  C   UNL     1     -21.310  41.134   0.541  1.00  0.00     0.208 A 
ATOM      3  C   UNL     1     -21.941  40.875  -0.687  1.00  0.00     0.238 A 
ATOM      4  O   UNL     1     -23.079  41.371  -0.898  1.00  0.00    -0.285 OA
ATOM      5  C   UNL     1     -21.314  40.035  -1.639  1.00  0.00     0.111 A 
ATOM      6  C   UNL     1     -21.843  39.738  -2.930  1.00  0.00     0.134 A 
ATOM      7  C   UNL     1     -21.202  38.790  -3.738  1.00  0.00     0.093 A 
ATOM      8  C   UNL     1     -20.014  38.180  -3.327  1.00  0.00     0.123 A 
ATOM      9  C   UNL     1     -19.458  38.508  -2.093  1.00  0.00     0.094 A 
ATOM     10  C   UNL     1     -20.094  39.423  -1.250  1.00  0.00     0.146 A 
ATOM     11  O   UNL     1     -19.536  39.700  -0.078  1.00  0.00    -0.452 OA
ENDROOT
BRANCH   1  12
ATOM     12  C   UNL     1     -19.330  40.778   2.068  1.00  0.00     0.025 A 
ATOM     13  C   UNL     1     -18.538  41.927   2.243  1.00  0.00     0.016 A 
ATOM     14  C   UNL     1     -17.832  42.125   3.432  1.00  0.00     0.051 A 
ATOM     15  C   UNL     1     -17.894  41.172   4.458  1.00  0.00     0.157 A 
ATOM     16  C   UNL     1     -19.371  39.817   3.091  1.00  0.00     0.062 A 
ATOM     17  C   UNL     1     -18.666  40.011   4.283  1.00  0.00     0.158 A 
BRANCH  15  18
ATOM     18  O   UNL     1     -17.190  41.373   5.643  1.00  0.00    -0.504 OA
ATOM     19  H   UNL     1     -16.202  41.597   5.643  1.00  0.00     0.293 HD
ENDBRANCH  15  18
BRANCH  17  20
ATOM     20  O   UNL     1     -18.741  39.040   5.282  1.00  0.00    -0.504 OA
ATOM     21  H   UNL     1     -18.824  39.281   6.262  1.00  0.00     0.293 HD
ENDBRANCH  17  20
ENDBRANCH   1  12
BRANCH   2  22
ATOM     22  O   UNL     1     -21.922  41.942   1.502  1.00  0.00    -0.502 OA
ATOM     23  H   UNL     1     -22.912  42.156   1.483  1.00  0.00     0.293 HD
ENDBRANCH   2  22
BRANCH   6  24
ATOM     24  O   UNL     1     -22.972  40.359  -3.474  1.00  0.00    -0.507 OA
ATOM     25  H   UNL     1     -23.891  39.946  -3.516  1.00  0.00     0.293 HD
ENDBRANCH   6  24
BRANCH   8  26
ATOM     26  O   UNL     1     -19.373  37.250  -4.144  1.00  0.00    -0.508 OA
ATOM     27  H   UNL     1     -19.686  37.073  -5.091  1.00  0.00     0.293 HD
ENDBRANCH   8  26
TORSDOF 6
ENDMDL
MODEL 4
REMARK VINA RESULT:    -5.488      1.889      3.570
REMARK INTER + INTRA:          -6.875
REMARK INTER:                  -6.880
REMARK INTRA:                   0.004
REMARK UNBOUND:                -0.265
REMARK SMILES O=c1c(O)c(-c2ccc(O)c(O)c2)oc2cc(O)cc(O)c12
REMARK SMILES IDX 5 1 3 2 2 3 1 4 22 5 20 6 19 7 17 8 16 9 15 10 14 11 6 12
REMARK SMILES IDX 7 13 8 14 9 15 13 16 11 17 10 18 12 20 4 22 21 24 18 26
REMARK H PARENT 10 19 12 21 4 23 21 25 18 27
REMARK Flexibility Score: inf
ROOT
ATOM      1  C   UNL     1     -20.622  39.237  -4.883  1.00  0.00     0.180 A 
ATOM      2  C   UNL     1     -20.506  37.907  -5.323  1.00  0.00     0.208 A 
ATOM      3  C   UNL     1     -20.440  37.650  -6.702  1.00  0.00     0.238 A 
ATOM      4  O   UNL     1     -20.282  36.463  -7.088  1.00  0.00    -0.285 OA
ATOM      5  C   UNL     1     -20.509  38.723  -7.624  1.00  0.00     0.111 A 
ATOM      6  C   UNL     1     -20.494  38.575  -9.043  1.00  0.00     0.134 A 
ATOM      7  C   UNL     1     -20.434  39.714  -9.855  1.00  0.00     0.093 A 
ATOM      8  C   UNL     1     -20.457  40.996  -9.301  1.00  0.00     0.123 A 
ATOM      9  C   UNL     1     -20.533  41.151  -7.919  1.00  0.00     0.094 A 
ATOM     10  C   UNL     1     -20.557  40.033  -7.081  1.00  0.00     0.146 A 
ATOM     11  O   UNL     1     -20.618  40.226  -5.769  1.00  0.00    -0.452 OA
ENDROOT
BRANCH   1  12
ATOM     12  C   UNL     1     -20.721  39.585  -3.447  1.00  0.00     0.025 A 
ATOM     13  C   UNL     1     -21.747  40.418  -2.965  1.00  0.00     0.016 A 
ATOM     14  C   UNL     1     -21.806  40.753  -1.610  1.00  0.00     0.051 A 
ATOM     15  C   UNL     1     -20.836  40.274  -0.719  1.00  0.00     0.157 A 
ATOM     16  C   UNL     1     -19.740  39.125  -2.554  1.00  0.00     0.062 A 
ATOM     17  C   UNL     1     -19.796  39.458  -1.196  1.00  0.00     0.158 A 
BRANCH  15  18
ATOM     18  O   UNL     1     -20.900  40.608   0.632  1.00  0.00    -0.504 OA
ATOM     19  H   UNL     1     -20.887  41.573   0.941  1.00  0.00     0.293 HD
ENDBRANCH  15  18
BRANCH  17  20
ATOM     20  O   UNL     1     -18.811  38.972  -0.337  1.00  0.00    -0.504 OA
ATOM     21  H   UNL     1     -18.701  39.318   0.607  1.00  0.00     0.293 HD
ENDBRANCH  17  20
ENDBRANCH   1  12
BRANCH   2  22
ATOM     22  O   UNL     1     -20.418  36.864  -4.397  1.00  0.00    -0.502 OA
ATOM     23  H   UNL     1     -20.354  35.893  -4.676  1.00  0.00     0.293 HD
ENDBRANCH   2  22
BRANCH   6  24
ATOM     24  O   UNL     1     -20.561  37.342  -9.700  1.00  0.00    -0.507 OA
ATOM     25  H   UNL     1     -21.023  37.187 -10.583  1.00  0.00     0.293 HD
ENDBRANCH   6  24
BRANCH   8  26
ATOM     26  O   UNL     1     -20.414  42.124 -10.117  1.00  0.00    -0.508 OA
ATOM     27  H   UNL     1     -19.847  42.149 -10.957  1.00  0.00     0.293 HD
ENDBRANCH   8  26
TORSDOF 6
ENDMDL
MODEL 5
REMARK VINA RESULT:    -5.416      1.622      6.930
REMARK INTER + INTRA:          -6.789
REMARK INTER:                  -6.519
REMARK INTRA:                  -0.271
REMARK UNBOUND:                -0.265
REMARK SMILES O=c1c(O)c(-c2ccc(O)c(O)c2)oc2cc(O)cc(O)c12
REMARK SMILES IDX 5 1 3 2 2 3 1 4 22 5 20 6 19 7 17 8 16 9 15 10 14 11 6 12
REMARK SMILES IDX 7 13 8 14 9 15 13 16 11 17 10 18 12 20 4 22 21 24 18 26
REMARK H PARENT 10 19 12 21 4 23 21 25 18 27
REMARK Flexibility Score: inf
ROOT
ATOM      1  C   UNL     1     -20.258  38.538  -6.121  1.00  0.00     0.180 A 
ATOM      2  C   UNL     1     -19.073  39.284  -6.247  1.00  0.00     0.208 A 
ATOM      3  C   UNL     1     -18.704  40.155  -5.209  1.00  0.00     0.238 A 
ATOM      4  O   UNL     1     -17.615  40.779  -5.303  1.00  0.00    -0.285 OA
ATOM      5  C   UNL     1     -19.533  40.284  -4.068  1.00  0.00     0.111 A 
ATOM      6  C   UNL     1     -19.278  41.168  -2.977  1.00  0.00     0.134 A 
ATOM      7  C   UNL     1     -20.096  41.117  -1.841  1.00  0.00     0.093 A 
ATOM      8  C   UNL     1     -21.199  40.261  -1.786  1.00  0.00     0.123 A 
ATOM      9  C   UNL     1     -21.491  39.438  -2.871  1.00  0.00     0.094 A 
ATOM     10  C   UNL     1     -20.672  39.440  -4.003  1.00  0.00     0.146 A 
ATOM     11  O   UNL     1     -20.979  38.632  -5.010  1.00  0.00    -0.452 OA
ENDROOT
BRANCH   1  12
ATOM     12  C   UNL     1     -20.725  37.617  -7.182  1.00  0.00     0.025 A 
ATOM     13  C   UNL     1     -21.277  38.102  -8.381  1.00  0.00     0.016 A 
ATOM     14  C   UNL     1     -21.734  37.214  -9.358  1.00  0.00     0.051 A 
ATOM     15  C   UNL     1     -21.659  35.830  -9.147  1.00  0.00     0.157 A 
ATOM     16  C   UNL     1     -20.672  36.231  -6.967  1.00  0.00     0.062 A 
ATOM     17  C   UNL     1     -21.128  35.338  -7.943  1.00  0.00     0.158 A 
BRANCH  15  18
ATOM     18  O   UNL     1     -22.113  34.947 -10.125  1.00  0.00    -0.504 OA
ATOM     19  H   UNL     1     -22.560  34.071  -9.883  1.00  0.00     0.293 HD
ENDBRANCH  15  18
BRANCH  17  20
ATOM     20  O   UNL     1     -21.047  33.967  -7.700  1.00  0.00    -0.504 OA
ATOM     21  H   UNL     1     -20.481  33.351  -8.270  1.00  0.00     0.293 HD
ENDBRANCH  17  20
ENDBRANCH   1  12
BRANCH   2  22
ATOM     22  O   UNL     1     -18.258  39.126  -7.370  1.00  0.00    -0.502 OA
ATOM     23  H   UNL     1     -17.907  39.912  -7.903  1.00  0.00     0.293 HD
ENDBRANCH   2  22
BRANCH   6  24
ATOM     24  O   UNL     1     -18.258  42.125  -2.969  1.00  0.00    -0.507 OA
ATOM     25  H   UNL     1     -17.693  42.368  -3.769  1.00  0.00     0.293 HD
ENDBRANCH   6  24
BRANCH   8  26
ATOM     26  O   UNL     1     -22.017  40.228  -0.659  1.00  0.00    -0.508 OA
ATOM     27  H   UNL     1     -21.974  40.953   0.048  1.00  0.00     0.293 HD
ENDBRANCH   8  26
TORSDOF 6
ENDMDL
MODEL 6
REMARK VINA RESULT:    -5.388      1.478      6.948
REMARK INTER + INTRA:          -6.755
REMARK INTER:                  -6.514
REMARK INTRA:                  -0.241
REMARK UNBOUND:                -0.265
REMARK SMILES O=c1c(O)c(-c2ccc(O)c(O)c2)oc2cc(O)cc(O)c12
REMARK SMILES IDX 5 1 3 2 2 3 1 4 22 5 20 6 19 7 17 8 16 9 15 10 14 11 6 12
REMARK SMILES IDX 7 13 8 14 9 15 13 16 11 17 10 18 12 20 4 22 21 24 18 26
REMARK H PARENT 10 19 12 21 4 23 21 25 18 27
REMARK Flexibility Score: inf
ROOT
ATOM      1  C   UNL     1     -20.676  39.304  -3.223  1.00  0.00     0.180 A 
ATOM      2  C   UNL     1     -21.516  40.423  -3.089  1.00  0.00     0.208 A 
ATOM      3  C   UNL     1     -21.598  41.068  -1.845  1.00  0.00     0.238 A 
ATOM      4  O   UNL     1     -22.309  42.102  -1.746  1.00  0.00    -0.285 OA
ATOM      5  C   UNL     1     -20.853  40.575  -0.745  1.00  0.00     0.111 A 
ATOM      6  C   UNL     1     -20.893  41.125   0.571  1.00  0.00     0.134 A 
ATOM      7  C   UNL     1     -20.016  40.639   1.549  1.00  0.00     0.093 A 
ATOM      8  C   UNL     1     -19.148  39.578   1.275  1.00  0.00     0.123 A 
ATOM      9  C   UNL     1     -19.146  38.996   0.010  1.00  0.00     0.094 A 
ATOM     10  C   UNL     1     -19.984  39.483  -0.996  1.00  0.00     0.146 A 
ATOM     11  O   UNL     1     -19.941  38.906  -2.191  1.00  0.00    -0.452 OA
ENDROOT
BRANCH   1  12
ATOM     12  C   UNL     1     -20.556  38.557  -4.496  1.00  0.00     0.025 A 
ATOM     13  C   UNL     1     -21.109  37.273  -4.647  1.00  0.00     0.016 A 
ATOM     14  C   UNL     1     -20.961  36.577  -5.849  1.00  0.00     0.051 A 
ATOM     15  C   UNL     1     -20.248  37.147  -6.913  1.00  0.00     0.157 A 
ATOM     16  C   UNL     1     -19.824  39.114  -5.558  1.00  0.00     0.062 A 
ATOM     17  C   UNL     1     -19.675  38.420  -6.764  1.00  0.00     0.158 A 
BRANCH  15  18
ATOM     18  O   UNL     1     -20.106  36.451  -8.112  1.00  0.00    -0.504 OA
ATOM     19  H   UNL     1     -20.670  36.671  -8.924  1.00  0.00     0.293 HD
ENDBRANCH  15  18
BRANCH  17  20
ATOM     20  O   UNL     1     -18.953  39.011  -7.801  1.00  0.00    -0.504 OA
ATOM     21  H   UNL     1     -19.403  39.538  -8.538  1.00  0.00     0.293 HD
ENDBRANCH  17  20
ENDBRANCH   1  12
BRANCH   2  22
ATOM     22  O   UNL     1     -22.225  40.906  -4.192  1.00  0.00    -0.502 OA
ATOM     23  H   UNL     1     -21.767  41.326  -4.992  1.00  0.00     0.293 HD
ENDBRANCH   2  22
BRANCH   6  24
ATOM     24  O   UNL     1     -21.785  42.123   0.974  1.00  0.00    -0.507 OA
ATOM     25  H   UNL     1     -22.334  42.691   0.346  1.00  0.00     0.293 HD
ENDBRANCH   6  24
BRANCH   8  26
ATOM     26  O   UNL     1     -18.291  39.090   2.258  1.00  0.00    -0.508 OA
ATOM     27  H   UNL     1     -18.576  38.352   2.892  1.00  0.00     0.293 HD
ENDBRANCH   8  26
TORSDOF 6
ENDMDL
MODEL 7
REMARK VINA RESULT:    -5.270      1.580      2.958
REMARK INTER + INTRA:          -6.613
REMARK INTER:                  -6.491
REMARK INTRA:                  -0.123
REMARK UNBOUND:                -0.265
REMARK SMILES O=c1c(O)c(-c2ccc(O)c(O)c2)oc2cc(O)cc(O)c12
REMARK SMILES IDX 5 1 3 2 2 3 1 4 22 5 20 6 19 7 17 8 16 9 15 10 14 11 6 12
REMARK SMILES IDX 7 13 8 14 9 15 13 16 11 17 10 18 12 20 4 22 21 24 18 26
REMARK H PARENT 10 19 12 21 4 23 21 25 18 27
REMARK Flexibility Score: inf
ROOT
ATOM      1  C   UNL     1     -20.210  39.787  -2.554  1.00  0.00     0.180 A 
ATOM      2  C   UNL     1     -21.019  38.705  -2.941  1.00  0.00     0.208 A 
ATOM      3  C   UNL     1     -20.942  38.236  -4.263  1.00  0.00     0.238 A 
ATOM      4  O   UNL     1     -21.629  37.233  -4.589  1.00  0.00    -0.285 OA
ATOM      5  C   UNL     1     -20.070  38.865  -5.184  1.00  0.00     0.111 A 
ATOM      6  C   UNL     1     -19.942  38.499  -6.558  1.00  0.00     0.134 A 
ATOM      7  C   UNL     1     -18.954  39.104  -7.344  1.00  0.00     0.093 A 
ATOM      8  C   UNL     1     -18.133  40.108  -6.823  1.00  0.00     0.123 A 
ATOM      9  C   UNL     1     -18.291  40.514  -5.501  1.00  0.00     0.094 A 
ATOM     10  C   UNL     1     -19.245  39.903  -4.681  1.00  0.00     0.146 A 
ATOM     11  O   UNL     1     -19.354  40.312  -3.423  1.00  0.00    -0.452 OA
ENDROOT
BRANCH   1  12
ATOM     12  C   UNL     1     -20.252  40.352  -1.186  1.00  0.00     0.025 A 
ATOM     13  C   UNL     1     -19.128  40.312  -0.342  1.00  0.00     0.016 A 
ATOM     14  C   UNL     1     -19.199  40.829   0.954  1.00  0.00     0.051 A 
ATOM     15  C   UNL     1     -20.396  41.383   1.430  1.00  0.00     0.157 A 
ATOM     16  C   UNL     1     -21.454  40.888  -0.696  1.00  0.00     0.062 A 
ATOM     17  C   UNL     1     -21.529  41.408   0.600  1.00  0.00     0.158 A 
BRANCH  15  18
ATOM     18  O   UNL     1     -20.462  41.900   2.722  1.00  0.00    -0.504 OA
ATOM     19  H   UNL     1     -20.149  41.367   3.525  1.00  0.00     0.293 HD
ENDBRANCH  15  18
BRANCH  17  20
ATOM     20  O   UNL     1     -22.736  41.944   1.048  1.00  0.00    -0.504 OA
ATOM     21  H   UNL     1     -23.628  41.521   0.826  1.00  0.00     0.293 HD
ENDBRANCH  17  20
ENDBRANCH   1  12
BRANCH   2  22
ATOM     22  O   UNL     1     -21.857  38.084  -2.011  1.00  0.00    -0.502 OA
ATOM     23  H   UNL     1     -22.248  38.577  -1.218  1.00  0.00     0.293 HD
ENDBRANCH   2  22
BRANCH   6  24
ATOM     24  O   UNL     1     -20.772  37.575  -7.200  1.00  0.00    -0.507 OA
ATOM     25  H   UNL     1     -20.918  37.530  -8.198  1.00  0.00     0.293 HD
ENDBRANCH   6  24
BRANCH   8  26
ATOM     26  O   UNL     1     -17.163  40.716  -7.617  1.00  0.00    -0.508 OA
ATOM     27  H   UNL     1     -17.380  41.070  -8.542  1.00  0.00     0.293 HD
ENDBRANCH   8  26
TORSDOF 6
ENDMDL
MODEL 8
REMARK VINA RESULT:    -5.201      1.915      7.370
REMARK INTER + INTRA:          -6.530
REMARK INTER:                  -6.416
REMARK INTRA:                  -0.114
REMARK UNBOUND:                -0.265
REMARK SMILES O=c1c(O)c(-c2ccc(O)c(O)c2)oc2cc(O)cc(O)c12
REMARK SMILES IDX 5 1 3 2 2 3 1 4 22 5 20 6 19 7 17 8 16 9 15 10 14 11 6 12
REMARK SMILES IDX 7 13 8 14 9 15 13 16 11 17 10 18 12 20 4 22 21 24 18 26
REMARK H PARENT 10 19 12 21 4 23 21 25 18 27
REMARK Flexibility Score: inf
ROOT
ATOM      1  C   UNL     1     -19.996  40.644  -2.702  1.00  0.00     0.180 A 
ATOM      2  C   UNL     1     -21.386  40.638  -2.490  1.00  0.00     0.208 A 
ATOM      3  C   UNL     1     -21.879  40.891  -1.201  1.00  0.00     0.238 A 
ATOM      4  O   UNL     1     -23.125  40.938  -1.028  1.00  0.00    -0.285 OA
ATOM      5  C   UNL     1     -20.977  41.131  -0.135  1.00  0.00     0.111 A 
ATOM      6  C   UNL     1     -21.365  41.358   1.219  1.00  0.00     0.134 A 
ATOM      7  C   UNL     1     -20.395  41.714   2.165  1.00  0.00     0.093 A 
ATOM      8  C   UNL     1     -19.043  41.785   1.818  1.00  0.00     0.123 A 
ATOM      9  C   UNL     1     -18.648  41.507   0.512  1.00  0.00     0.094 A 
ATOM     10  C   UNL     1     -19.597  41.184  -0.462  1.00  0.00     0.146 A 
ATOM     11  O   UNL     1     -19.179  40.937  -1.697  1.00  0.00    -0.452 OA
ENDROOT
BRANCH   1  12
ATOM     12  C   UNL     1     -19.400  40.362  -4.028  1.00  0.00     0.025 A 
ATOM     13  C   UNL     1     -18.643  41.330  -4.711  1.00  0.00     0.016 A 
ATOM     14  C   UNL     1     -18.110  41.050  -5.972  1.00  0.00     0.051 A 
ATOM     15  C   UNL     1     -18.337  39.805  -6.575  1.00  0.00     0.157 A 
ATOM     16  C   UNL     1     -19.642  39.124  -4.646  1.00  0.00     0.062 A 
ATOM     17  C   UNL     1     -19.110  38.840  -5.908  1.00  0.00     0.158 A 
BRANCH  15  18
ATOM     18  O   UNL     1     -17.803  39.528  -7.832  1.00  0.00    -0.504 OA
ATOM     19  H   UNL     1     -17.675  38.577  -8.156  1.00  0.00     0.293 HD
ENDBRANCH  15  18
BRANCH  17  20
ATOM     20  O   UNL     1     -19.361  37.595  -6.485  1.00  0.00    -0.504 OA
ATOM     21  H   UNL     1     -18.630  37.045  -6.919  1.00  0.00     0.293 HD
ENDBRANCH  17  20
ENDBRANCH   1  12
BRANCH   2  22
ATOM     22  O   UNL     1     -22.259  40.421  -3.559  1.00  0.00    -0.502 OA
ATOM     23  H   UNL     1     -22.972  39.703  -3.542  1.00  0.00     0.293 HD
ENDBRANCH   2  22
BRANCH   6  24
ATOM     24  O   UNL     1     -22.675  41.222   1.690  1.00  0.00    -0.507 OA
ATOM     25  H   UNL     1     -22.935  40.725   2.528  1.00  0.00     0.293 HD
ENDBRANCH   6  24
BRANCH   8  26
ATOM     26  O   UNL     1     -18.083  42.124   2.769  1.00  0.00    -0.508 OA
ATOM     27  H   UNL     1     -17.322  41.496   3.001  1.00  0.00     0.293 HD
ENDBRANCH   8  26
TORSDOF 6
ENDMDL
MODEL 9
REMARK VINA RESULT:    -4.794      5.388     10.886
REMARK INTER + INTRA:          -6.040
REMARK INTER:                  -5.796
REMARK INTRA:                  -0.244
REMARK UNBOUND:                -0.265
REMARK SMILES O=c1c(O)c(-c2ccc(O)c(O)c2)oc2cc(O)cc(O)c12
REMARK SMILES IDX 5 1 3 2 2 3 1 4 22 5 20 6 19 7 17 8 16 9 15 10 14 11 6 12
REMARK SMILES IDX 7 13 8 14 9 15 13 16 11 17 10 18 12 20 4 22 21 24 18 26
REMARK H PARENT 10 19 12 21 4 23 21 25 18 27
REMARK Flexibility Score: inf
ROOT
ATOM      1  C   UNL     1     -18.951  41.129   3.875  1.00  0.00     0.180 A 
ATOM      2  C   UNL     1     -17.662  41.617   4.152  1.00  0.00     0.208 A 
ATOM      3  C   UNL     1     -17.253  41.736   5.490  1.00  0.00     0.238 A 
ATOM      4  O   UNL     1     -16.080  42.122   5.731  1.00  0.00    -0.285 OA
ATOM      5  C   UNL     1     -18.143  41.382   6.534  1.00  0.00     0.111 A 
ATOM      6  C   UNL     1     -17.848  41.502   7.925  1.00  0.00     0.134 A 
ATOM      7  C   UNL     1     -18.753  41.000   8.869  1.00  0.00     0.093 A 
ATOM      8  C   UNL     1     -19.971  40.442   8.472  1.00  0.00     0.123 A 
ATOM      9  C   UNL     1     -20.294  40.376   7.119  1.00  0.00     0.094 A 
ATOM     10  C   UNL     1     -19.395  40.836   6.153  1.00  0.00     0.146 A 
ATOM     11  O   UNL     1     -19.738  40.743   4.873  1.00  0.00    -0.452 OA
ENDROOT
BRANCH   1  12
ATOM     12  C   UNL     1     -19.463  40.997   2.492  1.00  0.00     0.025 A 
ATOM     13  C   UNL     1     -20.449  41.865   1.991  1.00  0.00     0.016 A 
ATOM     14  C   UNL     1     -20.935  41.707   0.690  1.00  0.00     0.051 A 
ATOM     15  C   UNL     1     -20.453  40.673  -0.124  1.00  0.00     0.157 A 
ATOM     16  C   UNL     1     -19.000  39.949   1.680  1.00  0.00     0.062 A 
ATOM     17  C   UNL     1     -19.483  39.788   0.376  1.00  0.00     0.158 A 
BRANCH  15  18
ATOM     18  O   UNL     1     -20.938  40.520  -1.421  1.00  0.00    -0.504 OA
ATOM     19  H   UNL     1     -21.500  39.720  -1.687  1.00  0.00     0.293 HD
ENDBRANCH  15  18
BRANCH  17  20
ATOM     20  O   UNL     1     -18.990  38.744  -0.406  1.00  0.00    -0.504 OA
ATOM     21  H   UNL     1     -19.465  38.426  -1.241  1.00  0.00     0.293 HD
ENDBRANCH  17  20
ENDBRANCH   1  12
BRANCH   2  22
ATOM     22  O   UNL     1     -16.793  41.939   3.108  1.00  0.00    -0.502 OA
ATOM     23  H   UNL     1     -16.352  42.847   3.028  1.00  0.00     0.293 HD
ENDBRANCH   2  22
BRANCH   6  24
ATOM     24  O   UNL     1     -16.702  42.125   8.430  1.00  0.00    -0.507 OA
ATOM     25  H   UNL     1     -16.070  42.692   7.885  1.00  0.00     0.293 HD
ENDBRANCH   6  24
BRANCH   8  26
ATOM     26  O   UNL     1     -20.873  39.959   9.418  1.00  0.00    -0.508 OA
ATOM     27  H   UNL     1     -21.498  40.580   9.920  1.00  0.00     0.293 HD
ENDBRANCH   8  26
TORSDOF 6
ENDMDL
