MODEL 1
REMARK VINA RESULT:    -4.707      0.000      0.000
REMARK INTER + INTRA:         -18.059
REMARK INTER:                 -12.413
REMARK INTRA:                  -5.646
REMARK UNBOUND:                -5.646
REMARK SMILES CCCCCCCCCCCCCCCCCCCCCCCCCCCCCC(=O)[O-]
REMARK SMILES IDX 16 1 17 2 18 3 19 4 20 5 21 6 22 7 23 8 24 9 25 10 26 11
REMARK SMILES IDX 27 12 28 13 29 14 30 15 31 16 32 17 15 18 14 19 13 20 12 21
REMARK SMILES IDX 11 22 10 23 9 24 8 25 7 26 6 27 5 28 4 29 3 30 2 31 1 32
REMARK H PARENT
REMARK Flexibility Score: inf
ROOT
ATOM      1  C   UNL     1       6.618 -16.630  24.559  1.00  0.00     0.000 C 
ENDROOT
BRANCH   1   2
ATOM      2  C   UNL     1       7.082 -17.980  23.982  1.00  0.00     0.000 C 
BRANCH   2   3
ATOM      3  C   UNL     1       8.439 -17.942  23.248  1.00  0.00     0.000 C 
BRANCH   3   4
ATOM      4  C   UNL     1       8.850 -19.258  22.556  1.00  0.00     0.000 C 
BRANCH   4   5
ATOM      5  C   UNL     1       8.064 -19.600  21.278  1.00  0.00     0.000 C 
BRANCH   5   6
ATOM      6  C   UNL     1       7.201 -20.859  21.423  1.00  0.00     0.000 C 
BRANCH   6   7
ATOM      7  C   UNL     1       7.806 -22.019  20.618  1.00  0.00     0.000 C 
BRANCH   7   8
ATOM      8  C   UNL     1       8.587 -23.019  21.489  1.00  0.00     0.000 C 
BRANCH   8   9
ATOM      9  C   UNL     1      10.099 -22.739  21.627  1.00  0.00     0.000 C 
BRANCH   9  10
ATOM     10  C   UNL     1      10.649 -22.749  23.067  1.00  0.00     0.000 C 
BRANCH  10  11
ATOM     11  C   UNL     1       9.627 -22.264  24.108  1.00  0.00     0.000 C 
BRANCH  11  12
ATOM     12  C   UNL     1      10.294 -21.476  25.256  1.00  0.00     0.000 C 
BRANCH  12  13
ATOM     13  C   UNL     1       9.298 -20.725  26.160  1.00  0.00     0.006 C 
BRANCH  13  14
ATOM     14  C   UNL     1       7.829 -21.045  25.844  1.00  0.00     0.053 C 
BRANCH  14  15
ATOM     15  C   UNL     1       6.954 -20.645  26.992  1.00  0.00     0.041 C 
ATOM     16  O   UNL     1       6.326 -21.521  27.649  1.00  0.00    -0.550 OA
ATOM     17  O   UNL     1       6.762 -19.300  27.279  1.00  0.00    -0.550 OA
ENDBRANCH  14  15
ENDBRANCH  13  14
ENDBRANCH  12  13
ENDBRANCH  11  12
ENDBRANCH  10  11
ENDBRANCH   9  10
ENDBRANCH   8   9
ENDBRANCH   7   8
ENDBRANCH   6   7
ENDBRANCH   5   6
ENDBRANCH   4   5
ENDBRANCH   3   4
ENDBRANCH   2   3
ENDBRANCH   1   2
BRANCH   1  18
ATOM     18  C   UNL     1       7.153 -16.373  25.976  1.00  0.00     0.000 C 
BRANCH  18  19
ATOM     19  C   UNL     1       8.263 -15.312  26.005  1.00  0.00     0.000 C 
BRANCH  19  20
ATOM     20  C   UNL     1       8.268 -14.421  24.754  1.00  0.00     0.000 C 
BRANCH  20  21
ATOM     21  C   UNL     1       9.621 -14.505  24.030  1.00  0.00     0.000 C 
BRANCH  21  22
ATOM     22  C   UNL     1      10.575 -15.523  24.674  1.00  0.00     0.000 C 
BRANCH  22  23
ATOM     23  C   UNL     1      11.726 -15.933  23.736  1.00  0.00     0.000 C 
BRANCH  23  24
ATOM     24  C   UNL     1      11.333 -15.853  22.252  1.00  0.00    -0.000 C 
BRANCH  24  25
ATOM     25  C   UNL     1      11.665 -17.146  21.486  1.00  0.00    -0.000 C 
BRANCH  25  26
ATOM     26  C   UNL     1      11.060 -17.165  20.074  1.00  0.00    -0.000 C 
BRANCH  26  27
ATOM     27  C   UNL     1       9.845 -16.230  19.939  1.00  0.00    -0.000 C 
BRANCH  27  28
ATOM     28  C   UNL     1       8.679 -16.872  19.166  1.00  0.00    -0.000 C 
BRANCH  28  29
ATOM     29  C   UNL     1       7.279 -16.408  19.611  1.00  0.00    -0.000 C 
BRANCH  29  30
ATOM     30  C   UNL     1       7.312 -15.558  20.893  1.00  0.00    -0.000 C 
BRANCH  30  31
ATOM     31  C   UNL     1       6.361 -14.354  20.823  1.00  0.00    -0.003 C 
ATOM     32  C   UNL     1       5.738 -14.018  22.177  1.00  0.00     0.004 C 
ENDBRANCH  30  31
ENDBRANCH  29  30
ENDBRANCH  28  29
ENDBRANCH  27  28
ENDBRANCH  26  27
ENDBRANCH  25  26
ENDBRANCH  24  25
ENDBRANCH  23  24
ENDBRANCH  22  23
ENDBRANCH  21  22
ENDBRANCH  20  21
ENDBRANCH  19  20
ENDBRANCH  18  19
ENDBRANCH   1  18
TORSDOF 28
ENDMDL
MODEL 2
REMARK VINA RESULT:    -4.579      2.718      5.773
REMARK INTER + INTRA:         -17.721
REMARK INTER:                 -11.526
REMARK INTRA:                  -6.195
REMARK UNBOUND:                -5.646
REMARK SMILES CCCCCCCCCCCCCCCCCCCCCCCCCCCCCC(=O)[O-]
REMARK SMILES IDX 16 1 17 2 18 3 19 4 20 5 21 6 22 7 23 8 24 9 25 10 26 11
REMARK SMILES IDX 27 12 28 13 29 14 30 15 31 16 32 17 15 18 14 19 13 20 12 21
REMARK SMILES IDX 11 22 10 23 9 24 8 25 7 26 6 27 5 28 4 29 3 30 2 31 1 32
REMARK H PARENT
REMARK Flexibility Score: inf
ROOT
ATOM      1  C   UNL     1       7.120 -20.645  25.553  1.00  0.00     0.000 C 
ENDROOT
BRANCH   1   2
ATOM      2  C   UNL     1       7.738 -19.565  26.459  1.00  0.00     0.000 C 
BRANCH   2   3
ATOM      3  C   UNL     1       7.191 -18.140  26.239  1.00  0.00     0.000 C 
BRANCH   3   4
ATOM      4  C   UNL     1       7.115 -17.684  24.767  1.00  0.00     0.000 C 
BRANCH   4   5
ATOM      5  C   UNL     1       6.835 -16.185  24.559  1.00  0.00     0.000 C 
BRANCH   5   6
ATOM      6  C   UNL     1       7.819 -15.520  23.588  1.00  0.00     0.000 C 
BRANCH   6   7
ATOM      7  C   UNL     1       8.824 -14.650  24.355  1.00  0.00     0.000 C 
BRANCH   7   8
ATOM      8  C   UNL     1      10.267 -15.179  24.277  1.00  0.00     0.000 C 
BRANCH   8   9
ATOM      9  C   UNL     1      10.671 -16.172  25.387  1.00  0.00     0.000 C 
BRANCH   9  10
ATOM     10  C   UNL     1      11.986 -16.940  25.148  1.00  0.00     0.000 C 
BRANCH  10  11
ATOM     11  C   UNL     1      11.841 -18.460  25.329  1.00  0.00     0.000 C 
BRANCH  11  12
ATOM     12  C   UNL     1      11.205 -18.827  26.687  1.00  0.00     0.000 C 
BRANCH  12  13
ATOM     13  C   UNL     1      11.950 -19.942  27.446  1.00  0.00     0.006 C 
BRANCH  13  14
ATOM     14  C   UNL     1      11.774 -19.861  28.970  1.00  0.00     0.053 C 
BRANCH  14  15
ATOM     15  C   UNL     1      13.111 -19.839  29.645  1.00  0.00     0.041 C 
ATOM     16  O   UNL     1      13.220 -19.412  30.827  1.00  0.00    -0.550 OA
ATOM     17  O   UNL     1      14.248 -20.204  28.937  1.00  0.00    -0.550 OA
ENDBRANCH  14  15
ENDBRANCH  13  14
ENDBRANCH  12  13
ENDBRANCH  11  12
ENDBRANCH  10  11
ENDBRANCH   9  10
ENDBRANCH   8   9
ENDBRANCH   7   8
ENDBRANCH   6   7
ENDBRANCH   5   6
ENDBRANCH   4   5
ENDBRANCH   3   4
ENDBRANCH   2   3
ENDBRANCH   1   2
BRANCH   1  18
ATOM     18  C   UNL     1       8.104 -21.169  24.495  1.00  0.00     0.000 C 
BRANCH  18  19
ATOM     19  C   UNL     1       9.471 -21.536  25.093  1.00  0.00     0.000 C 
BRANCH  19  20
ATOM     20  C   UNL     1      10.340 -22.361  24.133  1.00  0.00     0.000 C 
BRANCH  20  21
ATOM     21  C   UNL     1       9.578 -22.666  22.834  1.00  0.00     0.000 C 
BRANCH  21  22
ATOM     22  C   UNL     1      10.492 -22.683  21.600  1.00  0.00     0.000 C 
BRANCH  22  23
ATOM     23  C   UNL     1      11.614 -21.630  21.679  1.00  0.00     0.000 C 
BRANCH  23  24
ATOM     24  C   UNL     1      12.042 -21.120  20.294  1.00  0.00    -0.000 C 
BRANCH  24  25
ATOM     25  C   UNL     1      12.014 -19.584  20.198  1.00  0.00    -0.000 C 
BRANCH  25  26
ATOM     26  C   UNL     1      12.074 -18.908  21.576  1.00  0.00    -0.000 C 
BRANCH  26  27
ATOM     27  C   UNL     1      10.924 -17.908  21.793  1.00  0.00    -0.000 C 
BRANCH  27  28
ATOM     28  C   UNL     1       9.640 -18.577  22.315  1.00  0.00    -0.000 C 
BRANCH  28  29
ATOM     29  C   UNL     1       8.468 -18.588  21.317  1.00  0.00    -0.000 C 
BRANCH  29  30
ATOM     30  C   UNL     1       7.943 -20.004  21.028  1.00  0.00    -0.000 C 
BRANCH  30  31
ATOM     31  C   UNL     1       8.267 -20.472  19.601  1.00  0.00    -0.003 C 
ATOM     32  C   UNL     1       8.739 -19.330  18.702  1.00  0.00     0.004 C 
ENDBRANCH  30  31
ENDBRANCH  29  30
ENDBRANCH  28  29
ENDBRANCH  27  28
ENDBRANCH  26  27
ENDBRANCH  25  26
ENDBRANCH  24  25
ENDBRANCH  23  24
ENDBRANCH  22  23
ENDBRANCH  21  22
ENDBRANCH  20  21
ENDBRANCH  19  20
ENDBRANCH  18  19
ENDBRANCH   1  18
TORSDOF 28
ENDMDL
MODEL 3
REMARK VINA RESULT:    -4.567      1.987      5.040
REMARK INTER + INTRA:         -17.689
REMARK INTER:                 -11.823
REMARK INTRA:                  -5.866
REMARK UNBOUND:                -5.646
REMARK SMILES CCCCCCCCCCCCCCCCCCCCCCCCCCCCCC(=O)[O-]
REMARK SMILES IDX 16 1 17 2 18 3 19 4 20 5 21 6 22 7 23 8 24 9 25 10 26 11
REMARK SMILES IDX 27 12 28 13 29 14 30 15 31 16 32 17 15 18 14 19 13 20 12 21
REMARK SMILES IDX 11 22 10 23 9 24 8 25 7 26 6 27 5 28 4 29 3 30 2 31 1 32
REMARK H PARENT
REMARK Flexibility Score: inf
ROOT
ATOM      1  C   UNL     1      11.334 -17.074  23.520  1.00  0.00     0.000 C 
ENDROOT
BRANCH   1   2
ATOM      2  C   UNL     1      10.179 -16.084  23.284  1.00  0.00     0.000 C 
BRANCH   2   3
ATOM      3  C   UNL     1      10.011 -15.010  24.380  1.00  0.00     0.000 C 
BRANCH   3   4
ATOM      4  C   UNL     1       8.617 -14.956  25.040  1.00  0.00     0.000 C 
BRANCH   4   5
ATOM      5  C   UNL     1       8.429 -15.887  26.250  1.00  0.00     0.000 C 
BRANCH   5   6
ATOM      6  C   UNL     1       7.295 -16.902  26.055  1.00  0.00     0.000 C 
BRANCH   6   7
ATOM      7  C   UNL     1       6.530 -16.607  24.757  1.00  0.00     0.000 C 
BRANCH   7   8
ATOM      8  C   UNL     1       6.517 -17.794  23.778  1.00  0.00     0.000 C 
BRANCH   8   9
ATOM      9  C   UNL     1       7.611 -18.858  24.011  1.00  0.00     0.000 C 
BRANCH   9  10
ATOM     10  C   UNL     1       7.103 -20.278  24.329  1.00  0.00     0.000 C 
BRANCH  10  11
ATOM     11  C   UNL     1       7.796 -20.910  25.546  1.00  0.00     0.000 C 
BRANCH  11  12
ATOM     12  C   UNL     1       9.322 -21.035  25.349  1.00  0.00     0.000 C 
BRANCH  12  13
ATOM     13  C   UNL     1      10.149 -20.106  26.258  1.00  0.00     0.006 C 
BRANCH  13  14
ATOM     14  C   UNL     1      11.540 -20.667  26.595  1.00  0.00     0.053 C 
BRANCH  14  15
ATOM     15  C   UNL     1      12.173 -19.858  27.686  1.00  0.00     0.041 C 
ATOM     16  O   UNL     1      11.454 -19.260  28.533  1.00  0.00    -0.550 OA
ATOM     17  O   UNL     1      13.551 -19.691  27.711  1.00  0.00    -0.550 OA
ENDBRANCH  14  15
ENDBRANCH  13  14
ENDBRANCH  12  13
ENDBRANCH  11  12
ENDBRANCH  10  11
ENDBRANCH   9  10
ENDBRANCH   8   9
ENDBRANCH   7   8
ENDBRANCH   6   7
ENDBRANCH   5   6
ENDBRANCH   4   5
ENDBRANCH   3   4
ENDBRANCH   2   3
ENDBRANCH   1   2
BRANCH   1  18
ATOM     18  C   UNL     1      11.583 -17.995  22.314  1.00  0.00     0.000 C 
BRANCH  18  19
ATOM     19  C   UNL     1      10.820 -19.325  22.421  1.00  0.00     0.000 C 
BRANCH  19  20
ATOM     20  C   UNL     1      11.560 -20.492  21.752  1.00  0.00     0.000 C 
BRANCH  20  21
ATOM     21  C   UNL     1      11.063 -21.839  22.301  1.00  0.00     0.000 C 
BRANCH  21  22
ATOM     22  C   UNL     1      10.050 -22.521  21.369  1.00  0.00     0.000 C 
BRANCH  22  23
ATOM     23  C   UNL     1       8.592 -22.287  21.805  1.00  0.00     0.000 C 
BRANCH  23  24
ATOM     24  C   UNL     1       7.849 -21.311  20.879  1.00  0.00    -0.000 C 
BRANCH  24  25
ATOM     25  C   UNL     1       8.593 -21.076  19.553  1.00  0.00    -0.000 C 
BRANCH  25  26
ATOM     26  C   UNL     1       8.746 -19.585  19.219  1.00  0.00    -0.000 C 
BRANCH  26  27
ATOM     27  C   UNL     1       7.957 -18.680  20.183  1.00  0.00    -0.000 C 
BRANCH  27  28
ATOM     28  C   UNL     1       8.501 -17.241  20.231  1.00  0.00    -0.000 C 
BRANCH  28  29
ATOM     29  C   UNL     1       7.540 -16.211  20.852  1.00  0.00    -0.000 C 
BRANCH  29  30
ATOM     30  C   UNL     1       6.801 -15.371  19.795  1.00  0.00    -0.000 C 
BRANCH  30  31
ATOM     31  C   UNL     1       6.083 -14.158  20.406  1.00  0.00    -0.003 C 
ATOM     32  C   UNL     1       6.100 -14.173  21.934  1.00  0.00     0.004 C 
ENDBRANCH  30  31
ENDBRANCH  29  30
ENDBRANCH  28  29
ENDBRANCH  27  28
ENDBRANCH  26  27
ENDBRANCH  25  26
ENDBRANCH  24  25
ENDBRANCH  23  24
ENDBRANCH  22  23
ENDBRANCH  21  22
ENDBRANCH  20  21
ENDBRANCH  19  20
ENDBRANCH  18  19
ENDBRANCH   1  18
TORSDOF 28
ENDMDL
MODEL 4
REMARK VINA RESULT:    -4.559      2.280      4.559
REMARK INTER + INTRA:         -17.668
REMARK INTER:                 -12.053
REMARK INTRA:                  -5.615
REMARK UNBOUND:                -5.646
REMARK SMILES CCCCCCCCCCCCCCCCCCCCCCCCCCCCCC(=O)[O-]
REMARK SMILES IDX 16 1 17 2 18 3 19 4 20 5 21 6 22 7 23 8 24 9 25 10 26 11
REMARK SMILES IDX 27 12 28 13 29 14 30 15 31 16 32 17 15 18 14 19 13 20 12 21
REMARK SMILES IDX 11 22 10 23 9 24 8 25 7 26 6 27 5 28 4 29 3 30 2 31 1 32
REMARK H PARENT
REMARK Flexibility Score: inf
ROOT
ATOM      1  C   UNL     1       6.473 -14.719  20.048  1.00  0.00     0.000 C 
ENDROOT
BRANCH   1   2
ATOM      2  C   UNL     1       7.474 -15.852  20.340  1.00  0.00     0.000 C 
BRANCH   2   3
ATOM      3  C   UNL     1       7.858 -16.711  19.118  1.00  0.00     0.000 C 
BRANCH   3   4
ATOM      4  C   UNL     1       7.881 -18.234  19.364  1.00  0.00     0.000 C 
BRANCH   4   5
ATOM      5  C   UNL     1       7.767 -18.661  20.838  1.00  0.00     0.000 C 
BRANCH   5   6
ATOM      6  C   UNL     1       7.355 -20.128  21.007  1.00  0.00     0.000 C 
BRANCH   6   7
ATOM      7  C   UNL     1       6.791 -20.368  22.415  1.00  0.00     0.000 C 
BRANCH   7   8
ATOM      8  C   UNL     1       7.802 -20.061  23.533  1.00  0.00     0.000 C 
BRANCH   8   9
ATOM      9  C   UNL     1       7.888 -21.114  24.659  1.00  0.00     0.000 C 
BRANCH   9  10
ATOM     10  C   UNL     1       7.086 -20.792  25.935  1.00  0.00     0.000 C 
BRANCH  10  11
ATOM     11  C   UNL     1       7.977 -20.423  27.132  1.00  0.00     0.000 C 
BRANCH  11  12
ATOM     12  C   UNL     1       9.466 -20.733  26.869  1.00  0.00     0.000 C 
BRANCH  12  13
ATOM     13  C   UNL     1      10.412 -20.258  27.988  1.00  0.00     0.006 C 
BRANCH  13  14
ATOM     14  C   UNL     1      11.386 -19.159  27.534  1.00  0.00     0.053 C 
BRANCH  14  15
ATOM     15  C   UNL     1      12.291 -19.681  26.460  1.00  0.00     0.041 C 
ATOM     16  O   UNL     1      13.197 -20.513  26.740  1.00  0.00    -0.550 OA
ATOM     17  O   UNL     1      12.191 -19.181  25.169  1.00  0.00    -0.550 OA
ENDBRANCH  14  15
ENDBRANCH  13  14
ENDBRANCH  12  13
ENDBRANCH  11  12
ENDBRANCH  10  11
ENDBRANCH   9  10
ENDBRANCH   8   9
ENDBRANCH   7   8
ENDBRANCH   6   7
ENDBRANCH   5   6
ENDBRANCH   4   5
ENDBRANCH   3   4
ENDBRANCH   2   3
ENDBRANCH   1   2
BRANCH   1  18
ATOM     18  C   UNL     1       5.629 -14.340  21.276  1.00  0.00     0.000 C 
BRANCH  18  19
ATOM     19  C   UNL     1       6.423 -13.522  22.306  1.00  0.00     0.000 C 
BRANCH  19  20
ATOM     20  C   UNL     1       7.014 -14.388  23.428  1.00  0.00     0.000 C 
BRANCH  20  21
ATOM     21  C   UNL     1       6.009 -15.462  23.875  1.00  0.00     0.000 C 
BRANCH  21  22
ATOM     22  C   UNL     1       6.686 -16.791  24.240  1.00  0.00     0.000 C 
BRANCH  22  23
ATOM     23  C   UNL     1       6.793 -17.004  25.762  1.00  0.00     0.000 C 
BRANCH  23  24
ATOM     24  C   UNL     1       8.234 -16.854  26.278  1.00  0.00    -0.000 C 
BRANCH  24  25
ATOM     25  C   UNL     1       9.277 -16.988  25.155  1.00  0.00    -0.000 C 
BRANCH  25  26
ATOM     26  C   UNL     1      10.509 -16.100  25.388  1.00  0.00    -0.000 C 
BRANCH  26  27
ATOM     27  C   UNL     1      11.201 -15.694  24.074  1.00  0.00    -0.000 C 
BRANCH  27  28
ATOM     28  C   UNL     1      10.340 -15.982  22.831  1.00  0.00    -0.000 C 
BRANCH  28  29
ATOM     29  C   UNL     1      11.068 -16.739  21.705  1.00  0.00    -0.000 C 
BRANCH  29  30
ATOM     30  C   UNL     1      11.028 -18.266  21.890  1.00  0.00    -0.000 C 
BRANCH  30  31
ATOM     31  C   UNL     1      11.525 -19.021  20.648  1.00  0.00    -0.003 C 
ATOM     32  C   UNL     1      11.535 -18.148  19.394  1.00  0.00     0.004 C 
ENDBRANCH  30  31
ENDBRANCH  29  30
ENDBRANCH  28  29
ENDBRANCH  27  28
ENDBRANCH  26  27
ENDBRANCH  25  26
ENDBRANCH  24  25
ENDBRANCH  23  24
ENDBRANCH  22  23
ENDBRANCH  21  22
ENDBRANCH  20  21
ENDBRANCH  19  20
ENDBRANCH  18  19
ENDBRANCH   1  18
TORSDOF 28
ENDMDL
MODEL 5
REMARK VINA RESULT:    -4.540      2.382      5.900
REMARK INTER + INTRA:         -17.618
REMARK INTER:                 -11.370
REMARK INTRA:                  -6.248
REMARK UNBOUND:                -5.646
REMARK SMILES CCCCCCCCCCCCCCCCCCCCCCCCCCCCCC(=O)[O-]
REMARK SMILES IDX 16 1 17 2 18 3 19 4 20 5 21 6 22 7 23 8 24 9 25 10 26 11
REMARK SMILES IDX 27 12 28 13 29 14 30 15 31 16 32 17 15 18 14 19 13 20 12 21
REMARK SMILES IDX 11 22 10 23 9 24 8 25 7 26 6 27 5 28 4 29 3 30 2 31 1 32
REMARK H PARENT
REMARK Flexibility Score: inf
ROOT
ATOM      1  C   UNL     1       7.968 -19.351  25.466  1.00  0.00     0.000 C 
ENDROOT
BRANCH   1   2
ATOM      2  C   UNL     1       7.166 -18.513  26.478  1.00  0.00     0.000 C 
BRANCH   2   3
ATOM      3  C   UNL     1       7.250 -16.986  26.270  1.00  0.00     0.000 C 
BRANCH   3   4
ATOM      4  C   UNL     1       6.585 -16.461  24.980  1.00  0.00     0.000 C 
BRANCH   4   5
ATOM      5  C   UNL     1       7.411 -15.429  24.191  1.00  0.00     0.000 C 
BRANCH   5   6
ATOM      6  C   UNL     1       8.577 -14.850  25.001  1.00  0.00     0.000 C 
BRANCH   6   7
ATOM      7  C   UNL     1       9.795 -14.616  24.095  1.00  0.00     0.000 C 
BRANCH   7   8
ATOM      8  C   UNL     1      10.412 -15.920  23.560  1.00  0.00     0.000 C 
BRANCH   8   9
ATOM      9  C   UNL     1      11.903 -16.135  23.896  1.00  0.00     0.000 C 
BRANCH   9  10
ATOM     10  C   UNL     1      12.188 -16.856  25.229  1.00  0.00     0.000 C 
BRANCH  10  11
ATOM     11  C   UNL     1      11.031 -17.757  25.689  1.00  0.00     0.000 C 
BRANCH  11  12
ATOM     12  C   UNL     1      11.533 -19.076  26.316  1.00  0.00     0.000 C 
BRANCH  12  13
ATOM     13  C   UNL     1      10.887 -19.410  27.673  1.00  0.00     0.006 C 
BRANCH  13  14
ATOM     14  C   UNL     1      11.910 -19.593  28.805  1.00  0.00     0.053 C 
BRANCH  14  15
ATOM     15  C   UNL     1      11.583 -20.817  29.605  1.00  0.00     0.041 C 
ATOM     16  O   UNL     1      10.493 -21.425  29.420  1.00  0.00    -0.550 OA
ATOM     17  O   UNL     1      12.440 -21.232  30.614  1.00  0.00    -0.550 OA
ENDBRANCH  14  15
ENDBRANCH  13  14
ENDBRANCH  12  13
ENDBRANCH  11  12
ENDBRANCH  10  11
ENDBRANCH   9  10
ENDBRANCH   8   9
ENDBRANCH   7   8
ENDBRANCH   6   7
ENDBRANCH   5   6
ENDBRANCH   4   5
ENDBRANCH   3   4
ENDBRANCH   2   3
ENDBRANCH   1   2
BRANCH   1  18
ATOM     18  C   UNL     1       7.073 -20.243  24.592  1.00  0.00     0.000 C 
BRANCH  18  19
ATOM     19  C   UNL     1       6.943 -19.720  23.153  1.00  0.00     0.000 C 
BRANCH  19  20
ATOM     20  C   UNL     1       8.162 -18.900  22.705  1.00  0.00     0.000 C 
BRANCH  20  21
ATOM     21  C   UNL     1       7.829 -18.066  21.458  1.00  0.00     0.000 C 
BRANCH  21  22
ATOM     22  C   UNL     1       7.888 -18.888  20.162  1.00  0.00     0.000 C 
BRANCH  22  23
ATOM     23  C   UNL     1       9.320 -19.329  19.804  1.00  0.00     0.000 C 
BRANCH  23  24
ATOM     24  C   UNL     1       9.392 -20.801  19.368  1.00  0.00    -0.000 C 
BRANCH  24  25
ATOM     25  C   UNL     1       8.585 -21.729  20.293  1.00  0.00    -0.000 C 
BRANCH  25  26
ATOM     26  C   UNL     1       9.483 -22.625  21.158  1.00  0.00    -0.000 C 
BRANCH  26  27
ATOM     27  C   UNL     1       9.084 -22.603  22.644  1.00  0.00    -0.000 C 
BRANCH  27  28
ATOM     28  C   UNL     1      10.183 -22.019  23.550  1.00  0.00    -0.000 C 
BRANCH  28  29
ATOM     29  C   UNL     1      11.440 -21.535  22.805  1.00  0.00    -0.000 C 
BRANCH  29  30
ATOM     30  C   UNL     1      11.505 -20.003  22.678  1.00  0.00    -0.000 C 
BRANCH  30  31
ATOM     31  C   UNL     1      12.935 -19.493  22.447  1.00  0.00    -0.003 C 
ATOM     32  C   UNL     1      13.030 -18.521  21.272  1.00  0.00     0.004 C 
ENDBRANCH  30  31
ENDBRANCH  29  30
ENDBRANCH  28  29
ENDBRANCH  27  28
ENDBRANCH  26  27
ENDBRANCH  25  26
ENDBRANCH  24  25
ENDBRANCH  23  24
ENDBRANCH  22  23
ENDBRANCH  21  22
ENDBRANCH  20  21
ENDBRANCH  19  20
ENDBRANCH  18  19
ENDBRANCH   1  18
TORSDOF 28
ENDMDL
MODEL 6
REMARK VINA RESULT:    -4.476      3.026      6.550
REMARK INTER + INTRA:         -17.450
REMARK INTER:                 -11.476
REMARK INTRA:                  -5.974
REMARK UNBOUND:                -5.646
REMARK SMILES CCCCCCCCCCCCCCCCCCCCCCCCCCCCCC(=O)[O-]
REMARK SMILES IDX 16 1 17 2 18 3 19 4 20 5 21 6 22 7 23 8 24 9 25 10 26 11
REMARK SMILES IDX 27 12 28 13 29 14 30 15 31 16 32 17 15 18 14 19 13 20 12 21
REMARK SMILES IDX 11 22 10 23 9 24 8 25 7 26 6 27 5 28 4 29 3 30 2 31 1 32
REMARK H PARENT
REMARK Flexibility Score: inf
ROOT
ATOM      1  C   UNL     1       7.645 -16.896  26.138  1.00  0.00     0.000 C 
ENDROOT
BRANCH   1   2
ATOM      2  C   UNL     1       8.818 -15.906  26.254  1.00  0.00     0.000 C 
BRANCH   2   3
ATOM      3  C   UNL     1      10.201 -16.491  25.898  1.00  0.00     0.000 C 
BRANCH   3   4
ATOM      4  C   UNL     1      10.175 -17.728  24.975  1.00  0.00     0.000 C 
BRANCH   4   5
ATOM      5  C   UNL     1      11.556 -18.276  24.575  1.00  0.00     0.000 C 
BRANCH   5   6
ATOM      6  C   UNL     1      12.710 -17.599  25.325  1.00  0.00     0.000 C 
BRANCH   6   7
ATOM      7  C   UNL     1      13.454 -18.620  26.198  1.00  0.00     0.000 C 
BRANCH   7   8
ATOM      8  C   UNL     1      14.408 -19.521  25.395  1.00  0.00     0.000 C 
BRANCH   8   9
ATOM      9  C   UNL     1      14.423 -21.008  25.809  1.00  0.00     0.000 C 
BRANCH   9  10
ATOM     10  C   UNL     1      13.232 -21.850  25.310  1.00  0.00     0.000 C 
BRANCH  10  11
ATOM     11  C   UNL     1      12.811 -21.511  23.871  1.00  0.00     0.000 C 
BRANCH  11  12
ATOM     12  C   UNL     1      11.614 -22.363  23.397  1.00  0.00     0.000 C 
BRANCH  12  13
ATOM     13  C   UNL     1      10.637 -21.611  22.475  1.00  0.00     0.006 C 
BRANCH  13  14
ATOM     14  C   UNL     1      10.472 -22.271  21.097  1.00  0.00     0.053 C 
BRANCH  14  15
ATOM     15  C   UNL     1       9.027 -22.289  20.702  1.00  0.00     0.041 C 
ATOM     16  O   UNL     1       8.586 -21.455  19.863  1.00  0.00    -0.550 OA
ATOM     17  O   UNL     1       8.150 -23.165  21.327  1.00  0.00    -0.550 OA
ENDBRANCH  14  15
ENDBRANCH  13  14
ENDBRANCH  12  13
ENDBRANCH  11  12
ENDBRANCH  10  11
ENDBRANCH   9  10
ENDBRANCH   8   9
ENDBRANCH   7   8
ENDBRANCH   6   7
ENDBRANCH   5   6
ENDBRANCH   4   5
ENDBRANCH   3   4
ENDBRANCH   2   3
ENDBRANCH   1   2
BRANCH   1  18
ATOM     18  C   UNL     1       6.643 -16.505  25.040  1.00  0.00     0.000 C 
BRANCH  18  19
ATOM     19  C   UNL     1       7.064 -15.236  24.283  1.00  0.00     0.000 C 
BRANCH  19  20
ATOM     20  C   UNL     1       7.061 -15.422  22.759  1.00  0.00     0.000 C 
BRANCH  20  21
ATOM     21  C   UNL     1       8.192 -16.367  22.322  1.00  0.00     0.000 C 
BRANCH  21  22
ATOM     22  C   UNL     1       7.672 -17.623  21.607  1.00  0.00     0.000 C 
BRANCH  22  23
ATOM     23  C   UNL     1       8.115 -18.925  22.300  1.00  0.00     0.000 C 
BRANCH  23  24
ATOM     24  C   UNL     1       6.978 -19.582  23.101  1.00  0.00    -0.000 C 
BRANCH  24  25
ATOM     25  C   UNL     1       7.448 -20.824  23.878  1.00  0.00    -0.000 C 
BRANCH  25  26
ATOM     26  C   UNL     1       7.680 -20.533  25.368  1.00  0.00    -0.000 C 
BRANCH  26  27
ATOM     27  C   UNL     1       9.048 -21.036  25.862  1.00  0.00    -0.000 C 
BRANCH  27  28
ATOM     28  C   UNL     1       9.264 -20.799  27.368  1.00  0.00    -0.000 C 
BRANCH  28  29
ATOM     29  C   UNL     1      10.600 -20.123  27.727  1.00  0.00    -0.000 C 
BRANCH  29  30
ATOM     30  C   UNL     1      11.134 -20.551  29.105  1.00  0.00    -0.000 C 
BRANCH  30  31
ATOM     31  C   UNL     1      12.448 -21.341  29.006  1.00  0.00    -0.003 C 
ATOM     32  C   UNL     1      13.667 -20.505  29.394  1.00  0.00     0.004 C 
ENDBRANCH  30  31
ENDBRANCH  29  30
ENDBRANCH  28  29
ENDBRANCH  27  28
ENDBRANCH  26  27
ENDBRANCH  25  26
ENDBRANCH  24  25
ENDBRANCH  23  24
ENDBRANCH  22  23
ENDBRANCH  21  22
ENDBRANCH  20  21
ENDBRANCH  19  20
ENDBRANCH  18  19
ENDBRANCH   1  18
TORSDOF 28
ENDMDL
MODEL 7
REMARK VINA RESULT:    -4.467      2.474      5.721
REMARK INTER + INTRA:         -17.426
REMARK INTER:                 -10.762
REMARK INTRA:                  -6.663
REMARK UNBOUND:                -5.646
REMARK SMILES CCCCCCCCCCCCCCCCCCCCCCCCCCCCCC(=O)[O-]
REMARK SMILES IDX 16 1 17 2 18 3 19 4 20 5 21 6 22 7 23 8 24 9 25 10 26 11
REMARK SMILES IDX 27 12 28 13 29 14 30 15 31 16 32 17 15 18 14 19 13 20 12 21
REMARK SMILES IDX 11 22 10 23 9 24 8 25 7 26 6 27 5 28 4 29 3 30 2 31 1 32
REMARK H PARENT
REMARK Flexibility Score: inf
ROOT
ATOM      1  C   UNL     1       7.493 -21.124  25.060  1.00  0.00     0.000 C 
ENDROOT
BRANCH   1   2
ATOM      2  C   UNL     1       7.505 -20.426  26.432  1.00  0.00     0.000 C 
BRANCH   2   3
ATOM      3  C   UNL     1       8.753 -19.563  26.711  1.00  0.00     0.000 C 
BRANCH   3   4
ATOM      4  C   UNL     1       8.589 -18.055  26.422  1.00  0.00     0.000 C 
BRANCH   4   5
ATOM      5  C   UNL     1       7.147 -17.594  26.146  1.00  0.00     0.000 C 
BRANCH   5   6
ATOM      6  C   UNL     1       7.077 -16.212  25.484  1.00  0.00     0.000 C 
BRANCH   6   7
ATOM      7  C   UNL     1       8.322 -15.386  25.834  1.00  0.00     0.000 C 
BRANCH   7   8
ATOM      8  C   UNL     1       8.745 -14.421  24.712  1.00  0.00     0.000 C 
BRANCH   8   9
ATOM      9  C   UNL     1      10.045 -14.796  23.969  1.00  0.00     0.000 C 
BRANCH   9  10
ATOM     10  C   UNL     1      10.878 -15.923  24.610  1.00  0.00     0.000 C 
BRANCH  10  11
ATOM     11  C   UNL     1      11.228 -17.051  23.625  1.00  0.00     0.000 C 
BRANCH  11  12
ATOM     12  C   UNL     1      11.647 -18.348  24.350  1.00  0.00     0.000 C 
BRANCH  12  13
ATOM     13  C   UNL     1      12.202 -18.122  25.769  1.00  0.00     0.006 C 
BRANCH  13  14
ATOM     14  C   UNL     1      13.521 -18.865  26.031  1.00  0.00     0.053 C 
BRANCH  14  15
ATOM     15  C   UNL     1      13.312 -19.947  27.046  1.00  0.00     0.041 C 
ATOM     16  O   UNL     1      12.225 -20.588  27.078  1.00  0.00    -0.550 OA
ATOM     17  O   UNL     1      14.280 -20.184  28.013  1.00  0.00    -0.550 OA
ENDBRANCH  14  15
ENDBRANCH  13  14
ENDBRANCH  12  13
ENDBRANCH  11  12
ENDBRANCH  10  11
ENDBRANCH   9  10
ENDBRANCH   8   9
ENDBRANCH   7   8
ENDBRANCH   6   7
ENDBRANCH   5   6
ENDBRANCH   4   5
ENDBRANCH   3   4
ENDBRANCH   2   3
ENDBRANCH   1   2
BRANCH   1  18
ATOM     18  C   UNL     1       8.903 -21.327  24.483  1.00  0.00     0.000 C 
BRANCH  18  19
ATOM     19  C   UNL     1       9.028 -20.817  23.039  1.00  0.00     0.000 C 
BRANCH  19  20
ATOM     20  C   UNL     1       7.697 -20.855  22.276  1.00  0.00     0.000 C 
BRANCH  20  21
ATOM     21  C   UNL     1       7.358 -19.469  21.703  1.00  0.00     0.000 C 
BRANCH  21  22
ATOM     22  C   UNL     1       7.990 -18.324  22.509  1.00  0.00     0.000 C 
BRANCH  22  23
ATOM     23  C   UNL     1       7.822 -16.955  21.824  1.00  0.00     0.000 C 
BRANCH  23  24
ATOM     24  C   UNL     1       7.557 -17.079  20.315  1.00  0.00    -0.000 C 
BRANCH  24  25
ATOM     25  C   UNL     1       8.701 -16.497  19.467  1.00  0.00    -0.000 C 
BRANCH  25  26
ATOM     26  C   UNL     1      10.009 -16.356  20.260  1.00  0.00    -0.000 C 
BRANCH  26  27
ATOM     27  C   UNL     1      11.234 -16.850  19.471  1.00  0.00    -0.000 C 
BRANCH  27  28
ATOM     28  C   UNL     1      11.931 -18.050  20.138  1.00  0.00    -0.000 C 
BRANCH  28  29
ATOM     29  C   UNL     1      10.999 -19.227  20.479  1.00  0.00    -0.000 C 
BRANCH  29  30
ATOM     30  C   UNL     1      10.753 -20.160  19.281  1.00  0.00    -0.000 C 
BRANCH  30  31
ATOM     31  C   UNL     1       9.300 -20.109  18.784  1.00  0.00    -0.003 C 
ATOM     32  C   UNL     1       9.191 -19.645  17.333  1.00  0.00     0.004 C 
ENDBRANCH  30  31
ENDBRANCH  29  30
ENDBRANCH  28  29
ENDBRANCH  27  28
ENDBRANCH  26  27
ENDBRANCH  25  26
ENDBRANCH  24  25
ENDBRANCH  23  24
ENDBRANCH  22  23
ENDBRANCH  21  22
ENDBRANCH  20  21
ENDBRANCH  19  20
ENDBRANCH  18  19
ENDBRANCH   1  18
TORSDOF 28
ENDMDL
MODEL 8
REMARK VINA RESULT:    -4.465      2.869      5.336
REMARK INTER + INTRA:         -17.420
REMARK INTER:                 -11.594
REMARK INTRA:                  -5.826
REMARK UNBOUND:                -5.646
REMARK SMILES CCCCCCCCCCCCCCCCCCCCCCCCCCCCCC(=O)[O-]
REMARK SMILES IDX 16 1 17 2 18 3 19 4 20 5 21 6 22 7 23 8 24 9 25 10 26 11
REMARK SMILES IDX 27 12 28 13 29 14 30 15 31 16 32 17 15 18 14 19 13 20 12 21
REMARK SMILES IDX 11 22 10 23 9 24 8 25 7 26 6 27 5 28 4 29 3 30 2 31 1 32
REMARK H PARENT
REMARK Flexibility Score: inf
ROOT
ATOM      1  C   UNL     1       8.113 -20.655  24.114  1.00  0.00     0.000 C 
ENDROOT
BRANCH   1   2
ATOM      2  C   UNL     1       9.023 -21.829  23.708  1.00  0.00     0.000 C 
BRANCH   2   3
ATOM      3  C   UNL     1       8.616 -22.545  22.403  1.00  0.00     0.000 C 
BRANCH   3   4
ATOM      4  C   UNL     1       9.709 -22.600  21.314  1.00  0.00     0.000 C 
BRANCH   4   5
ATOM      5  C   UNL     1      10.329 -21.243  20.939  1.00  0.00     0.000 C 
BRANCH   5   6
ATOM      6  C   UNL     1      11.818 -21.342  20.582  1.00  0.00     0.000 C 
BRANCH   6   7
ATOM      7  C   UNL     1      12.668 -21.448  21.856  1.00  0.00     0.000 C 
BRANCH   7   8
ATOM      8  C   UNL     1      12.305 -20.395  22.917  1.00  0.00     0.000 C 
BRANCH   8   9
ATOM      9  C   UNL     1      12.446 -20.854  24.384  1.00  0.00     0.000 C 
BRANCH   9  10
ATOM     10  C   UNL     1      13.724 -21.650  24.713  1.00  0.00     0.000 C 
BRANCH  10  11
ATOM     11  C   UNL     1      14.329 -21.286  26.079  1.00  0.00     0.000 C 
BRANCH  11  12
ATOM     12  C   UNL     1      14.173 -19.785  26.404  1.00  0.00     0.000 C 
BRANCH  12  13
ATOM     13  C   UNL     1      13.863 -19.495  27.885  1.00  0.00     0.006 C 
BRANCH  13  14
ATOM     14  C   UNL     1      12.421 -19.846  28.283  1.00  0.00     0.053 C 
BRANCH  14  15
ATOM     15  C   UNL     1      12.359 -20.206  29.736  1.00  0.00     0.041 C 
ATOM     16  O   UNL     1      11.567 -21.103  30.136  1.00  0.00    -0.550 OA
ATOM     17  O   UNL     1      13.109 -19.488  30.658  1.00  0.00    -0.550 OA
ENDBRANCH  14  15
ENDBRANCH  13  14
ENDBRANCH  12  13
ENDBRANCH  11  12
ENDBRANCH  10  11
ENDBRANCH   9  10
ENDBRANCH   8   9
ENDBRANCH   7   8
ENDBRANCH   6   7
ENDBRANCH   5   6
ENDBRANCH   4   5
ENDBRANCH   3   4
ENDBRANCH   2   3
ENDBRANCH   1   2
BRANCH   1  18
ATOM     18  C   UNL     1       7.117 -20.265  23.011  1.00  0.00     0.000 C 
BRANCH  18  19
ATOM     19  C   UNL     1       7.599 -19.066  22.179  1.00  0.00     0.000 C 
BRANCH  19  20
ATOM     20  C   UNL     1       8.863 -18.410  22.755  1.00  0.00     0.000 C 
BRANCH  20  21
ATOM     21  C   UNL     1       8.810 -16.884  22.585  1.00  0.00     0.000 C 
BRANCH  21  22
ATOM     22  C   UNL     1       7.377 -16.353  22.434  1.00  0.00     0.000 C 
BRANCH  22  23
ATOM     23  C   UNL     1       6.856 -15.680  23.718  1.00  0.00     0.000 C 
BRANCH  23  24
ATOM     24  C   UNL     1       7.903 -14.761  24.368  1.00  0.00    -0.000 C 
BRANCH  24  25
ATOM     25  C   UNL     1       8.277 -15.210  25.791  1.00  0.00    -0.000 C 
BRANCH  25  26
ATOM     26  C   UNL     1       7.603 -16.531  26.188  1.00  0.00    -0.000 C 
BRANCH  26  27
ATOM     27  C   UNL     1       8.620 -17.650  26.476  1.00  0.00    -0.000 C 
BRANCH  27  28
ATOM     28  C   UNL     1      10.070 -17.137  26.544  1.00  0.00    -0.000 C 
BRANCH  28  29
ATOM     29  C   UNL     1      11.023 -17.765  25.511  1.00  0.00    -0.000 C 
BRANCH  29  30
ATOM     30  C   UNL     1      12.243 -16.878  25.209  1.00  0.00    -0.000 C 
BRANCH  30  31
ATOM     31  C   UNL     1      12.288 -16.423  23.742  1.00  0.00    -0.003 C 
ATOM     32  C   UNL     1      11.764 -15.000  23.551  1.00  0.00     0.004 C 
ENDBRANCH  30  31
ENDBRANCH  29  30
ENDBRANCH  28  29
ENDBRANCH  27  28
ENDBRANCH  26  27
ENDBRANCH  25  26
ENDBRANCH  24  25
ENDBRANCH  23  24
ENDBRANCH  22  23
ENDBRANCH  21  22
ENDBRANCH  20  21
ENDBRANCH  19  20
ENDBRANCH  18  19
ENDBRANCH   1  18
TORSDOF 28
ENDMDL
MODEL 9
REMARK VINA RESULT:    -4.434      2.539      4.228
REMARK INTER + INTRA:         -17.338
REMARK INTER:                 -10.948
REMARK INTRA:                  -6.389
REMARK UNBOUND:                -5.646
REMARK SMILES CCCCCCCCCCCCCCCCCCCCCCCCCCCCCC(=O)[O-]
REMARK SMILES IDX 16 1 17 2 18 3 19 4 20 5 21 6 22 7 23 8 24 9 25 10 26 11
REMARK SMILES IDX 27 12 28 13 29 14 30 15 31 16 32 17 15 18 14 19 13 20 12 21
REMARK SMILES IDX 11 22 10 23 9 24 8 25 7 26 6 27 5 28 4 29 3 30 2 31 1 32
REMARK H PARENT
REMARK Flexibility Score: inf
ROOT
ATOM      1  C   UNL     1       6.626 -15.272  24.003  1.00  0.00     0.000 C 
ENDROOT
BRANCH   1   2
ATOM      2  C   UNL     1       7.221 -15.618  22.626  1.00  0.00     0.000 C 
BRANCH   2   3
ATOM      3  C   UNL     1       7.557 -17.110  22.420  1.00  0.00     0.000 C 
BRANCH   3   4
ATOM      4  C   UNL     1       8.578 -17.407  21.301  1.00  0.00     0.000 C 
BRANCH   4   5
ATOM      5  C   UNL     1       9.718 -18.364  21.692  1.00  0.00     0.000 C 
BRANCH   5   6
ATOM      6  C   UNL     1       9.482 -19.059  23.039  1.00  0.00     0.000 C 
BRANCH   6   7
ATOM      7  C   UNL     1       9.363 -20.578  22.845  1.00  0.00     0.000 C 
BRANCH   7   8
ATOM      8  C   UNL     1       8.058 -21.161  23.416  1.00  0.00     0.000 C 
BRANCH   8   9
ATOM      9  C   UNL     1       7.368 -20.308  24.501  1.00  0.00     0.000 C 
BRANCH   9  10
ATOM     10  C   UNL     1       7.139 -21.009  25.854  1.00  0.00     0.000 C 
BRANCH  10  11
ATOM     11  C   UNL     1       7.693 -20.215  27.048  1.00  0.00     0.000 C 
BRANCH  11  12
ATOM     12  C   UNL     1       9.104 -19.653  26.770  1.00  0.00     0.000 C 
BRANCH  12  13
ATOM     13  C   UNL     1      10.205 -20.727  26.709  1.00  0.00     0.006 C 
BRANCH  13  14
ATOM     14  C   UNL     1      11.473 -20.257  25.979  1.00  0.00     0.053 C 
BRANCH  14  15
ATOM     15  C   UNL     1      12.624 -20.185  26.936  1.00  0.00     0.041 C 
ATOM     16  O   UNL     1      13.549 -19.346  26.755  1.00  0.00    -0.550 OA
ATOM     17  O   UNL     1      12.720 -21.104  27.972  1.00  0.00    -0.550 OA
ENDBRANCH  14  15
ENDBRANCH  13  14
ENDBRANCH  12  13
ENDBRANCH  11  12
ENDBRANCH  10  11
ENDBRANCH   9  10
ENDBRANCH   8   9
ENDBRANCH   7   8
ENDBRANCH   6   7
ENDBRANCH   5   6
ENDBRANCH   4   5
ENDBRANCH   3   4
ENDBRANCH   2   3
ENDBRANCH   1   2
BRANCH   1  18
ATOM     18  C   UNL     1       6.375 -16.514  24.872  1.00  0.00     0.000 C 
BRANCH  18  19
ATOM     19  C   UNL     1       7.292 -16.567  26.103  1.00  0.00     0.000 C 
BRANCH  19  20
ATOM     20  C   UNL     1       8.430 -15.538  26.044  1.00  0.00     0.000 C 
BRANCH  20  21
ATOM     21  C   UNL     1       9.799 -16.236  26.062  1.00  0.00     0.000 C 
BRANCH  21  22
ATOM     22  C   UNL     1      10.571 -16.061  24.746  1.00  0.00     0.000 C 
BRANCH  22  23
ATOM     23  C   UNL     1      11.989 -16.661  24.806  1.00  0.00     0.000 C 
BRANCH  23  24
ATOM     24  C   UNL     1      12.564 -16.953  23.411  1.00  0.00    -0.000 C 
BRANCH  24  25
ATOM     25  C   UNL     1      13.269 -18.319  23.339  1.00  0.00    -0.000 C 
BRANCH  25  26
ATOM     26  C   UNL     1      13.196 -18.947  21.939  1.00  0.00    -0.000 C 
BRANCH  26  27
ATOM     27  C   UNL     1      13.018 -20.475  21.986  1.00  0.00    -0.000 C 
BRANCH  27  28
ATOM     28  C   UNL     1      12.935 -21.110  20.586  1.00  0.00    -0.000 C 
BRANCH  28  29
ATOM     29  C   UNL     1      11.530 -21.097  19.955  1.00  0.00    -0.000 C 
BRANCH  29  30
ATOM     30  C   UNL     1      11.454 -20.230  18.687  1.00  0.00    -0.000 C 
BRANCH  30  31
ATOM     31  C   UNL     1      10.011 -19.852  18.320  1.00  0.00    -0.003 C 
ATOM     32  C   UNL     1       8.980 -20.785  18.951  1.00  0.00     0.004 C 
ENDBRANCH  30  31
ENDBRANCH  29  30
ENDBRANCH  28  29
ENDBRANCH  27  28
ENDBRANCH  26  27
ENDBRANCH  25  26
ENDBRANCH  24  25
ENDBRANCH  23  24
ENDBRANCH  22  23
ENDBRANCH  21  22
ENDBRANCH  20  21
ENDBRANCH  19  20
ENDBRANCH  18  19
ENDBRANCH   1  18
TORSDOF 28
ENDMDL
