MODEL 1
REMARK VINA RESULT:    -6.468      0.000      0.000
REMARK INTER + INTRA:         -11.729
REMARK INTER:                  -9.872
REMARK INTRA:                  -1.857
REMARK UNBOUND:                -1.857
REMARK SMILES CC(=O)CCC=C(C)CCC=C(C)CCC=C(C)C
REMARK SMILES IDX 10 1 11 2 12 3 13 4 14 5 15 6 16 7 18 8 17 9 19 10 9 11 7 12
REMARK SMILES IDX 6 13 8 14 5 15 4 16 2 17 3 18 1 19
REMARK H PARENT
REMARK Flexibility Score: inf
ROOT
ATOM      1  C   UNL     1      32.389  18.818  18.876  1.00  0.00     0.032 C 
ENDROOT
BRANCH   1   2
ATOM      2  C   UNL     1      31.507  18.321  17.756  1.00  0.00    -0.028 C 
ATOM      3  C   UNL     1      31.936  17.735  16.613  1.00  0.00    -0.077 C 
ATOM      4  C   UNL     1      30.902  17.306  15.604  1.00  0.00     0.039 C 
BRANCH   3   5
ATOM      5  C   UNL     1      33.401  17.492  16.304  1.00  0.00     0.034 C 
BRANCH   5   6
ATOM      6  C   UNL     1      33.969  18.548  15.345  1.00  0.00     0.032 C 
BRANCH   6   7
ATOM      7  C   UNL     1      34.574  19.704  16.108  1.00  0.00    -0.028 C 
ATOM      8  C   UNL     1      34.747  21.973  17.034  1.00  0.00     0.039 C 
ATOM      9  C   UNL     1      33.986  20.907  16.287  1.00  0.00    -0.080 C 
ATOM     10  C   UNL     1      32.603  21.214  15.764  1.00  0.00     0.039 C 
ENDBRANCH   6   7
ENDBRANCH   5   6
ENDBRANCH   3   5
ENDBRANCH   1   2
BRANCH   1  11
ATOM     11  C   UNL     1      31.931  20.205  19.337  1.00  0.00     0.034 C 
BRANCH  11  12
ATOM     12  C   UNL     1      31.978  20.316  20.845  1.00  0.00    -0.077 C 
ATOM     13  C   UNL     1      33.118  20.743  21.437  1.00  0.00    -0.028 C 
ATOM     14  C   UNL     1      30.744  19.971  21.645  1.00  0.00     0.039 C 
BRANCH  13  15
ATOM     15  C   UNL     1      33.311  20.867  22.927  1.00  0.00     0.035 C 
BRANCH  15  16
ATOM     16  C   UNL     1      34.426  19.934  23.411  1.00  0.00     0.079 C 
BRANCH  16  17
ATOM     17  C   UNL     1      33.937  19.057  24.533  1.00  0.00     0.130 C 
ATOM     18  O   UNL     1      34.665  18.844  25.490  1.00  0.00    -0.300 OA
ATOM     19  C   UNL     1      32.567  18.444  24.506  1.00  0.00     0.087 C 
ENDBRANCH  16  17
ENDBRANCH  15  16
ENDBRANCH  13  15
ENDBRANCH  11  12
ENDBRANCH   1  11
TORSDOF 9
ENDMDL
MODEL 2
REMARK VINA RESULT:    -6.391      1.515      3.315
REMARK INTER + INTRA:         -11.611
REMARK INTER:                  -9.799
REMARK INTRA:                  -1.812
REMARK UNBOUND:                -1.857
REMARK SMILES CC(=O)CCC=C(C)CCC=C(C)CCC=C(C)C
REMARK SMILES IDX 10 1 11 2 12 3 13 4 14 5 15 6 16 7 18 8 17 9 19 10 9 11 7 12
REMARK SMILES IDX 6 13 8 14 5 15 4 16 2 17 3 18 1 19
REMARK H PARENT
REMARK Flexibility Score: inf
ROOT
ATOM      1  C   UNL     1      31.667  20.461  18.832  1.00  0.00     0.032 C 
ENDROOT
BRANCH   1   2
ATOM      2  C   UNL     1      33.071  20.937  18.543  1.00  0.00    -0.028 C 
ATOM      3  C   UNL     1      33.527  21.371  17.344  1.00  0.00    -0.077 C 
ATOM      4  C   UNL     1      34.968  21.804  17.248  1.00  0.00     0.039 C 
BRANCH   3   5
ATOM      5  C   UNL     1      32.660  21.441  16.102  1.00  0.00     0.034 C 
BRANCH   5   6
ATOM      6  C   UNL     1      32.913  20.258  15.156  1.00  0.00     0.032 C 
BRANCH   6   7
ATOM      7  C   UNL     1      31.881  19.172  15.358  1.00  0.00    -0.028 C 
ATOM      8  C   UNL     1      30.968  17.014  16.094  1.00  0.00     0.039 C 
ATOM      9  C   UNL     1      32.092  18.016  16.026  1.00  0.00    -0.080 C 
ATOM     10  C   UNL     1      33.408  17.701  16.696  1.00  0.00     0.039 C 
ENDBRANCH   6   7
ENDBRANCH   5   6
ENDBRANCH   3   5
ENDBRANCH   1   2
BRANCH   1  11
ATOM     11  C   UNL     1      31.700  19.243  19.761  1.00  0.00     0.034 C 
BRANCH  11  12
ATOM     12  C   UNL     1      31.376  19.641  21.184  1.00  0.00    -0.077 C 
ATOM     13  C   UNL     1      32.374  19.690  22.096  1.00  0.00    -0.028 C 
ATOM     14  C   UNL     1      29.952  19.997  21.540  1.00  0.00     0.039 C 
BRANCH  13  15
ATOM     15  C   UNL     1      32.185  20.037  23.551  1.00  0.00     0.035 C 
BRANCH  15  16
ATOM     16  C   UNL     1      32.231  18.777  24.422  1.00  0.00     0.079 C 
BRANCH  16  17
ATOM     17  C   UNL     1      31.100  18.776  25.417  1.00  0.00     0.130 C 
ATOM     18  O   UNL     1      31.190  18.096  26.427  1.00  0.00    -0.300 OA
ATOM     19  C   UNL     1      29.867  19.603  25.200  1.00  0.00     0.087 C 
ENDBRANCH  16  17
ENDBRANCH  15  16
ENDBRANCH  13  15
ENDBRANCH  11  12
ENDBRANCH   1  11
TORSDOF 9
ENDMDL
MODEL 3
REMARK VINA RESULT:    -6.161      2.964      8.239
REMARK INTER + INTRA:         -11.260
REMARK INTER:                 -10.115
REMARK INTRA:                  -1.145
REMARK UNBOUND:                -1.857
REMARK SMILES CC(=O)CCC=C(C)CCC=C(C)CCC=C(C)C
REMARK SMILES IDX 10 1 11 2 12 3 13 4 14 5 15 6 16 7 18 8 17 9 19 10 9 11 7 12
REMARK SMILES IDX 6 13 8 14 5 15 4 16 2 17 3 18 1 19
REMARK H PARENT
REMARK Flexibility Score: inf
ROOT
ATOM      1  C   UNL     1      33.396  20.997  22.307  1.00  0.00     0.032 C 
ENDROOT
BRANCH   1   2
ATOM      2  C   UNL     1      34.300  20.115  23.135  1.00  0.00    -0.028 C 
ATOM      3  C   UNL     1      34.034  19.659  24.382  1.00  0.00    -0.077 C 
ATOM      4  C   UNL     1      35.065  18.789  25.055  1.00  0.00     0.039 C 
BRANCH   3   5
ATOM      5  C   UNL     1      32.753  19.983  25.128  1.00  0.00     0.034 C 
BRANCH   5   6
ATOM      6  C   UNL     1      31.663  18.929  24.884  1.00  0.00     0.032 C 
BRANCH   6   7
ATOM      7  C   UNL     1      31.324  18.194  26.160  1.00  0.00    -0.028 C 
ATOM      8  C   UNL     1      29.969  17.485  28.083  1.00  0.00     0.039 C 
ATOM      9  C   UNL     1      30.128  18.239  26.787  1.00  0.00    -0.080 C 
ATOM     10  C   UNL     1      28.958  19.019  26.235  1.00  0.00     0.039 C 
ENDBRANCH   6   7
ENDBRANCH   5   6
ENDBRANCH   3   5
ENDBRANCH   1   2
BRANCH   1  11
ATOM     11  C   UNL     1      32.573  20.148  21.333  1.00  0.00     0.034 C 
BRANCH  11  12
ATOM     12  C   UNL     1      32.666  20.699  19.927  1.00  0.00    -0.077 C 
ATOM     13  C   UNL     1      33.758  21.418  19.573  1.00  0.00    -0.028 C 
ATOM     14  C   UNL     1      31.551  20.410  18.950  1.00  0.00     0.039 C 
BRANCH  13  15
ATOM     15  C   UNL     1      33.961  22.050  18.220  1.00  0.00     0.035 C 
BRANCH  15  16
ATOM     16  C   UNL     1      35.119  21.378  17.474  1.00  0.00     0.079 C 
BRANCH  16  17
ATOM     17  C   UNL     1      34.622  20.688  16.230  1.00  0.00     0.130 C 
ATOM     18  O   UNL     1      35.342  19.883  15.662  1.00  0.00    -0.300 OA
ATOM     19  C   UNL     1      33.253  20.962  15.679  1.00  0.00     0.087 C 
ENDBRANCH  16  17
ENDBRANCH  15  16
ENDBRANCH  13  15
ENDBRANCH  11  12
ENDBRANCH   1  11
TORSDOF 9
ENDMDL
MODEL 4
REMARK VINA RESULT:    -6.113      4.152      7.404
REMARK INTER + INTRA:         -11.187
REMARK INTER:                  -9.770
REMARK INTRA:                  -1.416
REMARK UNBOUND:                -1.857
REMARK SMILES CC(=O)CCC=C(C)CCC=C(C)CCC=C(C)C
REMARK SMILES IDX 10 1 11 2 12 3 13 4 14 5 15 6 16 7 18 8 17 9 19 10 9 11 7 12
REMARK SMILES IDX 6 13 8 14 5 15 4 16 2 17 3 18 1 19
REMARK H PARENT
REMARK Flexibility Score: inf
ROOT
ATOM      1  C   UNL     1      31.901  18.419  25.540  1.00  0.00     0.032 C 
ENDROOT
BRANCH   1   2
ATOM      2  C   UNL     1      33.123  19.265  25.808  1.00  0.00    -0.028 C 
ATOM      3  C   UNL     1      33.947  19.784  24.866  1.00  0.00    -0.077 C 
ATOM      4  C   UNL     1      35.124  20.604  25.328  1.00  0.00     0.039 C 
BRANCH   3   5
ATOM      5  C   UNL     1      33.739  19.579  23.378  1.00  0.00     0.034 C 
BRANCH   5   6
ATOM      6  C   UNL     1      33.113  20.812  22.709  1.00  0.00     0.032 C 
BRANCH   6   7
ATOM      7  C   UNL     1      32.759  20.525  21.268  1.00  0.00    -0.028 C 
ATOM      8  C   UNL     1      31.367  19.846  19.362  1.00  0.00     0.039 C 
ATOM      9  C   UNL     1      31.540  20.141  20.830  1.00  0.00    -0.080 C 
ATOM     10  C   UNL     1      30.359  19.996  21.759  1.00  0.00     0.039 C 
ENDBRANCH   6   7
ENDBRANCH   5   6
ENDBRANCH   3   5
ENDBRANCH   1   2
BRANCH   1  11
ATOM     11  C   UNL     1      30.667  19.308  25.365  1.00  0.00     0.034 C 
BRANCH  11  12
ATOM     12  C   UNL     1      29.549  18.867  26.285  1.00  0.00    -0.077 C 
ATOM     13  C   UNL     1      29.861  18.250  27.449  1.00  0.00    -0.028 C 
ATOM     14  C   UNL     1      28.119  19.149  25.890  1.00  0.00     0.039 C 
BRANCH  13  15
ATOM     15  C   UNL     1      28.848  17.731  28.438  1.00  0.00     0.035 C 
BRANCH  15  16
ATOM     16  C   UNL     1      28.713  18.685  29.629  1.00  0.00     0.079 C 
BRANCH  16  17
ATOM     17  C   UNL     1      27.498  19.561  29.475  1.00  0.00     0.130 C 
ATOM     18  O   UNL     1      26.385  19.070  29.591  1.00  0.00    -0.300 OA
ATOM     19  C   UNL     1      27.623  21.029  29.192  1.00  0.00     0.087 C 
ENDBRANCH  16  17
ENDBRANCH  15  16
ENDBRANCH  13  15
ENDBRANCH  11  12
ENDBRANCH   1  11
TORSDOF 9
ENDMDL
MODEL 5
REMARK VINA RESULT:    -6.113      2.651      7.104
REMARK INTER + INTRA:         -11.186
REMARK INTER:                  -9.883
REMARK INTRA:                  -1.303
REMARK UNBOUND:                -1.857
REMARK SMILES CC(=O)CCC=C(C)CCC=C(C)CCC=C(C)C
REMARK SMILES IDX 10 1 11 2 12 3 13 4 14 5 15 6 16 7 18 8 17 9 19 10 9 11 7 12
REMARK SMILES IDX 6 13 8 14 5 15 4 16 2 17 3 18 1 19
REMARK H PARENT
REMARK Flexibility Score: inf
ROOT
ATOM      1  C   UNL     1      32.336  19.706  19.727  1.00  0.00     0.032 C 
ENDROOT
BRANCH   1   2
ATOM      2  C   UNL     1      31.049  19.789  20.513  1.00  0.00    -0.028 C 
ATOM      3  C   UNL     1      30.924  19.596  21.847  1.00  0.00    -0.077 C 
ATOM      4  C   UNL     1      29.550  19.716  22.456  1.00  0.00     0.039 C 
BRANCH   3   5
ATOM      5  C   UNL     1      32.097  19.267  22.752  1.00  0.00     0.034 C 
BRANCH   5   6
ATOM      6  C   UNL     1      32.799  20.532  23.267  1.00  0.00     0.032 C 
BRANCH   6   7
ATOM      7  C   UNL     1      34.279  20.293  23.453  1.00  0.00    -0.028 C 
ATOM      8  C   UNL     1      36.355  19.693  24.622  1.00  0.00     0.039 C 
ATOM      9  C   UNL     1      34.854  19.828  24.584  1.00  0.00    -0.080 C 
ATOM     10  C   UNL     1      34.045  19.448  25.801  1.00  0.00     0.039 C 
ENDBRANCH   6   7
ENDBRANCH   5   6
ENDBRANCH   3   5
ENDBRANCH   1   2
BRANCH   1  11
ATOM     11  C   UNL     1      32.934  21.104  19.538  1.00  0.00     0.034 C 
BRANCH  11  12
ATOM     12  C   UNL     1      33.341  21.326  18.098  1.00  0.00    -0.077 C 
ATOM     13  C   UNL     1      32.451  21.055  17.114  1.00  0.00    -0.028 C 
ATOM     14  C   UNL     1      34.719  21.867  17.800  1.00  0.00     0.039 C 
BRANCH  13  15
ATOM     15  C   UNL     1      32.737  21.200  15.641  1.00  0.00     0.035 C 
BRANCH  15  16
ATOM     16  C   UNL     1      32.631  19.847  14.930  1.00  0.00     0.079 C 
BRANCH  16  17
ATOM     17  C   UNL     1      33.646  18.878  15.476  1.00  0.00     0.130 C 
ATOM     18  O   UNL     1      34.833  19.156  15.419  1.00  0.00    -0.300 OA
ATOM     19  C   UNL     1      33.229  17.578  16.101  1.00  0.00     0.087 C 
ENDBRANCH  16  17
ENDBRANCH  15  16
ENDBRANCH  13  15
ENDBRANCH  11  12
ENDBRANCH   1  11
TORSDOF 9
ENDMDL
MODEL 6
REMARK VINA RESULT:    -6.085      2.957      7.683
REMARK INTER + INTRA:         -11.143
REMARK INTER:                  -9.924
REMARK INTRA:                  -1.220
REMARK UNBOUND:                -1.857
REMARK SMILES CC(=O)CCC=C(C)CCC=C(C)CCC=C(C)C
REMARK SMILES IDX 10 1 11 2 12 3 13 4 14 5 15 6 16 7 18 8 17 9 19 10 9 11 7 12
REMARK SMILES IDX 6 13 8 14 5 15 4 16 2 17 3 18 1 19
REMARK H PARENT
REMARK Flexibility Score: inf
ROOT
ATOM      1  C   UNL     1      32.513  20.408  21.201  1.00  0.00     0.032 C 
ENDROOT
BRANCH   1   2
ATOM      2  C   UNL     1      32.343  20.840  22.638  1.00  0.00    -0.028 C 
ATOM      3  C   UNL     1      32.975  20.297  23.706  1.00  0.00    -0.077 C 
ATOM      4  C   UNL     1      32.671  20.861  25.071  1.00  0.00     0.039 C 
BRANCH   3   5
ATOM      5  C   UNL     1      33.967  19.156  23.592  1.00  0.00     0.034 C 
BRANCH   5   6
ATOM      6  C   UNL     1      34.721  18.915  24.908  1.00  0.00     0.032 C 
BRANCH   6   7
ATOM      7  C   UNL     1      36.211  19.080  24.717  1.00  0.00    -0.028 C 
ATOM      8  C   UNL     1      38.398  20.197  24.767  1.00  0.00     0.039 C 
ATOM      9  C   UNL     1      36.922  20.172  25.073  1.00  0.00    -0.080 C 
ATOM     10  C   UNL     1      36.288  21.359  25.759  1.00  0.00     0.039 C 
ENDBRANCH   6   7
ENDBRANCH   5   6
ENDBRANCH   3   5
ENDBRANCH   1   2
BRANCH   1  11
ATOM     11  C   UNL     1      33.631  21.215  20.533  1.00  0.00     0.034 C 
BRANCH  11  12
ATOM     12  C   UNL     1      33.459  21.234  19.030  1.00  0.00    -0.077 C 
ATOM     13  C   UNL     1      34.477  21.682  18.258  1.00  0.00    -0.028 C 
ATOM     14  C   UNL     1      32.167  20.729  18.433  1.00  0.00     0.039 C 
BRANCH  13  15
ATOM     15  C   UNL     1      34.426  21.784  16.754  1.00  0.00     0.035 C 
BRANCH  15  16
ATOM     16  C   UNL     1      35.124  20.586  16.103  1.00  0.00     0.079 C 
BRANCH  16  17
ATOM     17  C   UNL     1      34.126  19.708  15.395  1.00  0.00     0.130 C 
ATOM     18  O   UNL     1      34.292  18.499  15.382  1.00  0.00    -0.300 OA
ATOM     19  C   UNL     1      32.922  20.288  14.712  1.00  0.00     0.087 C 
ENDBRANCH  16  17
ENDBRANCH  15  16
ENDBRANCH  13  15
ENDBRANCH  11  12
ENDBRANCH   1  11
TORSDOF 9
ENDMDL
MODEL 7
REMARK VINA RESULT:    -6.053      3.232      8.517
REMARK INTER + INTRA:         -11.095
REMARK INTER:                 -10.381
REMARK INTRA:                  -0.715
REMARK UNBOUND:                -1.857
REMARK SMILES CC(=O)CCC=C(C)CCC=C(C)CCC=C(C)C
REMARK SMILES IDX 10 1 11 2 12 3 13 4 14 5 15 6 16 7 18 8 17 9 19 10 9 11 7 12
REMARK SMILES IDX 6 13 8 14 5 15 4 16 2 17 3 18 1 19
REMARK H PARENT
REMARK Flexibility Score: inf
ROOT
ATOM      1  C   UNL     1      32.760  20.246  22.087  1.00  0.00     0.032 C 
ENDROOT
BRANCH   1   2
ATOM      2  C   UNL     1      33.666  19.915  23.249  1.00  0.00    -0.028 C 
ATOM      3  C   UNL     1      33.332  19.156  24.319  1.00  0.00    -0.077 C 
ATOM      4  C   UNL     1      34.374  18.940  25.388  1.00  0.00     0.039 C 
BRANCH   3   5
ATOM      5  C   UNL     1      31.967  18.518  24.492  1.00  0.00     0.034 C 
BRANCH   5   6
ATOM      6  C   UNL     1      31.620  18.292  25.970  1.00  0.00     0.032 C 
BRANCH   6   7
ATOM      7  C   UNL     1      30.153  18.547  26.228  1.00  0.00    -0.028 C 
ATOM      8  C   UNL     1      28.005  18.459  27.417  1.00  0.00     0.039 C 
ATOM      9  C   UNL     1      29.483  18.171  27.339  1.00  0.00    -0.080 C 
ATOM     10  C   UNL     1      30.165  17.475  28.493  1.00  0.00     0.039 C 
ENDBRANCH   6   7
ENDBRANCH   5   6
ENDBRANCH   3   5
ENDBRANCH   1   2
BRANCH   1  11
ATOM     11  C   UNL     1      33.329  21.421  21.287  1.00  0.00     0.034 C 
BRANCH  11  12
ATOM     12  C   UNL     1      33.382  21.095  19.810  1.00  0.00    -0.077 C 
ATOM     13  C   UNL     1      32.516  20.184  19.308  1.00  0.00    -0.028 C 
ATOM     14  C   UNL     1      34.382  21.812  18.935  1.00  0.00     0.039 C 
BRANCH  13  15
ATOM     15  C   UNL     1      32.482  19.742  17.866  1.00  0.00     0.035 C 
BRANCH  15  16
ATOM     16  C   UNL     1      33.446  18.574  17.633  1.00  0.00     0.079 C 
BRANCH  16  17
ATOM     17  C   UNL     1      33.069  17.814  16.388  1.00  0.00     0.130 C 
ATOM     18  O   UNL     1      33.917  17.600  15.536  1.00  0.00    -0.300 OA
ATOM     19  C   UNL     1      31.674  17.304  16.176  1.00  0.00     0.087 C 
ENDBRANCH  16  17
ENDBRANCH  15  16
ENDBRANCH  13  15
ENDBRANCH  11  12
ENDBRANCH   1  11
TORSDOF 9
ENDMDL
MODEL 8
REMARK VINA RESULT:    -6.027      4.555      7.531
REMARK INTER + INTRA:         -11.055
REMARK INTER:                  -9.845
REMARK INTRA:                  -1.210
REMARK UNBOUND:                -1.857
REMARK SMILES CC(=O)CCC=C(C)CCC=C(C)CCC=C(C)C
REMARK SMILES IDX 10 1 11 2 12 3 13 4 14 5 15 6 16 7 18 8 17 9 19 10 9 11 7 12
REMARK SMILES IDX 6 13 8 14 5 15 4 16 2 17 3 18 1 19
REMARK H PARENT
REMARK Flexibility Score: inf
ROOT
ATOM      1  C   UNL     1      31.252  18.198  25.521  1.00  0.00     0.032 C 
ENDROOT
BRANCH   1   2
ATOM      2  C   UNL     1      32.601  18.869  25.628  1.00  0.00    -0.028 C 
ATOM      3  C   UNL     1      33.003  19.951  24.920  1.00  0.00    -0.077 C 
ATOM      4  C   UNL     1      34.394  20.480  25.162  1.00  0.00     0.039 C 
BRANCH   3   5
ATOM      5  C   UNL     1      32.123  20.651  23.901  1.00  0.00     0.034 C 
BRANCH   5   6
ATOM      6  C   UNL     1      32.195  19.979  22.522  1.00  0.00     0.032 C 
BRANCH   6   7
ATOM      7  C   UNL     1      33.120  20.738  21.598  1.00  0.00    -0.028 C 
ATOM      8  C   UNL     1      33.989  21.623  19.478  1.00  0.00     0.039 C 
ATOM      9  C   UNL     1      32.944  20.875  20.265  1.00  0.00    -0.080 C 
ATOM     10  C   UNL     1      31.743  20.303  19.549  1.00  0.00     0.039 C 
ENDBRANCH   6   7
ENDBRANCH   5   6
ENDBRANCH   3   5
ENDBRANCH   1   2
BRANCH   1  11
ATOM     11  C   UNL     1      30.545  18.206  26.880  1.00  0.00     0.034 C 
BRANCH  11  12
ATOM     12  C   UNL     1      29.119  18.693  26.744  1.00  0.00    -0.077 C 
ATOM     13  C   UNL     1      28.154  18.116  27.498  1.00  0.00    -0.028 C 
ATOM     14  C   UNL     1      28.818  19.824  25.790  1.00  0.00     0.039 C 
BRANCH  13  15
ATOM     15  C   UNL     1      26.692  18.482  27.437  1.00  0.00     0.035 C 
BRANCH  15  16
ATOM     16  C   UNL     1      26.135  18.733  28.842  1.00  0.00     0.079 C 
BRANCH  16  17
ATOM     17  C   UNL     1      26.853  19.881  29.501  1.00  0.00     0.130 C 
ATOM     18  O   UNL     1      27.438  19.697  30.557  1.00  0.00    -0.300 OA
ATOM     19  C   UNL     1      26.876  21.248  28.883  1.00  0.00     0.087 C 
ENDBRANCH  16  17
ENDBRANCH  15  16
ENDBRANCH  13  15
ENDBRANCH  11  12
ENDBRANCH   1  11
TORSDOF 9
ENDMDL
MODEL 9
REMARK VINA RESULT:    -6.026      4.700      7.766
REMARK INTER + INTRA:         -11.054
REMARK INTER:                  -9.855
REMARK INTRA:                  -1.199
REMARK UNBOUND:                -1.857
REMARK SMILES CC(=O)CCC=C(C)CCC=C(C)CCC=C(C)C
REMARK SMILES IDX 10 1 11 2 12 3 13 4 14 5 15 6 16 7 18 8 17 9 19 10 9 11 7 12
REMARK SMILES IDX 6 13 8 14 5 15 4 16 2 17 3 18 1 19
REMARK H PARENT
REMARK Flexibility Score: inf
ROOT
ATOM      1  C   UNL     1      30.090  19.294  24.417  1.00  0.00     0.032 C 
ENDROOT
BRANCH   1   2
ATOM      2  C   UNL     1      30.024  19.365  22.909  1.00  0.00    -0.028 C 
ATOM      3  C   UNL     1      30.893  20.030  22.111  1.00  0.00    -0.077 C 
ATOM      4  C   UNL     1      30.661  19.990  20.622  1.00  0.00     0.039 C 
BRANCH   3   5
ATOM      5  C   UNL     1      32.080  20.809  22.644  1.00  0.00     0.034 C 
BRANCH   5   6
ATOM      6  C   UNL     1      33.343  19.940  22.735  1.00  0.00     0.032 C 
BRANCH   6   7
ATOM      7  C   UNL     1      34.344  20.538  23.698  1.00  0.00    -0.028 C 
ATOM      8  C   UNL     1      35.457  20.961  25.846  1.00  0.00     0.039 C 
ATOM      9  C   UNL     1      34.432  20.236  25.012  1.00  0.00    -0.080 C 
ATOM     10  C   UNL     1      33.540  19.206  25.663  1.00  0.00     0.039 C 
ENDBRANCH   6   7
ENDBRANCH   5   6
ENDBRANCH   3   5
ENDBRANCH   1   2
BRANCH   1  11
ATOM     11  C   UNL     1      28.722  19.624  25.024  1.00  0.00     0.034 C 
BRANCH  11  12
ATOM     12  C   UNL     1      28.544  18.933  26.358  1.00  0.00    -0.077 C 
ATOM     13  C   UNL     1      27.294  18.775  26.854  1.00  0.00    -0.028 C 
ATOM     14  C   UNL     1      29.763  18.419  27.087  1.00  0.00     0.039 C 
BRANCH  13  15
ATOM     15  C   UNL     1      26.978  18.137  28.183  1.00  0.00     0.035 C 
BRANCH  15  16
ATOM     16  C   UNL     1      26.097  19.058  29.033  1.00  0.00     0.079 C 
BRANCH  16  17
ATOM     17  C   UNL     1      26.939  20.060  29.779  1.00  0.00     0.130 C 
ATOM     18  O   UNL     1      27.538  19.711  30.784  1.00  0.00    -0.300 OA
ATOM     19  C   UNL     1      27.067  21.479  29.307  1.00  0.00     0.087 C 
ENDBRANCH  16  17
ENDBRANCH  15  16
ENDBRANCH  13  15
ENDBRANCH  11  12
ENDBRANCH   1  11
TORSDOF 9
ENDMDL
