MODEL 1
REMARK VINA RESULT:    -3.577      0.000      0.000
REMARK INTER + INTRA:          -5.490
REMARK INTER:                  -4.832
REMARK INTRA:                  -0.658
REMARK UNBOUND:                -0.658
REMARK SMILES C=CC(C)=CCC=C(C)CCC=C(C)C
REMARK SMILES IDX 8 1 7 2 9 3 10 4 11 5 12 6 14 7 13 8 15 9 6 10 5 11 3 12
REMARK SMILES IDX 4 13 2 14 1 15
REMARK H PARENT
REMARK Flexibility Score: inf
ROOT
ATOM      1  C   UNL     1     137.440 135.995 121.970  1.00  0.00    -0.077 C 
ATOM      2  C   UNL     1     138.198 134.981 122.449  1.00  0.00    -0.024 C 
ATOM      3  C   UNL     1     138.048 137.152 121.213  1.00  0.00     0.039 C 
ENDROOT
BRANCH   1   4
ATOM      4  C   UNL     1     135.951 136.004 122.247  1.00  0.00     0.034 C 
BRANCH   4   5
ATOM      5  C   UNL     1     135.644 136.439 123.687  1.00  0.00     0.032 C 
BRANCH   5   6
ATOM      6  C   UNL     1     135.003 137.805 123.741  1.00  0.00    -0.028 C 
ATOM      7  C   UNL     1     134.904 140.257 123.858  1.00  0.00     0.039 C 
ATOM      8  C   UNL     1     135.681 138.966 123.871  1.00  0.00    -0.080 C 
ATOM      9  C   UNL     1     137.181 139.004 124.046  1.00  0.00     0.039 C 
ENDBRANCH   5   6
ENDBRANCH   4   5
ENDBRANCH   1   4
BRANCH   2  10
ATOM     10  C   UNL     1     139.690 134.876 122.252  1.00  0.00     0.055 C 
BRANCH  10  11
ATOM     11  C   UNL     1     140.423 135.938 123.031  1.00  0.00    -0.020 C 
ATOM     12  C   UNL     1     140.263 136.140 124.355  1.00  0.00    -0.055 C 
ATOM     13  C   UNL     1     141.038 137.255 125.016  1.00  0.00     0.044 C 
BRANCH  12  14
ATOM     14  C   UNL     1     139.327 135.305 125.160  1.00  0.00    -0.005 C 
ATOM     15  C   UNL     1     138.259 135.798 125.787  1.00  0.00     0.009 C 
ENDBRANCH  12  14
ENDBRANCH  10  11
ENDBRANCH   2  10
TORSDOF 6
ENDMDL
MODEL 2
REMARK VINA RESULT:    -2.341      1.291      3.113
REMARK INTER + INTRA:          -3.820
REMARK INTER:                  -3.077
REMARK INTRA:                  -0.743
REMARK UNBOUND:                -0.658
REMARK SMILES C=CC(C)=CCC=C(C)CCC=C(C)C
REMARK SMILES IDX 8 1 7 2 9 3 10 4 11 5 12 6 14 7 13 8 15 9 6 10 5 11 3 12
REMARK SMILES IDX 4 13 2 14 1 15
REMARK H PARENT
REMARK Flexibility Score: inf
ROOT
ATOM      1  C   UNL     1     135.825 137.304 124.479  1.00  0.00    -0.077 C 
ATOM      2  C   UNL     1     135.676 136.192 123.724  1.00  0.00    -0.024 C 
ATOM      3  C   UNL     1     136.739 137.332 125.681  1.00  0.00     0.039 C 
ENDROOT
BRANCH   1   4
ATOM      4  C   UNL     1     135.013 138.540 124.151  1.00  0.00     0.034 C 
BRANCH   4   5
ATOM      5  C   UNL     1     135.740 139.447 123.148  1.00  0.00     0.032 C 
BRANCH   5   6
ATOM      6  C   UNL     1     136.369 138.659 122.025  1.00  0.00    -0.028 C 
ATOM      7  C   UNL     1     138.117 137.402 120.842  1.00  0.00     0.039 C 
ATOM      8  C   UNL     1     137.647 138.222 122.016  1.00  0.00    -0.080 C 
ATOM      9  C   UNL     1     138.614 138.547 123.130  1.00  0.00     0.039 C 
ENDBRANCH   5   6
ENDBRANCH   4   5
ENDBRANCH   1   4
BRANCH   2  10
ATOM     10  C   UNL     1     136.416 134.900 123.966  1.00  0.00     0.055 C 
BRANCH  10  11
ATOM     11  C   UNL     1     137.732 134.875 123.231  1.00  0.00    -0.020 C 
ATOM     12  C   UNL     1     138.933 134.880 123.844  1.00  0.00    -0.055 C 
ATOM     13  C   UNL     1     140.180 134.878 122.994  1.00  0.00     0.044 C 
BRANCH  12  14
ATOM     14  C   UNL     1     139.045 134.910 125.330  1.00  0.00    -0.005 C 
ATOM     15  C   UNL     1     139.922 135.672 125.984  1.00  0.00     0.009 C 
ENDBRANCH  12  14
ENDBRANCH  10  11
ENDBRANCH   2  10
TORSDOF 6
ENDMDL
MODEL 3
REMARK VINA RESULT:    -1.906     13.695     16.699
REMARK INTER + INTRA:          -3.233
REMARK INTER:                  -2.922
REMARK INTRA:                  -0.311
REMARK UNBOUND:                -0.658
REMARK SMILES C=CC(C)=CCC=C(C)CCC=C(C)C
REMARK SMILES IDX 8 1 7 2 9 3 10 4 11 5 12 6 14 7 13 8 15 9 6 10 5 11 3 12
REMARK SMILES IDX 4 13 2 14 1 15
REMARK H PARENT
REMARK Flexibility Score: inf
ROOT
ATOM      1  C   UNL     1     135.711 153.757 125.377  1.00  0.00    -0.077 C 
ATOM      2  C   UNL     1     135.060 154.020 124.221  1.00  0.00    -0.024 C 
ATOM      3  C   UNL     1     137.103 154.281 125.643  1.00  0.00     0.039 C 
ENDROOT
BRANCH   1   4
ATOM      4  C   UNL     1     135.057 152.865 126.412  1.00  0.00     0.034 C 
BRANCH   4   5
ATOM      5  C   UNL     1     135.079 151.390 125.987  1.00  0.00     0.032 C 
BRANCH   5   6
ATOM      6  C   UNL     1     134.875 151.227 124.500  1.00  0.00    -0.028 C 
ATOM      7  C   UNL     1     135.396 150.517 122.207  1.00  0.00     0.039 C 
ATOM      8  C   UNL     1     135.765 150.653 123.662  1.00  0.00    -0.080 C 
ATOM      9  C   UNL     1     137.114 150.166 124.135  1.00  0.00     0.039 C 
ENDBRANCH   5   6
ENDBRANCH   4   5
ENDBRANCH   1   4
BRANCH   2  10
ATOM     10  C   UNL     1     135.618 154.877 123.113  1.00  0.00     0.055 C 
BRANCH  10  11
ATOM     11  C   UNL     1     136.142 154.034 121.978  1.00  0.00    -0.020 C 
ATOM     12  C   UNL     1     137.408 153.576 121.907  1.00  0.00    -0.055 C 
ATOM     13  C   UNL     1     137.817 152.760 120.704  1.00  0.00     0.044 C 
BRANCH  12  14
ATOM     14  C   UNL     1     138.403 153.879 122.974  1.00  0.00    -0.005 C 
ATOM     15  C   UNL     1     138.976 155.074 123.125  1.00  0.00     0.009 C 
ENDBRANCH  12  14
ENDBRANCH  10  11
ENDBRANCH   2  10
TORSDOF 6
ENDMDL
MODEL 4
REMARK VINA RESULT:    -1.509     14.068     17.002
REMARK INTER + INTRA:          -2.697
REMARK INTER:                  -3.732
REMARK INTRA:                   1.035
REMARK UNBOUND:                -0.658
REMARK SMILES C=CC(C)=CCC=C(C)CCC=C(C)C
REMARK SMILES IDX 8 1 7 2 9 3 10 4 11 5 12 6 14 7 13 8 15 9 6 10 5 11 3 12
REMARK SMILES IDX 4 13 2 14 1 15
REMARK H PARENT
REMARK Flexibility Score: inf
ROOT
ATOM      1  C   UNL     1     137.396 154.552 124.659  1.00  0.00    -0.077 C 
ATOM      2  C   UNL     1     136.223 154.746 124.014  1.00  0.00    -0.024 C 
ATOM      3  C   UNL     1     137.451 153.968 126.051  1.00  0.00     0.039 C 
ENDROOT
BRANCH   1   4
ATOM      4  C   UNL     1     138.688 154.981 123.996  1.00  0.00     0.034 C 
BRANCH   4   5
ATOM      5  C   UNL     1     139.008 154.122 122.765  1.00  0.00     0.032 C 
BRANCH   5   6
ATOM      6  C   UNL     1     137.816 153.312 122.315  1.00  0.00    -0.028 C 
ATOM      7  C   UNL     1     136.399 152.035 120.767  1.00  0.00     0.039 C 
ATOM      8  C   UNL     1     137.615 152.880 121.052  1.00  0.00    -0.080 C 
ATOM      9  C   UNL     1     138.555 153.232 119.924  1.00  0.00     0.039 C 
ENDBRANCH   5   6
ENDBRANCH   4   5
ENDBRANCH   1   4
BRANCH   2  10
ATOM     10  C   UNL     1     134.875 154.376 124.582  1.00  0.00     0.055 C 
BRANCH  10  11
ATOM     11  C   UNL     1     134.992 153.260 125.589  1.00  0.00    -0.020 C 
ATOM     12  C   UNL     1     134.998 151.952 125.261  1.00  0.00    -0.055 C 
ATOM     13  C   UNL     1     135.096 150.929 126.367  1.00  0.00     0.044 C 
BRANCH  12  14
ATOM     14  C   UNL     1     134.888 151.508 123.843  1.00  0.00    -0.005 C 
ATOM     15  C   UNL     1     135.416 150.370 123.388  1.00  0.00     0.009 C 
ENDBRANCH  12  14
ENDBRANCH  10  11
ENDBRANCH   2  10
TORSDOF 6
ENDMDL
MODEL 5
REMARK VINA RESULT:    -1.380      1.323      4.769
REMARK INTER + INTRA:          -2.522
REMARK INTER:                  -2.204
REMARK INTRA:                  -0.318
REMARK UNBOUND:                -0.658
REMARK SMILES C=CC(C)=CCC=C(C)CCC=C(C)C
REMARK SMILES IDX 8 1 7 2 9 3 10 4 11 5 12 6 14 7 13 8 15 9 6 10 5 11 3 12
REMARK SMILES IDX 4 13 2 14 1 15
REMARK H PARENT
REMARK Flexibility Score: inf
ROOT
ATOM      1  C   UNL     1     138.193 135.443 125.175  1.00  0.00    -0.077 C 
ATOM      2  C   UNL     1     137.211 135.139 124.296  1.00  0.00    -0.024 C 
ATOM      3  C   UNL     1     137.958 136.383 126.334  1.00  0.00     0.039 C 
ENDROOT
BRANCH   1   4
ATOM      4  C   UNL     1     139.581 134.875 124.966  1.00  0.00     0.034 C 
BRANCH   4   5
ATOM      5  C   UNL     1     139.983 134.889 123.484  1.00  0.00     0.032 C 
BRANCH   5   6
ATOM      6  C   UNL     1     139.503 136.136 122.780  1.00  0.00    -0.028 C 
ATOM      7  C   UNL     1     138.201 137.478 121.186  1.00  0.00     0.039 C 
ATOM      8  C   UNL     1     138.624 136.148 121.754  1.00  0.00    -0.080 C 
ATOM      9  C   UNL     1     138.074 134.875 121.154  1.00  0.00     0.039 C 
ENDBRANCH   5   6
ENDBRANCH   4   5
ENDBRANCH   1   4
BRANCH   2  10
ATOM     10  C   UNL     1     135.798 135.659 124.392  1.00  0.00     0.055 C 
BRANCH  10  11
ATOM     11  C   UNL     1     135.530 136.714 123.350  1.00  0.00    -0.020 C 
ATOM     12  C   UNL     1     135.563 138.039 123.598  1.00  0.00    -0.055 C 
ATOM     13  C   UNL     1     135.250 138.995 122.472  1.00  0.00     0.044 C 
BRANCH  12  14
ATOM     14  C   UNL     1     135.876 138.565 124.957  1.00  0.00    -0.005 C 
ATOM     15  C   UNL     1     136.007 139.865 125.227  1.00  0.00     0.009 C 
ENDBRANCH  12  14
ENDBRANCH  10  11
ENDBRANCH   2  10
TORSDOF 6
ENDMDL
MODEL 6
REMARK VINA RESULT:    -1.286      1.231      2.653
REMARK INTER + INTRA:          -2.396
REMARK INTER:                  -2.303
REMARK INTRA:                  -0.092
REMARK UNBOUND:                -0.658
REMARK SMILES C=CC(C)=CCC=C(C)CCC=C(C)C
REMARK SMILES IDX 8 1 7 2 9 3 10 4 11 5 12 6 14 7 13 8 15 9 6 10 5 11 3 12
REMARK SMILES IDX 4 13 2 14 1 15
REMARK H PARENT
REMARK Flexibility Score: inf
ROOT
ATOM      1  C   UNL     1     137.347 138.019 122.391  1.00  0.00    -0.077 C 
ATOM      2  C   UNL     1     137.560 136.773 121.908  1.00  0.00    -0.024 C 
ATOM      3  C   UNL     1     138.461 138.834 123.005  1.00  0.00     0.039 C 
ENDROOT
BRANCH   1   4
ATOM      4  C   UNL     1     135.947 138.596 122.370  1.00  0.00     0.034 C 
BRANCH   4   5
ATOM      5  C   UNL     1     135.125 138.134 123.582  1.00  0.00     0.032 C 
BRANCH   5   6
ATOM      6  C   UNL     1     135.996 137.861 124.785  1.00  0.00    -0.028 C 
ATOM      7  C   UNL     1     137.336 136.529 126.355  1.00  0.00     0.039 C 
ATOM      8  C   UNL     1     136.429 136.637 125.157  1.00  0.00    -0.080 C 
ATOM      9  C   UNL     1     136.017 135.383 124.422  1.00  0.00     0.039 C 
ENDBRANCH   5   6
ENDBRANCH   4   5
ENDBRANCH   1   4
BRANCH   2  10
ATOM     10  C   UNL     1     138.905 136.091 121.894  1.00  0.00     0.055 C 
BRANCH  10  11
ATOM     11  C   UNL     1     139.138 135.311 123.163  1.00  0.00    -0.020 C 
ATOM     12  C   UNL     1     139.880 135.763 124.194  1.00  0.00    -0.055 C 
ATOM     13  C   UNL     1     140.058 134.875 125.402  1.00  0.00     0.044 C 
BRANCH  12  14
ATOM     14  C   UNL     1     140.536 137.101 124.149  1.00  0.00    -0.005 C 
ATOM     15  C   UNL     1     141.484 137.481 125.008  1.00  0.00     0.009 C 
ENDBRANCH  12  14
ENDBRANCH  10  11
ENDBRANCH   2  10
TORSDOF 6
ENDMDL
MODEL 7
REMARK VINA RESULT:    -1.272      1.159      4.218
REMARK INTER + INTRA:          -2.376
REMARK INTER:                  -2.649
REMARK INTRA:                   0.273
REMARK UNBOUND:                -0.658
REMARK SMILES C=CC(C)=CCC=C(C)CCC=C(C)C
REMARK SMILES IDX 8 1 7 2 9 3 10 4 11 5 12 6 14 7 13 8 15 9 6 10 5 11 3 12
REMARK SMILES IDX 4 13 2 14 1 15
REMARK H PARENT
REMARK Flexibility Score: inf
ROOT
ATOM      1  C   UNL     1     138.313 135.787 121.753  1.00  0.00    -0.077 C 
ATOM      2  C   UNL     1     137.201 135.552 122.488  1.00  0.00    -0.024 C 
ATOM      3  C   UNL     1     138.328 136.810 120.642  1.00  0.00     0.039 C 
ENDROOT
BRANCH   1   4
ATOM      4  C   UNL     1     139.560 134.967 122.008  1.00  0.00     0.034 C 
BRANCH   4   5
ATOM      5  C   UNL     1     139.883 134.875 123.506  1.00  0.00     0.032 C 
BRANCH   5   6
ATOM      6  C   UNL     1     138.682 135.192 124.364  1.00  0.00    -0.028 C 
ATOM      7  C   UNL     1     137.457 135.909 126.369  1.00  0.00     0.039 C 
ATOM      8  C   UNL     1     138.744 135.578 125.657  1.00  0.00    -0.080 C 
ATOM      9  C   UNL     1     140.052 135.668 126.406  1.00  0.00     0.039 C 
ENDBRANCH   5   6
ENDBRANCH   4   5
ENDBRANCH   1   4
BRANCH   2  10
ATOM     10  C   UNL     1     135.899 136.292 122.311  1.00  0.00     0.055 C 
BRANCH  10  11
ATOM     11  C   UNL     1     135.585 137.145 123.513  1.00  0.00    -0.020 C 
ATOM     12  C   UNL     1     136.250 138.276 123.824  1.00  0.00    -0.055 C 
ATOM     13  C   UNL     1     135.856 139.029 125.071  1.00  0.00     0.044 C 
BRANCH  12  14
ATOM     14  C   UNL     1     137.371 138.774 122.976  1.00  0.00    -0.005 C 
ATOM     15  C   UNL     1     138.635 138.836 123.395  1.00  0.00     0.009 C 
ENDBRANCH  12  14
ENDBRANCH  10  11
ENDBRANCH   2  10
TORSDOF 6
ENDMDL
MODEL 8
REMARK VINA RESULT:    -1.113     12.748     16.325
REMARK INTER + INTRA:          -2.161
REMARK INTER:                  -2.280
REMARK INTRA:                   0.118
REMARK UNBOUND:                -0.658
REMARK SMILES C=CC(C)=CCC=C(C)CCC=C(C)C
REMARK SMILES IDX 8 1 7 2 9 3 10 4 11 5 12 6 14 7 13 8 15 9 6 10 5 11 3 12
REMARK SMILES IDX 4 13 2 14 1 15
REMARK H PARENT
REMARK Flexibility Score: inf
ROOT
ATOM      1  C   UNL     1     135.288 152.999 125.133  1.00  0.00    -0.077 C 
ATOM      2  C   UNL     1     135.233 153.399 123.842  1.00  0.00    -0.024 C 
ATOM      3  C   UNL     1     135.788 153.913 126.228  1.00  0.00     0.039 C 
ENDROOT
BRANCH   1   4
ATOM      4  C   UNL     1     134.896 151.581 125.490  1.00  0.00     0.034 C 
BRANCH   4   5
ATOM      5  C   UNL     1     135.146 150.612 124.326  1.00  0.00     0.032 C 
BRANCH   5   6
ATOM      6  C   UNL     1     136.620 150.407 124.068  1.00  0.00    -0.028 C 
ATOM      7  C   UNL     1     138.873 149.491 124.411  1.00  0.00     0.039 C 
ATOM      8  C   UNL     1     137.431 149.638 124.825  1.00  0.00    -0.080 C 
ATOM      9  C   UNL     1     136.943 148.944 126.075  1.00  0.00     0.039 C 
ENDBRANCH   5   6
ENDBRANCH   4   5
ENDBRANCH   1   4
BRANCH   2  10
ATOM     10  C   UNL     1     135.616 154.779 123.367  1.00  0.00     0.055 C 
BRANCH  10  11
ATOM     11  C   UNL     1     137.029 155.122 123.764  1.00  0.00    -0.020 C 
ATOM     12  C   UNL     1     138.104 154.384 123.423  1.00  0.00    -0.055 C 
ATOM     13  C   UNL     1     139.467 154.821 123.904  1.00  0.00     0.044 C 
BRANCH  12  14
ATOM     14  C   UNL     1     137.966 153.144 122.607  1.00  0.00    -0.005 C 
ATOM     15  C   UNL     1     137.765 153.153 121.288  1.00  0.00     0.009 C 
ENDBRANCH  12  14
ENDBRANCH  10  11
ENDBRANCH   2  10
TORSDOF 6
ENDMDL
