MODEL 1
REMARK VINA RESULT:   -10.157      0.000      0.000
REMARK INTER + INTRA:         -15.929
REMARK INTER:                 -14.908
REMARK INTRA:                  -1.021
REMARK UNBOUND:                -1.021
REMARK SMILES O=c1c(O[C@@H]2O[C@@H](CO)[C@H](O)[C@@H](O)[C@@H]2O)c(-c2ccc(O)c(O)c2)oc2cc(O)cc(O)c12
REMARK SMILES IDX 4 1 3 2 16 3 25 4 2 5 26 6 1 7 33 8 27 9 31 10 28 11 30 12
REMARK SMILES IDX 17 13 18 14 19 15 20 16 24 17 22 18 21 19 23 21 32 23 29 25
REMARK SMILES IDX 5 27 14 28 6 29 12 30 7 31 10 32 15 33 13 35 8 37 9 38 11 40
REMARK H PARENT 21 20 23 22 32 24 29 26 15 34 13 36 9 39 11 41
REMARK Flexibility Score: inf
ROOT
ATOM      1  O   UNL     1     128.540 135.325 111.772  1.00  0.00    -0.454 OA
ENDROOT
BRANCH   1   2
ATOM      2  C   UNL     1     129.912 135.073 112.026  1.00  0.00     0.214 A 
ATOM      3  C   UNL     1     130.695 134.573 110.963  1.00  0.00     0.180 A 
ATOM      4  O   UNL     1     132.005 134.376 111.117  1.00  0.00    -0.452 OA
ATOM      5  C   UNL     1     130.563 135.297 113.268  1.00  0.00     0.239 A 
ATOM      6  C   UNL     1     132.659 134.650 112.242  1.00  0.00     0.146 A 
ATOM      7  O   UNL     1     129.907 135.650 114.288  1.00  0.00    -0.285 OA
ATOM      8  C   UNL     1     131.965 135.136 113.366  1.00  0.00     0.111 A 
ATOM      9  C   UNL     1     134.049 134.476 112.280  1.00  0.00     0.094 A 
ATOM     10  C   UNL     1     132.697 135.478 114.528  1.00  0.00     0.134 A 
ATOM     11  C   UNL     1     134.765 134.820 113.421  1.00  0.00     0.123 A 
ATOM     12  C   UNL     1     134.096 135.329 114.537  1.00  0.00     0.093 A 
BRANCH   3  13
ATOM     13  C   UNL     1     130.108 134.193 109.659  1.00  0.00     0.025 A 
ATOM     14  C   UNL     1     129.855 132.832 109.395  1.00  0.00     0.016 A 
ATOM     15  C   UNL     1     129.337 132.427 108.156  1.00  0.00     0.051 A 
ATOM     16  C   UNL     1     129.155 133.362 107.137  1.00  0.00     0.157 A 
ATOM     17  C   UNL     1     129.892 135.134 108.631  1.00  0.00     0.062 A 
ATOM     18  C   UNL     1     129.428 134.721 107.377  1.00  0.00     0.158 A 
BRANCH  16  19
ATOM     19  O   UNL     1     128.726 132.932 105.876  1.00  0.00    -0.504 OA
ATOM     20  H   UNL     1     128.198 132.081 105.740  1.00  0.00     0.293 HD
ENDBRANCH  16  19
BRANCH  18  21
ATOM     21  O   UNL     1     129.260 135.665 106.366  1.00  0.00    -0.504 OA
ATOM     22  H   UNL     1     128.459 135.647 105.752  1.00  0.00     0.293 HD
ENDBRANCH  18  21
ENDBRANCH   3  13
BRANCH  10  23
ATOM     23  O   UNL     1     132.056 135.994 115.650  1.00  0.00    -0.507 OA
ATOM     24  H   UNL     1     131.151 135.652 115.960  1.00  0.00     0.293 HD
ENDBRANCH  10  23
BRANCH  11  25
ATOM     25  O   UNL     1     136.148 134.668 113.455  1.00  0.00    -0.508 OA
ATOM     26  H   UNL     1     136.686 134.801 114.306  1.00  0.00     0.293 HD
ENDBRANCH  11  25
ENDBRANCH   1   2
BRANCH   1  27
ATOM     27  C   UNL     1     127.469 134.389 111.519  1.00  0.00     0.339 C 
ATOM     28  C   UNL     1     126.270 134.673 112.409  1.00  0.00     0.214 C 
ATOM     29  O   UNL     1     127.050 134.432 110.178  1.00  0.00    -0.332 OA
ATOM     30  C   UNL     1     125.791 136.114 112.190  1.00  0.00     0.180 C 
ATOM     31  C   UNL     1     126.761 135.755 109.734  1.00  0.00     0.179 C 
ATOM     32  C   UNL     1     125.832 136.588 110.713  1.00  0.00     0.177 C 
BRANCH  28  33
ATOM     33  O   UNL     1     126.657 134.451 113.748  1.00  0.00    -0.384 OA
ATOM     34  H   UNL     1     125.883 134.676 114.331  1.00  0.00     0.211 HD
ENDBRANCH  28  33
BRANCH  30  35
ATOM     35  O   UNL     1     124.483 136.243 112.709  1.00  0.00    -0.387 OA
ATOM     36  H   UNL     1     123.869 135.753 112.093  1.00  0.00     0.211 HD
ENDBRANCH  30  35
BRANCH  31  37
ATOM     37  C   UNL     1     126.060 135.623 108.366  1.00  0.00     0.191 C 
BRANCH  37  38
ATOM     38  O   UNL     1     126.038 136.873 107.721  1.00  0.00    -0.394 OA
ATOM     39  H   UNL     1     125.082 137.103 107.604  1.00  0.00     0.210 HD
ENDBRANCH  37  38
ENDBRANCH  31  37
BRANCH  32  40
ATOM     40  O   UNL     1     126.160 137.948 110.755  1.00  0.00    -0.387 OA
ATOM     41  H   UNL     1     125.356 138.507 110.874  1.00  0.00     0.211 HD
ENDBRANCH  32  40
ENDBRANCH   1  27
TORSDOF 12
ENDMDL
MODEL 2
REMARK VINA RESULT:   -10.080      2.265      7.371
REMARK INTER + INTRA:         -15.816
REMARK INTER:                 -14.195
REMARK INTRA:                  -1.621
REMARK UNBOUND:                -1.021
REMARK SMILES O=c1c(O[C@@H]2O[C@@H](CO)[C@H](O)[C@@H](O)[C@@H]2O)c(-c2ccc(O)c(O)c2)oc2cc(O)cc(O)c12
REMARK SMILES IDX 4 1 3 2 16 3 25 4 2 5 26 6 1 7 33 8 27 9 31 10 28 11 30 12
REMARK SMILES IDX 17 13 18 14 19 15 20 16 24 17 22 18 21 19 23 21 32 23 29 25
REMARK SMILES IDX 5 27 14 28 6 29 12 30 7 31 10 32 15 33 13 35 8 37 9 38 11 40
REMARK H PARENT 21 20 23 22 32 24 29 26 15 34 13 36 9 39 11 41
REMARK Flexibility Score: inf
ROOT
ATOM      1  O   UNL     1     127.521 134.835 110.683  1.00  0.00    -0.454 OA
ENDROOT
BRANCH   1   2
ATOM      2  C   UNL     1     126.519 134.809 111.686  1.00  0.00     0.214 A 
ATOM      3  C   UNL     1     126.938 134.840 113.034  1.00  0.00     0.180 A 
ATOM      4  O   UNL     1     126.046 134.883 114.023  1.00  0.00    -0.452 OA
ATOM      5  C   UNL     1     125.121 134.766 111.438  1.00  0.00     0.239 A 
ATOM      6  C   UNL     1     124.732 134.923 113.823  1.00  0.00     0.146 A 
ATOM      7  O   UNL     1     124.677 134.638 110.262  1.00  0.00    -0.285 OA
ATOM      8  C   UNL     1     124.212 134.879 112.515  1.00  0.00     0.111 A 
ATOM      9  C   UNL     1     123.878 135.040 114.928  1.00  0.00     0.094 A 
ATOM     10  C   UNL     1     122.812 134.987 112.330  1.00  0.00     0.134 A 
ATOM     11  C   UNL     1     122.504 135.153 114.741  1.00  0.00     0.123 A 
ATOM     12  C   UNL     1     121.974 135.138 113.449  1.00  0.00     0.093 A 
BRANCH   3  13
ATOM     13  C   UNL     1     128.365 134.771 113.419  1.00  0.00     0.025 A 
ATOM     14  C   UNL     1     128.861 133.584 113.994  1.00  0.00     0.016 A 
ATOM     15  C   UNL     1     130.196 133.493 114.410  1.00  0.00     0.051 A 
ATOM     16  C   UNL     1     131.025 134.612 114.344  1.00  0.00     0.157 A 
ATOM     17  C   UNL     1     129.221 135.889 113.331  1.00  0.00     0.062 A 
ATOM     18  C   UNL     1     130.538 135.814 113.798  1.00  0.00     0.158 A 
BRANCH  16  19
ATOM     19  O   UNL     1     132.329 134.535 114.849  1.00  0.00    -0.504 OA
ATOM     20  H   UNL     1     133.147 134.606 114.259  1.00  0.00     0.293 HD
ENDBRANCH  16  19
BRANCH  18  21
ATOM     21  O   UNL     1     131.351 136.943 113.733  1.00  0.00    -0.504 OA
ATOM     22  H   UNL     1     131.896 137.158 112.911  1.00  0.00     0.293 HD
ENDBRANCH  18  21
ENDBRANCH   3  13
BRANCH  10  23
ATOM     23  O   UNL     1     122.258 134.982 111.054  1.00  0.00    -0.507 OA
ATOM     24  H   UNL     1     122.460 135.710 110.375  1.00  0.00     0.293 HD
ENDBRANCH  10  23
BRANCH  11  25
ATOM     25  O   UNL     1     121.656 135.290 115.835  1.00  0.00    -0.508 OA
ATOM     26  H   UNL     1     121.510 134.539 116.503  1.00  0.00     0.293 HD
ENDBRANCH  11  25
ENDBRANCH   1   2
BRANCH   1  27
ATOM     27  C   UNL     1     127.857 133.833 109.699  1.00  0.00     0.339 C 
ATOM     28  C   UNL     1     128.020 134.450 108.319  1.00  0.00     0.214 C 
ATOM     29  O   UNL     1     129.045 133.160 110.031  1.00  0.00    -0.332 OA
ATOM     30  C   UNL     1     129.095 135.545 108.366  1.00  0.00     0.180 C 
ATOM     31  C   UNL     1     130.120 134.051 110.320  1.00  0.00     0.179 C 
ATOM     32  C   UNL     1     130.324 135.203 109.249  1.00  0.00     0.177 C 
BRANCH  28  33
ATOM     33  O   UNL     1     126.768 134.967 107.921  1.00  0.00    -0.384 OA
ATOM     34  H   UNL     1     126.797 135.955 108.032  1.00  0.00     0.211 HD
ENDBRANCH  28  33
BRANCH  30  35
ATOM     35  O   UNL     1     129.508 135.833 107.045  1.00  0.00    -0.387 OA
ATOM     36  H   UNL     1     128.705 136.153 106.546  1.00  0.00     0.211 HD
ENDBRANCH  30  35
BRANCH  31  37
ATOM     37  C   UNL     1     131.402 133.195 110.390  1.00  0.00     0.191 C 
BRANCH  37  38
ATOM     38  O   UNL     1     131.224 132.013 109.649  1.00  0.00    -0.394 OA
ATOM     39  H   UNL     1     131.289 131.270 110.300  1.00  0.00     0.210 HD
ENDBRANCH  37  38
ENDBRANCH  31  37
BRANCH  32  40
ATOM     40  O   UNL     1     130.736 136.413 109.818  1.00  0.00    -0.387 OA
ATOM     41  H   UNL     1     130.306 136.562 110.693  1.00  0.00     0.211 HD
ENDBRANCH  32  40
ENDBRANCH   1  27
TORSDOF 12
ENDMDL
MODEL 3
REMARK VINA RESULT:   -10.072      1.954      6.443
REMARK INTER + INTRA:         -15.803
REMARK INTER:                 -14.363
REMARK INTRA:                  -1.440
REMARK UNBOUND:                -1.021
REMARK SMILES O=c1c(O[C@@H]2O[C@@H](CO)[C@H](O)[C@@H](O)[C@@H]2O)c(-c2ccc(O)c(O)c2)oc2cc(O)cc(O)c12
REMARK SMILES IDX 4 1 3 2 16 3 25 4 2 5 26 6 1 7 33 8 27 9 31 10 28 11 30 12
REMARK SMILES IDX 17 13 18 14 19 15 20 16 24 17 22 18 21 19 23 21 32 23 29 25
REMARK SMILES IDX 5 27 14 28 6 29 12 30 7 31 10 32 15 33 13 35 8 37 9 38 11 40
REMARK H PARENT 21 20 23 22 32 24 29 26 15 34 13 36 9 39 11 41
REMARK Flexibility Score: inf
ROOT
ATOM      1  O   UNL     1     129.057 134.151 111.740  1.00  0.00    -0.454 OA
ENDROOT
BRANCH   1   2
ATOM      2  C   UNL     1     127.670 134.435 111.650  1.00  0.00     0.214 A 
ATOM      3  C   UNL     1     127.049 134.278 110.392  1.00  0.00     0.180 A 
ATOM      4  O   UNL     1     125.736 134.467 110.253  1.00  0.00    -0.452 OA
ATOM      5  C   UNL     1     126.854 134.855 112.734  1.00  0.00     0.239 A 
ATOM      6  C   UNL     1     124.932 134.784 111.263  1.00  0.00     0.146 A 
ATOM      7  O   UNL     1     127.360 135.109 113.863  1.00  0.00    -0.285 OA
ATOM      8  C   UNL     1     125.457 134.979 112.555  1.00  0.00     0.111 A 
ATOM      9  C   UNL     1     123.554 134.889 111.029  1.00  0.00     0.094 A 
ATOM     10  C   UNL     1     124.568 135.253 113.622  1.00  0.00     0.134 A 
ATOM     11  C   UNL     1     122.684 135.151 112.082  1.00  0.00     0.123 A 
ATOM     12  C   UNL     1     123.186 135.321 113.374  1.00  0.00     0.093 A 
BRANCH   3  13
ATOM     13  C   UNL     1     127.814 133.957 109.167  1.00  0.00     0.025 A 
ATOM     14  C   UNL     1     128.406 132.684 109.045  1.00  0.00     0.016 A 
ATOM     15  C   UNL     1     129.173 132.355 107.919  1.00  0.00     0.051 A 
ATOM     16  C   UNL     1     129.436 133.322 106.948  1.00  0.00     0.157 A 
ATOM     17  C   UNL     1     128.064 134.918 108.165  1.00  0.00     0.062 A 
ATOM     18  C   UNL     1     128.875 134.607 107.069  1.00  0.00     0.158 A 
BRANCH  16  19
ATOM     19  O   UNL     1     130.280 133.010 105.875  1.00  0.00    -0.504 OA
ATOM     20  H   UNL     1     130.807 133.711 105.374  1.00  0.00     0.293 HD
ENDBRANCH  16  19
BRANCH  18  21
ATOM     21  O   UNL     1     129.137 135.586 106.113  1.00  0.00    -0.504 OA
ATOM     22  H   UNL     1     129.874 135.478 105.431  1.00  0.00     0.293 HD
ENDBRANCH  18  21
ENDBRANCH   3  13
BRANCH  10  23
ATOM     23  O   UNL     1     125.041 135.420 114.920  1.00  0.00    -0.507 OA
ATOM     24  H   UNL     1     124.442 135.738 115.676  1.00  0.00     0.293 HD
ENDBRANCH  10  23
BRANCH  11  25
ATOM     25  O   UNL     1     121.314 135.236 111.855  1.00  0.00    -0.508 OA
ATOM     26  H   UNL     1     120.733 135.937 112.307  1.00  0.00     0.293 HD
ENDBRANCH  11  25
ENDBRANCH   1   2
BRANCH   1  27
ATOM     27  C   UNL     1     130.185 135.039 111.583  1.00  0.00     0.339 C 
ATOM     28  C   UNL     1     130.815 135.369 112.927  1.00  0.00     0.214 C 
ATOM     29  O   UNL     1     131.172 134.479 110.753  1.00  0.00    -0.332 OA
ATOM     30  C   UNL     1     131.240 134.075 113.633  1.00  0.00     0.180 C 
ATOM     31  C   UNL     1     131.541 133.160 111.148  1.00  0.00     0.179 C 
ATOM     32  C   UNL     1     131.853 133.002 112.695  1.00  0.00     0.177 C 
BRANCH  28  33
ATOM     33  O   UNL     1     129.869 136.091 113.687  1.00  0.00    -0.384 OA
ATOM     34  H   UNL     1     129.291 135.433 114.158  1.00  0.00     0.211 HD
ENDBRANCH  28  33
BRANCH  30  35
ATOM     35  O   UNL     1     132.148 134.397 114.667  1.00  0.00    -0.387 OA
ATOM     36  H   UNL     1     133.044 134.053 114.393  1.00  0.00     0.211 HD
ENDBRANCH  30  35
BRANCH  31  37
ATOM     37  C   UNL     1     132.802 132.789 110.340  1.00  0.00     0.191 C 
BRANCH  37  38
ATOM     38  O   UNL     1     132.566 131.612 109.607  1.00  0.00    -0.394 OA
ATOM     39  H   UNL     1     132.764 131.834 108.662  1.00  0.00     0.210 HD
ENDBRANCH  37  38
ENDBRANCH  31  37
BRANCH  32  40
ATOM     40  O   UNL     1     131.449 131.765 113.212  1.00  0.00    -0.387 OA
ATOM     41  H   UNL     1     132.206 131.135 113.265  1.00  0.00     0.211 HD
ENDBRANCH  32  40
ENDBRANCH   1  27
TORSDOF 12
ENDMDL
MODEL 4
REMARK VINA RESULT:    -9.686      3.380      7.027
REMARK INTER + INTRA:         -15.237
REMARK INTER:                 -14.391
REMARK INTRA:                  -0.845
REMARK UNBOUND:                -1.021
REMARK SMILES O=c1c(O[C@@H]2O[C@@H](CO)[C@H](O)[C@@H](O)[C@@H]2O)c(-c2ccc(O)c(O)c2)oc2cc(O)cc(O)c12
REMARK SMILES IDX 4 1 3 2 16 3 25 4 2 5 26 6 1 7 33 8 27 9 31 10 28 11 30 12
REMARK SMILES IDX 17 13 18 14 19 15 20 16 24 17 22 18 21 19 23 21 32 23 29 25
REMARK SMILES IDX 5 27 14 28 6 29 12 30 7 31 10 32 15 33 13 35 8 37 9 38 11 40
REMARK H PARENT 21 20 23 22 32 24 29 26 15 34 13 36 9 39 11 41
REMARK Flexibility Score: inf
ROOT
ATOM      1  O   UNL     1     133.209 134.318 113.220  1.00  0.00    -0.454 OA
ENDROOT
BRANCH   1   2
ATOM      2  C   UNL     1     134.480 134.469 113.830  1.00  0.00     0.214 A 
ATOM      3  C   UNL     1     134.527 134.560 115.238  1.00  0.00     0.180 A 
ATOM      4  O   UNL     1     135.695 134.639 115.876  1.00  0.00    -0.452 OA
ATOM      5  C   UNL     1     135.715 134.526 113.130  1.00  0.00     0.239 A 
ATOM      6  C   UNL     1     136.871 134.615 115.256  1.00  0.00     0.146 A 
ATOM      7  O   UNL     1     135.742 134.549 111.867  1.00  0.00    -0.285 OA
ATOM      8  C   UNL     1     136.931 134.544 113.851  1.00  0.00     0.111 A 
ATOM      9  C   UNL     1     138.045 134.629 116.022  1.00  0.00     0.094 A 
ATOM     10  C   UNL     1     138.197 134.456 113.223  1.00  0.00     0.134 A 
ATOM     11  C   UNL     1     139.286 134.536 115.401  1.00  0.00     0.123 A 
ATOM     12  C   UNL     1     139.363 134.438 114.010  1.00  0.00     0.093 A 
BRANCH   3  13
ATOM     13  C   UNL     1     133.303 134.628 116.066  1.00  0.00     0.025 A 
ATOM     14  C   UNL     1     133.263 133.922 117.285  1.00  0.00     0.016 A 
ATOM     15  C   UNL     1     132.108 133.927 118.079  1.00  0.00     0.051 A 
ATOM     16  C   UNL     1     130.951 134.558 117.622  1.00  0.00     0.157 A 
ATOM     17  C   UNL     1     132.136 135.286 115.627  1.00  0.00     0.062 A 
ATOM     18  C   UNL     1     130.966 135.245 116.393  1.00  0.00     0.158 A 
BRANCH  16  19
ATOM     19  O   UNL     1     129.776 134.478 118.380  1.00  0.00    -0.504 OA
ATOM     20  H   UNL     1     129.099 135.227 118.417  1.00  0.00     0.293 HD
ENDBRANCH  16  19
BRANCH  18  21
ATOM     21  O   UNL     1     129.816 135.872 115.919  1.00  0.00    -0.504 OA
ATOM     22  H   UNL     1     129.708 136.115 114.945  1.00  0.00     0.293 HD
ENDBRANCH  18  21
ENDBRANCH   3  13
BRANCH  10  23
ATOM     23  O   UNL     1     138.302 134.351 111.839  1.00  0.00    -0.507 OA
ATOM     24  H   UNL     1     137.838 133.613 111.318  1.00  0.00     0.293 HD
ENDBRANCH  10  23
BRANCH  11  25
ATOM     25  O   UNL     1     140.451 134.530 116.160  1.00  0.00    -0.508 OA
ATOM     26  H   UNL     1     141.332 134.177 115.797  1.00  0.00     0.293 HD
ENDBRANCH  11  25
ENDBRANCH   1   2
BRANCH   1  27
ATOM     27  C   UNL     1     132.808 134.589 111.859  1.00  0.00     0.339 C 
ATOM     28  C   UNL     1     132.612 133.300 111.078  1.00  0.00     0.214 C 
ATOM     29  O   UNL     1     131.612 135.327 111.809  1.00  0.00    -0.332 OA
ATOM     30  C   UNL     1     131.572 132.418 111.783  1.00  0.00     0.180 C 
ATOM     31  C   UNL     1     130.576 134.751 112.601  1.00  0.00     0.179 C 
ATOM     32  C   UNL     1     130.367 133.195 112.376  1.00  0.00     0.177 C 
BRANCH  28  33
ATOM     33  O   UNL     1     133.863 132.653 110.981  1.00  0.00    -0.384 OA
ATOM     34  H   UNL     1     133.828 131.835 111.546  1.00  0.00     0.211 HD
ENDBRANCH  28  33
BRANCH  30  35
ATOM     35  O   UNL     1     131.121 131.433 110.876  1.00  0.00    -0.387 OA
ATOM     36  H   UNL     1     131.703 131.484 110.067  1.00  0.00     0.211 HD
ENDBRANCH  30  35
BRANCH  31  37
ATOM     37  C   UNL     1     129.273 135.491 112.236  1.00  0.00     0.191 C 
BRANCH  37  38
ATOM     38  O   UNL     1     128.840 136.258 113.332  1.00  0.00    -0.394 OA
ATOM     39  H   UNL     1     127.914 135.962 113.525  1.00  0.00     0.210 HD
ENDBRANCH  37  38
ENDBRANCH  31  37
BRANCH  32  40
ATOM     40  O   UNL     1     130.012 132.515 113.547  1.00  0.00    -0.387 OA
ATOM     41  H   UNL     1     130.583 131.723 113.688  1.00  0.00     0.211 HD
ENDBRANCH  32  40
ENDBRANCH   1  27
TORSDOF 12
ENDMDL
MODEL 5
REMARK VINA RESULT:    -9.596      1.838      6.529
REMARK INTER + INTRA:         -15.106
REMARK INTER:                 -13.729
REMARK INTRA:                  -1.377
REMARK UNBOUND:                -1.021
REMARK SMILES O=c1c(O[C@@H]2O[C@@H](CO)[C@H](O)[C@@H](O)[C@@H]2O)c(-c2ccc(O)c(O)c2)oc2cc(O)cc(O)c12
REMARK SMILES IDX 4 1 3 2 16 3 25 4 2 5 26 6 1 7 33 8 27 9 31 10 28 11 30 12
REMARK SMILES IDX 17 13 18 14 19 15 20 16 24 17 22 18 21 19 23 21 32 23 29 25
REMARK SMILES IDX 5 27 14 28 6 29 12 30 7 31 10 32 15 33 13 35 8 37 9 38 11 40
REMARK H PARENT 21 20 23 22 32 24 29 26 15 34 13 36 9 39 11 41
REMARK Flexibility Score: inf
ROOT
ATOM      1  O   UNL     1     129.159 134.618 111.672  1.00  0.00    -0.454 OA
ENDROOT
BRANCH   1   2
ATOM      2  C   UNL     1     127.747 134.752 111.637  1.00  0.00     0.214 A 
ATOM      3  C   UNL     1     127.086 134.425 110.434  1.00  0.00     0.180 A 
ATOM      4  O   UNL     1     125.756 134.468 110.355  1.00  0.00    -0.452 OA
ATOM      5  C   UNL     1     126.945 135.181 112.728  1.00  0.00     0.239 A 
ATOM      6  C   UNL     1     124.972 134.790 111.379  1.00  0.00     0.146 A 
ATOM      7  O   UNL     1     127.475 135.583 113.801  1.00  0.00    -0.285 OA
ATOM      8  C   UNL     1     125.536 135.149 112.618  1.00  0.00     0.111 A 
ATOM      9  C   UNL     1     123.581 134.735 111.216  1.00  0.00     0.094 A 
ATOM     10  C   UNL     1     124.675 135.424 113.709  1.00  0.00     0.134 A 
ATOM     11  C   UNL     1     122.740 135.000 112.290  1.00  0.00     0.123 A 
ATOM     12  C   UNL     1     123.282 135.332 113.534  1.00  0.00     0.093 A 
BRANCH   3  13
ATOM     13  C   UNL     1     127.821 134.077 109.198  1.00  0.00     0.025 A 
ATOM     14  C   UNL     1     128.217 132.740 108.992  1.00  0.00     0.016 A 
ATOM     15  C   UNL     1     128.951 132.377 107.854  1.00  0.00     0.051 A 
ATOM     16  C   UNL     1     129.378 133.356 106.958  1.00  0.00     0.157 A 
ATOM     17  C   UNL     1     128.235 135.055 108.270  1.00  0.00     0.062 A 
ATOM     18  C   UNL     1     129.014 134.700 107.163  1.00  0.00     0.158 A 
BRANCH  16  19
ATOM     19  O   UNL     1     130.189 132.995 105.875  1.00  0.00    -0.504 OA
ATOM     20  H   UNL     1     130.198 133.509 105.005  1.00  0.00     0.293 HD
ENDBRANCH  16  19
BRANCH  18  21
ATOM     21  O   UNL     1     129.441 135.691 106.283  1.00  0.00    -0.504 OA
ATOM     22  H   UNL     1     128.830 136.070 105.573  1.00  0.00     0.293 HD
ENDBRANCH  18  21
ENDBRANCH   3  13
BRANCH  10  23
ATOM     23  O   UNL     1     125.189 135.751 114.960  1.00  0.00    -0.507 OA
ATOM     24  H   UNL     1     124.711 135.504 115.821  1.00  0.00     0.293 HD
ENDBRANCH  10  23
BRANCH  11  25
ATOM     25  O   UNL     1     121.359 134.927 112.136  1.00  0.00    -0.508 OA
ATOM     26  H   UNL     1     120.731 135.604 112.559  1.00  0.00     0.293 HD
ENDBRANCH  11  25
ENDBRANCH   1   2
BRANCH   1  27
ATOM     27  C   UNL     1     129.962 133.517 112.152  1.00  0.00     0.339 C 
ATOM     28  C   UNL     1     131.372 133.578 111.586  1.00  0.00     0.214 C 
ATOM     29  O   UNL     1     130.044 133.510 113.555  1.00  0.00    -0.332 OA
ATOM     30  C   UNL     1     132.019 134.921 111.952  1.00  0.00     0.180 C 
ATOM     31  C   UNL     1     130.436 134.772 114.090  1.00  0.00     0.179 C 
ATOM     32  C   UNL     1     131.702 135.419 113.387  1.00  0.00     0.177 C 
BRANCH  28  33
ATOM     33  O   UNL     1     131.289 133.404 110.188  1.00  0.00    -0.384 OA
ATOM     34  H   UNL     1     132.146 133.716 109.791  1.00  0.00     0.211 HD
ENDBRANCH  28  33
BRANCH  30  35
ATOM     35  O   UNL     1     133.417 134.817 111.768  1.00  0.00    -0.387 OA
ATOM     36  H   UNL     1     133.768 134.227 112.493  1.00  0.00     0.211 HD
ENDBRANCH  30  35
BRANCH  31  37
ATOM     37  C   UNL     1     130.751 134.545 115.583  1.00  0.00     0.191 C 
BRANCH  37  38
ATOM     38  O   UNL     1     131.421 135.667 116.103  1.00  0.00    -0.394 OA
ATOM     39  H   UNL     1     131.121 135.753 117.043  1.00  0.00     0.210 HD
ENDBRANCH  37  38
ENDBRANCH  31  37
BRANCH  32  40
ATOM     40  O   UNL     1     131.629 136.814 113.301  1.00  0.00    -0.387 OA
ATOM     41  H   UNL     1     131.658 137.229 114.195  1.00  0.00     0.211 HD
ENDBRANCH  32  40
ENDBRANCH   1  27
TORSDOF 12
ENDMDL
MODEL 6
REMARK VINA RESULT:    -9.516      1.857      6.366
REMARK INTER + INTRA:         -14.988
REMARK INTER:                 -14.094
REMARK INTRA:                  -0.894
REMARK UNBOUND:                -1.021
REMARK SMILES O=c1c(O[C@@H]2O[C@@H](CO)[C@H](O)[C@@H](O)[C@@H]2O)c(-c2ccc(O)c(O)c2)oc2cc(O)cc(O)c12
REMARK SMILES IDX 4 1 3 2 16 3 25 4 2 5 26 6 1 7 33 8 27 9 31 10 28 11 30 12
REMARK SMILES IDX 17 13 18 14 19 15 20 16 24 17 22 18 21 19 23 21 32 23 29 25
REMARK SMILES IDX 5 27 14 28 6 29 12 30 7 31 10 32 15 33 13 35 8 37 9 38 11 40
REMARK H PARENT 21 20 23 22 32 24 29 26 15 34 13 36 9 39 11 41
REMARK Flexibility Score: inf
ROOT
ATOM      1  O   UNL     1     129.552 134.058 111.974  1.00  0.00    -0.454 OA
ENDROOT
BRANCH   1   2
ATOM      2  C   UNL     1     128.178 134.307 112.220  1.00  0.00     0.214 A 
ATOM      3  C   UNL     1     127.309 134.349 111.107  1.00  0.00     0.180 A 
ATOM      4  O   UNL     1     125.997 134.515 111.275  1.00  0.00    -0.452 OA
ATOM      5  C   UNL     1     127.605 134.507 113.504  1.00  0.00     0.239 A 
ATOM      6  C   UNL     1     125.420 134.627 112.467  1.00  0.00     0.146 A 
ATOM      7  O   UNL     1     128.334 134.580 114.532  1.00  0.00    -0.285 OA
ATOM      8  C   UNL     1     126.202 134.614 113.638  1.00  0.00     0.111 A 
ATOM      9  C   UNL     1     124.024 134.725 112.542  1.00  0.00     0.094 A 
ATOM     10  C   UNL     1     125.553 134.671 114.896  1.00  0.00     0.134 A 
ATOM     11  C   UNL     1     123.391 134.773 113.779  1.00  0.00     0.123 A 
ATOM     12  C   UNL     1     124.149 134.735 114.951  1.00  0.00     0.093 A 
BRANCH   3  13
ATOM     13  C   UNL     1     127.804 134.269 109.715  1.00  0.00     0.025 A 
ATOM     14  C   UNL     1     128.274 133.034 109.227  1.00  0.00     0.016 A 
ATOM     15  C   UNL     1     128.789 132.926 107.928  1.00  0.00     0.051 A 
ATOM     16  C   UNL     1     128.927 134.065 107.135  1.00  0.00     0.157 A 
ATOM     17  C   UNL     1     127.922 135.410 108.895  1.00  0.00     0.062 A 
ATOM     18  C   UNL     1     128.487 135.312 107.619  1.00  0.00     0.158 A 
BRANCH  16  19
ATOM     19  O   UNL     1     129.528 133.960 105.875  1.00  0.00    -0.504 OA
ATOM     20  H   UNL     1     130.344 133.389 105.706  1.00  0.00     0.293 HD
ENDBRANCH  16  19
BRANCH  18  21
ATOM     21  O   UNL     1     128.627 136.460 106.843  1.00  0.00    -0.504 OA
ATOM     22  H   UNL     1     129.531 136.777 106.522  1.00  0.00     0.293 HD
ENDBRANCH  18  21
ENDBRANCH   3  13
BRANCH  10  23
ATOM     23  O   UNL     1     126.285 134.627 116.079  1.00  0.00    -0.507 OA
ATOM     24  H   UNL     1     127.283 134.812 116.103  1.00  0.00     0.293 HD
ENDBRANCH  10  23
BRANCH  11  25
ATOM     25  O   UNL     1     122.004 134.851 113.855  1.00  0.00    -0.508 OA
ATOM     26  H   UNL     1     121.525 135.174 114.691  1.00  0.00     0.293 HD
ENDBRANCH  11  25
ENDBRANCH   1   2
BRANCH   1  27
ATOM     27  C   UNL     1     130.475 133.220 112.704  1.00  0.00     0.339 C 
ATOM     28  C   UNL     1     131.384 132.451 111.758  1.00  0.00     0.214 C 
ATOM     29  O   UNL     1     131.276 133.974 113.579  1.00  0.00    -0.332 OA
ATOM     30  C   UNL     1     132.143 133.433 110.855  1.00  0.00     0.180 C 
ATOM     31  C   UNL     1     131.904 135.080 112.936  1.00  0.00     0.179 C 
ATOM     32  C   UNL     1     132.625 134.723 111.569  1.00  0.00     0.177 C 
BRANCH  28  33
ATOM     33  O   UNL     1     130.582 131.564 111.007  1.00  0.00    -0.384 OA
ATOM     34  H   UNL     1     130.872 131.623 110.057  1.00  0.00     0.211 HD
ENDBRANCH  28  33
BRANCH  30  35
ATOM     35  O   UNL     1     133.238 132.758 110.269  1.00  0.00    -0.387 OA
ATOM     36  H   UNL     1     133.067 132.711 109.287  1.00  0.00     0.211 HD
ENDBRANCH  30  35
BRANCH  31  37
ATOM     37  C   UNL     1     132.949 135.637 113.925  1.00  0.00     0.191 C 
BRANCH  37  38
ATOM     38  O   UNL     1     132.318 136.487 114.852  1.00  0.00    -0.394 OA
ATOM     39  H   UNL     1     132.801 137.351 114.803  1.00  0.00     0.210 HD
ENDBRANCH  37  38
ENDBRANCH  31  37
BRANCH  32  40
ATOM     40  O   UNL     1     132.534 135.745 110.617  1.00  0.00    -0.387 OA
ATOM     41  H   UNL     1     132.138 136.560 111.005  1.00  0.00     0.211 HD
ENDBRANCH  32  40
ENDBRANCH   1  27
TORSDOF 12
ENDMDL
MODEL 7
REMARK VINA RESULT:    -9.484      1.747      2.931
REMARK INTER + INTRA:         -14.940
REMARK INTER:                 -13.490
REMARK INTRA:                  -1.451
REMARK UNBOUND:                -1.021
REMARK SMILES O=c1c(O[C@@H]2O[C@@H](CO)[C@H](O)[C@@H](O)[C@@H]2O)c(-c2ccc(O)c(O)c2)oc2cc(O)cc(O)c12
REMARK SMILES IDX 4 1 3 2 16 3 25 4 2 5 26 6 1 7 33 8 27 9 31 10 28 11 30 12
REMARK SMILES IDX 17 13 18 14 19 15 20 16 24 17 22 18 21 19 23 21 32 23 29 25
REMARK SMILES IDX 5 27 14 28 6 29 12 30 7 31 10 32 15 33 13 35 8 37 9 38 11 40
REMARK H PARENT 21 20 23 22 32 24 29 26 15 34 13 36 9 39 11 41
REMARK Flexibility Score: inf
ROOT
ATOM      1  O   UNL     1     127.495 134.425 112.045  1.00  0.00    -0.454 OA
ENDROOT
BRANCH   1   2
ATOM      2  C   UNL     1     128.816 134.264 112.535  1.00  0.00     0.214 A 
ATOM      3  C   UNL     1     129.847 134.072 111.589  1.00  0.00     0.180 A 
ATOM      4  O   UNL     1     131.119 133.978 111.980  1.00  0.00    -0.452 OA
ATOM      5  C   UNL     1     129.184 134.294 113.906  1.00  0.00     0.239 A 
ATOM      6  C   UNL     1     131.504 134.080 113.248  1.00  0.00     0.146 A 
ATOM      7  O   UNL     1     128.305 134.365 114.810  1.00  0.00    -0.285 OA
ATOM      8  C   UNL     1     130.550 134.255 114.268  1.00  0.00     0.111 A 
ATOM      9  C   UNL     1     132.873 134.041 113.548  1.00  0.00     0.094 A 
ATOM     10  C   UNL     1     130.996 134.425 115.601  1.00  0.00     0.134 A 
ATOM     11  C   UNL     1     133.307 134.214 114.858  1.00  0.00     0.123 A 
ATOM     12  C   UNL     1     132.375 134.416 115.879  1.00  0.00     0.093 A 
BRANCH   3  13
ATOM     13  C   UNL     1     129.574 133.909 110.145  1.00  0.00     0.025 A 
ATOM     14  C   UNL     1     129.405 132.611 109.623  1.00  0.00     0.016 A 
ATOM     15  C   UNL     1     129.185 132.412 108.253  1.00  0.00     0.051 A 
ATOM     16  C   UNL     1     129.226 133.495 107.376  1.00  0.00     0.157 A 
ATOM     17  C   UNL     1     129.585 135.000 109.252  1.00  0.00     0.062 A 
ATOM     18  C   UNL     1     129.422 134.795 107.877  1.00  0.00     0.158 A 
BRANCH  16  19
ATOM     19  O   UNL     1     129.099 133.273 105.999  1.00  0.00    -0.504 OA
ATOM     20  H   UNL     1     129.851 132.902 105.435  1.00  0.00     0.293 HD
ENDBRANCH  16  19
BRANCH  18  21
ATOM     21  O   UNL     1     129.475 135.886 107.013  1.00  0.00    -0.504 OA
ATOM     22  H   UNL     1     130.176 135.957 106.289  1.00  0.00     0.293 HD
ENDBRANCH  18  21
ENDBRANCH   3  13
BRANCH  10  23
ATOM     23  O   UNL     1     130.090 134.635 116.636  1.00  0.00    -0.507 OA
ATOM     24  H   UNL     1     129.140 134.952 116.465  1.00  0.00     0.293 HD
ENDBRANCH  10  23
BRANCH  11  25
ATOM     25  O   UNL     1     134.665 134.195 115.156  1.00  0.00    -0.508 OA
ATOM     26  H   UNL     1     135.377 134.342 114.447  1.00  0.00     0.293 HD
ENDBRANCH  11  25
ENDBRANCH   1   2
BRANCH   1  27
ATOM     27  C   UNL     1     126.706 135.629 111.918  1.00  0.00     0.339 C 
ATOM     28  C   UNL     1     125.672 135.494 110.812  1.00  0.00     0.214 C 
ATOM     29  O   UNL     1     126.040 135.939 113.117  1.00  0.00    -0.332 OA
ATOM     30  C   UNL     1     124.771 134.283 111.090  1.00  0.00     0.180 C 
ATOM     31  C   UNL     1     125.307 134.835 113.642  1.00  0.00     0.179 C 
ATOM     32  C   UNL     1     124.388 134.094 112.582  1.00  0.00     0.177 C 
BRANCH  28  33
ATOM     33  O   UNL     1     126.359 135.362 109.586  1.00  0.00    -0.384 OA
ATOM     34  H   UNL     1     126.960 136.148 109.487  1.00  0.00     0.211 HD
ENDBRANCH  28  33
BRANCH  30  35
ATOM     35  O   UNL     1     123.606 134.391 110.296  1.00  0.00    -0.387 OA
ATOM     36  H   UNL     1     123.050 135.123 110.683  1.00  0.00     0.211 HD
ENDBRANCH  30  35
BRANCH  31  37
ATOM     37  C   UNL     1     124.421 135.387 114.777  1.00  0.00     0.191 C 
BRANCH  37  38
ATOM     38  O   UNL     1     123.548 134.382 115.230  1.00  0.00    -0.394 OA
ATOM     39  H   UNL     1     123.879 134.115 116.124  1.00  0.00     0.210 HD
ENDBRANCH  37  38
ENDBRANCH  31  37
BRANCH  32  40
ATOM     40  O   UNL     1     124.318 132.712 112.788  1.00  0.00    -0.387 OA
ATOM     41  H   UNL     1     124.797 132.448 113.609  1.00  0.00     0.211 HD
ENDBRANCH  32  40
ENDBRANCH   1  27
TORSDOF 12
ENDMDL
MODEL 8
REMARK VINA RESULT:    -9.072      1.650      4.791
REMARK INTER + INTRA:         -14.336
REMARK INTER:                 -13.642
REMARK INTRA:                  -0.694
REMARK UNBOUND:                -1.021
REMARK SMILES O=c1c(O[C@@H]2O[C@@H](CO)[C@H](O)[C@@H](O)[C@@H]2O)c(-c2ccc(O)c(O)c2)oc2cc(O)cc(O)c12
REMARK SMILES IDX 4 1 3 2 16 3 25 4 2 5 26 6 1 7 33 8 27 9 31 10 28 11 30 12
REMARK SMILES IDX 17 13 18 14 19 15 20 16 24 17 22 18 21 19 23 21 32 23 29 25
REMARK SMILES IDX 5 27 14 28 6 29 12 30 7 31 10 32 15 33 13 35 8 37 9 38 11 40
REMARK H PARENT 21 20 23 22 32 24 29 26 15 34 13 36 9 39 11 41
REMARK Flexibility Score: inf
ROOT
ATOM      1  O   UNL     1     129.058 135.024 110.690  1.00  0.00    -0.454 OA
ENDROOT
BRANCH   1   2
ATOM      2  C   UNL     1     129.609 135.007 111.996  1.00  0.00     0.214 A 
ATOM      3  C   UNL     1     128.712 134.956 113.086  1.00  0.00     0.180 A 
ATOM      4  O   UNL     1     129.166 134.873 114.336  1.00  0.00    -0.452 OA
ATOM      5  C   UNL     1     130.998 135.027 112.293  1.00  0.00     0.239 A 
ATOM      6  C   UNL     1     130.458 134.811 114.643  1.00  0.00     0.146 A 
ATOM      7  O   UNL     1     131.852 135.171 111.374  1.00  0.00    -0.285 OA
ATOM      8  C   UNL     1     131.432 134.872 113.629  1.00  0.00     0.111 A 
ATOM      9  C   UNL     1     130.832 134.652 115.985  1.00  0.00     0.094 A 
ATOM     10  C   UNL     1     132.798 134.739 113.981  1.00  0.00     0.134 A 
ATOM     11  C   UNL     1     132.173 134.514 116.325  1.00  0.00     0.123 A 
ATOM     12  C   UNL     1     133.152 134.546 115.329  1.00  0.00     0.093 A 
BRANCH   3  13
ATOM     13  C   UNL     1     127.246 135.046 112.908  1.00  0.00     0.025 A 
ATOM     14  C   UNL     1     126.721 136.045 112.065  1.00  0.00     0.016 A 
ATOM     15  C   UNL     1     125.336 136.190 111.902  1.00  0.00     0.051 A 
ATOM     16  C   UNL     1     124.460 135.403 112.649  1.00  0.00     0.157 A 
ATOM     17  C   UNL     1     126.351 134.237 113.637  1.00  0.00     0.062 A 
ATOM     18  C   UNL     1     124.969 134.419 113.517  1.00  0.00     0.158 A 
BRANCH  16  19
ATOM     19  O   UNL     1     123.080 135.620 112.548  1.00  0.00    -0.504 OA
ATOM     20  H   UNL     1     122.436 135.388 113.291  1.00  0.00     0.293 HD
ENDBRANCH  16  19
BRANCH  18  21
ATOM     21  O   UNL     1     124.107 133.632 114.277  1.00  0.00    -0.504 OA
ATOM     22  H   UNL     1     123.857 133.880 115.223  1.00  0.00     0.293 HD
ENDBRANCH  18  21
ENDBRANCH   3  13
BRANCH  10  23
ATOM     23  O   UNL     1     133.791 134.760 113.007  1.00  0.00    -0.507 OA
ATOM     24  H   UNL     1     134.000 135.595 112.468  1.00  0.00     0.293 HD
ENDBRANCH  10  23
BRANCH  11  25
ATOM     25  O   UNL     1     132.546 134.337 117.654  1.00  0.00    -0.508 OA
ATOM     26  H   UNL     1     131.914 134.534 118.424  1.00  0.00     0.293 HD
ENDBRANCH  11  25
ENDBRANCH   1   2
BRANCH   1  27
ATOM     27  C   UNL     1     129.732 135.037 109.412  1.00  0.00     0.339 C 
ATOM     28  C   UNL     1     129.616 133.691 108.715  1.00  0.00     0.214 C 
ATOM     29  O   UNL     1     129.208 136.027 108.561  1.00  0.00    -0.332 OA
ATOM     30  C   UNL     1     128.136 133.322 108.542  1.00  0.00     0.180 C 
ATOM     31  C   UNL     1     127.788 135.963 108.451  1.00  0.00     0.179 C 
ATOM     32  C   UNL     1     127.217 134.512 108.159  1.00  0.00     0.177 C 
BRANCH  28  33
ATOM     33  O   UNL     1     130.304 132.736 109.495  1.00  0.00    -0.384 OA
ATOM     34  H   UNL     1     130.475 131.941 108.921  1.00  0.00     0.211 HD
ENDBRANCH  28  33
BRANCH  30  35
ATOM     35  O   UNL     1     128.034 132.294 107.578  1.00  0.00    -0.387 OA
ATOM     36  H   UNL     1     128.058 131.425 108.067  1.00  0.00     0.211 HD
ENDBRANCH  30  35
BRANCH  31  37
ATOM     37  C   UNL     1     127.388 136.903 107.296  1.00  0.00     0.191 C 
BRANCH  37  38
ATOM     38  O   UNL     1     126.016 137.201 107.380  1.00  0.00    -0.394 OA
ATOM     39  H   UNL     1     125.764 137.065 108.328  1.00  0.00     0.210 HD
ENDBRANCH  37  38
ENDBRANCH  31  37
BRANCH  32  40
ATOM     40  O   UNL     1     125.992 134.268 108.790  1.00  0.00    -0.387 OA
ATOM     41  H   UNL     1     126.079 134.313 109.771  1.00  0.00     0.211 HD
ENDBRANCH  32  40
ENDBRANCH   1  27
TORSDOF 12
ENDMDL
MODEL 9
REMARK VINA RESULT:    -9.027      2.464      8.240
REMARK INTER + INTRA:         -14.270
REMARK INTER:                 -12.788
REMARK INTRA:                  -1.482
REMARK UNBOUND:                -1.021
REMARK SMILES O=c1c(O[C@@H]2O[C@@H](CO)[C@H](O)[C@@H](O)[C@@H]2O)c(-c2ccc(O)c(O)c2)oc2cc(O)cc(O)c12
REMARK SMILES IDX 4 1 3 2 16 3 25 4 2 5 26 6 1 7 33 8 27 9 31 10 28 11 30 12
REMARK SMILES IDX 17 13 18 14 19 15 20 16 24 17 22 18 21 19 23 21 32 23 29 25
REMARK SMILES IDX 5 27 14 28 6 29 12 30 7 31 10 32 15 33 13 35 8 37 9 38 11 40
REMARK H PARENT 21 20 23 22 32 24 29 26 15 34 13 36 9 39 11 41
REMARK Flexibility Score: inf
ROOT
ATOM      1  O   UNL     1     130.632 134.065 113.017  1.00  0.00    -0.454 OA
ENDROOT
BRANCH   1   2
ATOM      2  C   UNL     1     129.230 134.268 112.953  1.00  0.00     0.214 A 
ATOM      3  C   UNL     1     128.542 134.485 114.167  1.00  0.00     0.180 A 
ATOM      4  O   UNL     1     127.235 134.745 114.171  1.00  0.00    -0.452 OA
ATOM      5  C   UNL     1     128.464 134.280 111.757  1.00  0.00     0.239 A 
ATOM      6  C   UNL     1     126.504 134.841 113.064  1.00  0.00     0.146 A 
ATOM      7  O   UNL     1     128.995 133.997 110.647  1.00  0.00    -0.285 OA
ATOM      8  C   UNL     1     127.093 134.624 111.804  1.00  0.00     0.111 A 
ATOM      9  C   UNL     1     125.151 135.190 113.169  1.00  0.00     0.094 A 
ATOM     10  C   UNL     1     126.305 134.796 110.640  1.00  0.00     0.134 A 
ATOM     11  C   UNL     1     124.382 135.364 112.024  1.00  0.00     0.123 A 
ATOM     12  C   UNL     1     124.958 135.179 110.764  1.00  0.00     0.093 A 
BRANCH   3  13
ATOM     13  C   UNL     1     129.210 134.382 115.483  1.00  0.00     0.025 A 
ATOM     14  C   UNL     1     128.712 133.466 116.432  1.00  0.00     0.016 A 
ATOM     15  C   UNL     1     129.292 133.368 117.705  1.00  0.00     0.051 A 
ATOM     16  C   UNL     1     130.310 134.244 118.077  1.00  0.00     0.157 A 
ATOM     17  C   UNL     1     130.260 135.244 115.861  1.00  0.00     0.062 A 
ATOM     18  C   UNL     1     130.800 135.183 117.150  1.00  0.00     0.158 A 
BRANCH  16  19
ATOM     19  O   UNL     1     130.817 134.199 119.382  1.00  0.00    -0.504 OA
ATOM     20  H   UNL     1     131.793 134.029 119.582  1.00  0.00     0.293 HD
ENDBRANCH  16  19
BRANCH  18  21
ATOM     21  O   UNL     1     131.811 136.072 117.510  1.00  0.00    -0.504 OA
ATOM     22  H   UNL     1     131.728 136.670 118.319  1.00  0.00     0.293 HD
ENDBRANCH  18  21
ENDBRANCH   3  13
BRANCH  10  23
ATOM     23  O   UNL     1     126.855 134.624 109.374  1.00  0.00    -0.507 OA
ATOM     24  H   UNL     1     126.889 135.378 108.693  1.00  0.00     0.293 HD
ENDBRANCH  10  23
BRANCH  11  25
ATOM     25  O   UNL     1     123.044 135.731 112.125  1.00  0.00    -0.508 OA
ATOM     26  H   UNL     1     122.647 136.097 112.985  1.00  0.00     0.293 HD
ENDBRANCH  11  25
ENDBRANCH   1   2
BRANCH   1  27
ATOM     27  C   UNL     1     131.371 132.856 113.299  1.00  0.00     0.339 C 
ATOM     28  C   UNL     1     131.884 132.216 112.019  1.00  0.00     0.214 C 
ATOM     29  O   UNL     1     132.466 133.104 114.144  1.00  0.00    -0.332 OA
ATOM     30  C   UNL     1     132.758 133.218 111.252  1.00  0.00     0.180 C 
ATOM     31  C   UNL     1     133.287 134.174 113.682  1.00  0.00     0.179 C 
ATOM     32  C   UNL     1     133.681 134.084 112.148  1.00  0.00     0.177 C 
BRANCH  28  33
ATOM     33  O   UNL     1     130.768 131.808 111.257  1.00  0.00    -0.384 OA
ATOM     34  H   UNL     1     130.895 130.850 111.019  1.00  0.00     0.211 HD
ENDBRANCH  28  33
BRANCH  30  35
ATOM     35  O   UNL     1     133.525 132.513 110.296  1.00  0.00    -0.387 OA
ATOM     36  H   UNL     1     132.893 132.164 109.607  1.00  0.00     0.211 HD
ENDBRANCH  30  35
BRANCH  31  37
ATOM     37  C   UNL     1     134.573 134.149 114.534  1.00  0.00     0.191 C 
BRANCH  37  38
ATOM     38  O   UNL     1     135.682 134.463 113.728  1.00  0.00    -0.394 OA
ATOM     39  H   UNL     1     135.395 135.213 113.148  1.00  0.00     0.210 HD
ENDBRANCH  37  38
ENDBRANCH  31  37
BRANCH  32  40
ATOM     40  O   UNL     1     133.753 135.336 111.527  1.00  0.00    -0.387 OA
ATOM     41  H   UNL     1     134.158 135.268 110.630  1.00  0.00     0.211 HD
ENDBRANCH  32  40
ENDBRANCH   1  27
TORSDOF 12
ENDMDL
