MODEL 1
REMARK VINA RESULT:    -3.057      0.000      0.000
REMARK INTER + INTRA:          -3.518
REMARK INTER:                  -3.414
REMARK INTRA:                  -0.104
REMARK UNBOUND:                -0.104
REMARK SMILES COc1cc2ccc(=O)oc2cc1OC
REMARK SMILES IDX 3 1 13 2 12 3 11 4 5 5 4 6 6 7 7 8 8 9 9 10 10 11 2 12 1 13
REMARK SMILES IDX 14 14 15 15
REMARK H PARENT
REMARK Flexibility Score: inf
ROOT
ATOM      1  C   UNL     1    -128.299  39.528  17.165  1.00  0.00     0.161 A 
ATOM      2  C   UNL     1    -128.861  38.634  18.093  1.00  0.00     0.164 A 
ATOM      3  C   UNL     1    -130.165  38.858  18.577  1.00  0.00     0.098 A 
ATOM      4  C   UNL     1    -130.902  39.961  18.141  1.00  0.00     0.142 A 
ATOM      5  C   UNL     1    -130.339  40.857  17.210  1.00  0.00     0.022 A 
ATOM      6  C   UNL     1    -129.044  40.640  16.725  1.00  0.00     0.062 A 
ATOM      7  C   UNL     1    -131.104  41.953  16.793  1.00  0.00     0.019 A 
ATOM      8  C   UNL     1    -132.389  42.125  17.304  1.00  0.00     0.094 A 
ATOM      9  C   UNL     1    -132.882  41.195  18.225  1.00  0.00     0.336 A 
ATOM     10  O   UNL     1    -134.040  41.333  18.699  1.00  0.00    -0.246 OA
ATOM     11  O   UNL     1    -132.134  40.162  18.604  1.00  0.00    -0.423 OA
ENDROOT
BRANCH   1  12
ATOM     12  O   UNL     1    -126.997  39.276  16.703  1.00  0.00    -0.493 OA
ATOM     13  C   UNL     1    -126.379  39.956  15.616  1.00  0.00     0.278 C 
ENDBRANCH   1  12
BRANCH   2  14
ATOM     14  O   UNL     1    -128.091  37.537  18.509  1.00  0.00    -0.493 OA
ATOM     15  C   UNL     1    -128.191  36.919  19.788  1.00  0.00     0.278 C 
ENDBRANCH   2  14
TORSDOF 2
ENDMDL
MODEL 2
REMARK VINA RESULT:    -2.804      1.887      3.596
REMARK INTER + INTRA:          -3.235
REMARK INTER:                  -3.091
REMARK INTRA:                  -0.144
REMARK UNBOUND:                -0.104
REMARK SMILES COc1cc2ccc(=O)oc2cc1OC
REMARK SMILES IDX 3 1 13 2 12 3 11 4 5 5 4 6 6 7 7 8 8 9 9 10 10 11 2 12 1 13
REMARK SMILES IDX 14 14 15 15
REMARK H PARENT
REMARK Flexibility Score: inf
ROOT
ATOM      1  C   UNL     1    -126.858  37.577  17.701  1.00  0.00     0.161 A 
ATOM      2  C   UNL     1    -126.364  38.496  16.760  1.00  0.00     0.164 A 
ATOM      3  C   UNL     1    -127.144  39.612  16.397  1.00  0.00     0.098 A 
ATOM      4  C   UNL     1    -128.404  39.809  16.966  1.00  0.00     0.142 A 
ATOM      5  C   UNL     1    -128.900  38.889  17.911  1.00  0.00     0.022 A 
ATOM      6  C   UNL     1    -128.129  37.778  18.276  1.00  0.00     0.062 A 
ATOM      7  C   UNL     1    -130.166  39.115  18.463  1.00  0.00     0.019 A 
ATOM      8  C   UNL     1    -130.894  40.236  18.068  1.00  0.00     0.094 A 
ATOM      9  C   UNL     1    -130.338  41.107  17.125  1.00  0.00     0.336 A 
ATOM     10  O   UNL     1    -130.980  42.125  16.754  1.00  0.00    -0.246 OA
ATOM     11  O   UNL     1    -129.132  40.868  16.616  1.00  0.00    -0.423 OA
ENDROOT
BRANCH   1  12
ATOM     12  O   UNL     1    -126.055  36.476  18.041  1.00  0.00    -0.493 OA
ATOM     13  C   UNL     1    -125.623  36.168  19.362  1.00  0.00     0.278 C 
ENDBRANCH   1  12
BRANCH   2  14
ATOM     14  O   UNL     1    -125.095  38.265  16.208  1.00  0.00    -0.493 OA
ATOM     15  C   UNL     1    -123.904  38.933  16.614  1.00  0.00     0.278 C 
ENDBRANCH   2  14
TORSDOF 2
ENDMDL
MODEL 3
REMARK VINA RESULT:    -2.800      2.799      6.979
REMARK INTER + INTRA:          -3.232
REMARK INTER:                  -3.067
REMARK INTRA:                  -0.165
REMARK UNBOUND:                -0.104
REMARK SMILES COc1cc2ccc(=O)oc2cc1OC
REMARK SMILES IDX 3 1 13 2 12 3 11 4 5 5 4 6 6 7 7 8 8 9 9 10 10 11 2 12 1 13
REMARK SMILES IDX 14 14 15 15
REMARK H PARENT
REMARK Flexibility Score: inf
ROOT
ATOM      1  C   UNL     1    -127.133  38.295  17.091  1.00  0.00     0.161 A 
ATOM      2  C   UNL     1    -127.347  39.418  16.273  1.00  0.00     0.164 A 
ATOM      3  C   UNL     1    -126.244  40.132  15.764  1.00  0.00     0.098 A 
ATOM      4  C   UNL     1    -124.941  39.732  16.067  1.00  0.00     0.142 A 
ATOM      5  C   UNL     1    -124.725  38.606  16.886  1.00  0.00     0.022 A 
ATOM      6  C   UNL     1    -125.817  37.891  17.395  1.00  0.00     0.062 A 
ATOM      7  C   UNL     1    -123.408  38.230  17.171  1.00  0.00     0.019 A 
ATOM      8  C   UNL     1    -122.354  38.973  16.640  1.00  0.00     0.094 A 
ATOM      9  C   UNL     1    -122.644  40.080  15.835  1.00  0.00     0.336 A 
ATOM     10  O   UNL     1    -121.707  40.764  15.346  1.00  0.00    -0.246 OA
ATOM     11  O   UNL     1    -123.906  40.414  15.580  1.00  0.00    -0.423 OA
ENDROOT
BRANCH   1  12
ATOM     12  O   UNL     1    -128.254  37.606  17.581  1.00  0.00    -0.493 OA
ATOM     13  C   UNL     1    -128.781  37.752  18.895  1.00  0.00     0.278 C 
ENDBRANCH   1  12
BRANCH   2  14
ATOM     14  O   UNL     1    -128.670  39.792  15.990  1.00  0.00    -0.493 OA
ATOM     15  C   UNL     1    -129.370  40.843  16.649  1.00  0.00     0.278 C 
ENDBRANCH   2  14
TORSDOF 2
ENDMDL
MODEL 4
REMARK VINA RESULT:    -2.792     13.684     17.081
REMARK INTER + INTRA:          -3.222
REMARK INTER:                  -3.071
REMARK INTRA:                  -0.152
REMARK UNBOUND:                -0.104
REMARK SMILES COc1cc2ccc(=O)oc2cc1OC
REMARK SMILES IDX 3 1 13 2 12 3 11 4 5 5 4 6 6 7 7 8 8 9 9 10 10 11 2 12 1 13
REMARK SMILES IDX 14 14 15 15
REMARK H PARENT
REMARK Flexibility Score: inf
ROOT
ATOM      1  C   UNL     1    -123.788  39.682   4.403  1.00  0.00     0.161 A 
ATOM      2  C   UNL     1    -123.743  38.504   3.640  1.00  0.00     0.164 A 
ATOM      3  C   UNL     1    -122.647  38.265   2.787  1.00  0.00     0.098 A 
ATOM      4  C   UNL     1    -121.606  39.192   2.696  1.00  0.00     0.142 A 
ATOM      5  C   UNL     1    -121.650  40.374   3.462  1.00  0.00     0.022 A 
ATOM      6  C   UNL     1    -122.737  40.616   4.312  1.00  0.00     0.062 A 
ATOM      7  C   UNL     1    -120.592  41.282   3.349  1.00  0.00     0.019 A 
ATOM      8  C   UNL     1    -119.532  40.995   2.490  1.00  0.00     0.094 A 
ATOM      9  C   UNL     1    -119.556  39.801   1.760  1.00  0.00     0.336 A 
ATOM     10  O   UNL     1    -118.609  39.524   0.978  1.00  0.00    -0.246 OA
ATOM     11  O   UNL     1    -120.575  38.955   1.887  1.00  0.00    -0.423 OA
ENDROOT
BRANCH   1  12
ATOM     12  O   UNL     1    -124.894  39.889   5.243  1.00  0.00    -0.493 OA
ATOM     13  C   UNL     1    -125.839  40.942   5.092  1.00  0.00     0.278 C 
ENDBRANCH   1  12
BRANCH   2  14
ATOM     14  O   UNL     1    -124.807  37.595   3.756  1.00  0.00    -0.493 OA
ATOM     15  C   UNL     1    -125.899  37.511   2.846  1.00  0.00     0.278 C 
ENDBRANCH   2  14
TORSDOF 2
ENDMDL
MODEL 5
REMARK VINA RESULT:    -2.791     12.640     13.807
REMARK INTER + INTRA:          -3.221
REMARK INTER:                  -3.110
REMARK INTRA:                  -0.111
REMARK UNBOUND:                -0.104
REMARK SMILES COc1cc2ccc(=O)oc2cc1OC
REMARK SMILES IDX 3 1 13 2 12 3 11 4 5 5 4 6 6 7 7 8 8 9 9 10 10 11 2 12 1 13
REMARK SMILES IDX 14 14 15 15
REMARK H PARENT
REMARK Flexibility Score: inf
ROOT
ATOM      1  C   UNL     1    -124.668  39.047   4.090  1.00  0.00     0.161 A 
ATOM      2  C   UNL     1    -124.320  40.260   4.709  1.00  0.00     0.164 A 
ATOM      3  C   UNL     1    -125.332  41.113   5.193  1.00  0.00     0.098 A 
ATOM      4  C   UNL     1    -126.677  40.760   5.062  1.00  0.00     0.142 A 
ATOM      5  C   UNL     1    -127.026  39.543   4.442  1.00  0.00     0.022 A 
ATOM      6  C   UNL     1    -126.025  38.691   3.960  1.00  0.00     0.062 A 
ATOM      7  C   UNL     1    -128.383  39.218   4.327  1.00  0.00     0.019 A 
ATOM      8  C   UNL     1    -129.342  40.099   4.824  1.00  0.00     0.094 A 
ATOM      9  C   UNL     1    -128.922  41.289   5.427  1.00  0.00     0.336 A 
ATOM     10  O   UNL     1    -129.772  42.098   5.881  1.00  0.00    -0.246 OA
ATOM     11  O   UNL     1    -127.625  41.573   5.524  1.00  0.00    -0.423 OA
ENDROOT
BRANCH   1  12
ATOM     12  O   UNL     1    -123.634  38.221   3.619  1.00  0.00    -0.493 OA
ATOM     13  C   UNL     1    -123.809  37.159   2.688  1.00  0.00     0.278 C 
ENDBRANCH   1  12
BRANCH   2  14
ATOM     14  O   UNL     1    -122.959  40.582   4.823  1.00  0.00    -0.493 OA
ATOM     15  C   UNL     1    -122.326  40.997   6.029  1.00  0.00     0.278 C 
ENDBRANCH   2  14
TORSDOF 2
ENDMDL
MODEL 6
REMARK VINA RESULT:    -2.778      1.724      2.620
REMARK INTER + INTRA:          -3.206
REMARK INTER:                  -3.040
REMARK INTRA:                  -0.167
REMARK UNBOUND:                -0.104
REMARK SMILES COc1cc2ccc(=O)oc2cc1OC
REMARK SMILES IDX 3 1 13 2 12 3 11 4 5 5 4 6 6 7 7 8 8 9 9 10 10 11 2 12 1 13
REMARK SMILES IDX 14 14 15 15
REMARK H PARENT
REMARK Flexibility Score: inf
ROOT
ATOM      1  C   UNL     1    -126.732  39.439  16.174  1.00  0.00     0.161 A 
ATOM      2  C   UNL     1    -126.626  38.276  16.955  1.00  0.00     0.164 A 
ATOM      3  C   UNL     1    -127.678  37.918  17.822  1.00  0.00     0.098 A 
ATOM      4  C   UNL     1    -128.824  38.711  17.908  1.00  0.00     0.142 A 
ATOM      5  C   UNL     1    -128.931  39.877  17.124  1.00  0.00     0.022 A 
ATOM      6  C   UNL     1    -127.889  40.238  16.261  1.00  0.00     0.062 A 
ATOM      7  C   UNL     1    -130.093  40.651  17.233  1.00  0.00     0.019 A 
ATOM      8  C   UNL     1    -131.103  40.249  18.106  1.00  0.00     0.094 A 
ATOM      9  C   UNL     1    -130.927  39.079  18.853  1.00  0.00     0.336 A 
ATOM     10  O   UNL     1    -131.827  38.700  19.647  1.00  0.00    -0.246 OA
ATOM     11  O   UNL     1    -129.813  38.363  18.729  1.00  0.00    -0.423 OA
ENDROOT
BRANCH   1  12
ATOM     12  O   UNL     1    -125.665  39.767  15.321  1.00  0.00    -0.493 OA
ATOM     13  C   UNL     1    -124.698  40.777  15.588  1.00  0.00     0.278 C 
ENDBRANCH   1  12
BRANCH   2  14
ATOM     14  O   UNL     1    -125.459  37.504  16.843  1.00  0.00    -0.493 OA
ATOM     15  C   UNL     1    -124.382  37.529  17.775  1.00  0.00     0.278 C 
ENDBRANCH   2  14
TORSDOF 2
ENDMDL
MODEL 7
REMARK VINA RESULT:    -2.748     13.773     17.236
REMARK INTER + INTRA:          -3.174
REMARK INTER:                  -3.010
REMARK INTRA:                  -0.164
REMARK UNBOUND:                -0.104
REMARK SMILES COc1cc2ccc(=O)oc2cc1OC
REMARK SMILES IDX 3 1 13 2 12 3 11 4 5 5 4 6 6 7 7 8 8 9 9 10 10 11 2 12 1 13
REMARK SMILES IDX 14 14 15 15
REMARK H PARENT
REMARK Flexibility Score: inf
ROOT
ATOM      1  C   UNL     1    -123.386  38.560   3.622  1.00  0.00     0.161 A 
ATOM      2  C   UNL     1    -123.318  39.720   4.412  1.00  0.00     0.164 A 
ATOM      3  C   UNL     1    -122.237  40.610   4.256  1.00  0.00     0.098 A 
ATOM      4  C   UNL     1    -121.232  40.346   3.322  1.00  0.00     0.142 A 
ATOM      5  C   UNL     1    -121.300  39.183   2.528  1.00  0.00     0.022 A 
ATOM      6  C   UNL     1    -122.373  38.296   2.679  1.00  0.00     0.062 A 
ATOM      7  C   UNL     1    -120.279  38.948   1.601  1.00  0.00     0.019 A 
ATOM      8  C   UNL     1    -119.232  39.862   1.489  1.00  0.00     0.094 A 
ATOM      9  C   UNL     1    -119.231  40.995   2.310  1.00  0.00     0.336 A 
ATOM     10  O   UNL     1    -118.295  41.832   2.224  1.00  0.00    -0.246 OA
ATOM     11  O   UNL     1    -120.216  41.194   3.182  1.00  0.00    -0.423 OA
ENDROOT
BRANCH   1  12
ATOM     12  O   UNL     1    -124.477  37.695   3.802  1.00  0.00    -0.493 OA
ATOM     13  C   UNL     1    -125.640  37.680   2.982  1.00  0.00     0.278 C 
ENDBRANCH   1  12
BRANCH   2  14
ATOM     14  O   UNL     1    -124.344  39.953   5.341  1.00  0.00    -0.493 OA
ATOM     15  C   UNL     1    -125.404  40.886   5.157  1.00  0.00     0.278 C 
ENDBRANCH   2  14
TORSDOF 2
ENDMDL
MODEL 8
REMARK VINA RESULT:    -2.732     12.673     14.461
REMARK INTER + INTRA:          -3.155
REMARK INTER:                  -3.043
REMARK INTRA:                  -0.112
REMARK UNBOUND:                -0.104
REMARK SMILES COc1cc2ccc(=O)oc2cc1OC
REMARK SMILES IDX 3 1 13 2 12 3 11 4 5 5 4 6 6 7 7 8 8 9 9 10 10 11 2 12 1 13
REMARK SMILES IDX 14 14 15 15
REMARK H PARENT
REMARK Flexibility Score: inf
ROOT
ATOM      1  C   UNL     1    -124.225  38.395   3.618  1.00  0.00     0.161 A 
ATOM      2  C   UNL     1    -125.490  37.924   3.227  1.00  0.00     0.164 A 
ATOM      3  C   UNL     1    -126.649  38.615   3.634  1.00  0.00     0.098 A 
ATOM      4  C   UNL     1    -126.548  39.764   4.421  1.00  0.00     0.142 A 
ATOM      5  C   UNL     1    -125.279  40.238   4.811  1.00  0.00     0.022 A 
ATOM      6  C   UNL     1    -124.124  39.556   4.410  1.00  0.00     0.062 A 
ATOM      7  C   UNL     1    -125.212  41.392   5.600  1.00  0.00     0.019 A 
ATOM      8  C   UNL     1    -126.391  42.036   5.972  1.00  0.00     0.094 A 
ATOM      9  C   UNL     1    -127.615  41.508   5.547  1.00  0.00     0.336 A 
ATOM     10  O   UNL     1    -128.691  42.075   5.874  1.00  0.00    -0.246 OA
ATOM     11  O   UNL     1    -127.650  40.409   4.798  1.00  0.00    -0.423 OA
ENDROOT
BRANCH   1  12
ATOM     12  O   UNL     1    -123.090  37.684   3.195  1.00  0.00    -0.493 OA
ATOM     13  C   UNL     1    -121.992  38.256   2.494  1.00  0.00     0.278 C 
ENDBRANCH   1  12
BRANCH   2  14
ATOM     14  O   UNL     1    -125.553  36.765   2.437  1.00  0.00    -0.493 OA
ATOM     15  C   UNL     1    -126.740  36.268   1.828  1.00  0.00     0.278 C 
ENDBRANCH   2  14
TORSDOF 2
ENDMDL
MODEL 9
REMARK VINA RESULT:    -2.604      5.319      7.299
REMARK INTER + INTRA:          -3.012
REMARK INTER:                  -2.889
REMARK INTRA:                  -0.123
REMARK UNBOUND:                -0.104
REMARK SMILES COc1cc2ccc(=O)oc2cc1OC
REMARK SMILES IDX 3 1 13 2 12 3 11 4 5 5 4 6 6 7 7 8 8 9 9 10 10 11 2 12 1 13
REMARK SMILES IDX 14 14 15 15
REMARK H PARENT
REMARK Flexibility Score: inf
ROOT
ATOM      1  C   UNL     1    -122.968  40.772  15.287  1.00  0.00     0.161 A 
ATOM      2  C   UNL     1    -124.326  41.009  15.018  1.00  0.00     0.164 A 
ATOM      3  C   UNL     1    -125.310  40.199  15.619  1.00  0.00     0.098 A 
ATOM      4  C   UNL     1    -124.942  39.162  16.481  1.00  0.00     0.142 A 
ATOM      5  C   UNL     1    -123.580  38.924  16.751  1.00  0.00     0.022 A 
ATOM      6  C   UNL     1    -122.598  39.727  16.156  1.00  0.00     0.062 A 
ATOM      7  C   UNL     1    -123.244  37.878  17.618  1.00  0.00     0.019 A 
ATOM      8  C   UNL     1    -124.258  37.108  18.186  1.00  0.00     0.094 A 
ATOM      9  C   UNL     1    -125.589  37.402  17.871  1.00  0.00     0.336 A 
ATOM     10  O   UNL     1    -126.519  36.718  18.373  1.00  0.00    -0.246 OA
ATOM     11  O   UNL     1    -125.880  38.403  17.044  1.00  0.00    -0.423 OA
ENDROOT
BRANCH   1  12
ATOM     12  O   UNL     1    -122.014  41.598  14.671  1.00  0.00    -0.493 OA
ATOM     13  C   UNL     1    -120.828  42.072  15.300  1.00  0.00     0.278 C 
ENDBRANCH   1  12
BRANCH   2  14
ATOM     14  O   UNL     1    -124.659  42.059  14.147  1.00  0.00    -0.493 OA
ATOM     15  C   UNL     1    -125.169  41.883  12.829  1.00  0.00     0.278 C 
ENDBRANCH   2  14
TORSDOF 2
ENDMDL
