MODEL 1
REMARK VINA RESULT:    -3.234      0.000      0.000
REMARK INTER + INTRA:          -3.518
REMARK INTER:                  -3.518
REMARK INTRA:                   0.000
REMARK UNBOUND:                 0.000
REMARK SMILES [NH3+]CC(=O)[O-]
REMARK SMILES IDX 2 1 1 2 3 6 4 7 5 8
REMARK H PARENT 1 3 1 4 1 5
REMARK Flexibility Score: inf
ROOT
ATOM      1  C   UNL     1      12.963  -3.116  19.158  1.00  0.00     0.312 C 
ENDROOT
BRANCH   1   2
ATOM      2  N   UNL     1      14.404  -2.877  19.154  1.00  0.00    -0.353 N 
ATOM      3  H   UNL     1      14.772  -3.022  18.187  1.00  0.00     0.344 HD
ATOM      4  H   UNL     1      14.606  -1.894  19.451  1.00  0.00     0.344 HD
ATOM      5  H   UNL     1      14.881  -3.547  19.802  1.00  0.00     0.344 HD
ENDBRANCH   1   2
BRANCH   1   6
ATOM      6  C   UNL     1      12.492  -3.488  20.530  1.00  0.00     0.096 C 
ATOM      7  O   UNL     1      11.334  -3.954  20.697  1.00  0.00    -0.544 OA
ATOM      8  O   UNL     1      13.314  -3.274  21.629  1.00  0.00    -0.544 OA
ENDBRANCH   1   6
TORSDOF 2
ENDMDL
MODEL 2
REMARK VINA RESULT:    -3.203     16.986     17.313
REMARK INTER + INTRA:          -3.484
REMARK INTER:                  -3.484
REMARK INTRA:                   0.000
REMARK UNBOUND:                 0.000
REMARK SMILES [NH3+]CC(=O)[O-]
REMARK SMILES IDX 2 1 1 2 3 6 4 7 5 8
REMARK H PARENT 1 3 1 4 1 5
REMARK Flexibility Score: inf
ROOT
ATOM      1  C   UNL     1      16.480  11.868  15.421  1.00  0.00     0.312 C 
ENDROOT
BRANCH   1   2
ATOM      2  N   UNL     1      17.668  11.538  16.205  1.00  0.00    -0.353 N 
ATOM      3  H   UNL     1      17.727  12.182  17.025  1.00  0.00     0.344 HD
ATOM      4  H   UNL     1      17.608  10.552  16.551  1.00  0.00     0.344 HD
ATOM      5  H   UNL     1      18.528  11.655  15.619  1.00  0.00     0.344 HD
ENDBRANCH   1   2
BRANCH   1   6
ATOM      6  C   UNL     1      16.860  12.562  14.150  1.00  0.00     0.096 C 
ATOM      7  O   UNL     1      16.168  13.522  13.722  1.00  0.00    -0.544 OA
ATOM      8  O   UNL     1      17.951  12.116  13.414  1.00  0.00    -0.544 OA
ENDBRANCH   1   6
TORSDOF 2
ENDMDL
MODEL 3
REMARK VINA RESULT:    -3.089     18.093     18.464
REMARK INTER + INTRA:          -3.360
REMARK INTER:                  -3.360
REMARK INTRA:                   0.000
REMARK UNBOUND:                 0.000
REMARK SMILES [NH3+]CC(=O)[O-]
REMARK SMILES IDX 2 1 1 2 3 6 4 7 5 8
REMARK H PARENT 1 3 1 4 1 5
REMARK Flexibility Score: inf
ROOT
ATOM      1  C   UNL     1      16.649  13.198  13.169  1.00  0.00     0.312 C 
ENDROOT
BRANCH   1   2
ATOM      2  N   UNL     1      16.633  13.342  14.622  1.00  0.00    -0.353 N 
ATOM      3  H   UNL     1      16.788  12.406  15.060  1.00  0.00     0.344 HD
ATOM      4  H   UNL     1      17.396  13.990  14.928  1.00  0.00     0.344 HD
ATOM      5  H   UNL     1      15.706  13.714  14.936  1.00  0.00     0.344 HD
ENDBRANCH   1   2
BRANCH   1   6
ATOM      6  C   UNL     1      17.956  12.629  12.709  1.00  0.00     0.096 C 
ATOM      7  O   UNL     1      18.596  11.836  13.447  1.00  0.00    -0.544 OA
ATOM      8  O   UNL     1      18.490  13.015  11.485  1.00  0.00    -0.544 OA
ENDBRANCH   1   6
TORSDOF 2
ENDMDL
MODEL 4
REMARK VINA RESULT:    -3.088      1.937      2.213
REMARK INTER + INTRA:          -3.359
REMARK INTER:                  -3.359
REMARK INTRA:                   0.000
REMARK UNBOUND:                 0.000
REMARK SMILES [NH3+]CC(=O)[O-]
REMARK SMILES IDX 2 1 1 2 3 6 4 7 5 8
REMARK H PARENT 1 3 1 4 1 5
REMARK Flexibility Score: inf
ROOT
ATOM      1  C   UNL     1      11.667  -4.242  20.714  1.00  0.00     0.312 C 
ENDROOT
BRANCH   1   2
ATOM      2  N   UNL     1      12.448  -4.052  19.494  1.00  0.00    -0.353 N 
ATOM      3  H   UNL     1      13.400  -3.705  19.749  1.00  0.00     0.344 HD
ATOM      4  H   UNL     1      12.545  -4.962  18.985  1.00  0.00     0.344 HD
ATOM      5  H   UNL     1      11.983  -3.347  18.876  1.00  0.00     0.344 HD
ENDBRANCH   1   2
BRANCH   1   6
ATOM      6  C   UNL     1      12.478  -3.886  21.922  1.00  0.00     0.096 C 
ATOM      7  O   UNL     1      13.586  -3.303  21.792  1.00  0.00    -0.544 OA
ATOM      8  O   UNL     1      12.032  -4.243  23.188  1.00  0.00    -0.544 OA
ENDBRANCH   1   6
TORSDOF 2
ENDMDL
MODEL 5
REMARK VINA RESULT:    -3.063     17.295     17.549
REMARK INTER + INTRA:          -3.332
REMARK INTER:                  -3.332
REMARK INTRA:                   0.000
REMARK UNBOUND:                 0.000
REMARK SMILES [NH3+]CC(=O)[O-]
REMARK SMILES IDX 2 1 1 2 3 6 4 7 5 8
REMARK H PARENT 1 3 1 4 1 5
REMARK Flexibility Score: inf
ROOT
ATOM      1  C   UNL     1      17.785  12.693  12.928  1.00  0.00     0.312 C 
ENDROOT
BRANCH   1   2
ATOM      2  N   UNL     1      18.558  11.454  12.969  1.00  0.00    -0.353 N 
ATOM      3  H   UNL     1      19.561  11.683  13.150  1.00  0.00     0.344 HD
ATOM      4  H   UNL     1      18.207  10.837  13.739  1.00  0.00     0.344 HD
ATOM      5  H   UNL     1      18.484  10.954  12.053  1.00  0.00     0.344 HD
ENDBRANCH   1   2
BRANCH   1   6
ATOM      6  C   UNL     1      16.489  12.532  13.660  1.00  0.00     0.096 C 
ATOM      7  O   UNL     1      15.400  12.525  13.028  1.00  0.00    -0.544 OA
ATOM      8  O   UNL     1      16.481  12.439  15.046  1.00  0.00    -0.544 OA
ENDBRANCH   1   6
TORSDOF 2
ENDMDL
MODEL 6
REMARK VINA RESULT:    -3.020      3.302      3.673
REMARK INTER + INTRA:          -3.285
REMARK INTER:                  -3.285
REMARK INTRA:                   0.000
REMARK UNBOUND:                 0.000
REMARK SMILES [NH3+]CC(=O)[O-]
REMARK SMILES IDX 2 1 1 2 3 6 4 7 5 8
REMARK H PARENT 1 3 1 4 1 5
REMARK Flexibility Score: inf
ROOT
ATOM      1  C   UNL     1      14.677  -4.282  23.287  1.00  0.00     0.312 C 
ENDROOT
BRANCH   1   2
ATOM      2  N   UNL     1      15.149  -3.514  24.437  1.00  0.00    -0.353 N 
ATOM      3  H   UNL     1      15.307  -2.523  24.145  1.00  0.00     0.344 HD
ATOM      4  H   UNL     1      14.433  -3.533  25.200  1.00  0.00     0.344 HD
ATOM      5  H   UNL     1      16.051  -3.912  24.788  1.00  0.00     0.344 HD
ENDBRANCH   1   2
BRANCH   1   6
ATOM      6  C   UNL     1      13.329  -3.799  22.847  1.00  0.00     0.096 C 
ATOM      7  O   UNL     1      13.205  -3.171  21.763  1.00  0.00    -0.544 OA
ATOM      8  O   UNL     1      12.220  -3.999  23.658  1.00  0.00    -0.544 OA
ENDBRANCH   1   6
TORSDOF 2
ENDMDL
MODEL 7
REMARK VINA RESULT:    -2.999      2.066      2.265
REMARK INTER + INTRA:          -3.262
REMARK INTER:                  -3.262
REMARK INTRA:                   0.000
REMARK UNBOUND:                 0.000
REMARK SMILES [NH3+]CC(=O)[O-]
REMARK SMILES IDX 2 1 1 2 3 6 4 7 5 8
REMARK H PARENT 1 3 1 4 1 5
REMARK Flexibility Score: inf
ROOT
ATOM      1  C   UNL     1      12.380  -3.956  21.891  1.00  0.00     0.312 C 
ENDROOT
BRANCH   1   2
ATOM      2  N   UNL     1      13.338  -2.853  21.924  1.00  0.00    -0.353 N 
ATOM      3  H   UNL     1      12.984  -2.073  21.326  1.00  0.00     0.344 HD
ATOM      4  H   UNL     1      13.449  -2.504  22.905  1.00  0.00     0.344 HD
ATOM      5  H   UNL     1      14.264  -3.171  21.554  1.00  0.00     0.344 HD
ENDBRANCH   1   2
BRANCH   1   6
ATOM      6  C   UNL     1      11.796  -4.107  20.520  1.00  0.00     0.096 C 
ATOM      7  O   UNL     1      11.063  -5.094  20.250  1.00  0.00    -0.544 OA
ATOM      8  O   UNL     1      12.103  -3.184  19.528  1.00  0.00    -0.544 OA
ENDBRANCH   1   6
TORSDOF 2
ENDMDL
MODEL 8
REMARK VINA RESULT:    -2.964     18.420     18.798
REMARK INTER + INTRA:          -3.224
REMARK INTER:                  -3.224
REMARK INTRA:                   0.000
REMARK UNBOUND:                 0.000
REMARK SMILES [NH3+]CC(=O)[O-]
REMARK SMILES IDX 2 1 1 2 3 6 4 7 5 8
REMARK H PARENT 1 3 1 4 1 5
REMARK Flexibility Score: inf
ROOT
ATOM      1  C   UNL     1      18.579  11.906  13.108  1.00  0.00     0.312 C 
ENDROOT
BRANCH   1   2
ATOM      2  N   UNL     1      17.947  11.798  14.421  1.00  0.00    -0.353 N 
ATOM      3  H   UNL     1      16.943  12.076  14.341  1.00  0.00     0.344 HD
ATOM      4  H   UNL     1      17.999  10.810  14.764  1.00  0.00     0.344 HD
ATOM      5  H   UNL     1      18.422  12.435  15.102  1.00  0.00     0.344 HD
ENDBRANCH   1   2
BRANCH   1   6
ATOM      6  C   UNL     1      18.315  13.251  12.504  1.00  0.00     0.096 C 
ATOM      7  O   UNL     1      19.078  13.705  11.611  1.00  0.00    -0.544 OA
ATOM      8  O   UNL     1      17.255  14.023  12.963  1.00  0.00    -0.544 OA
ENDBRANCH   1   6
TORSDOF 2
ENDMDL
MODEL 9
REMARK VINA RESULT:    -2.924      2.313      2.491
REMARK INTER + INTRA:          -3.181
REMARK INTER:                  -3.181
REMARK INTRA:                   0.000
REMARK UNBOUND:                 0.000
REMARK SMILES [NH3+]CC(=O)[O-]
REMARK SMILES IDX 2 1 1 2 3 6 4 7 5 8
REMARK H PARENT 1 3 1 4 1 5
REMARK Flexibility Score: inf
ROOT
ATOM      1  C   UNL     1      11.387  -4.371  20.652  1.00  0.00     0.312 C 
ENDROOT
BRANCH   1   2
ATOM      2  N   UNL     1      11.771  -5.339  21.677  1.00  0.00    -0.353 N 
ATOM      3  H   UNL     1      12.505  -5.974  21.290  1.00  0.00     0.344 HD
ATOM      4  H   UNL     1      12.159  -4.842  22.513  1.00  0.00     0.344 HD
ATOM      5  H   UNL     1      10.941  -5.911  21.959  1.00  0.00     0.344 HD
ENDBRANCH   1   2
BRANCH   1   6
ATOM      6  C   UNL     1      12.550  -3.500  20.287  1.00  0.00     0.096 C 
ATOM      7  O   UNL     1      12.684  -3.086  19.106  1.00  0.00    -0.544 OA
ATOM      8  O   UNL     1      13.510  -3.187  21.240  1.00  0.00    -0.544 OA
ENDBRANCH   1   6
TORSDOF 2
ENDMDL
