MODEL 1
REMARK VINA RESULT:    -3.269      0.000      0.000
REMARK INTER + INTRA:          -3.991
REMARK INTER:                  -3.842
REMARK INTRA:                  -0.149
REMARK UNBOUND:                -0.149
REMARK SMILES [NH3+][C@H](CO)C(=O)[O-]
REMARK SMILES IDX 3 1 2 2 1 3 5 7 6 8 7 9 4 10
REMARK H PARENT 1 4 1 5 1 6 4 11
REMARK Flexibility Score: inf
ROOT
ATOM      1  C   UNL     1     179.118 162.782 170.417  1.00  0.00     0.227 C 
ENDROOT
BRANCH   1   2
ATOM      2  C   UNL     1     179.675 161.401 170.027  1.00  0.00     0.253 C 
BRANCH   2   3
ATOM      3  N   UNL     1     179.055 160.335 170.825  1.00  0.00    -0.348 N 
ATOM      4  H   UNL     1     179.787 159.653 171.133  1.00  0.00     0.345 HD
ATOM      5  H   UNL     1     178.579 160.726 171.671  1.00  0.00     0.345 HD
ATOM      6  H   UNL     1     178.354 159.821 170.244  1.00  0.00     0.345 HD
ENDBRANCH   2   3
BRANCH   2   7
ATOM      7  C   UNL     1     179.494 161.145 168.554  1.00  0.00     0.102 C 
ATOM      8  O   UNL     1     179.224 159.986 168.145  1.00  0.00    -0.544 OA
ATOM      9  O   UNL     1     179.673 162.170 167.631  1.00  0.00    -0.544 OA
ENDBRANCH   2   7
ENDBRANCH   1   2
BRANCH   1  10
ATOM     10  O   UNL     1     180.125 163.761 170.414  1.00  0.00    -0.390 OA
ATOM     11  H   UNL     1     180.954 163.321 170.092  1.00  0.00     0.210 HD
ENDBRANCH   1  10
TORSDOF 4
ENDMDL
MODEL 2
REMARK VINA RESULT:    -3.189      1.921      2.101
REMARK INTER + INTRA:          -3.897
REMARK INTER:                  -3.674
REMARK INTRA:                  -0.223
REMARK UNBOUND:                -0.149
REMARK SMILES [NH3+][C@H](CO)C(=O)[O-]
REMARK SMILES IDX 3 1 2 2 1 3 5 7 6 8 7 9 4 10
REMARK H PARENT 1 4 1 5 1 6 4 11
REMARK Flexibility Score: inf
ROOT
ATOM      1  C   UNL     1     178.853 163.228 169.995  1.00  0.00     0.227 C 
ENDROOT
BRANCH   1   2
ATOM      2  C   UNL     1     178.924 162.458 168.664  1.00  0.00     0.253 C 
BRANCH   2   3
ATOM      3  N   UNL     1     179.730 163.184 167.673  1.00  0.00    -0.348 N 
ATOM      4  H   UNL     1     179.961 164.137 168.037  1.00  0.00     0.345 HD
ATOM      5  H   UNL     1     180.619 162.674 167.466  1.00  0.00     0.345 HD
ATOM      6  H   UNL     1     179.185 163.296 166.788  1.00  0.00     0.345 HD
ENDBRANCH   2   3
BRANCH   2   7
ATOM      7  C   UNL     1     179.457 161.066 168.876  1.00  0.00     0.102 C 
ATOM      8  O   UNL     1     179.796 160.691 170.029  1.00  0.00    -0.544 OA
ATOM      9  O   UNL     1     179.626 160.201 167.800  1.00  0.00    -0.544 OA
ENDBRANCH   2   7
ENDBRANCH   1   2
BRANCH   1  10
ATOM     10  O   UNL     1     180.125 163.654 170.410  1.00  0.00    -0.390 OA
ATOM     11  H   UNL     1     180.654 162.837 170.603  1.00  0.00     0.210 HD
ENDBRANCH   1  10
TORSDOF 4
ENDMDL
MODEL 3
REMARK VINA RESULT:    -3.186     14.782     15.276
REMARK INTER + INTRA:          -3.894
REMARK INTER:                  -3.510
REMARK INTRA:                  -0.384
REMARK UNBOUND:                -0.149
REMARK SMILES [NH3+][C@H](CO)C(=O)[O-]
REMARK SMILES IDX 3 1 2 2 1 3 5 7 6 8 7 9 4 10
REMARK H PARENT 1 4 1 5 1 6 4 11
REMARK Flexibility Score: inf
ROOT
ATOM      1  C   UNL     1     176.436 175.722 169.102  1.00  0.00     0.227 C 
ENDROOT
BRANCH   1   2
ATOM      2  C   UNL     1     177.941 176.034 169.002  1.00  0.00     0.253 C 
BRANCH   2   3
ATOM      3  N   UNL     1     178.245 176.798 167.786  1.00  0.00    -0.348 N 
ATOM      4  H   UNL     1     177.627 176.479 167.004  1.00  0.00     0.345 HD
ATOM      5  H   UNL     1     178.098 177.823 167.939  1.00  0.00     0.345 HD
ATOM      6  H   UNL     1     179.238 176.633 167.504  1.00  0.00     0.345 HD
ENDBRANCH   2   3
BRANCH   2   7
ATOM      7  C   UNL     1     178.420 176.762 170.230  1.00  0.00     0.102 C 
ATOM      8  O   UNL     1     178.750 176.113 171.258  1.00  0.00    -0.544 OA
ATOM      9  O   UNL     1     178.456 178.152 170.260  1.00  0.00    -0.544 OA
ENDBRANCH   2   7
ENDBRANCH   1   2
BRANCH   1  10
ATOM     10  O   UNL     1     175.858 176.337 170.224  1.00  0.00    -0.390 OA
ATOM     11  H   UNL     1     176.566 176.398 170.916  1.00  0.00     0.210 HD
ENDBRANCH   1  10
TORSDOF 4
ENDMDL
MODEL 4
REMARK VINA RESULT:    -3.159     14.551     15.235
REMARK INTER + INTRA:          -3.862
REMARK INTER:                  -3.630
REMARK INTRA:                  -0.232
REMARK UNBOUND:                -0.149
REMARK SMILES [NH3+][C@H](CO)C(=O)[O-]
REMARK SMILES IDX 3 1 2 2 1 3 5 7 6 8 7 9 4 10
REMARK H PARENT 1 4 1 5 1 6 4 11
REMARK Flexibility Score: inf
ROOT
ATOM      1  C   UNL     1     177.716 175.806 168.179  1.00  0.00     0.227 C 
ENDROOT
BRANCH   1   2
ATOM      2  C   UNL     1     178.613 175.862 169.429  1.00  0.00     0.253 C 
BRANCH   2   3
ATOM      3  N   UNL     1     179.809 175.025 169.262  1.00  0.00    -0.348 N 
ATOM      4  H   UNL     1     180.190 174.764 170.200  1.00  0.00     0.345 HD
ATOM      5  H   UNL     1     179.586 174.153 168.730  1.00  0.00     0.345 HD
ATOM      6  H   UNL     1     180.545 175.561 168.748  1.00  0.00     0.345 HD
ENDBRANCH   2   3
BRANCH   2   7
ATOM      7  C   UNL     1     178.990 177.283 169.755  1.00  0.00     0.102 C 
ATOM      8  O   UNL     1     178.252 177.974 170.504  1.00  0.00    -0.544 OA
ATOM      9  O   UNL     1     180.125 177.860 169.194  1.00  0.00    -0.544 OA
ENDBRANCH   2   7
ENDBRANCH   1   2
BRANCH   1  10
ATOM     10  O   UNL     1     178.270 176.538 167.116  1.00  0.00    -0.390 OA
ATOM     11  H   UNL     1     179.136 176.900 167.437  1.00  0.00     0.210 HD
ENDBRANCH   1  10
TORSDOF 4
ENDMDL
MODEL 5
REMARK VINA RESULT:    -3.120     11.840     12.540
REMARK INTER + INTRA:          -3.816
REMARK INTER:                  -3.616
REMARK INTRA:                  -0.200
REMARK UNBOUND:                -0.149
REMARK SMILES [NH3+][C@H](CO)C(=O)[O-]
REMARK SMILES IDX 3 1 2 2 1 3 5 7 6 8 7 9 4 10
REMARK H PARENT 1 4 1 5 1 6 4 11
REMARK Flexibility Score: inf
ROOT
ATOM      1  C   UNL     1     177.669 165.441 180.583  1.00  0.00     0.227 C 
ENDROOT
BRANCH   1   2
ATOM      2  C   UNL     1     177.582 163.906 180.661  1.00  0.00     0.253 C 
BRANCH   2   3
ATOM      3  N   UNL     1     178.700 163.273 179.949  1.00  0.00    -0.348 N 
ATOM      4  H   UNL     1     179.585 163.408 180.490  1.00  0.00     0.345 HD
ATOM      5  H   UNL     1     178.532 162.248 179.821  1.00  0.00     0.345 HD
ATOM      6  H   UNL     1     178.818 163.720 179.011  1.00  0.00     0.345 HD
ENDBRANCH   2   3
BRANCH   2   7
ATOM      7  C   UNL     1     177.525 163.444 182.094  1.00  0.00     0.102 C 
ATOM      8  O   UNL     1     177.452 164.289 183.024  1.00  0.00    -0.544 OA
ATOM      9  O   UNL     1     177.605 162.091 182.405  1.00  0.00    -0.544 OA
ENDBRANCH   2   7
ENDBRANCH   1   2
BRANCH   1  10
ATOM     10  O   UNL     1     178.974 165.894 180.834  1.00  0.00    -0.390 OA
ATOM     11  H   UNL     1     179.136 166.658 180.222  1.00  0.00     0.210 HD
ENDBRANCH   1  10
TORSDOF 4
ENDMDL
MODEL 6
REMARK VINA RESULT:    -3.108     25.234     26.171
REMARK INTER + INTRA:          -3.802
REMARK INTER:                  -3.551
REMARK INTRA:                  -0.251
REMARK UNBOUND:                -0.149
REMARK SMILES [NH3+][C@H](CO)C(=O)[O-]
REMARK SMILES IDX 3 1 2 2 1 3 5 7 6 8 7 9 4 10
REMARK H PARENT 1 4 1 5 1 6 4 11
REMARK Flexibility Score: inf
ROOT
ATOM      1  C   UNL     1     162.091 175.935 179.588  1.00  0.00     0.227 C 
ENDROOT
BRANCH   1   2
ATOM      2  C   UNL     1     162.620 176.514 180.913  1.00  0.00     0.253 C 
BRANCH   2   3
ATOM      3  N   UNL     1     163.658 177.525 180.674  1.00  0.00    -0.348 N 
ATOM      4  H   UNL     1     164.370 177.488 181.440  1.00  0.00     0.345 HD
ATOM      5  H   UNL     1     164.136 177.363 179.758  1.00  0.00     0.345 HD
ATOM      6  H   UNL     1     163.229 178.478 180.673  1.00  0.00     0.345 HD
ENDBRANCH   2   3
BRANCH   2   7
ATOM      7  C   UNL     1     161.495 177.081 181.738  1.00  0.00     0.102 C 
ATOM      8  O   UNL     1     161.660 178.155 182.373  1.00  0.00    -0.544 OA
ATOM      9  O   UNL     1     160.286 176.403 181.847  1.00  0.00    -0.544 OA
ENDBRANCH   2   7
ENDBRANCH   1   2
BRANCH   1  10
ATOM     10  O   UNL     1     161.050 176.719 179.065  1.00  0.00    -0.390 OA
ATOM     11  H   UNL     1     160.227 176.167 179.103  1.00  0.00     0.210 HD
ENDBRANCH   1  10
TORSDOF 4
ENDMDL
MODEL 7
REMARK VINA RESULT:    -3.096      1.990      3.292
REMARK INTER + INTRA:          -3.788
REMARK INTER:                  -3.587
REMARK INTRA:                  -0.201
REMARK UNBOUND:                -0.149
REMARK SMILES [NH3+][C@H](CO)C(=O)[O-]
REMARK SMILES IDX 3 1 2 2 1 3 5 7 6 8 7 9 4 10
REMARK H PARENT 1 4 1 5 1 6 4 11
REMARK Flexibility Score: inf
ROOT
ATOM      1  C   UNL     1     180.125 161.086 168.161  1.00  0.00     0.227 C 
ENDROOT
BRANCH   1   2
ATOM      2  C   UNL     1     180.077 162.592 168.478  1.00  0.00     0.253 C 
BRANCH   2   3
ATOM      3  N   UNL     1     179.140 163.292 167.589  1.00  0.00    -0.348 N 
ATOM      4  H   UNL     1     178.874 164.211 168.010  1.00  0.00     0.345 HD
ATOM      5  H   UNL     1     179.569 163.459 166.649  1.00  0.00     0.345 HD
ATOM      6  H   UNL     1     178.272 162.722 167.472  1.00  0.00     0.345 HD
ENDBRANCH   2   3
BRANCH   2   7
ATOM      7  C   UNL     1     179.723 162.825 169.924  1.00  0.00     0.102 C 
ATOM      8  O   UNL     1     179.019 161.984 170.543  1.00  0.00    -0.544 OA
ATOM      9  O   UNL     1     180.124 163.988 170.571  1.00  0.00    -0.544 OA
ENDBRANCH   2   7
ENDBRANCH   1   2
BRANCH   1  10
ATOM     10  O   UNL     1     178.848 160.506 168.226  1.00  0.00    -0.390 OA
ATOM     11  H   UNL     1     178.252 161.171 168.659  1.00  0.00     0.210 HD
ENDBRANCH   1  10
TORSDOF 4
ENDMDL
MODEL 8
REMARK VINA RESULT:    -3.044      2.082      2.755
REMARK INTER + INTRA:          -3.727
REMARK INTER:                  -3.501
REMARK INTRA:                  -0.226
REMARK UNBOUND:                -0.149
REMARK SMILES [NH3+][C@H](CO)C(=O)[O-]
REMARK SMILES IDX 3 1 2 2 1 3 5 7 6 8 7 9 4 10
REMARK H PARENT 1 4 1 5 1 6 4 11
REMARK Flexibility Score: inf
ROOT
ATOM      1  C   UNL     1     179.054 163.208 168.167  1.00  0.00     0.227 C 
ENDROOT
BRANCH   1   2
ATOM      2  C   UNL     1     179.806 163.032 169.500  1.00  0.00     0.253 C 
BRANCH   2   3
ATOM      3  N   UNL     1     179.338 163.996 170.504  1.00  0.00    -0.348 N 
ATOM      4  H   UNL     1     178.547 164.559 170.113  1.00  0.00     0.345 HD
ATOM      5  H   UNL     1     179.011 163.508 171.370  1.00  0.00     0.345 HD
ATOM      6  H   UNL     1     180.113 164.652 170.753  1.00  0.00     0.345 HD
ENDBRANCH   2   3
BRANCH   2   7
ATOM      7  C   UNL     1     179.676 161.620 170.007  1.00  0.00     0.102 C 
ATOM      8  O   UNL     1     180.125 160.663 169.324  1.00  0.00    -0.544 OA
ATOM      9  O   UNL     1     179.017 161.355 171.202  1.00  0.00    -0.544 OA
ENDBRANCH   2   7
ENDBRANCH   1   2
BRANCH   1  10
ATOM     10  O   UNL     1     179.727 162.574 167.111  1.00  0.00    -0.390 OA
ATOM     11  H   UNL     1     179.585 161.599 167.222  1.00  0.00     0.210 HD
ENDBRANCH   1  10
TORSDOF 4
ENDMDL
MODEL 9
REMARK VINA RESULT:    -3.043      1.048      2.956
REMARK INTER + INTRA:          -3.725
REMARK INTER:                  -3.719
REMARK INTRA:                  -0.006
REMARK UNBOUND:                -0.149
REMARK SMILES [NH3+][C@H](CO)C(=O)[O-]
REMARK SMILES IDX 3 1 2 2 1 3 5 7 6 8 7 9 4 10
REMARK H PARENT 1 4 1 5 1 6 4 11
REMARK Flexibility Score: inf
ROOT
ATOM      1  C   UNL     1     180.009 161.027 168.473  1.00  0.00     0.227 C 
ENDROOT
BRANCH   1   2
ATOM      2  C   UNL     1     179.135 161.664 169.568  1.00  0.00     0.253 C 
BRANCH   2   3
ATOM      3  N   UNL     1     179.406 161.062 170.880  1.00  0.00    -0.348 N 
ATOM      4  H   UNL     1     178.822 161.532 171.611  1.00  0.00     0.345 HD
ATOM      5  H   UNL     1     179.188 160.039 170.877  1.00  0.00     0.345 HD
ATOM      6  H   UNL     1     180.412 161.198 171.130  1.00  0.00     0.345 HD
ENDBRANCH   2   3
BRANCH   2   7
ATOM      7  C   UNL     1     179.330 163.157 169.609  1.00  0.00     0.102 C 
ATOM      8  O   UNL     1     180.125 163.665 170.444  1.00  0.00    -0.544 OA
ATOM      9  O   UNL     1     178.602 163.989 168.766  1.00  0.00    -0.544 OA
ENDBRANCH   2   7
ENDBRANCH   1   2
BRANCH   1  10
ATOM     10  O   UNL     1     179.377 159.916 167.892  1.00  0.00    -0.390 OA
ATOM     11  H   UNL     1     180.021 159.163 167.934  1.00  0.00     0.210 HD
ENDBRANCH   1  10
TORSDOF 4
ENDMDL
