MODEL 1
REMARK VINA RESULT:    -6.873      0.000      0.000
REMARK INTER + INTRA:          -6.873
REMARK INTER:                  -6.873
REMARK INTRA:                   0.000
REMARK UNBOUND:                 0.000
REMARK SMILES C=C1CCC[C@]2(C)CC(=O)C(=C(C)C)C[C@@H]12
REMARK SMILES IDX 13 1 12 2 11 3 15 4 16 5 2 6 1 7 3 8 4 9 5 10 6 11 8 12 9 13
REMARK SMILES IDX 10 14 7 15 14 16
REMARK H PARENT
REMARK Flexibility Score: inf
ROOT
ATOM      1  C   UNL     1      16.285 -36.247  19.612  1.00  0.00     0.039 C 
ATOM      2  C   UNL     1      16.860 -35.848  20.954  1.00  0.00    -0.070 C 
ATOM      3  C   UNL     1      16.364 -34.779  21.646  1.00  0.00    -0.006 C 
ATOM      4  C   UNL     1      15.229 -33.934  21.085  1.00  0.00     0.047 C 
ATOM      5  C   UNL     1      15.295 -32.458  21.549  1.00  0.00     0.025 C 
ATOM      6  C   UNL     1      14.156 -31.568  21.048  1.00  0.00    -0.073 C 
ATOM      7  C   UNL     1      13.146 -32.002  20.270  1.00  0.00     0.008 C 
ATOM      8  C   UNL     1      14.229 -30.110  21.435  1.00  0.00     0.031 C 
ATOM      9  C   UNL     1      14.393 -29.969  22.951  1.00  0.00     0.005 C 
ATOM     10  C   UNL     1      15.562 -30.819  23.477  1.00  0.00     0.008 C 
ATOM     11  C   UNL     1      15.441 -32.325  23.096  1.00  0.00    -0.018 C 
ATOM     12  C   UNL     1      16.745 -33.038  23.533  1.00  0.00     0.088 C 
ATOM     13  C   UNL     1      16.812 -34.453  23.032  1.00  0.00     0.159 C 
ATOM     14  O   UNL     1      17.238 -35.348  23.809  1.00  0.00    -0.295 OA
ATOM     15  C   UNL     1      14.234 -32.956  23.846  1.00  0.00     0.012 C 
ATOM     16  C   UNL     1      18.025 -36.660  21.468  1.00  0.00     0.039 C 
ENDROOT
TORSDOF 0
ENDMDL
MODEL 2
REMARK VINA RESULT:    -6.624      1.875      3.277
REMARK INTER + INTRA:          -6.624
REMARK INTER:                  -6.624
REMARK INTRA:                   0.000
REMARK UNBOUND:                 0.000
REMARK SMILES C=C1CCC[C@]2(C)CC(=O)C(=C(C)C)C[C@@H]12
REMARK SMILES IDX 13 1 12 2 11 3 15 4 16 5 2 6 1 7 3 8 4 9 5 10 6 11 8 12 9 13
REMARK SMILES IDX 10 14 7 15 14 16
REMARK H PARENT
REMARK Flexibility Score: inf
ROOT
ATOM      1  C   UNL     1      18.301 -37.469  21.712  1.00  0.00     0.039 C 
ATOM      2  C   UNL     1      17.588 -36.701  20.620  1.00  0.00    -0.070 C 
ATOM      3  C   UNL     1      16.910 -35.547  20.894  1.00  0.00    -0.006 C 
ATOM      4  C   UNL     1      16.825 -34.999  22.312  1.00  0.00     0.047 C 
ATOM      5  C   UNL     1      15.516 -34.214  22.574  1.00  0.00     0.025 C 
ATOM      6  C   UNL     1      15.393 -33.605  23.972  1.00  0.00    -0.073 C 
ATOM      7  C   UNL     1      16.337 -33.711  24.927  1.00  0.00     0.008 C 
ATOM      8  C   UNL     1      14.100 -32.886  24.275  1.00  0.00     0.031 C 
ATOM      9  C   UNL     1      13.814 -31.830  23.203  1.00  0.00     0.005 C 
ATOM     10  C   UNL     1      13.887 -32.426  21.786  1.00  0.00     0.008 C 
ATOM     11  C   UNL     1      15.246 -33.127  21.488  1.00  0.00    -0.018 C 
ATOM     12  C   UNL     1      15.135 -33.823  20.109  1.00  0.00     0.088 C 
ATOM     13  C   UNL     1      16.323 -34.695  19.818  1.00  0.00     0.159 C 
ATOM     14  O   UNL     1      16.814 -34.678  18.657  1.00  0.00    -0.295 OA
ATOM     15  C   UNL     1      16.379 -32.065  21.438  1.00  0.00     0.012 C 
ATOM     16  C   UNL     1      17.631 -37.290  19.230  1.00  0.00     0.039 C 
ENDROOT
TORSDOF 0
ENDMDL
MODEL 3
REMARK VINA RESULT:    -6.409      2.310      5.199
REMARK INTER + INTRA:          -6.409
REMARK INTER:                  -6.409
REMARK INTRA:                   0.000
REMARK UNBOUND:                 0.000
REMARK SMILES C=C1CCC[C@]2(C)CC(=O)C(=C(C)C)C[C@@H]12
REMARK SMILES IDX 13 1 12 2 11 3 15 4 16 5 2 6 1 7 3 8 4 9 5 10 6 11 8 12 9 13
REMARK SMILES IDX 10 14 7 15 14 16
REMARK H PARENT
REMARK Flexibility Score: inf
ROOT
ATOM      1  C   UNL     1      10.875 -30.627  21.253  1.00  0.00     0.039 C 
ATOM      2  C   UNL     1      11.938 -30.102  22.192  1.00  0.00    -0.070 C 
ATOM      3  C   UNL     1      13.195 -30.639  22.210  1.00  0.00    -0.006 C 
ATOM      4  C   UNL     1      13.569 -31.800  21.300  1.00  0.00     0.047 C 
ATOM      5  C   UNL     1      14.653 -32.719  21.916  1.00  0.00     0.025 C 
ATOM      6  C   UNL     1      15.099 -33.883  21.029  1.00  0.00    -0.073 C 
ATOM      7  C   UNL     1      14.617 -34.117  19.793  1.00  0.00     0.008 C 
ATOM      8  C   UNL     1      16.111 -34.830  21.629  1.00  0.00     0.031 C 
ATOM      9  C   UNL     1      17.326 -34.054  22.145  1.00  0.00     0.005 C 
ATOM     10  C   UNL     1      16.909 -32.902  23.078  1.00  0.00     0.008 C 
ATOM     11  C   UNL     1      15.895 -31.920  22.419  1.00  0.00    -0.018 C 
ATOM     12  C   UNL     1      15.430 -30.913  23.500  1.00  0.00     0.088 C 
ATOM     13  C   UNL     1      14.300 -30.047  23.019  1.00  0.00     0.159 C 
ATOM     14  O   UNL     1      14.319 -28.820  23.303  1.00  0.00    -0.295 OA
ATOM     15  C   UNL     1      16.593 -31.149  21.265  1.00  0.00     0.012 C 
ATOM     16  C   UNL     1      11.533 -28.990  23.131  1.00  0.00     0.039 C 
ENDROOT
TORSDOF 0
ENDMDL
MODEL 4
REMARK VINA RESULT:    -6.408      2.809      4.189
REMARK INTER + INTRA:          -6.408
REMARK INTER:                  -6.408
REMARK INTRA:                   0.000
REMARK UNBOUND:                 0.000
REMARK SMILES C=C1CCC[C@]2(C)CC(=O)C(=C(C)C)C[C@@H]12
REMARK SMILES IDX 13 1 12 2 11 3 15 4 16 5 2 6 1 7 3 8 4 9 5 10 6 11 8 12 9 13
REMARK SMILES IDX 10 14 7 15 14 16
REMARK H PARENT
REMARK Flexibility Score: inf
ROOT
ATOM      1  C   UNL     1      19.293 -28.393  20.880  1.00  0.00     0.039 C 
ATOM      2  C   UNL     1      19.441 -29.857  21.228  1.00  0.00    -0.070 C 
ATOM      3  C   UNL     1      18.360 -30.612  21.589  1.00  0.00    -0.006 C 
ATOM      4  C   UNL     1      16.967 -30.003  21.676  1.00  0.00     0.047 C 
ATOM      5  C   UNL     1      16.077 -30.692  22.739  1.00  0.00     0.025 C 
ATOM      6  C   UNL     1      14.651 -30.149  22.844  1.00  0.00    -0.073 C 
ATOM      7  C   UNL     1      14.165 -29.154  22.077  1.00  0.00     0.008 C 
ATOM      8  C   UNL     1      13.779 -30.762  23.914  1.00  0.00     0.031 C 
ATOM      9  C   UNL     1      13.763 -32.287  23.778  1.00  0.00     0.005 C 
ATOM     10  C   UNL     1      15.187 -32.867  23.716  1.00  0.00     0.008 C 
ATOM     11  C   UNL     1      16.050 -32.244  22.579  1.00  0.00    -0.018 C 
ATOM     12  C   UNL     1      17.496 -32.781  22.723  1.00  0.00     0.088 C 
ATOM     13  C   UNL     1      18.453 -32.087  21.796  1.00  0.00     0.159 C 
ATOM     14  O   UNL     1      19.318 -32.778  21.195  1.00  0.00    -0.295 OA
ATOM     15  C   UNL     1      15.479 -32.672  21.198  1.00  0.00     0.012 C 
ATOM     16  C   UNL     1      20.838 -30.431  21.196  1.00  0.00     0.039 C 
ENDROOT
TORSDOF 0
ENDMDL
MODEL 5
REMARK VINA RESULT:    -6.401      1.489      4.885
REMARK INTER + INTRA:          -6.401
REMARK INTER:                  -6.401
REMARK INTRA:                   0.000
REMARK UNBOUND:                 0.000
REMARK SMILES C=C1CCC[C@]2(C)CC(=O)C(=C(C)C)C[C@@H]12
REMARK SMILES IDX 13 1 12 2 11 3 15 4 16 5 2 6 1 7 3 8 4 9 5 10 6 11 8 12 9 13
REMARK SMILES IDX 10 14 7 15 14 16
REMARK H PARENT
REMARK Flexibility Score: inf
ROOT
ATOM      1  C   UNL     1      13.135 -32.120  20.169  1.00  0.00     0.039 C 
ATOM      2  C   UNL     1      13.749 -32.118  21.551  1.00  0.00    -0.070 C 
ATOM      3  C   UNL     1      14.866 -32.854  21.831  1.00  0.00    -0.006 C 
ATOM      4  C   UNL     1      15.526 -33.722  20.768  1.00  0.00     0.047 C 
ATOM      5  C   UNL     1      16.226 -34.969  21.362  1.00  0.00     0.025 C 
ATOM      6  C   UNL     1      16.941 -35.859  20.343  1.00  0.00    -0.073 C 
ATOM      7  C   UNL     1      16.990 -35.604  19.022  1.00  0.00     0.008 C 
ATOM      8  C   UNL     1      17.581 -37.114  20.887  1.00  0.00     0.031 C 
ATOM      9  C   UNL     1      18.516 -36.774  22.051  1.00  0.00     0.005 C 
ATOM     10  C   UNL     1      17.809 -35.915  23.115  1.00  0.00     0.008 C 
ATOM     11  C   UNL     1      17.192 -34.608  22.532  1.00  0.00    -0.018 C 
ATOM     12  C   UNL     1      16.374 -33.921  23.654  1.00  0.00     0.088 C 
ATOM     13  C   UNL     1      15.575 -32.757  23.141  1.00  0.00     0.159 C 
ATOM     14  O   UNL     1      15.531 -31.705  23.832  1.00  0.00    -0.295 OA
ATOM     15  C   UNL     1      18.330 -33.656  22.070  1.00  0.00     0.012 C 
ATOM     16  C   UNL     1      13.048 -31.300  22.610  1.00  0.00     0.039 C 
ENDROOT
TORSDOF 0
ENDMDL
MODEL 6
REMARK VINA RESULT:    -6.373      1.957      2.597
REMARK INTER + INTRA:          -6.373
REMARK INTER:                  -6.373
REMARK INTRA:                   0.000
REMARK UNBOUND:                 0.000
REMARK SMILES C=C1CCC[C@]2(C)CC(=O)C(=C(C)C)C[C@@H]12
REMARK SMILES IDX 13 1 12 2 11 3 15 4 16 5 2 6 1 7 3 8 4 9 5 10 6 11 8 12 9 13
REMARK SMILES IDX 10 14 7 15 14 16
REMARK H PARENT
REMARK Flexibility Score: inf
ROOT
ATOM      1  C   UNL     1      16.293 -35.732  20.426  1.00  0.00     0.039 C 
ATOM      2  C   UNL     1      17.067 -34.456  20.175  1.00  0.00    -0.070 C 
ATOM      3  C   UNL     1      16.794 -33.314  20.874  1.00  0.00    -0.006 C 
ATOM      4  C   UNL     1      15.686 -33.273  21.918  1.00  0.00     0.047 C 
ATOM      5  C   UNL     1      15.035 -31.874  22.047  1.00  0.00     0.025 C 
ATOM      6  C   UNL     1      13.941 -31.762  23.110  1.00  0.00    -0.073 C 
ATOM      7  C   UNL     1      13.554 -32.780  23.903  1.00  0.00     0.008 C 
ATOM      8  C   UNL     1      13.247 -30.425  23.216  1.00  0.00     0.031 C 
ATOM      9  C   UNL     1      14.276 -29.303  23.385  1.00  0.00     0.005 C 
ATOM     10  C   UNL     1      15.366 -29.364  22.300  1.00  0.00     0.008 C 
ATOM     11  C   UNL     1      16.091 -30.742  22.240  1.00  0.00    -0.018 C 
ATOM     12  C   UNL     1      17.038 -30.734  21.014  1.00  0.00     0.088 C 
ATOM     13  C   UNL     1      17.635 -32.087  20.751  1.00  0.00     0.159 C 
ATOM     14  O   UNL     1      18.853 -32.158  20.441  1.00  0.00    -0.295 OA
ATOM     15  C   UNL     1      16.927 -30.946  23.534  1.00  0.00     0.012 C 
ATOM     16  C   UNL     1      18.121 -34.497  19.094  1.00  0.00     0.039 C 
ENDROOT
TORSDOF 0
ENDMDL
MODEL 7
REMARK VINA RESULT:    -6.365      2.657      5.934
REMARK INTER + INTRA:          -6.365
REMARK INTER:                  -6.365
REMARK INTRA:                   0.000
REMARK UNBOUND:                 0.000
REMARK SMILES C=C1CCC[C@]2(C)CC(=O)C(=C(C)C)C[C@@H]12
REMARK SMILES IDX 13 1 12 2 11 3 15 4 16 5 2 6 1 7 3 8 4 9 5 10 6 11 8 12 9 13
REMARK SMILES IDX 10 14 7 15 14 16
REMARK H PARENT
REMARK Flexibility Score: inf
ROOT
ATOM      1  C   UNL     1      13.097 -27.736  24.285  1.00  0.00     0.039 C 
ATOM      2  C   UNL     1      12.456 -28.685  23.297  1.00  0.00    -0.070 C 
ATOM      3  C   UNL     1      13.110 -29.806  22.867  1.00  0.00    -0.006 C 
ATOM      4  C   UNL     1      14.517 -30.133  23.349  1.00  0.00     0.047 C 
ATOM      5  C   UNL     1      15.344 -30.912  22.297  1.00  0.00     0.025 C 
ATOM      6  C   UNL     1      16.755 -31.303  22.741  1.00  0.00    -0.073 C 
ATOM      7  C   UNL     1      17.271 -31.019  23.952  1.00  0.00     0.008 C 
ATOM      8  C   UNL     1      17.606 -32.011  21.713  1.00  0.00     0.031 C 
ATOM      9  C   UNL     1      16.863 -33.227  21.154  1.00  0.00     0.005 C 
ATOM     10  C   UNL     1      15.455 -32.855  20.658  1.00  0.00     0.008 C 
ATOM     11  C   UNL     1      14.587 -32.161  21.750  1.00  0.00    -0.018 C 
ATOM     12  C   UNL     1      13.268 -31.690  21.089  1.00  0.00     0.088 C 
ATOM     13  C   UNL     1      12.447 -30.833  22.010  1.00  0.00     0.159 C 
ATOM     14  O   UNL     1      11.201 -31.012  22.048  1.00  0.00    -0.295 OA
ATOM     15  C   UNL     1      14.261 -33.179  22.878  1.00  0.00     0.012 C 
ATOM     16  C   UNL     1      11.085 -28.316  22.783  1.00  0.00     0.039 C 
ENDROOT
TORSDOF 0
ENDMDL
MODEL 8
REMARK VINA RESULT:    -6.335      1.902      2.744
REMARK INTER + INTRA:          -6.335
REMARK INTER:                  -6.335
REMARK INTRA:                   0.000
REMARK UNBOUND:                 0.000
REMARK SMILES C=C1CCC[C@]2(C)CC(=O)C(=C(C)C)C[C@@H]12
REMARK SMILES IDX 13 1 12 2 11 3 15 4 16 5 2 6 1 7 3 8 4 9 5 10 6 11 8 12 9 13
REMARK SMILES IDX 10 14 7 15 14 16
REMARK H PARENT
REMARK Flexibility Score: inf
ROOT
ATOM      1  C   UNL     1      19.936 -31.923  21.222  1.00  0.00     0.039 C 
ATOM      2  C   UNL     1      19.088 -33.063  21.744  1.00  0.00    -0.070 C 
ATOM      3  C   UNL     1      17.749 -32.904  21.967  1.00  0.00    -0.006 C 
ATOM      4  C   UNL     1      17.061 -31.569  21.720  1.00  0.00     0.047 C 
ATOM      5  C   UNL     1      15.852 -31.336  22.658  1.00  0.00     0.025 C 
ATOM      6  C   UNL     1      15.095 -30.026  22.429  1.00  0.00    -0.073 C 
ATOM      7  C   UNL     1      15.419 -29.123  21.484  1.00  0.00     0.008 C 
ATOM      8  C   UNL     1      13.948 -29.745  23.370  1.00  0.00     0.031 C 
ATOM      9  C   UNL     1      12.976 -30.928  23.394  1.00  0.00     0.005 C 
ATOM     10  C   UNL     1      13.704 -32.255  23.668  1.00  0.00     0.008 C 
ATOM     11  C   UNL     1      14.857 -32.538  22.659  1.00  0.00    -0.018 C 
ATOM     12  C   UNL     1      15.613 -33.804  23.134  1.00  0.00     0.088 C 
ATOM     13  C   UNL     1      16.865 -34.047  22.341  1.00  0.00     0.159 C 
ATOM     14  O   UNL     1      17.138 -35.227  21.992  1.00  0.00    -0.295 OA
ATOM     15  C   UNL     1      14.261 -32.795  21.247  1.00  0.00     0.012 C 
ATOM     16  C   UNL     1      19.798 -34.363  22.041  1.00  0.00     0.039 C 
ENDROOT
TORSDOF 0
ENDMDL
MODEL 9
REMARK VINA RESULT:    -6.214      2.040      5.080
REMARK INTER + INTRA:          -6.214
REMARK INTER:                  -6.214
REMARK INTRA:                   0.000
REMARK UNBOUND:                 0.000
REMARK SMILES C=C1CCC[C@]2(C)CC(=O)C(=C(C)C)C[C@@H]12
REMARK SMILES IDX 13 1 12 2 11 3 15 4 16 5 2 6 1 7 3 8 4 9 5 10 6 11 8 12 9 13
REMARK SMILES IDX 10 14 7 15 14 16
REMARK H PARENT
REMARK Flexibility Score: inf
ROOT
ATOM      1  C   UNL     1      14.695 -28.768  22.281  1.00  0.00     0.039 C 
ATOM      2  C   UNL     1      14.136 -30.082  22.781  1.00  0.00    -0.070 C 
ATOM      3  C   UNL     1      14.873 -31.232  22.724  1.00  0.00    -0.006 C 
ATOM      4  C   UNL     1      16.277 -31.241  22.136  1.00  0.00     0.047 C 
ATOM      5  C   UNL     1      16.644 -32.596  21.482  1.00  0.00     0.025 C 
ATOM      6  C   UNL     1      18.060 -32.678  20.908  1.00  0.00    -0.073 C 
ATOM      7  C   UNL     1      18.953 -31.672  20.959  1.00  0.00     0.008 C 
ATOM      8  C   UNL     1      18.424 -33.968  20.212  1.00  0.00     0.031 C 
ATOM      9  C   UNL     1      18.147 -35.164  21.126  1.00  0.00     0.005 C 
ATOM     10  C   UNL     1      16.713 -35.132  21.684  1.00  0.00     0.008 C 
ATOM     11  C   UNL     1      16.378 -33.806  22.430  1.00  0.00    -0.018 C 
ATOM     12  C   UNL     1      14.872 -33.827  22.795  1.00  0.00     0.088 C 
ATOM     13  C   UNL     1      14.404 -32.508  23.341  1.00  0.00     0.159 C 
ATOM     14  O   UNL     1      13.624 -32.508  24.330  1.00  0.00    -0.295 OA
ATOM     15  C   UNL     1      17.220 -33.716  23.734  1.00  0.00     0.012 C 
ATOM     16  C   UNL     1      12.720 -30.068  23.306  1.00  0.00     0.039 C 
ENDROOT
TORSDOF 0
ENDMDL
