MODEL 1
REMARK VINA RESULT:    -4.218      0.000      0.000
REMARK INTER + INTRA:          -9.900
REMARK INTER:                  -7.671
REMARK INTRA:                  -2.229
REMARK UNBOUND:                -2.229
REMARK SMILES CCCCCCCCCCCCCCCC(=O)[O-]
REMARK SMILES IDX 9 1 10 2 11 3 12 4 13 5 14 6 15 7 16 8 17 9 18 10 8 11 7 12
REMARK SMILES IDX 6 13 5 14 4 15 3 16 2 17 1 18
REMARK H PARENT
REMARK Flexibility Score: inf
ROOT
ATOM      1  C   UNL     1     -15.484  44.632  33.960  1.00  0.00     0.000 C 
ENDROOT
BRANCH   1   2
ATOM      2  C   UNL     1     -15.457  43.093  34.068  1.00  0.00     0.000 C 
BRANCH   2   3
ATOM      3  C   UNL     1     -16.840  42.418  34.138  1.00  0.00     0.000 C 
BRANCH   3   4
ATOM      4  C   UNL     1     -17.111  41.386  33.027  1.00  0.00     0.000 C 
BRANCH   4   5
ATOM      5  C   UNL     1     -16.031  41.362  31.925  1.00  0.00     0.000 C 
BRANCH   5   6
ATOM      6  C   UNL     1     -16.481  40.581  30.677  1.00  0.00     0.006 C 
BRANCH   6   7
ATOM      7  C   UNL     1     -16.576  39.073  30.938  1.00  0.00     0.053 C 
BRANCH   7   8
ATOM      8  C   UNL     1     -15.828  38.281  29.909  1.00  0.00     0.041 C 
ATOM      9  O   UNL     1     -16.404  37.914  28.851  1.00  0.00    -0.550 OA
ATOM     10  O   UNL     1     -14.487  37.977  30.104  1.00  0.00    -0.550 OA
ENDBRANCH   7   8
ENDBRANCH   6   7
ENDBRANCH   5   6
ENDBRANCH   4   5
ENDBRANCH   3   4
ENDBRANCH   2   3
ENDBRANCH   1   2
BRANCH   1  11
ATOM     11  C   UNL     1     -14.102  45.309  33.935  1.00  0.00     0.000 C 
BRANCH  11  12
ATOM     12  C   UNL     1     -12.995  44.392  33.395  1.00  0.00    -0.000 C 
BRANCH  12  13
ATOM     13  C   UNL     1     -12.764  44.633  31.899  1.00  0.00    -0.000 C 
BRANCH  13  14
ATOM     14  C   UNL     1     -13.050  43.365  31.086  1.00  0.00    -0.000 C 
BRANCH  14  15
ATOM     15  C   UNL     1     -14.091  43.633  29.993  1.00  0.00    -0.000 C 
BRANCH  15  16
ATOM     16  C   UNL     1     -14.932  44.871  30.323  1.00  0.00    -0.000 C 
BRANCH  16  17
ATOM     17  C   UNL     1     -16.360  44.726  29.785  1.00  0.00    -0.003 C 
ATOM     18  C   UNL     1     -17.370  44.617  30.924  1.00  0.00     0.004 C 
ENDBRANCH  16  17
ENDBRANCH  15  16
ENDBRANCH  14  15
ENDBRANCH  13  14
ENDBRANCH  12  13
ENDBRANCH  11  12
ENDBRANCH   1  11
TORSDOF 14
ENDMDL
MODEL 2
REMARK VINA RESULT:    -4.196      1.739      3.586
REMARK INTER + INTRA:          -9.860
REMARK INTER:                  -7.629
REMARK INTRA:                  -2.231
REMARK UNBOUND:                -2.229
REMARK SMILES CCCCCCCCCCCCCCCC(=O)[O-]
REMARK SMILES IDX 9 1 10 2 11 3 12 4 13 5 14 6 15 7 16 8 17 9 18 10 8 11 7 12
REMARK SMILES IDX 6 13 5 14 4 15 3 16 2 17 1 18
REMARK H PARENT
REMARK Flexibility Score: inf
ROOT
ATOM      1  C   UNL     1     -17.522  44.255  33.081  1.00  0.00     0.000 C 
ENDROOT
BRANCH   1   2
ATOM      2  C   UNL     1     -17.887  44.076  31.593  1.00  0.00     0.000 C 
BRANCH   2   3
ATOM      3  C   UNL     1     -17.056  44.922  30.610  1.00  0.00     0.000 C 
BRANCH   3   4
ATOM      4  C   UNL     1     -16.370  44.120  29.488  1.00  0.00     0.000 C 
BRANCH   4   5
ATOM      5  C   UNL     1     -15.358  43.074  30.002  1.00  0.00     0.000 C 
BRANCH   5   6
ATOM      6  C   UNL     1     -15.870  41.632  29.843  1.00  0.00     0.006 C 
BRANCH   6   7
ATOM      7  C   UNL     1     -15.750  40.826  31.143  1.00  0.00     0.053 C 
BRANCH   7   8
ATOM      8  C   UNL     1     -16.882  39.858  31.304  1.00  0.00     0.041 C 
ATOM      9  O   UNL     1     -17.931  40.205  31.909  1.00  0.00    -0.550 OA
ATOM     10  O   UNL     1     -16.791  38.583  30.760  1.00  0.00    -0.550 OA
ENDBRANCH   7   8
ENDBRANCH   6   7
ENDBRANCH   5   6
ENDBRANCH   4   5
ENDBRANCH   3   4
ENDBRANCH   2   3
ENDBRANCH   1   2
BRANCH   1  11
ATOM     11  C   UNL     1     -16.466  43.271  33.618  1.00  0.00     0.000 C 
BRANCH  11  12
ATOM     12  C   UNL     1     -15.255  43.976  34.245  1.00  0.00    -0.000 C 
BRANCH  12  13
ATOM     13  C   UNL     1     -14.501  44.806  33.200  1.00  0.00    -0.000 C 
BRANCH  13  14
ATOM     14  C   UNL     1     -12.993  44.539  33.267  1.00  0.00    -0.000 C 
BRANCH  14  15
ATOM     15  C   UNL     1     -12.565  43.514  32.210  1.00  0.00    -0.000 C 
BRANCH  15  16
ATOM     16  C   UNL     1     -12.686  42.084  32.747  1.00  0.00    -0.000 C 
BRANCH  16  17
ATOM     17  C   UNL     1     -11.902  41.099  31.872  1.00  0.00    -0.003 C 
ATOM     18  C   UNL     1     -11.546  41.720  30.525  1.00  0.00     0.004 C 
ENDBRANCH  16  17
ENDBRANCH  15  16
ENDBRANCH  14  15
ENDBRANCH  13  14
ENDBRANCH  12  13
ENDBRANCH  11  12
ENDBRANCH   1  11
TORSDOF 14
ENDMDL
MODEL 3
REMARK VINA RESULT:    -4.143      1.820      3.235
REMARK INTER + INTRA:          -9.762
REMARK INTER:                  -7.788
REMARK INTRA:                  -1.975
REMARK UNBOUND:                -2.229
REMARK SMILES CCCCCCCCCCCCCCCC(=O)[O-]
REMARK SMILES IDX 9 1 10 2 11 3 12 4 13 5 14 6 15 7 16 8 17 9 18 10 8 11 7 12
REMARK SMILES IDX 6 13 5 14 4 15 3 16 2 17 1 18
REMARK H PARENT
REMARK Flexibility Score: inf
ROOT
ATOM      1  C   UNL     1     -17.545  44.490  31.619  1.00  0.00     0.000 C 
ENDROOT
BRANCH   1   2
ATOM      2  C   UNL     1     -17.859  44.440  33.129  1.00  0.00     0.000 C 
BRANCH   2   3
ATOM      3  C   UNL     1     -19.226  43.830  33.493  1.00  0.00     0.000 C 
BRANCH   3   4
ATOM      4  C   UNL     1     -19.216  42.305  33.709  1.00  0.00     0.000 C 
BRANCH   4   5
ATOM      5  C   UNL     1     -17.902  41.773  34.320  1.00  0.00     0.000 C 
BRANCH   5   6
ATOM      6  C   UNL     1     -17.328  40.582  33.534  1.00  0.00     0.006 C 
BRANCH   6   7
ATOM      7  C   UNL     1     -17.727  40.615  32.053  1.00  0.00     0.053 C 
BRANCH   7   8
ATOM      8  C   UNL     1     -16.868  39.712  31.224  1.00  0.00     0.041 C 
ATOM      9  O   UNL     1     -17.068  38.468  31.227  1.00  0.00    -0.550 OA
ATOM     10  O   UNL     1     -15.867  40.246  30.422  1.00  0.00    -0.550 OA
ENDBRANCH   7   8
ENDBRANCH   6   7
ENDBRANCH   5   6
ENDBRANCH   4   5
ENDBRANCH   3   4
ENDBRANCH   2   3
ENDBRANCH   1   2
BRANCH   1  11
ATOM     11  C   UNL     1     -16.153  43.966  31.223  1.00  0.00     0.000 C 
BRANCH  11  12
ATOM     12  C   UNL     1     -15.108  44.143  32.334  1.00  0.00    -0.000 C 
BRANCH  12  13
ATOM     13  C   UNL     1     -14.603  42.785  32.834  1.00  0.00    -0.000 C 
BRANCH  13  14
ATOM     14  C   UNL     1     -13.095  42.824  33.107  1.00  0.00    -0.000 C 
BRANCH  14  15
ATOM     15  C   UNL     1     -12.498  44.183  32.721  1.00  0.00    -0.000 C 
BRANCH  15  16
ATOM     16  C   UNL     1     -11.141  44.014  32.030  1.00  0.00    -0.000 C 
BRANCH  16  17
ATOM     17  C   UNL     1     -11.074  44.839  30.740  1.00  0.00    -0.003 C 
ATOM     18  C   UNL     1     -12.335  44.657  29.901  1.00  0.00     0.004 C 
ENDBRANCH  16  17
ENDBRANCH  15  16
ENDBRANCH  14  15
ENDBRANCH  13  14
ENDBRANCH  12  13
ENDBRANCH  11  12
ENDBRANCH   1  11
TORSDOF 14
ENDMDL
MODEL 4
REMARK VINA RESULT:    -4.123      1.060      3.053
REMARK INTER + INTRA:          -9.726
REMARK INTER:                  -7.441
REMARK INTRA:                  -2.285
REMARK UNBOUND:                -2.229
REMARK SMILES CCCCCCCCCCCCCCCC(=O)[O-]
REMARK SMILES IDX 9 1 10 2 11 3 12 4 13 5 14 6 15 7 16 8 17 9 18 10 8 11 7 12
REMARK SMILES IDX 6 13 5 14 4 15 3 16 2 17 1 18
REMARK H PARENT
REMARK Flexibility Score: inf
ROOT
ATOM      1  C   UNL     1     -12.777  44.515  32.488  1.00  0.00     0.000 C 
ENDROOT
BRANCH   1   2
ATOM      2  C   UNL     1     -13.712  44.384  31.268  1.00  0.00     0.000 C 
BRANCH   2   3
ATOM      3  C   UNL     1     -13.009  44.060  29.936  1.00  0.00     0.000 C 
BRANCH   3   4
ATOM      4  C   UNL     1     -13.537  42.805  29.216  1.00  0.00     0.000 C 
BRANCH   4   5
ATOM      5  C   UNL     1     -14.027  41.699  30.175  1.00  0.00     0.000 C 
BRANCH   5   6
ATOM      6  C   UNL     1     -15.449  41.216  29.837  1.00  0.00     0.006 C 
BRANCH   6   7
ATOM      7  C   UNL     1     -15.937  40.127  30.801  1.00  0.00     0.053 C 
BRANCH   7   8
ATOM      8  C   UNL     1     -15.757  38.755  30.228  1.00  0.00     0.041 C 
ATOM      9  O   UNL     1     -16.740  38.140  29.734  1.00  0.00    -0.550 OA
ATOM     10  O   UNL     1     -14.499  38.167  30.211  1.00  0.00    -0.550 OA
ENDBRANCH   7   8
ENDBRANCH   6   7
ENDBRANCH   5   6
ENDBRANCH   4   5
ENDBRANCH   3   4
ENDBRANCH   2   3
ENDBRANCH   1   2
BRANCH   1  11
ATOM     11  C   UNL     1     -13.466  44.941  33.797  1.00  0.00     0.000 C 
BRANCH  11  12
ATOM     12  C   UNL     1     -14.997  44.842  33.728  1.00  0.00    -0.000 C 
BRANCH  12  13
ATOM     13  C   UNL     1     -15.484  43.489  34.257  1.00  0.00    -0.000 C 
BRANCH  13  14
ATOM     14  C   UNL     1     -16.513  42.864  33.309  1.00  0.00    -0.000 C 
BRANCH  14  15
ATOM     15  C   UNL     1     -17.447  43.931  32.726  1.00  0.00    -0.000 C 
BRANCH  15  16
ATOM     16  C   UNL     1     -17.567  43.787  31.205  1.00  0.00    -0.000 C 
BRANCH  16  17
ATOM     17  C   UNL     1     -17.107  45.064  30.493  1.00  0.00    -0.003 C 
ATOM     18  C   UNL     1     -16.724  44.780  29.044  1.00  0.00     0.004 C 
ENDBRANCH  16  17
ENDBRANCH  15  16
ENDBRANCH  14  15
ENDBRANCH  13  14
ENDBRANCH  12  13
ENDBRANCH  11  12
ENDBRANCH   1  11
TORSDOF 14
ENDMDL
MODEL 5
REMARK VINA RESULT:    -4.113      3.037      5.162
REMARK INTER + INTRA:          -9.709
REMARK INTER:                  -7.489
REMARK INTRA:                  -2.220
REMARK UNBOUND:                -2.229
REMARK SMILES CCCCCCCCCCCCCCCC(=O)[O-]
REMARK SMILES IDX 9 1 10 2 11 3 12 4 13 5 14 6 15 7 16 8 17 9 18 10 8 11 7 12
REMARK SMILES IDX 6 13 5 14 4 15 3 16 2 17 1 18
REMARK H PARENT
REMARK Flexibility Score: inf
ROOT
ATOM      1  C   UNL     1     -12.973  44.566  30.766  1.00  0.00     0.000 C 
ENDROOT
BRANCH   1   2
ATOM      2  C   UNL     1     -12.639  44.572  32.273  1.00  0.00     0.000 C 
BRANCH   2   3
ATOM      3  C   UNL     1     -13.796  44.998  33.197  1.00  0.00     0.000 C 
BRANCH   3   4
ATOM      4  C   UNL     1     -14.247  43.923  34.203  1.00  0.00     0.000 C 
BRANCH   4   5
ATOM      5  C   UNL     1     -15.669  43.383  33.939  1.00  0.00     0.000 C 
BRANCH   5   6
ATOM      6  C   UNL     1     -16.638  44.484  33.473  1.00  0.00     0.006 C 
BRANCH   6   7
ATOM      7  C   UNL     1     -17.614  43.983  32.400  1.00  0.00     0.053 C 
BRANCH   7   8
ATOM      8  C   UNL     1     -18.513  42.906  32.924  1.00  0.00     0.041 C 
ATOM      9  O   UNL     1     -19.434  43.188  33.737  1.00  0.00    -0.550 OA
ATOM     10  O   UNL     1     -18.356  41.596  32.490  1.00  0.00    -0.550 OA
ENDBRANCH   7   8
ENDBRANCH   6   7
ENDBRANCH   5   6
ENDBRANCH   4   5
ENDBRANCH   3   4
ENDBRANCH   2   3
ENDBRANCH   1   2
BRANCH   1  11
ATOM     11  C   UNL     1     -14.462  44.369  30.428  1.00  0.00     0.000 C 
BRANCH  11  12
ATOM     12  C   UNL     1     -14.753  43.013  29.769  1.00  0.00    -0.000 C 
BRANCH  12  13
ATOM     13  C   UNL     1     -14.908  41.912  30.824  1.00  0.00    -0.000 C 
BRANCH  13  14
ATOM     14  C   UNL     1     -13.867  40.805  30.622  1.00  0.00    -0.000 C 
BRANCH  14  15
ATOM     15  C   UNL     1     -12.732  40.920  31.646  1.00  0.00    -0.000 C 
BRANCH  15  16
ATOM     16  C   UNL     1     -11.418  41.328  30.970  1.00  0.00    -0.000 C 
BRANCH  16  17
ATOM     17  C   UNL     1     -10.285  40.363  31.340  1.00  0.00    -0.003 C 
ATOM     18  C   UNL     1      -9.548  40.833  32.590  1.00  0.00     0.004 C 
ENDBRANCH  16  17
ENDBRANCH  15  16
ENDBRANCH  14  15
ENDBRANCH  13  14
ENDBRANCH  12  13
ENDBRANCH  11  12
ENDBRANCH   1  11
TORSDOF 14
ENDMDL
MODEL 6
REMARK VINA RESULT:    -4.094      1.298      3.927
REMARK INTER + INTRA:          -9.673
REMARK INTER:                  -7.419
REMARK INTRA:                  -2.254
REMARK UNBOUND:                -2.229
REMARK SMILES CCCCCCCCCCCCCCCC(=O)[O-]
REMARK SMILES IDX 9 1 10 2 11 3 12 4 13 5 14 6 15 7 16 8 17 9 18 10 8 11 7 12
REMARK SMILES IDX 6 13 5 14 4 15 3 16 2 17 1 18
REMARK H PARENT
REMARK Flexibility Score: inf
ROOT
ATOM      1  C   UNL     1     -17.458  44.910  31.113  1.00  0.00     0.000 C 
ENDROOT
BRANCH   1   2
ATOM      2  C   UNL     1     -16.580  44.890  29.845  1.00  0.00     0.000 C 
BRANCH   2   3
ATOM      3  C   UNL     1     -16.123  43.493  29.387  1.00  0.00     0.000 C 
BRANCH   3   4
ATOM      4  C   UNL     1     -14.627  43.200  29.602  1.00  0.00     0.000 C 
BRANCH   4   5
ATOM      5  C   UNL     1     -14.244  41.722  29.371  1.00  0.00     0.000 C 
BRANCH   5   6
ATOM      6  C   UNL     1     -15.470  40.793  29.349  1.00  0.00     0.006 C 
BRANCH   6   7
ATOM      7  C   UNL     1     -15.356  39.656  30.373  1.00  0.00     0.053 C 
BRANCH   7   8
ATOM      8  C   UNL     1     -16.338  38.559  30.099  1.00  0.00     0.041 C 
ATOM      9  O   UNL     1     -16.379  38.015  28.963  1.00  0.00    -0.550 OA
ATOM     10  O   UNL     1     -17.186  38.115  31.105  1.00  0.00    -0.550 OA
ENDBRANCH   7   8
ENDBRANCH   6   7
ENDBRANCH   5   6
ENDBRANCH   4   5
ENDBRANCH   3   4
ENDBRANCH   2   3
ENDBRANCH   1   2
BRANCH   1  11
ATOM     11  C   UNL     1     -18.184  43.588  31.426  1.00  0.00     0.000 C 
BRANCH  11  12
ATOM     12  C   UNL     1     -18.667  43.499  32.880  1.00  0.00    -0.000 C 
BRANCH  12  13
ATOM     13  C   UNL     1     -17.751  42.593  33.709  1.00  0.00    -0.000 C 
BRANCH  13  14
ATOM     14  C   UNL     1     -16.680  41.937  32.829  1.00  0.00    -0.000 C 
BRANCH  14  15
ATOM     15  C   UNL     1     -15.300  42.556  33.083  1.00  0.00    -0.000 C 
BRANCH  15  16
ATOM     16  C   UNL     1     -15.366  43.615  34.189  1.00  0.00    -0.000 C 
BRANCH  16  17
ATOM     17  C   UNL     1     -14.865  44.973  33.682  1.00  0.00    -0.003 C 
ATOM     18  C   UNL     1     -13.585  44.819  32.867  1.00  0.00     0.004 C 
ENDBRANCH  16  17
ENDBRANCH  15  16
ENDBRANCH  14  15
ENDBRANCH  13  14
ENDBRANCH  12  13
ENDBRANCH  11  12
ENDBRANCH   1  11
TORSDOF 14
ENDMDL
MODEL 7
REMARK VINA RESULT:    -4.089      1.538      4.264
REMARK INTER + INTRA:          -9.664
REMARK INTER:                  -7.346
REMARK INTRA:                  -2.318
REMARK UNBOUND:                -2.229
REMARK SMILES CCCCCCCCCCCCCCCC(=O)[O-]
REMARK SMILES IDX 9 1 10 2 11 3 12 4 13 5 14 6 15 7 16 8 17 9 18 10 8 11 7 12
REMARK SMILES IDX 6 13 5 14 4 15 3 16 2 17 1 18
REMARK H PARENT
REMARK Flexibility Score: inf
ROOT
ATOM      1  C   UNL     1     -14.688  43.915  33.744  1.00  0.00     0.000 C 
ENDROOT
BRANCH   1   2
ATOM      2  C   UNL     1     -13.495  44.814  33.359  1.00  0.00     0.000 C 
BRANCH   2   3
ATOM      3  C   UNL     1     -12.606  44.270  32.225  1.00  0.00     0.000 C 
BRANCH   3   4
ATOM      4  C   UNL     1     -13.096  44.603  30.803  1.00  0.00     0.000 C 
BRANCH   4   5
ATOM      5  C   UNL     1     -13.570  43.369  30.006  1.00  0.00     0.000 C 
BRANCH   5   6
ATOM      6  C   UNL     1     -13.261  42.047  30.730  1.00  0.00     0.006 C 
BRANCH   6   7
ATOM      7  C   UNL     1     -14.536  41.283  31.113  1.00  0.00     0.053 C 
BRANCH   7   8
ATOM      8  C   UNL     1     -14.808  40.147  30.176  1.00  0.00     0.041 C 
ATOM      9  O   UNL     1     -15.685  40.261  29.280  1.00  0.00    -0.550 OA
ATOM     10  O   UNL     1     -14.071  38.974  30.272  1.00  0.00    -0.550 OA
ENDBRANCH   7   8
ENDBRANCH   6   7
ENDBRANCH   5   6
ENDBRANCH   4   5
ENDBRANCH   3   4
ENDBRANCH   2   3
ENDBRANCH   1   2
BRANCH   1  11
ATOM     11  C   UNL     1     -16.077  44.528  33.489  1.00  0.00     0.000 C 
BRANCH  11  12
ATOM     12  C   UNL     1     -16.552  44.353  32.040  1.00  0.00    -0.000 C 
BRANCH  12  13
ATOM     13  C   UNL     1     -18.048  44.025  31.988  1.00  0.00    -0.000 C 
BRANCH  13  14
ATOM     14  C   UNL     1     -18.619  43.827  33.397  1.00  0.00    -0.000 C 
BRANCH  14  15
ATOM     15  C   UNL     1     -19.099  42.385  33.600  1.00  0.00    -0.000 C 
BRANCH  15  16
ATOM     16  C   UNL     1     -18.133  41.604  34.498  1.00  0.00    -0.000 C 
BRANCH  16  17
ATOM     17  C   UNL     1     -17.207  40.710  33.666  1.00  0.00    -0.003 C 
ATOM     18  C   UNL     1     -17.874  40.289  32.360  1.00  0.00     0.004 C 
ENDBRANCH  16  17
ENDBRANCH  15  16
ENDBRANCH  14  15
ENDBRANCH  13  14
ENDBRANCH  12  13
ENDBRANCH  11  12
ENDBRANCH   1  11
TORSDOF 14
ENDMDL
MODEL 8
REMARK VINA RESULT:    -4.066      2.274      3.676
REMARK INTER + INTRA:          -9.623
REMARK INTER:                  -7.257
REMARK INTRA:                  -2.367
REMARK UNBOUND:                -2.229
REMARK SMILES CCCCCCCCCCCCCCCC(=O)[O-]
REMARK SMILES IDX 9 1 10 2 11 3 12 4 13 5 14 6 15 7 16 8 17 9 18 10 8 11 7 12
REMARK SMILES IDX 6 13 5 14 4 15 3 16 2 17 1 18
REMARK H PARENT
REMARK Flexibility Score: inf
ROOT
ATOM      1  C   UNL     1     -16.539  44.372  32.121  1.00  0.00     0.000 C 
ENDROOT
BRANCH   1   2
ATOM      2  C   UNL     1     -15.661  44.849  30.945  1.00  0.00     0.000 C 
BRANCH   2   3
ATOM      3  C   UNL     1     -15.830  44.052  29.637  1.00  0.00     0.000 C 
BRANCH   3   4
ATOM      4  C   UNL     1     -15.094  42.700  29.605  1.00  0.00     0.000 C 
BRANCH   4   5
ATOM      5  C   UNL     1     -16.015  41.486  29.856  1.00  0.00     0.000 C 
BRANCH   5   6
ATOM      6  C   UNL     1     -15.713  40.786  31.193  1.00  0.00     0.006 C 
BRANCH   6   7
ATOM      7  C   UNL     1     -16.913  39.981  31.710  1.00  0.00     0.053 C 
BRANCH   7   8
ATOM      8  C   UNL     1     -17.586  40.663  32.862  1.00  0.00     0.041 C 
ATOM      9  O   UNL     1     -18.518  41.484  32.656  1.00  0.00    -0.550 OA
ATOM     10  O   UNL     1     -17.205  40.367  34.165  1.00  0.00    -0.550 OA
ENDBRANCH   7   8
ENDBRANCH   6   7
ENDBRANCH   5   6
ENDBRANCH   4   5
ENDBRANCH   3   4
ENDBRANCH   2   3
ENDBRANCH   1   2
BRANCH   1  11
ATOM     11  C   UNL     1     -15.764  43.873  33.354  1.00  0.00     0.000 C 
BRANCH  11  12
ATOM     12  C   UNL     1     -14.741  44.894  33.872  1.00  0.00    -0.000 C 
BRANCH  12  13
ATOM     13  C   UNL     1     -13.330  44.296  33.892  1.00  0.00    -0.000 C 
BRANCH  13  14
ATOM     14  C   UNL     1     -13.252  43.035  33.023  1.00  0.00    -0.000 C 
BRANCH  14  15
ATOM     15  C   UNL     1     -12.132  43.149  31.982  1.00  0.00    -0.000 C 
BRANCH  15  16
ATOM     16  C   UNL     1     -12.008  44.584  31.460  1.00  0.00    -0.000 C 
BRANCH  16  17
ATOM     17  C   UNL     1     -12.048  44.619  29.928  1.00  0.00    -0.003 C 
ATOM     18  C   UNL     1     -10.871  45.408  29.363  1.00  0.00     0.004 C 
ENDBRANCH  16  17
ENDBRANCH  15  16
ENDBRANCH  14  15
ENDBRANCH  13  14
ENDBRANCH  12  13
ENDBRANCH  11  12
ENDBRANCH   1  11
TORSDOF 14
ENDMDL
MODEL 9
REMARK VINA RESULT:    -4.050      3.017      5.498
REMARK INTER + INTRA:          -9.594
REMARK INTER:                  -7.367
REMARK INTRA:                  -2.227
REMARK UNBOUND:                -2.229
REMARK SMILES CCCCCCCCCCCCCCCC(=O)[O-]
REMARK SMILES IDX 9 1 10 2 11 3 12 4 13 5 14 6 15 7 16 8 17 9 18 10 8 11 7 12
REMARK SMILES IDX 6 13 5 14 4 15 3 16 2 17 1 18
REMARK H PARENT
REMARK Flexibility Score: inf
ROOT
ATOM      1  C   UNL     1     -16.602  39.842  31.227  1.00  0.00     0.000 C 
ENDROOT
BRANCH   1   2
ATOM      2  C   UNL     1     -15.931  41.107  30.653  1.00  0.00     0.000 C 
BRANCH   2   3
ATOM      3  C   UNL     1     -14.523  41.407  31.201  1.00  0.00     0.000 C 
BRANCH   3   4
ATOM      4  C   UNL     1     -13.396  41.348  30.153  1.00  0.00     0.000 C 
BRANCH   4   5
ATOM      5  C   UNL     1     -13.358  42.573  29.214  1.00  0.00     0.000 C 
BRANCH   5   6
ATOM      6  C   UNL     1     -12.279  43.592  29.621  1.00  0.00     0.006 C 
BRANCH   6   7
ATOM      7  C   UNL     1     -12.805  44.626  30.625  1.00  0.00     0.053 C 
BRANCH   7   8
ATOM      8  C   UNL     1     -12.223  44.423  31.990  1.00  0.00     0.041 C 
ATOM      9  O   UNL     1     -11.069  43.936  32.121  1.00  0.00    -0.550 OA
ATOM     10  O   UNL     1     -12.942  44.802  33.116  1.00  0.00    -0.550 OA
ENDBRANCH   7   8
ENDBRANCH   6   7
ENDBRANCH   5   6
ENDBRANCH   4   5
ENDBRANCH   3   4
ENDBRANCH   2   3
ENDBRANCH   1   2
BRANCH   1  11
ATOM     11  C   UNL     1     -17.870  40.097  32.063  1.00  0.00     0.000 C 
BRANCH  11  12
ATOM     12  C   UNL     1     -17.679  41.190  33.124  1.00  0.00    -0.000 C 
BRANCH  12  13
ATOM     13  C   UNL     1     -18.878  42.143  33.153  1.00  0.00    -0.000 C 
BRANCH  13  14
ATOM     14  C   UNL     1     -18.463  43.564  32.755  1.00  0.00    -0.000 C 
BRANCH  14  15
ATOM     15  C   UNL     1     -17.005  43.842  33.138  1.00  0.00    -0.000 C 
BRANCH  15  16
ATOM     16  C   UNL     1     -16.251  44.519  31.988  1.00  0.00    -0.000 C 
BRANCH  16  17
ATOM     17  C   UNL     1     -17.192  44.819  30.815  1.00  0.00    -0.003 C 
ATOM     18  C   UNL     1     -16.485  44.624  29.478  1.00  0.00     0.004 C 
ENDBRANCH  16  17
ENDBRANCH  15  16
ENDBRANCH  14  15
ENDBRANCH  13  14
ENDBRANCH  12  13
ENDBRANCH  11  12
ENDBRANCH   1  11
TORSDOF 14
ENDMDL
