MODEL 1
REMARK VINA RESULT:    -3.053      0.000      0.000
REMARK INTER + INTRA:          -4.813
REMARK INTER:                  -4.659
REMARK INTRA:                  -0.154
REMARK UNBOUND:                -0.154
REMARK SMILES CC1=CCC[C@H](C)C(=O)C[C@H](C(C)C)C(=O)C1
REMARK SMILES IDX 8 1 9 2 6 3 7 4 5 5 4 6 3 7 2 8 1 9 10 11 11 12 15 13 16 14
REMARK SMILES IDX 17 15 12 17 13 18 14 19
REMARK H PARENT
REMARK Flexibility Score: 70.00
ROOT
ATOM      1  C   UNL     1      24.669  38.757  21.375  1.00  0.00     0.136 C 
ATOM      2  O   UNL     1      23.777  39.183  22.095  1.00  0.00    -0.299 OA
ENDROOT
BRANCH   1   3
ATOM      3  C   UNL     1      24.948  37.264  21.309  1.00  0.00     0.053 C 
ATOM      4  C   UNL     1      24.648  36.552  22.638  1.00  0.00     0.016 C 
BRANCH   3   5
ATOM      5  C   UNL     1      24.200  36.597  20.134  1.00  0.00     0.015 C 
BRANCH   5   6
ATOM      6  C   UNL     1      25.106  36.242  18.930  1.00  0.00     0.028 C 
BRANCH   6   7
ATOM      7  C   UNL     1      26.510  35.931  19.389  1.00  0.00    -0.028 C 
ATOM      8  C   UNL     1      27.551  36.798  19.382  1.00  0.00    -0.070 CG0
ATOM      9  C   UNL     1      28.860  36.330  19.966  1.00  0.00     0.039 C 
ATOM     10  G   UNL     1      27.475  38.196  18.786  1.00  0.00     0.000 G0
ENDBRANCH   6   7
ENDBRANCH   5   6
ENDBRANCH   3   5
ENDBRANCH   1   3
BRANCH   1  11
ATOM     11  C   UNL     1      25.467  39.737  20.544  1.00  0.00     0.087 C 
BRANCH  11  12
ATOM     12  C   UNL     1      26.975  39.795  20.920  1.00  0.00     0.066 C 
BRANCH  12  13
ATOM     13  C   UNL     1      27.840  39.343  19.746  1.00  0.00     0.140 C 
ATOM     14  O   UNL     1      28.902  39.916  19.555  1.00  0.00    -0.299 OA
BRANCH  13  15
ATOM     15  C   UNL     1      27.478  38.210  18.803  1.00  0.00     0.106 CG0
ATOM     16  G   UNL     1      27.543  36.808  19.391  1.00  0.00     0.000 G0
ENDBRANCH  13  15
ENDBRANCH  12  13
BRANCH  12  17
ATOM     17  C   UNL     1      27.399  41.224  21.382  1.00  0.00    -0.006 C 
ATOM     18  C   UNL     1      28.237  41.173  22.673  1.00  0.00     0.008 C 
ATOM     19  C   UNL     1      26.186  42.145  21.615  1.00  0.00     0.008 C 
ENDBRANCH  12  17
ENDBRANCH  11  12
ENDBRANCH   1  11
TORSDOF 1
ENDMDL
MODEL 2
REMARK VINA RESULT:    -2.709      1.946      4.055
REMARK INTER + INTRA:          -4.288
REMARK INTER:                  -4.021
REMARK INTRA:                  -0.267
REMARK UNBOUND:                -0.154
REMARK SMILES CC1=CCC[C@H](C)C(=O)C[C@H](C(C)C)C(=O)C1
REMARK SMILES IDX 8 1 9 2 6 3 7 4 5 5 4 6 3 7 2 8 1 9 10 11 11 12 15 13 16 14
REMARK SMILES IDX 17 15 12 17 13 18 14 19
REMARK H PARENT
REMARK Flexibility Score: 70.00
ROOT
ATOM      1  C   UNL     1      25.930  36.490  19.287  1.00  0.00     0.136 C 
ATOM      2  O   UNL     1      25.227  35.731  18.633  1.00  0.00    -0.299 OA
ENDROOT
BRANCH   1   3
ATOM      3  C   UNL     1      27.333  36.068  19.694  1.00  0.00     0.053 C 
ATOM      4  C   UNL     1      27.550  34.551  19.568  1.00  0.00     0.016 C 
BRANCH   3   5
ATOM      5  C   UNL     1      28.411  36.855  18.919  1.00  0.00     0.015 C 
BRANCH   5   6
ATOM      6  C   UNL     1      29.125  37.942  19.759  1.00  0.00     0.028 C 
BRANCH   6   7
ATOM      7  C   UNL     1      28.829  39.319  19.217  1.00  0.00    -0.028 C 
ATOM      8  C   UNL     1      28.179  40.304  19.883  1.00  0.00    -0.070 CG0
ATOM      9  C   UNL     1      28.059  41.648  19.210  1.00  0.00     0.039 C 
ATOM     10  G   UNL     1      27.540  40.113  21.250  1.00  0.00     0.000 G0
ENDBRANCH   6   7
ENDBRANCH   5   6
ENDBRANCH   3   5
ENDBRANCH   1   3
BRANCH   1  11
ATOM     11  C   UNL     1      25.387  37.851  19.658  1.00  0.00     0.087 C 
BRANCH  11  12
ATOM     12  C   UNL     1      25.617  38.232  21.148  1.00  0.00     0.066 C 
BRANCH  12  13
ATOM     13  C   UNL     1      26.085  39.679  21.268  1.00  0.00     0.140 C 
ATOM     14  O   UNL     1      25.240  40.553  21.397  1.00  0.00    -0.299 OA
BRANCH  13  15
ATOM     15  C   UNL     1      27.541  40.111  21.254  1.00  0.00     0.106 CG0
ATOM     16  G   UNL     1      28.172  40.278  19.880  1.00  0.00     0.000 G0
ENDBRANCH  13  15
ENDBRANCH  12  13
BRANCH  12  17
ATOM     17  C   UNL     1      24.330  38.011  22.005  1.00  0.00    -0.006 C 
ATOM     18  C   UNL     1      24.261  36.575  22.556  1.00  0.00     0.008 C 
ATOM     19  C   UNL     1      23.044  38.297  21.208  1.00  0.00     0.008 C 
ENDBRANCH  12  17
ENDBRANCH  11  12
ENDBRANCH   1  11
TORSDOF 1
ENDMDL
MODEL 3
REMARK VINA RESULT:    -2.707      2.188      4.056
REMARK INTER + INTRA:          -4.286
REMARK INTER:                  -4.354
REMARK INTRA:                   0.068
REMARK UNBOUND:                -0.154
REMARK SMILES CC1=CCC[C@H](C)C(=O)C[C@H](C(C)C)C(=O)C1
REMARK SMILES IDX 8 1 9 2 6 3 7 4 5 5 4 6 3 7 2 8 1 9 10 11 11 12 15 13 16 14
REMARK SMILES IDX 17 15 12 17 13 18 14 19
REMARK H PARENT
REMARK Flexibility Score: 70.00
ROOT
ATOM      1  C   UNL     1      25.346  36.744  22.486  1.00  0.00     0.136 C 
ATOM      2  O   UNL     1      24.564  36.228  23.272  1.00  0.00    -0.299 OA
ENDROOT
BRANCH   1   3
ATOM      3  C   UNL     1      24.823  37.566  21.319  1.00  0.00     0.053 C 
ATOM      4  C   UNL     1      23.470  38.228  21.627  1.00  0.00     0.016 C 
BRANCH   3   5
ATOM      5  C   UNL     1      25.861  38.606  20.845  1.00  0.00     0.015 C 
BRANCH   5   6
ATOM      6  C   UNL     1      26.329  38.408  19.383  1.00  0.00     0.028 C 
BRANCH   6   7
ATOM      7  C   UNL     1      25.774  37.126  18.810  1.00  0.00    -0.028 C 
ATOM      8  C   UNL     1      26.425  35.939  18.763  1.00  0.00    -0.070 CG0
ATOM      9  C   UNL     1      25.671  34.744  18.236  1.00  0.00     0.039 C 
ATOM     10  G   UNL     1      27.878  35.760  19.179  1.00  0.00     0.000 G0
ENDBRANCH   6   7
ENDBRANCH   5   6
ENDBRANCH   3   5
ENDBRANCH   1   3
BRANCH   1  11
ATOM     11  C   UNL     1      26.831  36.567  22.710  1.00  0.00     0.087 C 
BRANCH  11  12
ATOM     12  C   UNL     1      27.470  35.455  21.831  1.00  0.00     0.066 C 
BRANCH  12  13
ATOM     13  C   UNL     1      28.201  36.066  20.638  1.00  0.00     0.140 C 
ATOM     14  O   UNL     1      29.114  36.848  20.857  1.00  0.00    -0.299 OA
BRANCH  13  15
ATOM     15  C   UNL     1      27.882  35.752  19.188  1.00  0.00     0.106 CG0
ATOM     16  G   UNL     1      26.431  35.943  18.770  1.00  0.00     0.000 G0
ENDBRANCH  13  15
ENDBRANCH  12  13
BRANCH  12  17
ATOM     17  C   UNL     1      28.443  34.556  22.656  1.00  0.00    -0.006 C 
ATOM     18  C   UNL     1      28.737  33.230  21.930  1.00  0.00     0.008 C 
ATOM     19  C   UNL     1      27.894  34.240  24.060  1.00  0.00     0.008 C 
ENDBRANCH  12  17
ENDBRANCH  11  12
ENDBRANCH   1  11
TORSDOF 1
ENDMDL
MODEL 4
REMARK VINA RESULT:    -2.302      1.918      4.919
REMARK INTER + INTRA:          -3.667
REMARK INTER:                  -3.492
REMARK INTRA:                  -0.175
REMARK UNBOUND:                -0.154
REMARK SMILES CC1=CCC[C@H](C)C(=O)C[C@H](C(C)C)C(=O)C1
REMARK SMILES IDX 8 1 9 2 6 3 7 4 5 5 4 6 3 7 2 8 1 9 10 11 11 12 15 13 16 14
REMARK SMILES IDX 17 15 12 17 13 18 14 19
REMARK H PARENT
REMARK Flexibility Score: 70.00
ROOT
ATOM      1  C   UNL     1      27.362  36.997  19.493  1.00  0.00     0.136 C 
ATOM      2  O   UNL     1      27.190  35.786  19.521  1.00  0.00    -0.299 OA
ENDROOT
BRANCH   1   3
ATOM      3  C   UNL     1      28.770  37.566  19.424  1.00  0.00     0.053 C 
ATOM      4  C   UNL     1      29.116  38.108  18.027  1.00  0.00     0.016 C 
BRANCH   3   5
ATOM      5  C   UNL     1      29.007  38.634  20.514  1.00  0.00     0.015 C 
BRANCH   5   6
ATOM      6  C   UNL     1      29.123  40.077  19.967  1.00  0.00     0.028 C 
BRANCH   6   7
ATOM      7  C   UNL     1      28.629  41.078  20.984  1.00  0.00    -0.028 C 
ATOM      8  C   UNL     1      27.329  41.339  21.263  1.00  0.00    -0.070 CG0
ATOM      9  C   UNL     1      27.031  42.308  22.379  1.00  0.00     0.039 C 
ATOM     10  G   UNL     1      26.166  40.735  20.490  1.00  0.00     0.000 G0
ENDBRANCH   6   7
ENDBRANCH   5   6
ENDBRANCH   3   5
ENDBRANCH   1   3
BRANCH   1  11
ATOM     11  C   UNL     1      26.154  37.906  19.509  1.00  0.00     0.087 C 
BRANCH  11  12
ATOM     12  C   UNL     1      25.568  38.146  20.929  1.00  0.00     0.066 C 
BRANCH  12  13
ATOM     13  C   UNL     1      25.353  39.636  21.178  1.00  0.00     0.140 C 
ATOM     14  O   UNL     1      24.509  39.971  21.997  1.00  0.00    -0.299 OA
BRANCH  13  15
ATOM     15  C   UNL     1      26.132  40.741  20.487  1.00  0.00     0.106 CG0
ATOM     16  G   UNL     1      27.304  41.316  21.268  1.00  0.00     0.000 G0
ENDBRANCH  13  15
ENDBRANCH  12  13
BRANCH  12  17
ATOM     17  C   UNL     1      24.231  37.367  21.140  1.00  0.00    -0.006 C 
ATOM     18  C   UNL     1      24.295  36.466  22.387  1.00  0.00     0.008 C 
ATOM     19  C   UNL     1      23.865  36.499  19.921  1.00  0.00     0.008 C 
ENDBRANCH  12  17
ENDBRANCH  11  12
ENDBRANCH   1  11
TORSDOF 1
ENDMDL
MODEL 5
REMARK VINA RESULT:    -2.250      2.353      3.944
REMARK INTER + INTRA:          -3.587
REMARK INTER:                  -4.529
REMARK INTRA:                   0.942
REMARK UNBOUND:                -0.154
REMARK SMILES CC1=CCC[C@H](C)C(=O)C[C@H](C(C)C)C(=O)C1
REMARK SMILES IDX 8 1 9 2 6 3 7 4 5 5 4 6 3 7 2 8 1 9 10 11 11 12 15 13 16 14
REMARK SMILES IDX 17 15 12 17 13 18 14 19
REMARK H PARENT
REMARK Flexibility Score: 70.00
ROOT
ATOM      1  C   UNL     1      25.460  36.626  22.391  1.00  0.00     0.136 C 
ATOM      2  O   UNL     1      25.024  35.930  23.298  1.00  0.00    -0.299 OA
ENDROOT
BRANCH   1   3
ATOM      3  C   UNL     1      24.504  37.302  21.421  1.00  0.00     0.053 C 
ATOM      4  C   UNL     1      23.331  37.990  22.138  1.00  0.00     0.016 C 
BRANCH   3   5
ATOM      5  C   UNL     1      25.243  38.282  20.485  1.00  0.00     0.015 C 
BRANCH   5   6
ATOM      6  C   UNL     1      25.863  37.614  19.234  1.00  0.00     0.028 C 
BRANCH   6   7
ATOM      7  C   UNL     1      26.904  38.509  18.608  1.00  0.00    -0.028 C 
ATOM      8  C   UNL     1      28.201  38.598  18.992  1.00  0.00    -0.070 CG0
ATOM      9  C   UNL     1      29.115  39.483  18.184  1.00  0.00     0.039 C 
ATOM     10  G   UNL     1      28.766  37.881  20.210  1.00  0.00     0.000 G0
ENDBRANCH   6   7
ENDBRANCH   5   6
ENDBRANCH   3   5
ENDBRANCH   1   3
BRANCH   1  11
ATOM     11  C   UNL     1      26.956  36.813  22.269  1.00  0.00     0.087 C 
BRANCH  11  12
ATOM     12  C   UNL     1      27.655  35.732  21.397  1.00  0.00     0.066 C 
BRANCH  12  13
ATOM     13  C   UNL     1      28.525  36.384  20.326  1.00  0.00     0.140 C 
ATOM     14  O   UNL     1      29.043  35.665  19.485  1.00  0.00    -0.299 OA
BRANCH  13  15
ATOM     15  C   UNL     1      28.779  37.877  20.222  1.00  0.00     0.106 CG0
ATOM     16  G   UNL     1      28.190  38.569  19.002  1.00  0.00     0.000 G0
ENDBRANCH  13  15
ENDBRANCH  12  13
BRANCH  12  17
ATOM     17  C   UNL     1      28.510  34.756  22.265  1.00  0.00    -0.006 C 
ATOM     18  C   UNL     1      28.622  33.369  21.606  1.00  0.00     0.008 C 
ATOM     19  C   UNL     1      27.936  34.585  23.684  1.00  0.00     0.008 C 
ENDBRANCH  12  17
ENDBRANCH  11  12
ENDBRANCH   1  11
TORSDOF 1
ENDMDL
MODEL 6
REMARK VINA RESULT:    -2.246      1.600      4.259
REMARK INTER + INTRA:          -3.582
REMARK INTER:                  -3.640
REMARK INTRA:                   0.058
REMARK UNBOUND:                -0.154
REMARK SMILES CC1=CCC[C@H](C)C(=O)C[C@H](C(C)C)C(=O)C1
REMARK SMILES IDX 8 1 9 2 6 3 7 4 5 5 4 6 3 7 2 8 1 9 10 11 11 12 15 13 16 14
REMARK SMILES IDX 17 15 12 17 13 18 14 19
REMARK H PARENT
REMARK Flexibility Score: 70.00
ROOT
ATOM      1  C   UNL     1      25.574  39.131  21.266  1.00  0.00     0.136 C 
ATOM      2  O   UNL     1      24.417  39.317  21.618  1.00  0.00    -0.299 OA
ENDROOT
BRANCH   1   3
ATOM      3  C   UNL     1      26.520  40.311  21.105  1.00  0.00     0.053 C 
ATOM      4  C   UNL     1      25.827  41.659  21.362  1.00  0.00     0.016 C 
BRANCH   3   5
ATOM      5  C   UNL     1      27.780  40.152  21.984  1.00  0.00     0.015 C 
BRANCH   5   6
ATOM      6  C   UNL     1      29.111  40.353  21.218  1.00  0.00     0.028 C 
BRANCH   6   7
ATOM      7  C   UNL     1      28.872  40.389  19.728  1.00  0.00    -0.028 C 
ATOM      8  C   UNL     1      28.767  39.306  18.921  1.00  0.00    -0.070 CG0
ATOM      9  C   UNL     1      28.436  39.540  17.469  1.00  0.00     0.039 C 
ATOM     10  G   UNL     1      28.999  37.879  19.396  1.00  0.00     0.000 G0
ENDBRANCH   6   7
ENDBRANCH   5   6
ENDBRANCH   3   5
ENDBRANCH   1   3
BRANCH   1  11
ATOM     11  C   UNL     1      26.044  37.716  21.017  1.00  0.00     0.087 C 
BRANCH  11  12
ATOM     12  C   UNL     1      26.359  37.414  19.524  1.00  0.00     0.066 C 
BRANCH  12  13
ATOM     13  C   UNL     1      27.801  36.942  19.363  1.00  0.00     0.140 C 
ATOM     14  O   UNL     1      28.005  35.748  19.198  1.00  0.00    -0.299 OA
BRANCH  13  15
ATOM     15  C   UNL     1      29.009  37.862  19.376  1.00  0.00     0.106 CG0
ATOM     16  G   UNL     1      28.756  39.297  18.938  1.00  0.00     0.000 G0
ENDBRANCH  13  15
ENDBRANCH  12  13
BRANCH  12  17
ATOM     17  C   UNL     1      25.376  36.355  18.930  1.00  0.00    -0.006 C 
ATOM     18  C   UNL     1      24.896  36.758  17.524  1.00  0.00     0.008 C 
ATOM     19  C   UNL     1      24.145  36.135  19.830  1.00  0.00     0.008 C 
ENDBRANCH  12  17
ENDBRANCH  11  12
ENDBRANCH   1  11
TORSDOF 1
ENDMDL
MODEL 7
REMARK VINA RESULT:    -2.238      1.760      4.053
REMARK INTER + INTRA:          -3.570
REMARK INTER:                  -3.536
REMARK INTRA:                  -0.033
REMARK UNBOUND:                -0.154
REMARK SMILES CC1=CCC[C@H](C)C(=O)C[C@H](C(C)C)C(=O)C1
REMARK SMILES IDX 8 1 9 2 6 3 7 4 5 5 4 6 3 7 2 8 1 9 10 11 11 12 15 13 16 14
REMARK SMILES IDX 17 15 12 17 13 18 14 19
REMARK H PARENT
REMARK Flexibility Score: 70.00
ROOT
ATOM      1  C   UNL     1      26.360  40.931  21.373  1.00  0.00     0.136 C 
ATOM      2  O   UNL     1      25.843  41.856  21.985  1.00  0.00    -0.299 OA
ENDROOT
BRANCH   1   3
ATOM      3  C   UNL     1      27.087  41.194  20.064  1.00  0.00     0.053 C 
ATOM      4  C   UNL     1      26.868  42.626  19.549  1.00  0.00     0.016 C 
BRANCH   3   5
ATOM      5  C   UNL     1      28.590  40.860  20.171  1.00  0.00     0.015 C 
BRANCH   5   6
ATOM      6  C   UNL     1      29.033  39.660  19.298  1.00  0.00     0.028 C 
BRANCH   6   7
ATOM      7  C   UNL     1      27.988  39.340  18.257  1.00  0.00    -0.028 C 
ATOM      8  C   UNL     1      27.173  38.257  18.266  1.00  0.00    -0.070 CG0
ATOM      9  C   UNL     1      26.127  38.155  17.186  1.00  0.00     0.039 C 
ATOM     10  G   UNL     1      27.285  37.131  19.283  1.00  0.00     0.000 G0
ENDBRANCH   6   7
ENDBRANCH   5   6
ENDBRANCH   3   5
ENDBRANCH   1   3
BRANCH   1  11
ATOM     11  C   UNL     1      26.280  39.537  21.953  1.00  0.00     0.087 C 
BRANCH  11  12
ATOM     12  C   UNL     1      25.688  38.484  20.974  1.00  0.00     0.066 C 
BRANCH  12  13
ATOM     13  C   UNL     1      26.718  37.401  20.662  1.00  0.00     0.140 C 
ATOM     14  O   UNL     1      27.122  36.704  21.581  1.00  0.00    -0.299 OA
BRANCH  13  15
ATOM     15  C   UNL     1      27.267  37.117  19.275  1.00  0.00     0.106 CG0
ATOM     16  G   UNL     1      27.165  38.258  18.273  1.00  0.00     0.000 G0
ENDBRANCH  13  15
ENDBRANCH  12  13
BRANCH  12  17
ATOM     17  C   UNL     1      24.384  37.839  21.540  1.00  0.00    -0.006 C 
ATOM     18  C   UNL     1      23.710  36.926  20.500  1.00  0.00     0.008 C 
ATOM     19  C   UNL     1      23.365  38.897  22.004  1.00  0.00     0.008 C 
ENDBRANCH  12  17
ENDBRANCH  11  12
ENDBRANCH   1  11
TORSDOF 1
ENDMDL
MODEL 8
REMARK VINA RESULT:    -1.980      1.816      4.494
REMARK INTER + INTRA:          -3.175
REMARK INTER:                  -3.694
REMARK INTRA:                   0.519
REMARK UNBOUND:                -0.154
REMARK SMILES CC1=CCC[C@H](C)C(=O)C[C@H](C(C)C)C(=O)C1
REMARK SMILES IDX 8 1 9 2 6 3 7 4 5 5 4 6 3 7 2 8 1 9 10 11 11 12 15 13 16 14
REMARK SMILES IDX 17 15 12 17 13 18 14 19
REMARK H PARENT
REMARK Flexibility Score: 70.00
ROOT
ATOM      1  C   UNL     1      28.494  40.163  21.089  1.00  0.00     0.136 C 
ATOM      2  O   UNL     1      29.123  40.287  22.130  1.00  0.00    -0.299 OA
ENDROOT
BRANCH   1   3
ATOM      3  C   UNL     1      27.451  41.199  20.700  1.00  0.00     0.053 C 
ATOM      4  C   UNL     1      27.259  41.296  19.178  1.00  0.00     0.016 C 
BRANCH   3   5
ATOM      5  C   UNL     1      26.107  40.951  21.420  1.00  0.00     0.015 C 
BRANCH   5   6
ATOM      6  C   UNL     1      25.175  39.956  20.688  1.00  0.00     0.028 C 
BRANCH   6   7
ATOM      7  C   UNL     1      24.710  38.868  21.625  1.00  0.00    -0.028 C 
ATOM      8  C   UNL     1      24.860  37.536  21.421  1.00  0.00    -0.070 CG0
ATOM      9  C   UNL     1      24.412  36.602  22.516  1.00  0.00     0.039 C 
ATOM     10  G   UNL     1      25.421  36.942  20.137  1.00  0.00     0.000 G0
ENDBRANCH   6   7
ENDBRANCH   5   6
ENDBRANCH   3   5
ENDBRANCH   1   3
BRANCH   1  11
ATOM     11  C   UNL     1      28.787  38.979  20.194  1.00  0.00     0.087 C 
BRANCH  11  12
ATOM     12  C   UNL     1      28.000  37.694  20.577  1.00  0.00     0.066 C 
BRANCH  12  13
ATOM     13  C   UNL     1      26.776  37.525  19.681  1.00  0.00     0.140 C 
ATOM     14  O   UNL     1      26.860  37.876  18.513  1.00  0.00    -0.299 OA
BRANCH  13  15
ATOM     15  C   UNL     1      25.456  36.933  20.139  1.00  0.00     0.106 CG0
ATOM     16  G   UNL     1      24.874  37.514  21.419  1.00  0.00     0.000 G0
ENDBRANCH  13  15
ENDBRANCH  12  13
BRANCH  12  17
ATOM     17  C   UNL     1      28.902  36.422  20.501  1.00  0.00    -0.006 C 
ATOM     18  C   UNL     1      29.055  35.926  19.052  1.00  0.00     0.008 C 
ATOM     19  C   UNL     1      28.356  35.269  21.364  1.00  0.00     0.008 C 
ENDBRANCH  12  17
ENDBRANCH  11  12
ENDBRANCH   1  11
TORSDOF 1
ENDMDL
MODEL 9
REMARK VINA RESULT:    -1.912      1.830      3.706
REMARK INTER + INTRA:          -3.073
REMARK INTER:                  -4.147
REMARK INTRA:                   1.074
REMARK UNBOUND:                -0.154
REMARK SMILES CC1=CCC[C@H](C)C(=O)C[C@H](C(C)C)C(=O)C1
REMARK SMILES IDX 8 1 9 2 6 3 7 4 5 5 4 6 3 7 2 8 1 9 10 11 11 12 15 13 16 14
REMARK SMILES IDX 17 15 12 17 13 18 14 19
REMARK H PARENT
REMARK Flexibility Score: 70.00
ROOT
ATOM      1  C   UNL     1      24.585  37.076  20.795  1.00  0.00     0.136 C 
ATOM      2  O   UNL     1      23.528  37.646  21.029  1.00  0.00    -0.299 OA
ENDROOT
BRANCH   1   3
ATOM      3  C   UNL     1      24.772  36.322  19.488  1.00  0.00     0.053 C 
ATOM      4  C   UNL     1      23.526  35.512  19.095  1.00  0.00     0.016 C 
BRANCH   3   5
ATOM      5  C   UNL     1      25.211  37.264  18.346  1.00  0.00     0.015 C 
BRANCH   5   6
ATOM      6  C   UNL     1      26.706  37.660  18.396  1.00  0.00     0.028 C 
BRANCH   6   7
ATOM      7  C   UNL     1      26.863  39.160  18.454  1.00  0.00    -0.028 C 
ATOM      8  C   UNL     1      27.288  39.867  19.529  1.00  0.00    -0.070 CG0
ATOM      9  C   UNL     1      27.468  41.355  19.367  1.00  0.00     0.039 C 
ATOM     10  G   UNL     1      27.558  39.242  20.890  1.00  0.00     0.000 G0
ENDBRANCH   6   7
ENDBRANCH   5   6
ENDBRANCH   3   5
ENDBRANCH   1   3
BRANCH   1  11
ATOM     11  C   UNL     1      25.699  37.155  21.814  1.00  0.00     0.087 C 
BRANCH  11  12
ATOM     12  C   UNL     1      27.066  36.629  21.292  1.00  0.00     0.066 C 
BRANCH  12  13
ATOM     13  C   UNL     1      27.973  37.790  20.895  1.00  0.00     0.140 C 
ATOM     14  O   UNL     1      29.112  37.537  20.529  1.00  0.00    -0.299 OA
BRANCH  13  15
ATOM     15  C   UNL     1      27.551  39.248  20.907  1.00  0.00     0.106 CG0
ATOM     16  G   UNL     1      27.308  39.881  19.544  1.00  0.00     0.000 G0
ENDBRANCH  13  15
ENDBRANCH  12  13
BRANCH  12  17
ATOM     17  C   UNL     1      27.778  35.726  22.348  1.00  0.00    -0.006 C 
ATOM     18  C   UNL     1      28.267  34.407  21.723  1.00  0.00     0.008 C 
ATOM     19  C   UNL     1      26.865  35.398  23.544  1.00  0.00     0.008 C 
ENDBRANCH  12  17
ENDBRANCH  11  12
ENDBRANCH   1  11
TORSDOF 1
ENDMDL
