MODEL 1
REMARK VINA RESULT:    -2.051      0.000      0.000
REMARK INTER + INTRA:          -2.138
REMARK INTER:                  -2.171
REMARK INTRA:                   0.033
REMARK UNBOUND:                 0.033
REMARK SMILES CC1=C[C@@H]2C(=C(C)CC[C@H]2C(C)C)CC1
REMARK SMILES IDX 1 1 2 2 3 3 4 4 10 5 9 6 8 7 6 8 5 9 14 10 15 11 7 12 11 13
REMARK SMILES IDX 12 14 13 15
REMARK H PARENT
REMARK Flexibility Score: inf
ROOT
ATOM      1  C   UNL     1     139.498 155.125 124.454  1.00  0.00     0.039 C 
ATOM      2  C   UNL     1     138.195 154.383 124.570  1.00  0.00    -0.076 C 
ATOM      3  C   UNL     1     137.635 153.867 123.449  1.00  0.00    -0.020 C 
ATOM      4  C   UNL     1     136.319 153.098 123.435  1.00  0.00     0.041 C 
ATOM      5  C   UNL     1     136.376 151.945 122.393  1.00  0.00     0.003 C 
ATOM      6  C   UNL     1     135.233 150.945 122.659  1.00  0.00     0.009 C 
ATOM      7  C   UNL     1     135.380 150.332 124.049  1.00  0.00     0.031 C 
ATOM      8  C   UNL     1     135.525 151.379 125.133  1.00  0.00    -0.073 C 
ATOM      9  C   UNL     1     135.971 152.639 124.850  1.00  0.00    -0.064 C 
ATOM     10  C   UNL     1     136.151 153.708 125.907  1.00  0.00     0.036 C 
ATOM     11  C   UNL     1     137.621 154.124 125.948  1.00  0.00     0.035 C 
ATOM     12  C   UNL     1     135.276 150.928 126.554  1.00  0.00     0.039 C 
ENDROOT
BRANCH   5  13
ATOM     13  C   UNL     1     136.420 152.497 120.911  1.00  0.00    -0.013 C 
ATOM     14  C   UNL     1     137.821 152.869 120.374  1.00  0.00     0.007 C 
ATOM     15  C   UNL     1     135.470 153.701 120.752  1.00  0.00     0.007 C 
ENDBRANCH   5  13
TORSDOF 1
ENDMDL
MODEL 2
REMARK VINA RESULT:    -2.006     13.465     15.912
REMARK INTER + INTRA:          -2.090
REMARK INTER:                  -2.392
REMARK INTRA:                   0.302
REMARK UNBOUND:                 0.033
REMARK SMILES CC1=C[C@@H]2C(=C(C)CC[C@H]2C(C)C)CC1
REMARK SMILES IDX 1 1 2 2 3 3 4 4 10 5 9 6 8 7 6 8 5 9 14 10 15 11 7 12 11 13
REMARK SMILES IDX 12 14 13 15
REMARK H PARENT
REMARK Flexibility Score: inf
ROOT
ATOM      1  C   UNL     1     137.972 137.138 119.884  1.00  0.00     0.039 C 
ATOM      2  C   UNL     1     138.251 137.133 121.362  1.00  0.00    -0.076 C 
ATOM      3  C   UNL     1     137.357 137.717 122.197  1.00  0.00    -0.020 C 
ATOM      4  C   UNL     1     137.526 137.780 123.710  1.00  0.00     0.041 C 
ATOM      5  C   UNL     1     136.148 137.628 124.416  1.00  0.00     0.003 C 
ATOM      6  C   UNL     1     136.359 137.292 125.905  1.00  0.00     0.009 C 
ATOM      7  C   UNL     1     137.109 135.970 126.047  1.00  0.00     0.031 C 
ATOM      8  C   UNL     1     138.388 135.938 125.238  1.00  0.00    -0.073 C 
ATOM      9  C   UNL     1     138.568 136.757 124.160  1.00  0.00    -0.064 C 
ATOM     10  C   UNL     1     139.822 136.742 123.311  1.00  0.00     0.036 C 
ATOM     11  C   UNL     1     139.449 136.362 121.878  1.00  0.00     0.035 C 
ATOM     12  C   UNL     1     139.399 134.875 125.602  1.00  0.00     0.039 C 
ENDROOT
BRANCH   5  13
ATOM     13  C   UNL     1     135.219 138.884 124.163  1.00  0.00    -0.013 C 
ATOM     14  C   UNL     1     134.882 139.183 122.684  1.00  0.00     0.007 C 
ATOM     15  C   UNL     1     135.819 140.143 124.820  1.00  0.00     0.007 C 
ENDBRANCH   5  13
TORSDOF 1
ENDMDL
MODEL 3
REMARK VINA RESULT:    -1.390     13.832     16.002
REMARK INTER + INTRA:          -1.438
REMARK INTER:                  -2.064
REMARK INTRA:                   0.626
REMARK UNBOUND:                 0.033
REMARK SMILES CC1=C[C@@H]2C(=C(C)CC[C@H]2C(C)C)CC1
REMARK SMILES IDX 1 1 2 2 3 3 4 4 10 5 9 6 8 7 6 8 5 9 14 10 15 11 7 12 11 13
REMARK SMILES IDX 12 14 13 15
REMARK H PARENT
REMARK Flexibility Score: inf
ROOT
ATOM      1  C   UNL     1     135.625 139.895 124.504  1.00  0.00     0.039 C 
ATOM      2  C   UNL     1     136.213 138.520 124.339  1.00  0.00    -0.076 C 
ATOM      3  C   UNL     1     136.686 138.154 123.124  1.00  0.00    -0.020 C 
ATOM      4  C   UNL     1     137.302 136.791 122.830  1.00  0.00     0.041 C 
ATOM      5  C   UNL     1     138.476 136.933 121.819  1.00  0.00     0.003 C 
ATOM      6  C   UNL     1     139.335 135.654 121.834  1.00  0.00     0.009 C 
ATOM      7  C   UNL     1     139.932 135.434 123.222  1.00  0.00     0.031 C 
ATOM      8  C   UNL     1     138.886 135.467 124.316  1.00  0.00    -0.073 C 
ATOM      9  C   UNL     1     137.690 136.103 124.138  1.00  0.00    -0.064 C 
ATOM     10  C   UNL     1     136.626 136.178 125.212  1.00  0.00     0.036 C 
ATOM     11  C   UNL     1     136.377 137.645 125.565  1.00  0.00     0.035 C 
ATOM     12  C   UNL     1     139.276 134.875 125.651  1.00  0.00     0.039 C 
ENDROOT
BRANCH   5  13
ATOM     13  C   UNL     1     137.964 137.350 120.382  1.00  0.00    -0.013 C 
ATOM     14  C   UNL     1     139.055 137.493 119.295  1.00  0.00     0.007 C 
ATOM     15  C   UNL     1     137.137 138.649 120.456  1.00  0.00     0.007 C 
ENDBRANCH   5  13
TORSDOF 1
ENDMDL
MODEL 4
REMARK VINA RESULT:    -1.028     13.837     16.449
REMARK INTER + INTRA:          -1.055
REMARK INTER:                  -1.349
REMARK INTRA:                   0.294
REMARK UNBOUND:                 0.033
REMARK SMILES CC1=C[C@@H]2C(=C(C)CC[C@H]2C(C)C)CC1
REMARK SMILES IDX 1 1 2 2 3 3 4 4 10 5 9 6 8 7 6 8 5 9 14 10 15 11 7 12 11 13
REMARK SMILES IDX 12 14 13 15
REMARK H PARENT
REMARK Flexibility Score: inf
ROOT
ATOM      1  C   UNL     1     134.876 139.266 124.793  1.00  0.00     0.039 C 
ATOM      2  C   UNL     1     136.059 138.752 124.019  1.00  0.00    -0.076 C 
ATOM      3  C   UNL     1     136.725 137.669 124.488  1.00  0.00    -0.020 C 
ATOM      4  C   UNL     1     137.938 137.055 123.798  1.00  0.00     0.041 C 
ATOM      5  C   UNL     1     137.918 135.507 123.944  1.00  0.00     0.003 C 
ATOM      6  C   UNL     1     138.892 134.875 122.930  1.00  0.00     0.009 C 
ATOM      7  C   UNL     1     138.468 135.220 121.505  1.00  0.00     0.031 C 
ATOM      8  C   UNL     1     138.272 136.707 121.301  1.00  0.00    -0.073 C 
ATOM      9  C   UNL     1     138.013 137.541 122.352  1.00  0.00    -0.064 C 
ATOM     10  C   UNL     1     137.789 139.029 122.189  1.00  0.00     0.036 C 
ATOM     11  C   UNL     1     136.383 139.377 122.678  1.00  0.00     0.035 C 
ATOM     12  C   UNL     1     138.250 137.202 119.873  1.00  0.00     0.039 C 
ENDROOT
BRANCH   5  13
ATOM     13  C   UNL     1     138.162 135.056 125.441  1.00  0.00    -0.013 C 
ATOM     14  C   UNL     1     137.123 135.557 126.471  1.00  0.00     0.007 C 
ATOM     15  C   UNL     1     139.578 135.453 125.903  1.00  0.00     0.007 C 
ENDBRANCH   5  13
TORSDOF 1
ENDMDL
MODEL 5
REMARK VINA RESULT:    -0.292     13.580     16.191
REMARK INTER + INTRA:          -0.276
REMARK INTER:                  -0.402
REMARK INTRA:                   0.125
REMARK UNBOUND:                 0.033
REMARK SMILES CC1=C[C@@H]2C(=C(C)CC[C@H]2C(C)C)CC1
REMARK SMILES IDX 1 1 2 2 3 3 4 4 10 5 9 6 8 7 6 8 5 9 14 10 15 11 7 12 11 13
REMARK SMILES IDX 12 14 13 15
REMARK H PARENT
REMARK Flexibility Score: inf
ROOT
ATOM      1  C   UNL     1     139.363 135.193 126.041  1.00  0.00     0.039 C 
ATOM      2  C   UNL     1     138.741 135.528 124.713  1.00  0.00    -0.076 C 
ATOM      3  C   UNL     1     137.788 136.490 124.662  1.00  0.00    -0.020 C 
ATOM      4  C   UNL     1     137.083 136.917 123.380  1.00  0.00     0.041 C 
ATOM      5  C   UNL     1     136.811 138.449 123.396  1.00  0.00     0.003 C 
ATOM      6  C   UNL     1     136.477 138.934 121.972  1.00  0.00     0.009 C 
ATOM      7  C   UNL     1     137.655 138.674 121.035  1.00  0.00     0.031 C 
ATOM      8  C   UNL     1     138.129 137.238 121.084  1.00  0.00    -0.073 C 
ATOM      9  C   UNL     1     137.879 136.442 122.166  1.00  0.00    -0.064 C 
ATOM     10  C   UNL     1     138.354 135.008 122.264  1.00  0.00     0.036 C 
ATOM     11  C   UNL     1     139.293 134.875 123.462  1.00  0.00     0.035 C 
ATOM     12  C   UNL     1     138.996 136.767 119.939  1.00  0.00     0.039 C 
ENDROOT
BRANCH   5  13
ATOM     13  C   UNL     1     135.728 138.840 124.481  1.00  0.00    -0.013 C 
ATOM     14  C   UNL     1     134.875 140.089 124.159  1.00  0.00     0.007 C 
ATOM     15  C   UNL     1     136.385 139.008 125.866  1.00  0.00     0.007 C 
ENDBRANCH   5  13
TORSDOF 1
ENDMDL
MODEL 6
REMARK VINA RESULT:     0.428      0.925      4.653
REMARK INTER + INTRA:           0.486
REMARK INTER:                  -0.290
REMARK INTRA:                   0.776
REMARK UNBOUND:                 0.033
REMARK SMILES CC1=C[C@@H]2C(=C(C)CC[C@H]2C(C)C)CC1
REMARK SMILES IDX 1 1 2 2 3 3 4 4 10 5 9 6 8 7 6 8 5 9 14 10 15 11 7 12 11 13
REMARK SMILES IDX 12 14 13 15
REMARK H PARENT
REMARK Flexibility Score: inf
ROOT
ATOM      1  C   UNL     1     135.193 150.744 125.798  1.00  0.00     0.039 C 
ATOM      2  C   UNL     1     135.469 151.498 124.525  1.00  0.00    -0.076 C 
ATOM      3  C   UNL     1     136.326 152.547 124.560  1.00  0.00    -0.020 C 
ATOM      4  C   UNL     1     136.686 153.389 123.342  1.00  0.00     0.041 C 
ATOM      5  C   UNL     1     138.180 153.816 123.400  1.00  0.00     0.003 C 
ATOM      6  C   UNL     1     138.636 154.307 122.012  1.00  0.00     0.009 C 
ATOM      7  C   UNL     1     138.507 153.185 120.986  1.00  0.00     0.031 C 
ATOM      8  C   UNL     1     137.128 152.562 120.978  1.00  0.00    -0.073 C 
ATOM      9  C   UNL     1     136.303 152.644 122.064  1.00  0.00    -0.064 C 
ATOM     10  C   UNL     1     134.926 152.016 122.105  1.00  0.00     0.036 C 
ATOM     11  C   UNL     1     134.885 150.979 123.227  1.00  0.00     0.035 C 
ATOM     12  C   UNL     1     136.757 151.741 119.763  1.00  0.00     0.039 C 
ENDROOT
BRANCH   5  13
ATOM     13  C   UNL     1     138.449 154.847 124.570  1.00  0.00    -0.013 C 
ATOM     14  C   UNL     1     139.936 155.124 124.893  1.00  0.00     0.007 C 
ATOM     15  C   UNL     1     137.715 154.413 125.854  1.00  0.00     0.007 C 
ENDBRANCH   5  13
TORSDOF 1
ENDMDL
