MODEL 1
REMARK VINA RESULT:    -4.986      0.000      0.000
REMARK INTER + INTRA:          -5.318
REMARK INTER:                  -5.278
REMARK INTRA:                  -0.040
REMARK UNBOUND:                -0.040
REMARK SMILES COc1ccc2ccc(=O)oc2c1
REMARK SMILES IDX 3 1 13 2 12 3 6 4 5 5 4 6 7 7 8 8 9 9 10 10 11 11 2 12 1 13
REMARK H PARENT
REMARK Flexibility Score: inf
ROOT
ATOM      1  C   UNL     1      19.116  25.958  37.996  1.00  0.00     0.122 A 
ATOM      2  C   UNL     1      19.232  24.687  37.416  1.00  0.00     0.094 A 
ATOM      3  C   UNL     1      19.759  23.618  38.148  1.00  0.00     0.142 A 
ATOM      4  C   UNL     1      20.178  23.818  39.480  1.00  0.00     0.018 A 
ATOM      5  C   UNL     1      20.064  25.086  40.065  1.00  0.00     0.016 A 
ATOM      6  C   UNL     1      19.536  26.150  39.327  1.00  0.00     0.047 A 
ATOM      7  C   UNL     1      20.702  22.730  40.186  1.00  0.00     0.019 A 
ATOM      8  C   UNL     1      20.794  21.488  39.558  1.00  0.00     0.094 A 
ATOM      9  C   UNL     1      20.359  21.364  38.234  1.00  0.00     0.336 A 
ATOM     10  O   UNL     1      20.435  20.252  37.650  1.00  0.00    -0.246 OA
ATOM     11  O   UNL     1      19.865  22.416  37.586  1.00  0.00    -0.423 OA
ENDROOT
BRANCH   1  12
ATOM     12  O   UNL     1      18.580  26.996  37.220  1.00  0.00    -0.497 OA
ATOM     13  C   UNL     1      17.573  26.822  36.229  1.00  0.00     0.278 C 
ENDBRANCH   1  12
TORSDOF 1
ENDMDL
MODEL 2
REMARK VINA RESULT:    -4.941      1.000      4.563
REMARK INTER + INTRA:          -5.270
REMARK INTER:                  -5.231
REMARK INTRA:                  -0.039
REMARK UNBOUND:                -0.040
REMARK SMILES COc1ccc2ccc(=O)oc2c1
REMARK SMILES IDX 3 1 13 2 12 3 6 4 5 5 4 6 7 7 8 8 9 9 10 10 11 11 2 12 1 13
REMARK H PARENT
REMARK Flexibility Score: inf
ROOT
ATOM      1  C   UNL     1      20.378  21.572  38.461  1.00  0.00     0.122 A 
ATOM      2  C   UNL     1      19.841  22.567  37.632  1.00  0.00     0.094 A 
ATOM      3  C   UNL     1      19.671  23.871  38.107  1.00  0.00     0.142 A 
ATOM      4  C   UNL     1      20.041  24.191  39.431  1.00  0.00     0.018 A 
ATOM      5  C   UNL     1      20.578  23.200  40.264  1.00  0.00     0.016 A 
ATOM      6  C   UNL     1      20.746  21.898  39.781  1.00  0.00     0.047 A 
ATOM      7  C   UNL     1      19.858  25.503  39.877  1.00  0.00     0.019 A 
ATOM      8  C   UNL     1      19.320  26.452  39.008  1.00  0.00     0.094 A 
ATOM      9  C   UNL     1      18.975  26.063  37.709  1.00  0.00     0.336 A 
ATOM     10  O   UNL     1      18.488  26.905  36.910  1.00  0.00    -0.246 OA
ATOM     11  O   UNL     1      19.160  24.808  37.311  1.00  0.00    -0.423 OA
ENDROOT
BRANCH   1  12
ATOM     12  O   UNL     1      20.528  20.280  37.936  1.00  0.00    -0.497 OA
ATOM     13  C   UNL     1      19.552  19.616  37.141  1.00  0.00     0.278 C 
ENDBRANCH   1  12
TORSDOF 1
ENDMDL
MODEL 3
REMARK VINA RESULT:    -4.889      1.853      3.079
REMARK INTER + INTRA:          -5.215
REMARK INTER:                  -5.184
REMARK INTRA:                  -0.031
REMARK UNBOUND:                -0.040
REMARK SMILES COc1ccc2ccc(=O)oc2c1
REMARK SMILES IDX 3 1 13 2 12 3 6 4 5 5 4 6 7 7 8 8 9 9 10 10 11 11 2 12 1 13
REMARK H PARENT
REMARK Flexibility Score: inf
ROOT
ATOM      1  C   UNL     1      19.668  25.464  40.658  1.00  0.00     0.122 A 
ATOM      2  C   UNL     1      19.957  24.107  40.464  1.00  0.00     0.094 A 
ATOM      3  C   UNL     1      19.919  23.549  39.182  1.00  0.00     0.142 A 
ATOM      4  C   UNL     1      19.587  24.357  38.074  1.00  0.00     0.018 A 
ATOM      5  C   UNL     1      19.297  25.715  38.263  1.00  0.00     0.016 A 
ATOM      6  C   UNL     1      19.338  26.265  39.547  1.00  0.00     0.047 A 
ATOM      7  C   UNL     1      19.556  23.771  36.805  1.00  0.00     0.019 A 
ATOM      8  C   UNL     1      19.853  22.414  36.671  1.00  0.00     0.094 A 
ATOM      9  C   UNL     1      20.173  21.674  37.814  1.00  0.00     0.336 A 
ATOM     10  O   UNL     1      20.443  20.449  37.714  1.00  0.00    -0.246 OA
ATOM     11  O   UNL     1      20.195  22.258  39.009  1.00  0.00    -0.423 OA
ENDROOT
BRANCH   1  12
ATOM     12  O   UNL     1      19.721  25.974  41.964  1.00  0.00    -0.497 OA
ATOM     13  C   UNL     1      20.491  27.106  42.354  1.00  0.00     0.278 C 
ENDBRANCH   1  12
TORSDOF 1
ENDMDL
MODEL 4
REMARK VINA RESULT:    -4.826      5.135      6.772
REMARK INTER + INTRA:          -5.149
REMARK INTER:                  -5.115
REMARK INTRA:                  -0.033
REMARK UNBOUND:                -0.040
REMARK SMILES COc1ccc2ccc(=O)oc2c1
REMARK SMILES IDX 3 1 13 2 12 3 6 4 5 5 4 6 7 7 8 8 9 9 10 10 11 11 2 12 1 13
REMARK H PARENT
REMARK Flexibility Score: inf
ROOT
ATOM      1  C   UNL     1      17.556  26.739  44.879  1.00  0.00     0.122 A 
ATOM      2  C   UNL     1      18.825  27.158  44.458  1.00  0.00     0.094 A 
ATOM      3  C   UNL     1      19.318  26.783  43.204  1.00  0.00     0.142 A 
ATOM      4  C   UNL     1      18.534  25.975  42.354  1.00  0.00     0.018 A 
ATOM      5  C   UNL     1      17.264  25.553  42.769  1.00  0.00     0.016 A 
ATOM      6  C   UNL     1      16.778  25.932  44.024  1.00  0.00     0.047 A 
ATOM      7  C   UNL     1      19.053  25.616  41.107  1.00  0.00     0.019 A 
ATOM      8  C   UNL     1      20.323  26.063  40.740  1.00  0.00     0.094 A 
ATOM      9  C   UNL     1      21.045  26.861  41.635  1.00  0.00     0.336 A 
ATOM     10  O   UNL     1      22.192  27.274  41.324  1.00  0.00    -0.246 OA
ATOM     11  O   UNL     1      20.526  27.188  42.816  1.00  0.00    -0.423 OA
ENDROOT
BRANCH   1  12
ATOM     12  O   UNL     1      17.108  27.143  46.145  1.00  0.00    -0.497 OA
ATOM     13  C   UNL     1      16.364  26.319  47.035  1.00  0.00     0.278 C 
ENDBRANCH   1  12
TORSDOF 1
ENDMDL
MODEL 5
REMARK VINA RESULT:    -4.796      3.627      5.719
REMARK INTER + INTRA:          -5.117
REMARK INTER:                  -5.082
REMARK INTRA:                  -0.035
REMARK UNBOUND:                -0.040
REMARK SMILES COc1ccc2ccc(=O)oc2c1
REMARK SMILES IDX 3 1 13 2 12 3 6 4 5 5 4 6 7 7 8 8 9 9 10 10 11 11 2 12 1 13
REMARK H PARENT
REMARK Flexibility Score: inf
ROOT
ATOM      1  C   UNL     1      20.015  23.304  40.514  1.00  0.00     0.122 A 
ATOM      2  C   UNL     1      18.966  23.254  41.442  1.00  0.00     0.094 A 
ATOM      3  C   UNL     1      18.413  24.432  41.953  1.00  0.00     0.142 A 
ATOM      4  C   UNL     1      18.914  25.683  41.533  1.00  0.00     0.018 A 
ATOM      5  C   UNL     1      19.963  25.739  40.606  1.00  0.00     0.016 A 
ATOM      6  C   UNL     1      20.510  24.556  40.099  1.00  0.00     0.047 A 
ATOM      7  C   UNL     1      18.341  26.843  42.062  1.00  0.00     0.019 A 
ATOM      8  C   UNL     1      17.298  26.733  42.983  1.00  0.00     0.094 A 
ATOM      9  C   UNL     1      16.854  25.460  43.354  1.00  0.00     0.336 A 
ATOM     10  O   UNL     1      15.915  25.339  44.183  1.00  0.00    -0.246 OA
ATOM     11  O   UNL     1      17.417  24.372  42.834  1.00  0.00    -0.423 OA
ENDROOT
BRANCH   1  12
ATOM     12  O   UNL     1      20.534  22.093  40.032  1.00  0.00    -0.497 OA
ATOM     13  C   UNL     1      21.241  21.148  40.827  1.00  0.00     0.278 C 
ENDBRANCH   1  12
TORSDOF 1
ENDMDL
MODEL 6
REMARK VINA RESULT:    -4.791      4.554      6.291
REMARK INTER + INTRA:          -5.112
REMARK INTER:                  -5.076
REMARK INTRA:                  -0.036
REMARK UNBOUND:                -0.040
REMARK SMILES COc1ccc2ccc(=O)oc2c1
REMARK SMILES IDX 3 1 13 2 12 3 6 4 5 5 4 6 7 7 8 8 9 9 10 10 11 11 2 12 1 13
REMARK H PARENT
REMARK Flexibility Score: inf
ROOT
ATOM      1  C   UNL     1      17.519  26.305  44.402  1.00  0.00     0.122 A 
ATOM      2  C   UNL     1      17.449  26.172  43.009  1.00  0.00     0.094 A 
ATOM      3  C   UNL     1      18.561  26.459  42.211  1.00  0.00     0.142 A 
ATOM      4  C   UNL     1      19.764  26.887  42.811  1.00  0.00     0.018 A 
ATOM      5  C   UNL     1      19.840  27.021  44.204  1.00  0.00     0.016 A 
ATOM      6  C   UNL     1      18.724  26.732  44.995  1.00  0.00     0.047 A 
ATOM      7  C   UNL     1      20.859  27.167  41.987  1.00  0.00     0.019 A 
ATOM      8  C   UNL     1      20.731  27.017  40.606  1.00  0.00     0.094 A 
ATOM      9  C   UNL     1      19.507  26.590  40.081  1.00  0.00     0.336 A 
ATOM     10  O   UNL     1      19.372  26.449  38.838  1.00  0.00    -0.246 OA
ATOM     11  O   UNL     1      18.482  26.330  40.888  1.00  0.00    -0.423 OA
ENDROOT
BRANCH   1  12
ATOM     12  O   UNL     1      16.376  26.003  45.157  1.00  0.00    -0.497 OA
ATOM     13  C   UNL     1      16.330  25.997  46.579  1.00  0.00     0.278 C 
ENDBRANCH   1  12
TORSDOF 1
ENDMDL
MODEL 7
REMARK VINA RESULT:    -4.578      4.928      6.795
REMARK INTER + INTRA:          -4.886
REMARK INTER:                  -4.853
REMARK INTRA:                  -0.033
REMARK UNBOUND:                -0.040
REMARK SMILES COc1ccc2ccc(=O)oc2c1
REMARK SMILES IDX 3 1 13 2 12 3 6 4 5 5 4 6 7 7 8 8 9 9 10 10 11 11 2 12 1 13
REMARK H PARENT
REMARK Flexibility Score: inf
ROOT
ATOM      1  C   UNL     1      18.810  24.328  41.537  1.00  0.00     0.122 A 
ATOM      2  C   UNL     1      18.820  25.629  42.059  1.00  0.00     0.094 A 
ATOM      3  C   UNL     1      18.342  25.881  43.348  1.00  0.00     0.142 A 
ATOM      4  C   UNL     1      17.844  24.819  44.133  1.00  0.00     0.018 A 
ATOM      5  C   UNL     1      17.832  23.517  43.617  1.00  0.00     0.016 A 
ATOM      6  C   UNL     1      18.312  23.272  42.327  1.00  0.00     0.047 A 
ATOM      7  C   UNL     1      17.372  25.102  45.418  1.00  0.00     0.019 A 
ATOM      8  C   UNL     1      17.407  26.417  45.885  1.00  0.00     0.094 A 
ATOM      9  C   UNL     1      17.913  27.419  45.051  1.00  0.00     0.336 A 
ATOM     10  O   UNL     1      17.952  28.611  45.454  1.00  0.00    -0.246 OA
ATOM     11  O   UNL     1      18.356  27.121  43.833  1.00  0.00    -0.423 OA
ENDROOT
BRANCH   1  12
ATOM     12  O   UNL     1      19.301  24.129  40.239  1.00  0.00    -0.497 OA
ATOM     13  C   UNL     1      20.101  23.020  39.843  1.00  0.00     0.278 C 
ENDBRANCH   1  12
TORSDOF 1
ENDMDL
MODEL 8
REMARK VINA RESULT:    -4.552      7.600      8.550
REMARK INTER + INTRA:          -4.858
REMARK INTER:                  -4.823
REMARK INTRA:                  -0.036
REMARK UNBOUND:                -0.040
REMARK SMILES COc1ccc2ccc(=O)oc2c1
REMARK SMILES IDX 3 1 13 2 12 3 6 4 5 5 4 6 7 7 8 8 9 9 10 10 11 11 2 12 1 13
REMARK H PARENT
REMARK Flexibility Score: inf
ROOT
ATOM      1  C   UNL     1      17.299  22.834  44.880  1.00  0.00     0.122 A 
ATOM      2  C   UNL     1      17.025  22.076  46.026  1.00  0.00     0.094 A 
ATOM      3  C   UNL     1      16.788  20.701  45.929  1.00  0.00     0.142 A 
ATOM      4  C   UNL     1      16.824  20.070  44.668  1.00  0.00     0.018 A 
ATOM      5  C   UNL     1      17.098  20.823  43.518  1.00  0.00     0.016 A 
ATOM      6  C   UNL     1      17.335  22.197  43.623  1.00  0.00     0.047 A 
ATOM      7  C   UNL     1      16.583  18.694  44.602  1.00  0.00     0.019 A 
ATOM      8  C   UNL     1      16.315  17.990  45.777  1.00  0.00     0.094 A 
ATOM      9  C   UNL     1      16.295  18.683  46.992  1.00  0.00     0.336 A 
ATOM     10  O   UNL     1      16.055  18.066  48.062  1.00  0.00    -0.246 OA
ATOM     11  O   UNL     1      16.528  19.992  47.025  1.00  0.00    -0.423 OA
ENDROOT
BRANCH   1  12
ATOM     12  O   UNL     1      17.531  24.209  45.031  1.00  0.00    -0.497 OA
ATOM     13  C   UNL     1      18.029  25.059  44.004  1.00  0.00     0.278 C 
ENDBRANCH   1  12
TORSDOF 1
ENDMDL
MODEL 9
REMARK VINA RESULT:    -4.542      4.075      5.118
REMARK INTER + INTRA:          -4.848
REMARK INTER:                  -4.816
REMARK INTRA:                  -0.032
REMARK UNBOUND:                -0.040
REMARK SMILES COc1ccc2ccc(=O)oc2c1
REMARK SMILES IDX 3 1 13 2 12 3 6 4 5 5 4 6 7 7 8 8 9 9 10 10 11 11 2 12 1 13
REMARK H PARENT
REMARK Flexibility Score: inf
ROOT
ATOM      1  C   UNL     1      17.015  25.277  43.607  1.00  0.00     0.122 A 
ATOM      2  C   UNL     1      17.563  24.153  42.975  1.00  0.00     0.094 A 
ATOM      3  C   UNL     1      18.560  24.299  42.005  1.00  0.00     0.142 A 
ATOM      4  C   UNL     1      19.019  25.587  41.658  1.00  0.00     0.018 A 
ATOM      5  C   UNL     1      18.475  26.715  42.286  1.00  0.00     0.016 A 
ATOM      6  C   UNL     1      17.478  26.561  43.255  1.00  0.00     0.047 A 
ATOM      7  C   UNL     1      20.016  25.701  40.684  1.00  0.00     0.019 A 
ATOM      8  C   UNL     1      20.525  24.546  40.088  1.00  0.00     0.094 A 
ATOM      9  C   UNL     1      20.021  23.302  40.482  1.00  0.00     0.336 A 
ATOM     10  O   UNL     1      20.467  22.249  39.956  1.00  0.00    -0.246 OA
ATOM     11  O   UNL     1      19.073  23.223  41.411  1.00  0.00    -0.423 OA
ENDROOT
BRANCH   1  12
ATOM     12  O   UNL     1      16.018  25.077  44.573  1.00  0.00    -0.497 OA
ATOM     13  C   UNL     1      16.020  25.671  45.866  1.00  0.00     0.278 C 
ENDBRANCH   1  12
TORSDOF 1
ENDMDL
