MODEL 1
REMARK VINA RESULT:    -3.023      0.000      0.000
REMARK INTER + INTRA:          -6.053
REMARK INTER:                  -4.879
REMARK INTRA:                  -1.174
REMARK UNBOUND:                -1.174
REMARK SMILES CCCCCCCCCCCCO
REMARK SMILES IDX 7 1 6 2 5 3 4 4 3 5 2 6 1 7 8 8 9 9 10 10 11 11 12 12 13 13
REMARK H PARENT 13 14
REMARK Flexibility Score: inf
ROOT
ATOM      1  C   UNL     1       0.881   4.197  -5.514  1.00  0.00     0.000 C 
ENDROOT
BRANCH   1   2
ATOM      2  C   UNL     1      -0.080   4.651  -4.400  1.00  0.00    -0.000 C 
BRANCH   2   3
ATOM      3  C   UNL     1      -1.481   5.071  -4.884  1.00  0.00    -0.000 C 
BRANCH   3   4
ATOM      4  C   UNL     1      -2.574   4.059  -4.503  1.00  0.00    -0.000 C 
BRANCH   4   5
ATOM      5  C   UNL     1      -2.668   2.895  -5.511  1.00  0.00    -0.000 C 
BRANCH   5   6
ATOM      6  C   UNL     1      -2.953   3.352  -6.952  1.00  0.00    -0.003 C 
ATOM      7  C   UNL     1      -1.872   2.922  -7.940  1.00  0.00     0.004 C 
ENDBRANCH   5   6
ENDBRANCH   4   5
ENDBRANCH   3   4
ENDBRANCH   2   3
ENDBRANCH   1   2
BRANCH   1   8
ATOM      8  C   UNL     1       1.081   2.674  -5.548  1.00  0.00     0.000 C 
BRANCH   8   9
ATOM      9  C   UNL     1       0.685   2.040  -4.205  1.00  0.00     0.000 C 
BRANCH   9  10
ATOM     10  C   UNL     1       1.821   1.211  -3.585  1.00  0.00     0.002 C 
BRANCH  10  11
ATOM     11  C   UNL     1       3.195   1.882  -3.741  1.00  0.00     0.028 C 
BRANCH  11  12
ATOM     12  C   UNL     1       4.234   1.286  -2.786  1.00  0.00     0.156 C 
BRANCH  12  13
ATOM     13  O   UNL     1       3.608   0.555  -1.765  1.00  0.00    -0.396 OA
ATOM     14  H   UNL     1       2.679   0.898  -1.693  1.00  0.00     0.210 HD
ENDBRANCH  12  13
ENDBRANCH  11  12
ENDBRANCH  10  11
ENDBRANCH   9  10
ENDBRANCH   8   9
ENDBRANCH   1   8
TORSDOF 11
ENDMDL
MODEL 2
REMARK VINA RESULT:    -3.005      3.131      5.893
REMARK INTER + INTRA:          -6.024
REMARK INTER:                  -4.783
REMARK INTRA:                  -1.241
REMARK UNBOUND:                -1.174
REMARK SMILES CCCCCCCCCCCCO
REMARK SMILES IDX 7 1 6 2 5 3 4 4 3 5 2 6 1 7 8 8 9 9 10 10 11 11 12 12 13 13
REMARK H PARENT 13 14
REMARK Flexibility Score: inf
ROOT
ATOM      1  C   UNL     1      -1.323   5.358  -4.474  1.00  0.00     0.000 C 
ENDROOT
BRANCH   1   2
ATOM      2  C   UNL     1       0.081   4.728  -4.439  1.00  0.00    -0.000 C 
BRANCH   2   3
ATOM      3  C   UNL     1       0.545   4.102  -5.768  1.00  0.00    -0.000 C 
BRANCH   3   4
ATOM      4  C   UNL     1       0.826   2.594  -5.654  1.00  0.00    -0.000 C 
BRANCH   4   5
ATOM      5  C   UNL     1       0.468   2.038  -4.260  1.00  0.00    -0.000 C 
BRANCH   5   6
ATOM      6  C   UNL     1       1.617   1.258  -3.597  1.00  0.00    -0.003 C 
ATOM      7  C   UNL     1       2.983   1.903  -3.817  1.00  0.00     0.004 C 
ENDBRANCH   5   6
ENDBRANCH   4   5
ENDBRANCH   3   4
ENDBRANCH   2   3
ENDBRANCH   1   2
BRANCH   1   8
ATOM      8  C   UNL     1      -2.446   4.329  -4.279  1.00  0.00     0.000 C 
BRANCH   8   9
ATOM      9  C   UNL     1      -3.216   4.103  -5.590  1.00  0.00     0.000 C 
BRANCH   9  10
ATOM     10  C   UNL     1      -2.990   2.699  -6.174  1.00  0.00     0.002 C 
BRANCH  10  11
ATOM     11  C   UNL     1      -2.410   2.737  -7.597  1.00  0.00     0.028 C 
BRANCH  11  12
ATOM     12  C   UNL     1      -3.248   3.613  -8.532  1.00  0.00     0.156 C 
BRANCH  12  13
ATOM     13  O   UNL     1      -4.446   2.968  -8.878  1.00  0.00    -0.396 OA
ATOM     14  H   UNL     1      -5.176   3.443  -8.402  1.00  0.00     0.210 HD
ENDBRANCH  12  13
ENDBRANCH  11  12
ENDBRANCH  10  11
ENDBRANCH   9  10
ENDBRANCH   8   9
ENDBRANCH   1   8
TORSDOF 11
ENDMDL
MODEL 3
REMARK VINA RESULT:    -2.953      1.139      2.209
REMARK INTER + INTRA:          -5.939
REMARK INTER:                  -5.168
REMARK INTRA:                  -0.771
REMARK UNBOUND:                -1.174
REMARK SMILES CCCCCCCCCCCCO
REMARK SMILES IDX 7 1 6 2 5 3 4 4 3 5 2 6 1 7 8 8 9 9 10 10 11 11 12 12 13 13
REMARK H PARENT 13 14
REMARK Flexibility Score: inf
ROOT
ATOM      1  C   UNL     1       0.780   2.653  -5.946  1.00  0.00     0.000 C 
ENDROOT
BRANCH   1   2
ATOM      2  C   UNL     1       0.107   2.540  -7.326  1.00  0.00    -0.000 C 
BRANCH   2   3
ATOM      3  C   UNL     1      -0.998   3.578  -7.596  1.00  0.00    -0.000 C 
BRANCH   3   4
ATOM      4  C   UNL     1      -2.381   2.939  -7.805  1.00  0.00    -0.000 C 
BRANCH   4   5
ATOM      5  C   UNL     1      -3.251   3.002  -6.532  1.00  0.00    -0.000 C 
BRANCH   5   6
ATOM      6  C   UNL     1      -3.464   4.431  -6.004  1.00  0.00    -0.003 C 
ATOM      7  C   UNL     1      -3.049   4.598  -4.545  1.00  0.00     0.004 C 
ENDBRANCH   5   6
ENDBRANCH   4   5
ENDBRANCH   3   4
ENDBRANCH   2   3
ENDBRANCH   1   2
BRANCH   1   8
ATOM      8  C   UNL     1      -0.160   2.284  -4.790  1.00  0.00     0.000 C 
BRANCH   8   9
ATOM      9  C   UNL     1       0.600   1.535  -3.684  1.00  0.00     0.000 C 
BRANCH   9  10
ATOM     10  C   UNL     1       2.126   1.675  -3.815  1.00  0.00     0.002 C 
BRANCH  10  11
ATOM     11  C   UNL     1       2.880   0.447  -3.282  1.00  0.00     0.028 C 
BRANCH  11  12
ATOM     12  C   UNL     1       4.136   0.843  -2.499  1.00  0.00     0.156 C 
BRANCH  12  13
ATOM     13  O   UNL     1       3.986   0.547  -1.136  1.00  0.00    -0.396 OA
ATOM     14  H   UNL     1       4.146   1.391  -0.638  1.00  0.00     0.210 HD
ENDBRANCH  12  13
ENDBRANCH  11  12
ENDBRANCH  10  11
ENDBRANCH   9  10
ENDBRANCH   8   9
ENDBRANCH   1   8
TORSDOF 11
ENDMDL
MODEL 4
REMARK VINA RESULT:    -2.916      2.890      6.444
REMARK INTER + INTRA:          -5.880
REMARK INTER:                  -5.300
REMARK INTRA:                  -0.580
REMARK UNBOUND:                -1.174
REMARK SMILES CCCCCCCCCCCCO
REMARK SMILES IDX 7 1 6 2 5 3 4 4 3 5 2 6 1 7 8 8 9 9 10 10 11 11 12 12 13 13
REMARK H PARENT 13 14
REMARK Flexibility Score: inf
ROOT
ATOM      1  C   UNL     1       1.657   2.969  -6.031  1.00  0.00     0.000 C 
ENDROOT
BRANCH   1   2
ATOM      2  C   UNL     1       1.920   3.057  -4.517  1.00  0.00    -0.000 C 
BRANCH   2   3
ATOM      3  C   UNL     1       3.110   2.217  -4.016  1.00  0.00    -0.000 C 
BRANCH   3   4
ATOM      4  C   UNL     1       2.679   0.878  -3.393  1.00  0.00    -0.000 C 
BRANCH   4   5
ATOM      5  C   UNL     1       3.874   0.098  -2.806  1.00  0.00    -0.000 C 
BRANCH   5   6
ATOM      6  C   UNL     1       5.147   0.185  -3.665  1.00  0.00    -0.003 C 
ATOM      7  C   UNL     1       5.668  -1.181  -4.103  1.00  0.00     0.004 C 
ENDBRANCH   5   6
ENDBRANCH   4   5
ENDBRANCH   3   4
ENDBRANCH   2   3
ENDBRANCH   1   2
BRANCH   1   8
ATOM      8  C   UNL     1       0.193   2.650  -6.367  1.00  0.00     0.000 C 
BRANCH   8   9
ATOM      9  C   UNL     1      -0.628   2.432  -5.086  1.00  0.00     0.000 C 
BRANCH   9  10
ATOM     10  C   UNL     1      -2.140   2.588  -5.318  1.00  0.00     0.002 C 
BRANCH  10  11
ATOM     11  C   UNL     1      -2.462   3.369  -6.602  1.00  0.00     0.028 C 
BRANCH  11  12
ATOM     12  C   UNL     1      -3.198   2.502  -7.629  1.00  0.00     0.156 C 
BRANCH  12  13
ATOM     13  O   UNL     1      -3.721   1.350  -7.022  1.00  0.00    -0.396 OA
ATOM     14  H   UNL     1      -3.634   1.476  -6.041  1.00  0.00     0.210 HD
ENDBRANCH  12  13
ENDBRANCH  11  12
ENDBRANCH  10  11
ENDBRANCH   9  10
ENDBRANCH   8   9
ENDBRANCH   1   8
TORSDOF 11
ENDMDL
MODEL 5
REMARK VINA RESULT:    -2.913      1.665      3.425
REMARK INTER + INTRA:          -5.876
REMARK INTER:                  -4.430
REMARK INTRA:                  -1.446
REMARK UNBOUND:                -1.174
REMARK SMILES CCCCCCCCCCCCO
REMARK SMILES IDX 7 1 6 2 5 3 4 4 3 5 2 6 1 7 8 8 9 9 10 10 11 11 12 12 13 13
REMARK H PARENT 13 14
REMARK Flexibility Score: inf
ROOT
ATOM      1  C   UNL     1      -3.220   3.340  -6.458  1.00  0.00     0.000 C 
ENDROOT
BRANCH   1   2
ATOM      2  C   UNL     1      -2.696   4.726  -6.878  1.00  0.00    -0.000 C 
BRANCH   2   3
ATOM      3  C   UNL     1      -2.587   4.944  -8.398  1.00  0.00    -0.000 C 
BRANCH   3   4
ATOM      4  C   UNL     1      -1.155   4.759  -8.929  1.00  0.00    -0.000 C 
BRANCH   4   5
ATOM      5  C   UNL     1      -0.103   4.829  -7.803  1.00  0.00    -0.000 C 
BRANCH   5   6
ATOM      6  C   UNL     1       0.847   3.619  -7.774  1.00  0.00    -0.003 C 
ATOM      7  C   UNL     1       0.160   2.310  -8.155  1.00  0.00     0.004 C 
ENDBRANCH   5   6
ENDBRANCH   4   5
ENDBRANCH   3   4
ENDBRANCH   2   3
ENDBRANCH   1   2
BRANCH   1   8
ATOM      8  C   UNL     1      -2.299   2.631  -5.455  1.00  0.00     0.000 C 
BRANCH   8   9
ATOM      9  C   UNL     1      -1.680   3.637  -4.472  1.00  0.00     0.000 C 
BRANCH   9  10
ATOM     10  C   UNL     1      -0.169   3.426  -4.283  1.00  0.00     0.002 C 
BRANCH  10  11
ATOM     11  C   UNL     1       0.191   1.960  -3.995  1.00  0.00     0.028 C 
BRANCH  11  12
ATOM     12  C   UNL     1       1.706   1.752  -3.899  1.00  0.00     0.156 C 
BRANCH  12  13
ATOM     13  O   UNL     1       2.009   0.712  -3.007  1.00  0.00    -0.396 OA
ATOM     14  H   UNL     1       1.159   0.231  -2.826  1.00  0.00     0.210 HD
ENDBRANCH  12  13
ENDBRANCH  11  12
ENDBRANCH  10  11
ENDBRANCH   9  10
ENDBRANCH   8   9
ENDBRANCH   1   8
TORSDOF 11
ENDMDL
MODEL 6
REMARK VINA RESULT:    -2.900      1.145      2.348
REMARK INTER + INTRA:          -5.855
REMARK INTER:                  -4.310
REMARK INTRA:                  -1.545
REMARK UNBOUND:                -1.174
REMARK SMILES CCCCCCCCCCCCO
REMARK SMILES IDX 7 1 6 2 5 3 4 4 3 5 2 6 1 7 8 8 9 9 10 10 11 11 12 12 13 13
REMARK H PARENT 13 14
REMARK Flexibility Score: inf
ROOT
ATOM      1  C   UNL     1      -1.442   5.377  -5.119  1.00  0.00     0.000 C 
ENDROOT
BRANCH   1   2
ATOM      2  C   UNL     1      -2.749   4.584  -4.936  1.00  0.00    -0.000 C 
BRANCH   2   3
ATOM      3  C   UNL     1      -3.443   4.166  -6.246  1.00  0.00    -0.000 C 
BRANCH   3   4
ATOM      4  C   UNL     1      -3.125   2.719  -6.657  1.00  0.00    -0.000 C 
BRANCH   4   5
ATOM      5  C   UNL     1      -2.400   2.646  -8.018  1.00  0.00    -0.000 C 
BRANCH   5   6
ATOM      6  C   UNL     1      -0.868   2.708  -7.901  1.00  0.00    -0.003 C 
ATOM      7  C   UNL     1      -0.285   4.035  -8.379  1.00  0.00     0.004 C 
ENDBRANCH   5   6
ENDBRANCH   4   5
ENDBRANCH   3   4
ENDBRANCH   2   3
ENDBRANCH   1   2
BRANCH   1   8
ATOM      8  C   UNL     1      -0.207   4.621  -4.608  1.00  0.00     0.000 C 
BRANCH   8   9
ATOM      9  C   UNL     1      -0.616   3.325  -3.890  1.00  0.00     0.000 C 
BRANCH   9  10
ATOM     10  C   UNL     1       0.035   2.076  -4.507  1.00  0.00     0.002 C 
BRANCH  10  11
ATOM     11  C   UNL     1       1.498   2.313  -4.915  1.00  0.00     0.028 C 
BRANCH  11  12
ATOM     12  C   UNL     1       2.473   1.903  -3.807  1.00  0.00     0.156 C 
BRANCH  12  13
ATOM     13  O   UNL     1       1.948   0.845  -3.049  1.00  0.00    -0.396 OA
ATOM     14  H   UNL     1       2.717   0.285  -2.765  1.00  0.00     0.210 HD
ENDBRANCH  12  13
ENDBRANCH  11  12
ENDBRANCH  10  11
ENDBRANCH   9  10
ENDBRANCH   8   9
ENDBRANCH   1   8
TORSDOF 11
ENDMDL
MODEL 7
REMARK VINA RESULT:    -2.893      3.459      5.809
REMARK INTER + INTRA:          -5.843
REMARK INTER:                  -4.312
REMARK INTRA:                  -1.531
REMARK UNBOUND:                -1.174
REMARK SMILES CCCCCCCCCCCCO
REMARK SMILES IDX 7 1 6 2 5 3 4 4 3 5 2 6 1 7 8 8 9 9 10 10 11 11 12 12 13 13
REMARK H PARENT 13 14
REMARK Flexibility Score: inf
ROOT
ATOM      1  C   UNL     1      -0.622   3.842  -4.125  1.00  0.00     0.000 C 
ENDROOT
BRANCH   1   2
ATOM      2  C   UNL     1       0.088   2.505  -4.406  1.00  0.00    -0.000 C 
BRANCH   2   3
ATOM      3  C   UNL     1       1.549   2.633  -4.876  1.00  0.00    -0.000 C 
BRANCH   3   4
ATOM      4  C   UNL     1       1.673   3.213  -6.295  1.00  0.00    -0.000 C 
BRANCH   4   5
ATOM      5  C   UNL     1       0.675   2.566  -7.279  1.00  0.00    -0.000 C 
BRANCH   5   6
ATOM      6  C   UNL     1       0.014   3.574  -8.234  1.00  0.00    -0.003 C 
ATOM      7  C   UNL     1      -0.026   4.993  -7.673  1.00  0.00     0.004 C 
ENDBRANCH   5   6
ENDBRANCH   4   5
ENDBRANCH   3   4
ENDBRANCH   2   3
ENDBRANCH   1   2
BRANCH   1   8
ATOM      8  C   UNL     1      -2.041   3.900  -4.709  1.00  0.00     0.000 C 
BRANCH   8   9
ATOM      9  C   UNL     1      -2.432   2.552  -5.335  1.00  0.00     0.000 C 
BRANCH   9  10
ATOM     10  C   UNL     1      -3.172   2.713  -6.673  1.00  0.00     0.002 C 
BRANCH  10  11
ATOM     11  C   UNL     1      -3.789   4.111  -6.842  1.00  0.00     0.028 C 
BRANCH  11  12
ATOM     12  C   UNL     1      -4.425   4.291  -8.224  1.00  0.00     0.156 C 
BRANCH  12  13
ATOM     13  O   UNL     1      -4.520   3.060  -8.891  1.00  0.00    -0.396 OA
ATOM     14  H   UNL     1      -5.447   2.731  -8.758  1.00  0.00     0.210 HD
ENDBRANCH  12  13
ENDBRANCH  11  12
ENDBRANCH  10  11
ENDBRANCH   9  10
ENDBRANCH   8   9
ENDBRANCH   1   8
TORSDOF 11
ENDMDL
MODEL 8
REMARK VINA RESULT:    -2.879      1.198      2.763
REMARK INTER + INTRA:          -5.820
REMARK INTER:                  -4.437
REMARK INTRA:                  -1.383
REMARK UNBOUND:                -1.174
REMARK SMILES CCCCCCCCCCCCO
REMARK SMILES IDX 7 1 6 2 5 3 4 4 3 5 2 6 1 7 8 8 9 9 10 10 11 11 12 12 13 13
REMARK H PARENT 13 14
REMARK Flexibility Score: inf
ROOT
ATOM      1  C   UNL     1      -0.299   2.619  -7.225  1.00  0.00     0.000 C 
ENDROOT
BRANCH   1   2
ATOM      2  C   UNL     1      -1.660   3.293  -6.973  1.00  0.00    -0.000 C 
BRANCH   2   3
ATOM      3  C   UNL     1      -2.381   2.839  -5.690  1.00  0.00    -0.000 C 
BRANCH   3   4
ATOM      4  C   UNL     1      -2.161   3.799  -4.508  1.00  0.00    -0.000 C 
BRANCH   4   5
ATOM      5  C   UNL     1      -1.754   5.212  -4.974  1.00  0.00    -0.000 C 
BRANCH   5   6
ATOM      6  C   UNL     1      -0.455   5.721  -4.325  1.00  0.00    -0.003 C 
ATOM      7  C   UNL     1       0.274   6.756  -5.179  1.00  0.00     0.004 C 
ENDBRANCH   5   6
ENDBRANCH   4   5
ENDBRANCH   3   4
ENDBRANCH   2   3
ENDBRANCH   1   2
BRANCH   1   8
ATOM      8  C   UNL     1       0.847   3.628  -7.390  1.00  0.00     0.000 C 
BRANCH   8   9
ATOM      9  C   UNL     1       1.853   3.507  -6.234  1.00  0.00     0.000 C 
BRANCH   9  10
ATOM     10  C   UNL     1       1.360   2.575  -5.116  1.00  0.00     0.002 C 
BRANCH  10  11
ATOM     11  C   UNL     1       2.476   2.189  -4.133  1.00  0.00     0.028 C 
BRANCH  11  12
ATOM     12  C   UNL     1       2.159   0.887  -3.391  1.00  0.00     0.156 C 
BRANCH  12  13
ATOM     13  O   UNL     1       3.040   0.701  -2.314  1.00  0.00    -0.396 OA
ATOM     14  H   UNL     1       3.774   1.359  -2.426  1.00  0.00     0.210 HD
ENDBRANCH  12  13
ENDBRANCH  11  12
ENDBRANCH  10  11
ENDBRANCH   9  10
ENDBRANCH   8   9
ENDBRANCH   1   8
TORSDOF 11
ENDMDL
MODEL 9
REMARK VINA RESULT:    -2.808      3.156      5.012
REMARK INTER + INTRA:          -5.706
REMARK INTER:                  -4.225
REMARK INTRA:                  -1.482
REMARK UNBOUND:                -1.174
REMARK SMILES CCCCCCCCCCCCO
REMARK SMILES IDX 7 1 6 2 5 3 4 4 3 5 2 6 1 7 8 8 9 9 10 10 11 11 12 12 13 13
REMARK H PARENT 13 14
REMARK Flexibility Score: inf
ROOT
ATOM      1  C   UNL     1       1.386   3.053  -6.042  1.00  0.00     0.000 C 
ENDROOT
BRANCH   1   2
ATOM      2  C   UNL     1       0.625   2.242  -4.977  1.00  0.00    -0.000 C 
BRANCH   2   3
ATOM      3  C   UNL     1      -0.430   3.038  -4.187  1.00  0.00    -0.000 C 
BRANCH   3   4
ATOM      4  C   UNL     1      -1.825   2.990  -4.833  1.00  0.00    -0.000 C 
BRANCH   4   5
ATOM      5  C   UNL     1      -2.655   4.254  -4.525  1.00  0.00    -0.000 C 
BRANCH   5   6
ATOM      6  C   UNL     1      -2.651   5.284  -5.667  1.00  0.00    -0.003 C 
ATOM      7  C   UNL     1      -1.543   6.325  -5.530  1.00  0.00     0.004 C 
ENDBRANCH   5   6
ENDBRANCH   4   5
ENDBRANCH   3   4
ENDBRANCH   2   3
ENDBRANCH   1   2
BRANCH   1   8
ATOM      8  C   UNL     1       0.833   2.847  -7.459  1.00  0.00     0.000 C 
BRANCH   8   9
ATOM      9  C   UNL     1       0.205   4.144  -7.995  1.00  0.00     0.000 C 
BRANCH   9  10
ATOM     10  C   UNL     1      -1.120   3.897  -8.736  1.00  0.00     0.002 C 
BRANCH  10  11
ATOM     11  C   UNL     1      -1.685   2.491  -8.482  1.00  0.00     0.028 C 
BRANCH  11  12
ATOM     12  C   UNL     1      -3.201   2.515  -8.262  1.00  0.00     0.156 C 
BRANCH  12  13
ATOM     13  O   UNL     1      -3.615   1.393  -7.529  1.00  0.00    -0.396 OA
ATOM     14  H   UNL     1      -2.992   1.304  -6.762  1.00  0.00     0.210 HD
ENDBRANCH  12  13
ENDBRANCH  11  12
ENDBRANCH  10  11
ENDBRANCH   9  10
ENDBRANCH   8   9
ENDBRANCH   1   8
TORSDOF 11
ENDMDL
