MODEL 1
REMARK VINA RESULT:    -4.115      0.000      0.000
REMARK INTER + INTRA:          -6.404
REMARK INTER:                  -6.280
REMARK INTRA:                  -0.125
REMARK UNBOUND:                -0.125
REMARK SMILES CC1=CCC[C@@H](C)C(=O)C[C@H](C(C)C)C(=O)C1
REMARK SMILES IDX 8 1 9 2 6 3 7 4 5 5 4 6 3 7 2 8 1 9 10 11 11 12 15 13 16 14
REMARK SMILES IDX 17 15 12 17 13 18 14 19
REMARK H PARENT
REMARK Flexibility Score: 70.00
ROOT
ATOM      1  C   UNL     1      12.487  15.205  24.966  1.00  0.00     0.136 C 
ATOM      2  O   UNL     1      12.755  14.119  25.452  1.00  0.00    -0.299 OA
ENDROOT
BRANCH   1   3
ATOM      3  C   UNL     1      11.253  15.310  24.081  1.00  0.00     0.053 C 
ATOM      4  C   UNL     1      10.422  14.018  24.095  1.00  0.00     0.016 C 
BRANCH   3   5
ATOM      5  C   UNL     1      11.630  15.719  22.644  1.00  0.00     0.015 C 
BRANCH   5   6
ATOM      6  C   UNL     1      11.496  17.241  22.428  1.00  0.00     0.028 C 
BRANCH   6   7
ATOM      7  C   UNL     1      12.504  17.765  21.438  1.00  0.00    -0.028 C 
ATOM      8  C   UNL     1      13.671  18.363  21.774  1.00  0.00    -0.070 CG0
ATOM      9  C   UNL     1      14.566  18.851  20.664  1.00  0.00     0.039 C 
ATOM     10  G   UNL     1      14.135  18.531  23.213  1.00  0.00     0.000 G0
ENDBRANCH   6   7
ENDBRANCH   5   6
ENDBRANCH   3   5
ENDBRANCH   1   3
BRANCH   1  11
ATOM     11  C   UNL     1      13.423  16.377  25.199  1.00  0.00     0.087 C 
BRANCH  11  12
ATOM     12  C   UNL     1      14.824  16.317  24.526  1.00  0.00     0.066 C 
BRANCH  12  13
ATOM     13  C   UNL     1      15.155  17.517  23.642  1.00  0.00     0.140 C 
ATOM     14  O   UNL     1      16.320  17.680  23.307  1.00  0.00    -0.299 OA
BRANCH  13  15
ATOM     15  C   UNL     1      14.130  18.547  23.224  1.00  0.00     0.106 CG0
ATOM     16  G   UNL     1      13.686  18.357  21.782  1.00  0.00     0.000 G0
ENDBRANCH  13  15
ENDBRANCH  12  13
BRANCH  12  17
ATOM     17  C   UNL     1      15.987  15.778  25.423  1.00  0.00    -0.006 C 
ATOM     18  C   UNL     1      15.737  16.068  26.912  1.00  0.00     0.008 C 
ATOM     19  C   UNL     1      16.358  14.302  25.223  1.00  0.00     0.008 C 
ENDBRANCH  12  17
ENDBRANCH  11  12
ENDBRANCH   1  11
TORSDOF 1
ENDMDL
MODEL 2
REMARK VINA RESULT:    -3.961      4.634      7.119
REMARK INTER + INTRA:          -6.169
REMARK INTER:                  -6.285
REMARK INTRA:                   0.115
REMARK UNBOUND:                -0.125
REMARK SMILES CC1=CCC[C@@H](C)C(=O)C[C@H](C(C)C)C(=O)C1
REMARK SMILES IDX 8 1 9 2 6 3 7 4 5 5 4 6 3 7 2 8 1 9 10 11 11 12 15 13 16 14
REMARK SMILES IDX 17 15 12 17 13 18 14 19
REMARK H PARENT
REMARK Flexibility Score: 70.00
ROOT
ATOM      1  C   UNL     1      17.296  14.837  23.863  1.00  0.00     0.136 C 
ATOM      2  O   UNL     1      17.236  13.969  23.008  1.00  0.00    -0.299 OA
ENDROOT
BRANCH   1   3
ATOM      3  C   UNL     1      16.460  14.664  25.122  1.00  0.00     0.053 C 
ATOM      4  C   UNL     1      15.525  15.858  25.362  1.00  0.00     0.016 C 
BRANCH   3   5
ATOM      5  C   UNL     1      17.351  14.393  26.351  1.00  0.00     0.015 C 
BRANCH   5   6
ATOM      6  C   UNL     1      18.292  13.192  26.122  1.00  0.00     0.028 C 
BRANCH   6   7
ATOM      7  C   UNL     1      19.696  13.472  26.592  1.00  0.00    -0.028 C 
ATOM      8  C   UNL     1      20.756  13.663  25.772  1.00  0.00    -0.070 CG0
ATOM      9  C   UNL     1      22.103  13.916  26.400  1.00  0.00     0.039 C 
ATOM     10  G   UNL     1      20.644  13.673  24.256  1.00  0.00     0.000 G0
ENDBRANCH   6   7
ENDBRANCH   5   6
ENDBRANCH   3   5
ENDBRANCH   1   3
BRANCH   1  11
ATOM     11  C   UNL     1      18.136  16.076  23.607  1.00  0.00     0.087 C 
BRANCH  11  12
ATOM     12  C   UNL     1      19.555  16.121  24.245  1.00  0.00     0.066 C 
BRANCH  12  13
ATOM     13  C   UNL     1      20.534  15.092  23.688  1.00  0.00     0.140 C 
ATOM     14  O   UNL     1      21.209  15.407  22.718  1.00  0.00    -0.299 OA
BRANCH  13  15
ATOM     15  C   UNL     1      20.658  13.686  24.231  1.00  0.00     0.106 CG0
ATOM     16  G   UNL     1      20.764  13.667  25.748  1.00  0.00     0.000 G0
ENDBRANCH  13  15
ENDBRANCH  12  13
BRANCH  12  17
ATOM     17  C   UNL     1      20.133  17.550  24.514  1.00  0.00    -0.006 C 
ATOM     18  C   UNL     1      21.556  17.488  25.092  1.00  0.00     0.008 C 
ATOM     19  C   UNL     1      20.080  18.528  23.332  1.00  0.00     0.008 C 
ENDBRANCH  12  17
ENDBRANCH  11  12
ENDBRANCH   1  11
TORSDOF 1
ENDMDL
MODEL 3
REMARK VINA RESULT:    -3.946      1.734      3.943
REMARK INTER + INTRA:          -6.146
REMARK INTER:                  -6.212
REMARK INTRA:                   0.065
REMARK UNBOUND:                -0.125
REMARK SMILES CC1=CCC[C@@H](C)C(=O)C[C@H](C(C)C)C(=O)C1
REMARK SMILES IDX 8 1 9 2 6 3 7 4 5 5 4 6 3 7 2 8 1 9 10 11 11 12 15 13 16 14
REMARK SMILES IDX 17 15 12 17 13 18 14 19
REMARK H PARENT
REMARK Flexibility Score: 70.00
ROOT
ATOM      1  C   UNL     1      15.565  17.787  22.741  1.00  0.00     0.136 C 
ATOM      2  O   UNL     1      16.554  18.500  22.799  1.00  0.00    -0.299 OA
ENDROOT
BRANCH   1   3
ATOM      3  C   UNL     1      14.291  18.376  22.152  1.00  0.00     0.053 C 
ATOM      4  C   UNL     1      13.687  19.461  23.055  1.00  0.00     0.016 C 
BRANCH   3   5
ATOM      5  C   UNL     1      13.262  17.273  21.835  1.00  0.00     0.015 C 
BRANCH   5   6
ATOM      6  C   UNL     1      12.082  17.288  22.829  1.00  0.00     0.028 C 
BRANCH   6   7
ATOM      7  C   UNL     1      11.988  16.009  23.620  1.00  0.00    -0.028 C 
ATOM      8  C   UNL     1      12.643  15.775  24.781  1.00  0.00    -0.070 CG0
ATOM      9  C   UNL     1      12.458  14.434  25.444  1.00  0.00     0.039 C 
ATOM     10  G   UNL     1      13.523  16.811  25.464  1.00  0.00     0.000 G0
ENDBRANCH   6   7
ENDBRANCH   5   6
ENDBRANCH   3   5
ENDBRANCH   1   3
BRANCH   1  11
ATOM     11  C   UNL     1      15.624  16.384  23.318  1.00  0.00     0.087 C 
BRANCH  11  12
ATOM     12  C   UNL     1      16.057  16.241  24.806  1.00  0.00     0.066 C 
BRANCH  12  13
ATOM     13  C   UNL     1      14.905  16.259  25.806  1.00  0.00     0.140 C 
ATOM     14  O   UNL     1      15.089  15.751  26.904  1.00  0.00    -0.299 OA
BRANCH  13  15
ATOM     15  C   UNL     1      13.534  16.809  25.484  1.00  0.00     0.106 CG0
ATOM     16  G   UNL     1      12.659  15.783  24.781  1.00  0.00     0.000 G0
ENDBRANCH  13  15
ENDBRANCH  12  13
BRANCH  12  17
ATOM     17  C   UNL     1      17.198  15.208  25.084  1.00  0.00    -0.006 C 
ATOM     18  C   UNL     1      17.294  14.152  23.969  1.00  0.00     0.008 C 
ATOM     19  C   UNL     1      18.583  15.801  25.375  1.00  0.00     0.008 C 
ENDBRANCH  12  17
ENDBRANCH  11  12
ENDBRANCH   1  11
TORSDOF 1
ENDMDL
MODEL 4
REMARK VINA RESULT:    -3.823      4.431      6.936
REMARK INTER + INTRA:          -5.959
REMARK INTER:                  -5.826
REMARK INTRA:                  -0.133
REMARK UNBOUND:                -0.125
REMARK SMILES CC1=CCC[C@@H](C)C(=O)C[C@H](C(C)C)C(=O)C1
REMARK SMILES IDX 8 1 9 2 6 3 7 4 5 5 4 6 3 7 2 8 1 9 10 11 11 12 15 13 16 14
REMARK SMILES IDX 17 15 12 17 13 18 14 19
REMARK H PARENT
REMARK Flexibility Score: 70.00
ROOT
ATOM      1  C   UNL     1      17.730  16.418  23.755  1.00  0.00     0.136 C 
ATOM      2  O   UNL     1      17.376  17.542  23.437  1.00  0.00    -0.299 OA
ENDROOT
BRANCH   1   3
ATOM      3  C   UNL     1      16.722  15.521  24.459  1.00  0.00     0.053 C 
ATOM      4  C   UNL     1      15.360  15.518  23.750  1.00  0.00     0.016 C 
BRANCH   3   5
ATOM      5  C   UNL     1      16.580  15.901  25.946  1.00  0.00     0.015 C 
BRANCH   5   6
ATOM      6  C   UNL     1      17.433  14.990  26.854  1.00  0.00     0.028 C 
BRANCH   6   7
ATOM      7  C   UNL     1      17.737  13.665  26.205  1.00  0.00    -0.028 C 
ATOM      8  C   UNL     1      18.983  13.210  25.935  1.00  0.00    -0.070 CG0
ATOM      9  C   UNL     1      19.120  11.868  25.264  1.00  0.00     0.039 C 
ATOM     10  G   UNL     1      20.245  13.971  26.310  1.00  0.00     0.000 G0
ENDBRANCH   6   7
ENDBRANCH   5   6
ENDBRANCH   3   5
ENDBRANCH   1   3
BRANCH   1  11
ATOM     11  C   UNL     1      19.165  15.991  23.504  1.00  0.00     0.087 C 
BRANCH  11  12
ATOM     12  C   UNL     1      20.167  16.123  24.688  1.00  0.00     0.066 C 
BRANCH  12  13
ATOM     13  C   UNL     1      20.791  14.806  25.140  1.00  0.00     0.140 C 
ATOM     14  O   UNL     1      21.731  14.364  24.494  1.00  0.00    -0.299 OA
BRANCH  13  15
ATOM     15  C   UNL     1      20.262  13.991  26.299  1.00  0.00     0.106 CG0
ATOM     16  G   UNL     1      19.003  13.223  25.929  1.00  0.00     0.000 G0
ENDBRANCH  13  15
ENDBRANCH  12  13
BRANCH  12  17
ATOM     17  C   UNL     1      21.124  17.359  24.632  1.00  0.00    -0.006 C 
ATOM     18  C   UNL     1      20.594  18.447  23.683  1.00  0.00     0.008 C 
ATOM     19  C   UNL     1      21.505  17.973  25.986  1.00  0.00     0.008 C 
ENDBRANCH  12  17
ENDBRANCH  11  12
ENDBRANCH   1  11
TORSDOF 1
ENDMDL
MODEL 5
REMARK VINA RESULT:    -3.771      5.113      6.998
REMARK INTER + INTRA:          -5.879
REMARK INTER:                  -5.994
REMARK INTRA:                   0.115
REMARK UNBOUND:                -0.125
REMARK SMILES CC1=CCC[C@@H](C)C(=O)C[C@H](C(C)C)C(=O)C1
REMARK SMILES IDX 8 1 9 2 6 3 7 4 5 5 4 6 3 7 2 8 1 9 10 11 11 12 15 13 16 14
REMARK SMILES IDX 17 15 12 17 13 18 14 19
REMARK H PARENT
REMARK Flexibility Score: 70.00
ROOT
ATOM      1  C   UNL     1      18.311  14.536  23.727  1.00  0.00     0.136 C 
ATOM      2  O   UNL     1      17.284  13.994  23.352  1.00  0.00    -0.299 OA
ENDROOT
BRANCH   1   3
ATOM      3  C   UNL     1      18.195  15.872  24.446  1.00  0.00     0.053 C 
ATOM      4  C   UNL     1      17.033  15.888  25.449  1.00  0.00     0.016 C 
BRANCH   3   5
ATOM      5  C   UNL     1      18.086  17.037  23.442  1.00  0.00     0.015 C 
BRANCH   5   6
ATOM      6  C   UNL     1      19.243  18.044  23.606  1.00  0.00     0.028 C 
BRANCH   6   7
ATOM      7  C   UNL     1      20.441  17.676  22.769  1.00  0.00    -0.028 C 
ATOM      8  C   UNL     1      21.474  16.915  23.200  1.00  0.00    -0.070 CG0
ATOM      9  C   UNL     1      22.609  16.651  22.244  1.00  0.00     0.039 C 
ATOM     10  G   UNL     1      21.524  16.287  24.584  1.00  0.00     0.000 G0
ENDBRANCH   6   7
ENDBRANCH   5   6
ENDBRANCH   3   5
ENDBRANCH   1   3
BRANCH   1  11
ATOM     11  C   UNL     1      19.651  13.899  23.403  1.00  0.00     0.087 C 
BRANCH  11  12
ATOM     12  C   UNL     1      20.673  13.753  24.567  1.00  0.00     0.066 C 
BRANCH  12  13
ATOM     13  C   UNL     1      21.789  14.794  24.565  1.00  0.00     0.140 C 
ATOM     14  O   UNL     1      22.945  14.396  24.603  1.00  0.00    -0.299 OA
BRANCH  13  15
ATOM     15  C   UNL     1      21.534  16.284  24.590  1.00  0.00     0.106 CG0
ATOM     16  G   UNL     1      21.493  16.880  23.192  1.00  0.00     0.000 G0
ENDBRANCH  13  15
ENDBRANCH  12  13
BRANCH  12  17
ATOM     17  C   UNL     1      20.065  13.393  25.963  1.00  0.00    -0.006 C 
ATOM     18  C   UNL     1      19.187  12.132  25.893  1.00  0.00     0.008 C 
ATOM     19  C   UNL     1      21.066  13.281  27.121  1.00  0.00     0.008 C 
ENDBRANCH  12  17
ENDBRANCH  11  12
ENDBRANCH   1  11
TORSDOF 1
ENDMDL
MODEL 6
REMARK VINA RESULT:    -3.756      2.043      4.797
REMARK INTER + INTRA:          -5.857
REMARK INTER:                  -5.877
REMARK INTRA:                   0.020
REMARK UNBOUND:                -0.125
REMARK SMILES CC1=CCC[C@@H](C)C(=O)C[C@H](C(C)C)C(=O)C1
REMARK SMILES IDX 8 1 9 2 6 3 7 4 5 5 4 6 3 7 2 8 1 9 10 11 11 12 15 13 16 14
REMARK SMILES IDX 17 15 12 17 13 18 14 19
REMARK H PARENT
REMARK Flexibility Score: 70.00
ROOT
ATOM      1  C   UNL     1      14.845  16.946  24.533  1.00  0.00     0.136 C 
ATOM      2  O   UNL     1      15.874  16.821  23.888  1.00  0.00    -0.299 OA
ENDROOT
BRANCH   1   3
ATOM      3  C   UNL     1      14.714  16.167  25.834  1.00  0.00     0.053 C 
ATOM      4  C   UNL     1      15.637  14.940  25.865  1.00  0.00     0.016 C 
BRANCH   3   5
ATOM      5  C   UNL     1      13.249  15.774  26.104  1.00  0.00     0.015 C 
BRANCH   5   6
ATOM      6  C   UNL     1      12.846  14.499  25.333  1.00  0.00     0.028 C 
BRANCH   6   7
ATOM      7  C   UNL     1      11.379  14.482  24.990  1.00  0.00    -0.028 C 
ATOM      8  C   UNL     1      10.866  14.838  23.789  1.00  0.00    -0.070 CG0
ATOM      9  C   UNL     1       9.371  14.782  23.610  1.00  0.00     0.039 C 
ATOM     10  G   UNL     1      11.728  15.253  22.607  1.00  0.00     0.000 G0
ENDBRANCH   6   7
ENDBRANCH   5   6
ENDBRANCH   3   5
ENDBRANCH   1   3
BRANCH   1  11
ATOM     11  C   UNL     1      13.721  17.806  23.982  1.00  0.00     0.087 C 
BRANCH  11  12
ATOM     12  C   UNL     1      13.213  17.484  22.547  1.00  0.00     0.066 C 
BRANCH  12  13
ATOM     13  C   UNL     1      11.863  16.774  22.496  1.00  0.00     0.140 C 
ATOM     14  O   UNL     1      10.854  17.462  22.430  1.00  0.00    -0.299 OA
BRANCH  13  15
ATOM     15  C   UNL     1      11.712  15.273  22.595  1.00  0.00     0.106 CG0
ATOM     16  G   UNL     1      10.855  14.862  23.782  1.00  0.00     0.000 G0
ENDBRANCH  13  15
ENDBRANCH  12  13
BRANCH  12  17
ATOM     17  C   UNL     1      13.447  18.603  21.478  1.00  0.00    -0.006 C 
ATOM     18  C   UNL     1      13.364  20.008  22.097  1.00  0.00     0.008 C 
ATOM     19  C   UNL     1      14.722  18.467  20.635  1.00  0.00     0.008 C 
ENDBRANCH  12  17
ENDBRANCH  11  12
ENDBRANCH   1  11
TORSDOF 1
ENDMDL
MODEL 7
REMARK VINA RESULT:    -3.697      3.578      5.194
REMARK INTER + INTRA:          -5.766
REMARK INTER:                  -6.002
REMARK INTRA:                   0.236
REMARK UNBOUND:                -0.125
REMARK SMILES CC1=CCC[C@@H](C)C(=O)C[C@H](C(C)C)C(=O)C1
REMARK SMILES IDX 8 1 9 2 6 3 7 4 5 5 4 6 3 7 2 8 1 9 10 11 11 12 15 13 16 14
REMARK SMILES IDX 17 15 12 17 13 18 14 19
REMARK H PARENT
REMARK Flexibility Score: 70.00
ROOT
ATOM      1  C   UNL     1      16.456  14.883  25.677  1.00  0.00     0.136 C 
ATOM      2  O   UNL     1      15.822  13.992  25.137  1.00  0.00    -0.299 OA
ENDROOT
BRANCH   1   3
ATOM      3  C   UNL     1      15.855  16.282  25.695  1.00  0.00     0.053 C 
ATOM      4  C   UNL     1      14.643  16.376  26.633  1.00  0.00     0.016 C 
BRANCH   3   5
ATOM      5  C   UNL     1      15.502  16.755  24.271  1.00  0.00     0.015 C 
BRANCH   5   6
ATOM      6  C   UNL     1      16.682  16.565  23.295  1.00  0.00     0.028 C 
BRANCH   6   7
ATOM      7  C   UNL     1      17.751  17.609  23.486  1.00  0.00    -0.028 C 
ATOM      8  C   UNL     1      19.076  17.346  23.569  1.00  0.00    -0.070 CG0
ATOM      9  C   UNL     1      20.020  18.502  23.778  1.00  0.00     0.039 C 
ATOM     10  G   UNL     1      19.657  15.947  23.423  1.00  0.00     0.000 G0
ENDBRANCH   6   7
ENDBRANCH   5   6
ENDBRANCH   3   5
ENDBRANCH   1   3
BRANCH   1  11
ATOM     11  C   UNL     1      17.834  14.582  26.239  1.00  0.00     0.087 C 
BRANCH  11  12
ATOM     12  C   UNL     1      18.931  14.129  25.234  1.00  0.00     0.066 C 
BRANCH  12  13
ATOM     13  C   UNL     1      19.853  15.247  24.755  1.00  0.00     0.140 C 
ATOM     14  O   UNL     1      20.732  15.632  25.515  1.00  0.00    -0.299 OA
BRANCH  13  15
ATOM     15  C   UNL     1      19.689  15.945  23.424  1.00  0.00     0.106 CG0
ATOM     16  G   UNL     1      19.082  17.331  23.577  1.00  0.00     0.000 G0
ENDBRANCH  13  15
ENDBRANCH  12  13
BRANCH  12  17
ATOM     17  C   UNL     1      19.614  12.757  25.548  1.00  0.00    -0.006 C 
ATOM     18  C   UNL     1      20.594  12.865  26.728  1.00  0.00     0.008 C 
ATOM     19  C   UNL     1      18.665  11.567  25.751  1.00  0.00     0.008 C 
ENDBRANCH  12  17
ENDBRANCH  11  12
ENDBRANCH   1  11
TORSDOF 1
ENDMDL
MODEL 8
REMARK VINA RESULT:    -3.581      9.794     12.161
REMARK INTER + INTRA:          -5.590
REMARK INTER:                  -5.639
REMARK INTRA:                   0.049
REMARK UNBOUND:                -0.125
REMARK SMILES CC1=CCC[C@@H](C)C(=O)C[C@H](C(C)C)C(=O)C1
REMARK SMILES IDX 8 1 9 2 6 3 7 4 5 5 4 6 3 7 2 8 1 9 10 11 11 12 15 13 16 14
REMARK SMILES IDX 17 15 12 17 13 18 14 19
REMARK H PARENT
REMARK Flexibility Score: 70.00
ROOT
ATOM      1  C   UNL     1      19.127  16.966  16.200  1.00  0.00     0.136 C 
ATOM      2  O   UNL     1      18.676  18.098  16.262  1.00  0.00    -0.299 OA
ENDROOT
BRANCH   1   3
ATOM      3  C   UNL     1      20.240  16.584  17.166  1.00  0.00     0.053 C 
ATOM      4  C   UNL     1      20.875  17.815  17.830  1.00  0.00     0.016 C 
BRANCH   3   5
ATOM      5  C   UNL     1      21.304  15.709  16.474  1.00  0.00     0.015 C 
BRANCH   5   6
ATOM      6  C   UNL     1      21.962  16.440  15.285  1.00  0.00     0.028 C 
BRANCH   6   7
ATOM      7  C   UNL     1      22.341  15.494  14.175  1.00  0.00    -0.028 C 
ATOM      8  C   UNL     1      21.802  15.512  12.933  1.00  0.00    -0.070 CG0
ATOM      9  C   UNL     1      22.277  14.485  11.938  1.00  0.00     0.039 C 
ATOM     10  G   UNL     1      20.772  16.538  12.488  1.00  0.00     0.000 G0
ENDBRANCH   6   7
ENDBRANCH   5   6
ENDBRANCH   3   5
ENDBRANCH   1   3
BRANCH   1  11
ATOM     11  C   UNL     1      18.619  16.019  15.129  1.00  0.00     0.087 C 
BRANCH  11  12
ATOM     12  C   UNL     1      18.410  16.601  13.701  1.00  0.00     0.066 C 
BRANCH  12  13
ATOM     13  C   UNL     1      19.356  16.040  12.643  1.00  0.00     0.140 C 
ATOM     14  O   UNL     1      18.959  15.111  11.952  1.00  0.00    -0.299 OA
BRANCH  13  15
ATOM     15  C   UNL     1      20.775  16.527  12.456  1.00  0.00     0.106 CG0
ATOM     16  G   UNL     1      21.796  15.505  12.930  1.00  0.00     0.000 G0
ENDBRANCH  13  15
ENDBRANCH  12  13
BRANCH  12  17
ATOM     17  C   UNL     1      16.922  16.804  13.261  1.00  0.00    -0.006 C 
ATOM     18  C   UNL     1      15.950  16.603  14.435  1.00  0.00     0.008 C 
ATOM     19  C   UNL     1      16.613  18.119  12.533  1.00  0.00     0.008 C 
ENDBRANCH  12  17
ENDBRANCH  11  12
ENDBRANCH   1  11
TORSDOF 1
ENDMDL
MODEL 9
REMARK VINA RESULT:    -3.576      9.319     11.637
REMARK INTER + INTRA:          -5.581
REMARK INTER:                  -5.358
REMARK INTRA:                  -0.224
REMARK UNBOUND:                -0.125
REMARK SMILES CC1=CCC[C@@H](C)C(=O)C[C@H](C(C)C)C(=O)C1
REMARK SMILES IDX 8 1 9 2 6 3 7 4 5 5 4 6 3 7 2 8 1 9 10 11 11 12 15 13 16 14
REMARK SMILES IDX 17 15 12 17 13 18 14 19
REMARK H PARENT
REMARK Flexibility Score: 70.00
ROOT
ATOM      1  C   UNL     1      17.755  16.327  12.803  1.00  0.00     0.136 C 
ATOM      2  O   UNL     1      17.611  16.917  11.745  1.00  0.00    -0.299 OA
ENDROOT
BRANCH   1   3
ATOM      3  C   UNL     1      16.681  16.492  13.868  1.00  0.00     0.053 C 
ATOM      4  C   UNL     1      15.285  16.676  13.255  1.00  0.00     0.016 C 
BRANCH   3   5
ATOM      5  C   UNL     1      17.026  17.642  14.835  1.00  0.00     0.015 C 
BRANCH   5   6
ATOM      6  C   UNL     1      17.387  17.120  16.241  1.00  0.00     0.028 C 
BRANCH   6   7
ATOM      7  C   UNL     1      18.653  17.742  16.770  1.00  0.00    -0.028 C 
ATOM      8  C   UNL     1      19.887  17.201  16.642  1.00  0.00    -0.070 CG0
ATOM      9  C   UNL     1      21.054  17.940  17.245  1.00  0.00     0.039 C 
ATOM     10  G   UNL     1      20.153  15.906  15.890  1.00  0.00     0.000 G0
ENDBRANCH   6   7
ENDBRANCH   5   6
ENDBRANCH   3   5
ENDBRANCH   1   3
BRANCH   1  11
ATOM     11  C   UNL     1      19.019  15.520  13.039  1.00  0.00     0.087 C 
BRANCH  11  12
ATOM     12  C   UNL     1      20.342  16.310  13.252  1.00  0.00     0.066 C 
BRANCH  12  13
ATOM     13  C   UNL     1      20.979  16.122  14.626  1.00  0.00     0.140 C 
ATOM     14  O   UNL     1      22.200  16.089  14.693  1.00  0.00    -0.299 OA
BRANCH  13  15
ATOM     15  C   UNL     1      20.178  15.905  15.889  1.00  0.00     0.106 CG0
ATOM     16  G   UNL     1      19.911  17.208  16.627  1.00  0.00     0.000 G0
ENDBRANCH  13  15
ENDBRANCH  12  13
BRANCH  12  17
ATOM     17  C   UNL     1      21.322  16.334  12.032  1.00  0.00    -0.006 C 
ATOM     18  C   UNL     1      21.264  15.024  11.230  1.00  0.00     0.008 C 
ATOM     19  C   UNL     1      21.192  17.541  11.092  1.00  0.00     0.008 C 
ENDBRANCH  12  17
ENDBRANCH  11  12
ENDBRANCH   1  11
TORSDOF 1
ENDMDL
