MODEL 1
REMARK VINA RESULT:    -4.391      0.000      0.000
REMARK INTER + INTRA:          -4.791
REMARK INTER:                  -4.776
REMARK INTRA:                  -0.015
REMARK UNBOUND:                -0.015
REMARK SMILES OCc1ccccc1
REMARK SMILES IDX 2 1 3 2 6 3 5 4 7 5 4 6 8 7 1 8
REMARK H PARENT 1 9
REMARK Flexibility Score: inf
ROOT
ATOM      1  C   UNL     1      22.492  27.725 -20.990  1.00  0.00     0.191 C 
ENDROOT
BRANCH   1   2
ATOM      2  C   UNL     1      23.005  28.535 -19.832  1.00  0.00    -0.023 A 
ATOM      3  C   UNL     1      24.015  30.083 -17.720  1.00  0.00     0.000 A 
ATOM      4  C   UNL     1      22.951  30.561 -18.491  1.00  0.00     0.000 A 
ATOM      5  C   UNL     1      24.583  28.839 -18.008  1.00  0.00     0.000 A 
ATOM      6  C   UNL     1      22.451  29.794 -19.547  1.00  0.00     0.006 A 
ATOM      7  C   UNL     1      24.085  28.069 -19.064  1.00  0.00     0.006 A 
ENDBRANCH   1   2
BRANCH   1   8
ATOM      8  O   UNL     1      23.563  27.274 -21.774  1.00  0.00    -0.392 OA
ATOM      9  H   UNL     1      23.670  26.307 -21.579  1.00  0.00     0.211 HD
ENDBRANCH   1   8
TORSDOF 2
ENDMDL
MODEL 2
REMARK VINA RESULT:    -4.322      8.316      8.933
REMARK INTER + INTRA:          -4.716
REMARK INTER:                  -4.699
REMARK INTRA:                  -0.016
REMARK UNBOUND:                -0.015
REMARK SMILES OCc1ccccc1
REMARK SMILES IDX 2 1 3 2 6 3 5 4 7 5 4 6 8 7 1 8
REMARK H PARENT 1 9
REMARK Flexibility Score: inf
ROOT
ATOM      1  C   UNL     1      19.859  27.557 -10.852  1.00  0.00     0.191 C 
ENDROOT
BRANCH   1   2
ATOM      2  C   UNL     1      19.055  27.734 -12.111  1.00  0.00    -0.023 A 
ATOM      3  C   UNL     1      17.602  28.010 -14.495  1.00  0.00     0.000 A 
ATOM      4  C   UNL     1      17.202  27.074 -13.537  1.00  0.00     0.000 A 
ATOM      5  C   UNL     1      18.733  28.801 -14.270  1.00  0.00     0.000 A 
ATOM      6  C   UNL     1      17.928  26.931 -12.351  1.00  0.00     0.006 A 
ATOM      7  C   UNL     1      19.462  28.661 -13.086  1.00  0.00     0.006 A 
ENDBRANCH   1   2
BRANCH   1   8
ATOM      8  O   UNL     1      19.929  26.199 -10.513  1.00  0.00    -0.392 OA
ATOM      9  H   UNL     1      19.204  25.743 -11.016  1.00  0.00     0.211 HD
ENDBRANCH   1   8
TORSDOF 2
ENDMDL
MODEL 3
REMARK VINA RESULT:    -4.299      2.824      3.272
REMARK INTER + INTRA:          -4.691
REMARK INTER:                  -4.672
REMARK INTRA:                  -0.019
REMARK UNBOUND:                -0.015
REMARK SMILES OCc1ccccc1
REMARK SMILES IDX 2 1 3 2 6 3 5 4 7 5 4 6 8 7 1 8
REMARK H PARENT 1 9
REMARK Flexibility Score: inf
ROOT
ATOM      1  C   UNL     1      23.760  27.041 -16.122  1.00  0.00     0.191 C 
ENDROOT
BRANCH   1   2
ATOM      2  C   UNL     1      23.597  28.285 -16.951  1.00  0.00    -0.023 A 
ATOM      3  C   UNL     1      23.279  30.560 -18.562  1.00  0.00     0.000 A 
ATOM      4  C   UNL     1      22.176  30.011 -17.902  1.00  0.00     0.000 A 
ATOM      5  C   UNL     1      24.539  29.969 -18.428  1.00  0.00     0.000 A 
ATOM      6  C   UNL     1      22.331  28.874 -17.103  1.00  0.00     0.006 A 
ATOM      7  C   UNL     1      24.698  28.832 -17.631  1.00  0.00     0.006 A 
ENDBRANCH   1   2
BRANCH   1   8
ATOM      8  O   UNL     1      25.119  26.783 -15.902  1.00  0.00    -0.392 OA
ATOM      9  H   UNL     1      25.399  27.361 -15.145  1.00  0.00     0.211 HD
ENDBRANCH   1   8
TORSDOF 2
ENDMDL
MODEL 4
REMARK VINA RESULT:    -4.261      7.215      8.549
REMARK INTER + INTRA:          -4.649
REMARK INTER:                  -4.635
REMARK INTRA:                  -0.014
REMARK UNBOUND:                -0.015
REMARK SMILES OCc1ccccc1
REMARK SMILES IDX 2 1 3 2 6 3 5 4 7 5 4 6 8 7 1 8
REMARK H PARENT 1 9
REMARK Flexibility Score: inf
ROOT
ATOM      1  C   UNL     1      25.492  22.536 -26.914  1.00  0.00     0.191 C 
ENDROOT
BRANCH   1   2
ATOM      2  C   UNL     1      24.505  23.226 -26.013  1.00  0.00    -0.023 A 
ATOM      3  C   UNL     1      22.628  24.443 -24.318  1.00  0.00     0.000 A 
ATOM      4  C   UNL     1      23.824  23.944 -23.794  1.00  0.00     0.000 A 
ATOM      5  C   UNL     1      22.363  24.326 -25.686  1.00  0.00     0.000 A 
ATOM      6  C   UNL     1      24.758  23.332 -24.635  1.00  0.00     0.006 A 
ATOM      7  C   UNL     1      23.294  23.715 -26.531  1.00  0.00     0.006 A 
ENDBRANCH   1   2
BRANCH   1   8
ATOM      8  O   UNL     1      25.805  21.269 -26.404  1.00  0.00    -0.392 OA
ATOM      9  H   UNL     1      26.374  20.822 -27.084  1.00  0.00     0.211 HD
ENDBRANCH   1   8
TORSDOF 2
ENDMDL
MODEL 5
REMARK VINA RESULT:    -4.253     13.484     14.545
REMARK INTER + INTRA:          -4.641
REMARK INTER:                  -4.626
REMARK INTRA:                  -0.014
REMARK UNBOUND:                -0.015
REMARK SMILES OCc1ccccc1
REMARK SMILES IDX 2 1 3 2 6 3 5 4 7 5 4 6 8 7 1 8
REMARK H PARENT 1 9
REMARK Flexibility Score: inf
ROOT
ATOM      1  C   UNL     1      34.361  31.419 -10.479  1.00  0.00     0.191 C 
ENDROOT
BRANCH   1   2
ATOM      2  C   UNL     1      35.040  31.560 -11.813  1.00  0.00    -0.023 A 
ATOM      3  C   UNL     1      36.261  31.889 -14.318  1.00  0.00     0.000 A 
ATOM      4  C   UNL     1      36.795  32.522 -13.192  1.00  0.00     0.000 A 
ATOM      5  C   UNL     1      35.112  31.102 -14.199  1.00  0.00     0.000 A 
ATOM      6  C   UNL     1      36.184  32.364 -11.944  1.00  0.00     0.006 A 
ATOM      7  C   UNL     1      34.499  30.941 -12.953  1.00  0.00     0.006 A 
ENDBRANCH   1   2
BRANCH   1   8
ATOM      8  O   UNL     1      34.183  32.679  -9.893  1.00  0.00    -0.392 OA
ATOM      9  H   UNL     1      33.655  32.535  -9.065  1.00  0.00     0.211 HD
ENDBRANCH   1   8
TORSDOF 2
ENDMDL
MODEL 6
REMARK VINA RESULT:    -4.238      1.879      3.028
REMARK INTER + INTRA:          -4.624
REMARK INTER:                  -4.615
REMARK INTRA:                  -0.010
REMARK UNBOUND:                -0.015
REMARK SMILES OCc1ccccc1
REMARK SMILES IDX 2 1 3 2 6 3 5 4 7 5 4 6 8 7 1 8
REMARK H PARENT 1 9
REMARK Flexibility Score: inf
ROOT
ATOM      1  C   UNL     1      25.173  29.649 -18.262  1.00  0.00     0.191 C 
ENDROOT
BRANCH   1   2
ATOM      2  C   UNL     1      23.946  29.281 -19.050  1.00  0.00    -0.023 A 
ATOM      3  C   UNL     1      21.626  28.558 -20.454  1.00  0.00     0.000 A 
ATOM      4  C   UNL     1      21.675  29.772 -19.760  1.00  0.00     0.000 A 
ATOM      5  C   UNL     1      22.730  27.700 -20.438  1.00  0.00     0.000 A 
ATOM      6  C   UNL     1      22.827  30.131 -19.056  1.00  0.00     0.006 A 
ATOM      7  C   UNL     1      23.884  28.056 -19.734  1.00  0.00     0.006 A 
ENDBRANCH   1   2
BRANCH   1   8
ATOM      8  O   UNL     1      26.172  30.124 -19.122  1.00  0.00    -0.392 OA
ATOM      9  H   UNL     1      26.334  31.071 -18.874  1.00  0.00     0.211 HD
ENDBRANCH   1   8
TORSDOF 2
ENDMDL
MODEL 7
REMARK VINA RESULT:    -4.066      2.270      3.635
REMARK INTER + INTRA:          -4.437
REMARK INTER:                  -4.421
REMARK INTRA:                  -0.016
REMARK UNBOUND:                -0.015
REMARK SMILES OCc1ccccc1
REMARK SMILES IDX 2 1 3 2 6 3 5 4 7 5 4 6 8 7 1 8
REMARK H PARENT 1 9
REMARK Flexibility Score: inf
ROOT
ATOM      1  C   UNL     1      24.766  29.271 -17.645  1.00  0.00     0.191 C 
ENDROOT
BRANCH   1   2
ATOM      2  C   UNL     1      23.725  29.239 -18.729  1.00  0.00    -0.023 A 
ATOM      3  C   UNL     1      21.835  29.211 -20.804  1.00  0.00     0.000 A 
ATOM      4  C   UNL     1      22.659  28.102 -20.592  1.00  0.00     0.000 A 
ATOM      5  C   UNL     1      21.961  30.340 -19.987  1.00  0.00     0.000 A 
ATOM      6  C   UNL     1      23.605  28.116 -19.564  1.00  0.00     0.006 A 
ATOM      7  C   UNL     1      22.906  30.358 -18.957  1.00  0.00     0.006 A 
ENDBRANCH   1   2
BRANCH   1   8
ATOM      8  O   UNL     1      24.310  30.032 -16.561  1.00  0.00    -0.392 OA
ATOM      9  H   UNL     1      24.167  29.400 -15.809  1.00  0.00     0.211 HD
ENDBRANCH   1   8
TORSDOF 2
ENDMDL
MODEL 8
REMARK VINA RESULT:    -4.055      2.997      3.575
REMARK INTER + INTRA:          -4.425
REMARK INTER:                  -4.415
REMARK INTRA:                  -0.010
REMARK UNBOUND:                -0.015
REMARK SMILES OCc1ccccc1
REMARK SMILES IDX 2 1 3 2 6 3 5 4 7 5 4 6 8 7 1 8
REMARK H PARENT 1 9
REMARK Flexibility Score: inf
ROOT
ATOM      1  C   UNL     1      20.523  27.789 -16.462  1.00  0.00     0.191 C 
ENDROOT
BRANCH   1   2
ATOM      2  C   UNL     1      21.470  28.719 -17.169  1.00  0.00    -0.023 A 
ATOM      3  C   UNL     1      23.184  30.516 -18.476  1.00  0.00     0.000 A 
ATOM      4  C   UNL     1      23.293  30.323 -17.096  1.00  0.00     0.000 A 
ATOM      5  C   UNL     1      22.213  29.821 -19.204  1.00  0.00     0.000 A 
ATOM      6  C   UNL     1      22.436  29.433 -16.442  1.00  0.00     0.006 A 
ATOM      7  C   UNL     1      21.353  28.930 -18.553  1.00  0.00     0.006 A 
ENDBRANCH   1   2
BRANCH   1   8
ATOM      8  O   UNL     1      21.197  26.624 -16.069  1.00  0.00    -0.392 OA
ATOM      9  H   UNL     1      20.527  26.049 -15.614  1.00  0.00     0.211 HD
ENDBRANCH   1   8
TORSDOF 2
ENDMDL
MODEL 9
REMARK VINA RESULT:    -4.015     11.777     12.503
REMARK INTER + INTRA:          -4.382
REMARK INTER:                  -4.364
REMARK INTRA:                  -0.019
REMARK UNBOUND:                -0.015
REMARK SMILES OCc1ccccc1
REMARK SMILES IDX 2 1 3 2 6 3 5 4 7 5 4 6 8 7 1 8
REMARK H PARENT 1 9
REMARK Flexibility Score: inf
ROOT
ATOM      1  C   UNL     1      32.036  37.612 -21.453  1.00  0.00     0.191 C 
ENDROOT
BRANCH   1   2
ATOM      2  C   UNL     1      30.938  38.149 -22.330  1.00  0.00    -0.023 A 
ATOM      3  C   UNL     1      28.877  39.077 -23.992  1.00  0.00     0.000 A 
ATOM      4  C   UNL     1      28.588  38.647 -22.693  1.00  0.00     0.000 A 
ATOM      5  C   UNL     1      30.191  39.034 -24.466  1.00  0.00     0.000 A 
ATOM      6  C   UNL     1      29.613  38.179 -21.866  1.00  0.00     0.006 A 
ATOM      7  C   UNL     1      31.219  38.566 -23.642  1.00  0.00     0.006 A 
ENDBRANCH   1   2
BRANCH   1   8
ATOM      8  O   UNL     1      31.497  36.784 -20.459  1.00  0.00    -0.392 OA
ATOM      9  H   UNL     1      30.548  36.625 -20.706  1.00  0.00     0.211 HD
ENDBRANCH   1   8
TORSDOF 2
ENDMDL
