MODEL 1
REMARK VINA RESULT:     1.289      0.000      0.000
REMARK INTER + INTRA:           1.289
REMARK INTER:                   1.289
REMARK INTRA:                   0.000
REMARK UNBOUND:                 0.000
REMARK SMILES CC1=CC(=O)[C@H]2C[C@@H]1C2(C)C
REMARK SMILES IDX 1 1 2 2 3 3 4 4 5 5 6 6 7 7 8 8 9 9 10 10 11 11
REMARK H PARENT
REMARK Flexibility Score: inf
ROOT
ATOM      1  C   UNL     1      92.024  17.701 120.968  1.00  0.00     0.040 C 
ATOM      2  C   UNL     1      92.952  16.621 120.509  1.00  0.00    -0.066 C 
ATOM      3  C   UNL     1      92.982  15.406 121.124  1.00  0.00     0.047 C 
ATOM      4  C   UNL     1      93.977  14.419 120.592  1.00  0.00     0.159 C 
ATOM      5  O   UNL     1      94.129  13.277 121.100  1.00  0.00    -0.295 OA
ATOM      6  C   UNL     1      94.795  14.897 119.391  1.00  0.00     0.067 C 
ATOM      7  C   UNL     1      93.750  15.543 118.457  1.00  0.00     0.021 C 
ATOM      8  C   UNL     1      93.904  16.821 119.312  1.00  0.00     0.022 C 
ATOM      9  C   UNL     1      95.329  16.325 119.694  1.00  0.00    -0.019 C 
ATOM     10  C   UNL     1      95.853  16.631 121.125  1.00  0.00     0.012 C 
ATOM     11  C   UNL     1      96.404  16.781 118.675  1.00  0.00     0.012 C 
ENDROOT
TORSDOF 0
ENDMDL
MODEL 2
REMARK VINA RESULT:     1.971      1.690      3.019
REMARK INTER + INTRA:           1.971
REMARK INTER:                   1.971
REMARK INTRA:                   0.000
REMARK UNBOUND:                 0.000
REMARK SMILES CC1=CC(=O)[C@H]2C[C@@H]1C2(C)C
REMARK SMILES IDX 1 1 2 2 3 3 4 4 5 5 6 6 7 7 8 8 9 9 10 10 11 11
REMARK H PARENT
REMARK Flexibility Score: inf
ROOT
ATOM      1  C   UNL     1      93.564  13.065 121.124  1.00  0.00     0.040 C 
ATOM      2  C   UNL     1      94.061  14.365 120.577  1.00  0.00    -0.066 C 
ATOM      3  C   UNL     1      95.146  14.991 121.113  1.00  0.00     0.047 C 
ATOM      4  C   UNL     1      95.526  16.303 120.496  1.00  0.00     0.159 C 
ATOM      5  O   UNL     1      96.484  16.996 120.928  1.00  0.00    -0.295 OA
ATOM      6  C   UNL     1      94.667  16.742 119.310  1.00  0.00     0.067 C 
ATOM      7  C   UNL     1      94.545  15.470 118.442  1.00  0.00     0.021 C 
ATOM      8  C   UNL     1      93.384  15.053 119.373  1.00  0.00     0.022 C 
ATOM      9  C   UNL     1      93.170  16.561 119.689  1.00  0.00    -0.019 C 
ATOM     10  C   UNL     1      92.718  16.953 121.124  1.00  0.00     0.012 C 
ATOM     11  C   UNL     1      92.218  17.247 118.677  1.00  0.00     0.012 C 
ENDROOT
TORSDOF 0
ENDMDL
MODEL 3
REMARK VINA RESULT:     3.068      1.002      2.905
REMARK INTER + INTRA:           3.068
REMARK INTER:                   3.068
REMARK INTRA:                   0.000
REMARK UNBOUND:                 0.000
REMARK SMILES CC1=CC(=O)[C@H]2C[C@@H]1C2(C)C
REMARK SMILES IDX 1 1 2 2 3 3 4 4 5 5 6 6 7 7 8 8 9 9 10 10 11 11
REMARK H PARENT
REMARK Flexibility Score: inf
ROOT
ATOM      1  C   UNL     1      96.953  16.999 119.919  1.00  0.00     0.040 C 
ATOM      2  C   UNL     1      95.608  16.383 120.141  1.00  0.00    -0.066 C 
ATOM      3  C   UNL     1      95.481  15.105 120.596  1.00  0.00     0.047 C 
ATOM      4  C   UNL     1      94.081  14.592 120.749  1.00  0.00     0.159 C 
ATOM      5  O   UNL     1      93.833  13.416 121.122  1.00  0.00    -0.295 OA
ATOM      6  C   UNL     1      92.976  15.596 120.416  1.00  0.00     0.067 C 
ATOM      7  C   UNL     1      93.420  16.894 121.124  1.00  0.00     0.021 C 
ATOM      8  C   UNL     1      94.303  17.165 119.884  1.00  0.00     0.022 C 
ATOM      9  C   UNL     1      93.321  16.280 119.063  1.00  0.00    -0.019 C 
ATOM     10  C   UNL     1      93.904  15.405 117.919  1.00  0.00     0.012 C 
ATOM     11  C   UNL     1      92.131  17.093 118.493  1.00  0.00     0.012 C 
ENDROOT
TORSDOF 0
ENDMDL
MODEL 4
REMARK VINA RESULT:     3.644      1.584      2.989
REMARK INTER + INTRA:           3.644
REMARK INTER:                   3.644
REMARK INTRA:                   0.000
REMARK UNBOUND:                 0.000
REMARK SMILES CC1=CC(=O)[C@H]2C[C@@H]1C2(C)C
REMARK SMILES IDX 1 1 2 2 3 3 4 4 5 5 6 6 7 7 8 8 9 9 10 10 11 11
REMARK H PARENT
REMARK Flexibility Score: inf
ROOT
ATOM      1  C   UNL     1      93.990  12.851 120.931  1.00  0.00     0.040 C 
ATOM      2  C   UNL     1      93.957  14.337 120.757  1.00  0.00    -0.066 C 
ATOM      3  C   UNL     1      92.864  15.067 121.114  1.00  0.00     0.047 C 
ATOM      4  C   UNL     1      92.942  16.542 120.861  1.00  0.00     0.159 C 
ATOM      5  O   UNL     1      91.983  17.318 121.110  1.00  0.00    -0.295 OA
ATOM      6  C   UNL     1      94.266  17.037 120.276  1.00  0.00     0.067 C 
ATOM      7  C   UNL     1      95.342  16.326 121.125  1.00  0.00     0.021 C 
ATOM      8  C   UNL     1      95.159  15.115 120.183  1.00  0.00     0.022 C 
ATOM      9  C   UNL     1      94.662  16.109 119.094  1.00  0.00    -0.019 C 
ATOM     10  C   UNL     1      93.547  15.633 118.121  1.00  0.00     0.012 C 
ATOM     11  C   UNL     1      95.825  16.691 118.251  1.00  0.00     0.012 C 
ENDROOT
TORSDOF 0
ENDMDL
