MODEL 1
REMARK VINA RESULT:    -3.846      0.000      0.000
REMARK INTER + INTRA:          -4.931
REMARK INTER:                  -4.746
REMARK INTRA:                  -0.185
REMARK UNBOUND:                -0.185
REMARK SMILES CCCCCC(=O)[O-]
REMARK SMILES IDX 4 1 5 2 6 3 7 4 8 5 3 6 2 7 1 8
REMARK H PARENT
REMARK Flexibility Score: inf
ROOT
ATOM      1  C   UNL     1      16.491  43.047   5.585  1.00  0.00     0.006 C 
ENDROOT
BRANCH   1   2
ATOM      2  C   UNL     1      17.556  43.823   6.372  1.00  0.00     0.053 C 
BRANCH   2   3
ATOM      3  C   UNL     1      16.941  44.801   7.326  1.00  0.00     0.041 C 
ATOM      4  O   UNL     1      17.395  44.915   8.495  1.00  0.00    -0.550 OA
ATOM      5  O   UNL     1      15.847  45.562   6.935  1.00  0.00    -0.550 OA
ENDBRANCH   2   3
ENDBRANCH   1   2
BRANCH   1   6
ATOM      6  C   UNL     1      16.510  43.389   4.087  1.00  0.00     0.000 C 
BRANCH   6   7
ATOM      7  C   UNL     1      15.094  43.662   3.568  1.00  0.00    -0.003 C 
ATOM      8  C   UNL     1      14.784  45.156   3.570  1.00  0.00     0.004 C 
ENDBRANCH   6   7
ENDBRANCH   1   6
TORSDOF 4
ENDMDL
MODEL 2
REMARK VINA RESULT:    -3.764      1.715      2.605
REMARK INTER + INTRA:          -4.829
REMARK INTER:                  -4.593
REMARK INTRA:                  -0.235
REMARK UNBOUND:                -0.185
REMARK SMILES CCCCCC(=O)[O-]
REMARK SMILES IDX 4 1 5 2 6 3 7 4 8 5 3 6 2 7 1 8
REMARK H PARENT
REMARK Flexibility Score: inf
ROOT
ATOM      1  C   UNL     1      15.318  43.676   3.704  1.00  0.00     0.006 C 
ENDROOT
BRANCH   1   2
ATOM      2  C   UNL     1      16.738  43.310   4.157  1.00  0.00     0.053 C 
BRANCH   2   3
ATOM      3  C   UNL     1      16.840  43.218   5.648  1.00  0.00     0.041 C 
ATOM      4  O   UNL     1      15.910  42.691   6.315  1.00  0.00    -0.550 OA
ATOM      5  O   UNL     1      17.946  43.743   6.305  1.00  0.00    -0.550 OA
ENDBRANCH   2   3
ENDBRANCH   1   2
BRANCH   1   6
ATOM      6  C   UNL     1      15.108  45.196   3.620  1.00  0.00     0.000 C 
BRANCH   6   7
ATOM      7  C   UNL     1      13.889  45.628   4.443  1.00  0.00    -0.003 C 
ATOM      8  C   UNL     1      14.293  46.025   5.859  1.00  0.00     0.004 C 
ENDBRANCH   6   7
ENDBRANCH   1   6
TORSDOF 4
ENDMDL
MODEL 3
REMARK VINA RESULT:    -3.723      1.593      3.565
REMARK INTER + INTRA:          -4.779
REMARK INTER:                  -4.565
REMARK INTRA:                  -0.214
REMARK UNBOUND:                -0.185
REMARK SMILES CCCCCC(=O)[O-]
REMARK SMILES IDX 4 1 5 2 6 3 7 4 8 5 3 6 2 7 1 8
REMARK H PARENT
REMARK Flexibility Score: inf
ROOT
ATOM      1  C   UNL     1      15.298  43.700   3.690  1.00  0.00     0.006 C 
ENDROOT
BRANCH   1   2
ATOM      2  C   UNL     1      15.048  45.213   3.674  1.00  0.00     0.053 C 
BRANCH   2   3
ATOM      3  C   UNL     1      14.108  45.634   4.762  1.00  0.00     0.041 C 
ATOM      4  O   UNL     1      12.867  45.671   4.548  1.00  0.00    -0.550 OA
ATOM      5  O   UNL     1      14.604  46.018   6.002  1.00  0.00    -0.550 OA
ENDBRANCH   2   3
ENDBRANCH   1   2
BRANCH   1   6
ATOM      6  C   UNL     1      16.698  43.347   4.217  1.00  0.00     0.000 C 
BRANCH   6   7
ATOM      7  C   UNL     1      16.655  43.019   5.714  1.00  0.00    -0.003 C 
ATOM      8  C   UNL     1      17.682  43.839   6.487  1.00  0.00     0.004 C 
ENDBRANCH   6   7
ENDBRANCH   1   6
TORSDOF 4
ENDMDL
MODEL 4
REMARK VINA RESULT:    -3.710      2.007      2.776
REMARK INTER + INTRA:          -4.762
REMARK INTER:                  -4.490
REMARK INTRA:                  -0.273
REMARK UNBOUND:                -0.185
REMARK SMILES CCCCCC(=O)[O-]
REMARK SMILES IDX 4 1 5 2 6 3 7 4 8 5 3 6 2 7 1 8
REMARK H PARENT
REMARK Flexibility Score: inf
ROOT
ATOM      1  C   UNL     1      13.745  45.709   4.366  1.00  0.00     0.006 C 
ENDROOT
BRANCH   1   2
ATOM      2  C   UNL     1      14.090  46.353   5.715  1.00  0.00     0.053 C 
BRANCH   2   3
ATOM      3  C   UNL     1      14.753  45.382   6.643  1.00  0.00     0.041 C 
ATOM      4  O   UNL     1      15.933  45.586   7.035  1.00  0.00    -0.550 OA
ATOM      5  O   UNL     1      14.082  44.235   7.048  1.00  0.00    -0.550 OA
ENDBRANCH   2   3
ENDBRANCH   1   2
BRANCH   1   6
ATOM      6  C   UNL     1      14.991  45.188   3.634  1.00  0.00     0.000 C 
BRANCH   6   7
ATOM      7  C   UNL     1      14.869  43.687   3.342  1.00  0.00    -0.003 C 
ATOM      8  C   UNL     1      13.440  43.199   3.556  1.00  0.00     0.004 C 
ENDBRANCH   6   7
ENDBRANCH   1   6
TORSDOF 4
ENDMDL
MODEL 5
REMARK VINA RESULT:    -3.637     12.576     13.426
REMARK INTER + INTRA:          -4.673
REMARK INTER:                  -4.544
REMARK INTRA:                  -0.128
REMARK UNBOUND:                -0.185
REMARK SMILES CCCCCC(=O)[O-]
REMARK SMILES IDX 4 1 5 2 6 3 7 4 8 5 3 6 2 7 1 8
REMARK H PARENT
REMARK Flexibility Score: inf
ROOT
ATOM      1  C   UNL     1       6.001  39.322  -0.891  1.00  0.00     0.006 C 
ENDROOT
BRANCH   1   2
ATOM      2  C   UNL     1       6.244  39.248  -2.404  1.00  0.00     0.053 C 
BRANCH   2   3
ATOM      3  C   UNL     1       7.330  40.184  -2.840  1.00  0.00     0.041 C 
ATOM      4  O   UNL     1       8.312  39.750  -3.499  1.00  0.00    -0.550 OA
ATOM      5  O   UNL     1       7.275  41.527  -2.491  1.00  0.00    -0.550 OA
ENDBRANCH   2   3
ENDBRANCH   1   2
BRANCH   1   6
ATOM      6  C   UNL     1       4.688  40.041  -0.546  1.00  0.00     0.000 C 
BRANCH   6   7
ATOM      7  C   UNL     1       4.725  40.596   0.882  1.00  0.00    -0.003 C 
ATOM      8  C   UNL     1       5.412  41.957   0.927  1.00  0.00     0.004 C 
ENDBRANCH   6   7
ENDBRANCH   1   6
TORSDOF 4
ENDMDL
MODEL 6
REMARK VINA RESULT:    -3.613     11.243     12.254
REMARK INTER + INTRA:          -4.643
REMARK INTER:                  -4.542
REMARK INTRA:                  -0.101
REMARK UNBOUND:                -0.185
REMARK SMILES CCCCCC(=O)[O-]
REMARK SMILES IDX 4 1 5 2 6 3 7 4 8 5 3 6 2 7 1 8
REMARK H PARENT
REMARK Flexibility Score: inf
ROOT
ATOM      1  C   UNL     1      16.228  33.583   0.226  1.00  0.00     0.006 C 
ENDROOT
BRANCH   1   2
ATOM      2  C   UNL     1      15.109  34.353  -0.486  1.00  0.00     0.053 C 
BRANCH   2   3
ATOM      3  C   UNL     1      14.928  33.891  -1.900  1.00  0.00     0.041 C 
ATOM      4  O   UNL     1      14.515  34.693  -2.780  1.00  0.00    -0.550 OA
ATOM      5  O   UNL     1      15.184  32.569  -2.240  1.00  0.00    -0.550 OA
ENDBRANCH   2   3
ENDBRANCH   1   2
BRANCH   1   6
ATOM      6  C   UNL     1      16.704  34.295   1.502  1.00  0.00     0.000 C 
BRANCH   6   7
ATOM      7  C   UNL     1      16.493  35.810   1.396  1.00  0.00    -0.003 C 
ATOM      8  C   UNL     1      17.185  36.543   2.541  1.00  0.00     0.004 C 
ENDBRANCH   6   7
ENDBRANCH   1   6
TORSDOF 4
ENDMDL
MODEL 7
REMARK VINA RESULT:    -3.601      2.722      4.146
REMARK INTER + INTRA:          -4.628
REMARK INTER:                  -4.429
REMARK INTRA:                  -0.200
REMARK UNBOUND:                -0.185
REMARK SMILES CCCCCC(=O)[O-]
REMARK SMILES IDX 4 1 5 2 6 3 7 4 8 5 3 6 2 7 1 8
REMARK H PARENT
REMARK Flexibility Score: inf
ROOT
ATOM      1  C   UNL     1      14.545  43.638   3.465  1.00  0.00     0.006 C 
ENDROOT
BRANCH   1   2
ATOM      2  C   UNL     1      13.299  43.764   4.352  1.00  0.00     0.053 C 
BRANCH   2   3
ATOM      3  C   UNL     1      13.128  42.572   5.244  1.00  0.00     0.041 C 
ATOM      4  O   UNL     1      12.265  41.696   4.971  1.00  0.00    -0.550 OA
ATOM      5  O   UNL     1      13.897  42.446   6.393  1.00  0.00    -0.550 OA
ENDBRANCH   2   3
ENDBRANCH   1   2
BRANCH   1   6
ATOM      6  C   UNL     1      15.766  44.346   4.071  1.00  0.00     0.000 C 
BRANCH   6   7
ATOM      7  C   UNL     1      16.876  43.342   4.400  1.00  0.00    -0.003 C 
ATOM      8  C   UNL     1      17.391  43.536   5.823  1.00  0.00     0.004 C 
ENDBRANCH   6   7
ENDBRANCH   1   6
TORSDOF 4
ENDMDL
MODEL 8
REMARK VINA RESULT:    -3.583      3.472      4.197
REMARK INTER + INTRA:          -4.605
REMARK INTER:                  -4.441
REMARK INTRA:                  -0.164
REMARK UNBOUND:                -0.185
REMARK SMILES CCCCCC(=O)[O-]
REMARK SMILES IDX 4 1 5 2 6 3 7 4 8 5 3 6 2 7 1 8
REMARK H PARENT
REMARK Flexibility Score: inf
ROOT
ATOM      1  C   UNL     1      14.632  45.225   3.579  1.00  0.00     0.006 C 
ENDROOT
BRANCH   1   2
ATOM      2  C   UNL     1      14.109  45.809   4.899  1.00  0.00     0.053 C 
BRANCH   2   3
ATOM      3  C   UNL     1      12.849  46.594   4.700  1.00  0.00     0.041 C 
ATOM      4  O   UNL     1      12.363  47.263   5.651  1.00  0.00    -0.550 OA
ATOM      5  O   UNL     1      12.192  46.561   3.476  1.00  0.00    -0.550 OA
ENDBRANCH   2   3
ENDBRANCH   1   2
BRANCH   1   6
ATOM      6  C   UNL     1      14.770  43.697   3.633  1.00  0.00     0.000 C 
BRANCH   6   7
ATOM      7  C   UNL     1      13.457  43.041   4.077  1.00  0.00    -0.003 C 
ATOM      8  C   UNL     1      12.677  42.504   2.882  1.00  0.00     0.004 C 
ENDBRANCH   6   7
ENDBRANCH   1   6
TORSDOF 4
ENDMDL
MODEL 9
REMARK VINA RESULT:    -3.508      1.692      2.520
REMARK INTER + INTRA:          -4.513
REMARK INTER:                  -4.266
REMARK INTRA:                  -0.247
REMARK UNBOUND:                -0.185
REMARK SMILES CCCCCC(=O)[O-]
REMARK SMILES IDX 4 1 5 2 6 3 7 4 8 5 3 6 2 7 1 8
REMARK H PARENT
REMARK Flexibility Score: inf
ROOT
ATOM      1  C   UNL     1      15.237  44.203   3.559  1.00  0.00     0.006 C 
ENDROOT
BRANCH   1   2
ATOM      2  C   UNL     1      16.369  43.530   4.347  1.00  0.00     0.053 C 
BRANCH   2   3
ATOM      3  C   UNL     1      16.099  43.529   5.820  1.00  0.00     0.041 C 
ATOM      4  O   UNL     1      15.847  44.609   6.418  1.00  0.00    -0.550 OA
ATOM      5  O   UNL     1      16.157  42.342   6.539  1.00  0.00    -0.550 OA
ENDBRANCH   2   3
ENDBRANCH   1   2
BRANCH   1   6
ATOM      6  C   UNL     1      13.968  43.339   3.510  1.00  0.00     0.000 C 
BRANCH   6   7
ATOM      7  C   UNL     1      12.747  44.130   3.994  1.00  0.00    -0.003 C 
ATOM      8  C   UNL     1      13.032  45.628   4.014  1.00  0.00     0.004 C 
ENDBRANCH   6   7
ENDBRANCH   1   6
TORSDOF 4
ENDMDL
