MODEL 1
REMARK VINA RESULT:    -4.490      0.000      0.000
REMARK INTER + INTRA:          -5.130
REMARK INTER:                  -4.884
REMARK INTRA:                  -0.246
REMARK UNBOUND:                -0.246
REMARK SMILES O=C([O-])c1ccccc1O
REMARK SMILES IDX 4 1 9 2 5 3 8 4 6 5 7 6 2 7 1 8 3 9 10 10
REMARK H PARENT 10 11
REMARK Flexibility Score: inf
ROOT
ATOM      1  C   UNL     1      32.342   7.684 -21.712  1.00  0.00     0.039 A 
ATOM      2  C   UNL     1      31.292   7.706 -20.758  1.00  0.00     0.124 A 
ATOM      3  C   UNL     1      32.103   7.106 -22.973  1.00  0.00     0.014 A 
ATOM      4  C   UNL     1      30.067   7.098 -21.062  1.00  0.00     0.047 A 
ATOM      5  C   UNL     1      30.868   6.525 -23.268  1.00  0.00     0.001 A 
ATOM      6  C   UNL     1      29.856   6.512 -22.310  1.00  0.00     0.004 A 
ENDROOT
BRANCH   1   7
ATOM      7  C   UNL     1      33.692   8.215 -21.419  1.00  0.00     0.075 C 
ATOM      8  O   UNL     1      33.823   9.280 -20.761  1.00  0.00    -0.545 OA
ATOM      9  O   UNL     1      34.826   7.588 -21.921  1.00  0.00    -0.545 OA
ENDBRANCH   1   7
BRANCH   2  10
ATOM     10  O   UNL     1      31.413   8.343 -19.522  1.00  0.00    -0.507 OA
ATOM     11  H   UNL     1      30.785   8.179 -18.747  1.00  0.00     0.293 HD
ENDBRANCH   2  10
TORSDOF 2
ENDMDL
MODEL 2
REMARK VINA RESULT:    -4.362      2.745      3.987
REMARK INTER + INTRA:          -4.990
REMARK INTER:                  -4.740
REMARK INTRA:                  -0.250
REMARK UNBOUND:                -0.246
REMARK SMILES O=C([O-])c1ccccc1O
REMARK SMILES IDX 4 1 9 2 5 3 8 4 6 5 7 6 2 7 1 8 3 9 10 10
REMARK H PARENT 10 11
REMARK Flexibility Score: inf
ROOT
ATOM      1  C   UNL     1      31.052   6.361 -23.631  1.00  0.00     0.039 A 
ATOM      2  C   UNL     1      32.049   7.280 -23.215  1.00  0.00     0.124 A 
ATOM      3  C   UNL     1      29.867   6.255 -22.879  1.00  0.00     0.014 A 
ATOM      4  C   UNL     1      31.866   8.013 -22.035  1.00  0.00     0.047 A 
ATOM      5  C   UNL     1      29.691   7.010 -21.717  1.00  0.00     0.001 A 
ATOM      6  C   UNL     1      30.693   7.881 -21.292  1.00  0.00     0.004 A 
ENDROOT
BRANCH   1   7
ATOM      7  C   UNL     1      31.225   5.481 -24.808  1.00  0.00     0.075 C 
ATOM      8  O   UNL     1      31.048   4.239 -24.700  1.00  0.00    -0.545 OA
ATOM      9  O   UNL     1      31.652   5.997 -26.026  1.00  0.00    -0.545 OA
ENDBRANCH   1   7
BRANCH   2  10
ATOM     10  O   UNL     1      33.209   7.517 -23.955  1.00  0.00    -0.507 OA
ATOM     11  H   UNL     1      33.551   6.889 -24.669  1.00  0.00     0.293 HD
ENDBRANCH   2  10
TORSDOF 2
ENDMDL
MODEL 3
REMARK VINA RESULT:    -4.310      3.109      3.902
REMARK INTER + INTRA:          -4.934
REMARK INTER:                  -4.683
REMARK INTRA:                  -0.251
REMARK UNBOUND:                -0.246
REMARK SMILES O=C([O-])c1ccccc1O
REMARK SMILES IDX 4 1 9 2 5 3 8 4 6 5 7 6 2 7 1 8 3 9 10 10
REMARK H PARENT 10 11
REMARK Flexibility Score: inf
ROOT
ATOM      1  C   UNL     1      31.135   6.438 -23.620  1.00  0.00     0.039 A 
ATOM      2  C   UNL     1      29.897   6.448 -22.925  1.00  0.00     0.124 A 
ATOM      3  C   UNL     1      32.221   7.157 -23.086  1.00  0.00     0.014 A 
ATOM      4  C   UNL     1      29.761   7.221 -21.765  1.00  0.00     0.047 A 
ATOM      5  C   UNL     1      32.074   7.905 -21.915  1.00  0.00     0.001 A 
ATOM      6  C   UNL     1      30.843   7.944 -21.262  1.00  0.00     0.004 A 
ENDROOT
BRANCH   1   7
ATOM      7  C   UNL     1      31.317   5.728 -24.904  1.00  0.00     0.075 C 
ATOM      8  O   UNL     1      31.977   6.262 -25.834  1.00  0.00    -0.545 OA
ATOM      9  O   UNL     1      30.710   4.498 -25.130  1.00  0.00    -0.545 OA
ENDBRANCH   1   7
BRANCH   2  10
ATOM     10  O   UNL     1      28.801   5.686 -23.332  1.00  0.00    -0.507 OA
ATOM     11  H   UNL     1      27.853   5.870 -23.032  1.00  0.00     0.293 HD
ENDBRANCH   2  10
TORSDOF 2
ENDMDL
MODEL 4
REMARK VINA RESULT:    -4.290     12.127     12.730
REMARK INTER + INTRA:          -4.912
REMARK INTER:                  -4.659
REMARK INTRA:                  -0.253
REMARK UNBOUND:                -0.246
REMARK SMILES O=C([O-])c1ccccc1O
REMARK SMILES IDX 4 1 9 2 5 3 8 4 6 5 7 6 2 7 1 8 3 9 10 10
REMARK H PARENT 10 11
REMARK Flexibility Score: inf
ROOT
ATOM      1  C   UNL     1      28.156  10.826 -32.679  1.00  0.00     0.039 A 
ATOM      2  C   UNL     1      28.908  12.026 -32.583  1.00  0.00     0.124 A 
ATOM      3  C   UNL     1      28.685   9.748 -33.414  1.00  0.00     0.014 A 
ATOM      4  C   UNL     1      30.123  12.138 -33.270  1.00  0.00     0.047 A 
ATOM      5  C   UNL     1      29.909   9.870 -34.075  1.00  0.00     0.001 A 
ATOM      6  C   UNL     1      30.622  11.066 -34.011  1.00  0.00     0.004 A 
ENDROOT
BRANCH   1   7
ATOM      7  C   UNL     1      26.819  10.676 -32.064  1.00  0.00     0.075 C 
ATOM      8  O   UNL     1      26.451   9.560 -31.614  1.00  0.00    -0.545 OA
ATOM      9  O   UNL     1      25.925  11.741 -32.038  1.00  0.00    -0.545 OA
ENDBRANCH   1   7
BRANCH   2  10
ATOM     10  O   UNL     1      28.503  13.105 -31.795  1.00  0.00    -0.507 OA
ATOM     11  H   UNL     1      28.252  13.019 -30.820  1.00  0.00     0.293 HD
ENDBRANCH   2  10
TORSDOF 2
ENDMDL
MODEL 5
REMARK VINA RESULT:    -4.227     13.175     13.818
REMARK INTER + INTRA:          -4.844
REMARK INTER:                  -4.593
REMARK INTRA:                  -0.250
REMARK UNBOUND:                -0.246
REMARK SMILES O=C([O-])c1ccccc1O
REMARK SMILES IDX 4 1 9 2 5 3 8 4 6 5 7 6 2 7 1 8 3 9 10 10
REMARK H PARENT 10 11
REMARK Flexibility Score: inf
ROOT
ATOM      1  C   UNL     1      29.615  10.169 -34.684  1.00  0.00     0.039 A 
ATOM      2  C   UNL     1      28.273  10.288 -34.238  1.00  0.00     0.124 A 
ATOM      3  C   UNL     1      30.589  11.036 -34.153  1.00  0.00     0.014 A 
ATOM      4  C   UNL     1      27.932  11.301 -33.333  1.00  0.00     0.047 A 
ATOM      5  C   UNL     1      30.235  12.026 -33.234  1.00  0.00     0.001 A 
ATOM      6  C   UNL     1      28.907  12.165 -32.832  1.00  0.00     0.004 A 
ENDROOT
BRANCH   1   7
ATOM      7  C   UNL     1      30.024   9.190 -35.715  1.00  0.00     0.075 C 
ATOM      8  O   UNL     1      29.294   8.988 -36.721  1.00  0.00    -0.545 OA
ATOM      9  O   UNL     1      31.179   8.432 -35.558  1.00  0.00    -0.545 OA
ENDBRANCH   1   7
BRANCH   2  10
ATOM     10  O   UNL     1      27.267   9.409 -34.640  1.00  0.00    -0.507 OA
ATOM     11  H   UNL     1      26.291   9.539 -34.413  1.00  0.00     0.293 HD
ENDBRANCH   2  10
TORSDOF 2
ENDMDL
MODEL 6
REMARK VINA RESULT:    -4.216     11.565     12.237
REMARK INTER + INTRA:          -4.832
REMARK INTER:                  -4.582
REMARK INTRA:                  -0.250
REMARK UNBOUND:                -0.246
REMARK SMILES O=C([O-])c1ccccc1O
REMARK SMILES IDX 4 1 9 2 5 3 8 4 6 5 7 6 2 7 1 8 3 9 10 10
REMARK H PARENT 10 11
REMARK Flexibility Score: inf
ROOT
ATOM      1  C   UNL     1      28.754  10.780 -33.019  1.00  0.00     0.039 A 
ATOM      2  C   UNL     1      28.013  11.375 -31.966  1.00  0.00     0.124 A 
ATOM      3  C   UNL     1      28.508   9.434 -33.350  1.00  0.00     0.014 A 
ATOM      4  C   UNL     1      27.101  10.599 -31.237  1.00  0.00     0.047 A 
ATOM      5  C   UNL     1      27.580   8.681 -32.627  1.00  0.00     0.001 A 
ATOM      6  C   UNL     1      26.885   9.261 -31.566  1.00  0.00     0.004 A 
ENDROOT
BRANCH   1   7
ATOM      7  C   UNL     1      29.805  11.511 -33.761  1.00  0.00     0.075 C 
ATOM      8  O   UNL     1      30.568  12.308 -33.155  1.00  0.00    -0.545 OA
ATOM      9  O   UNL     1      29.921  11.384 -35.141  1.00  0.00    -0.545 OA
ENDBRANCH   1   7
BRANCH   2  10
ATOM     10  O   UNL     1      28.125  12.727 -31.638  1.00  0.00    -0.507 OA
ATOM     11  H   UNL     1      28.836  13.335 -32.021  1.00  0.00     0.293 HD
ENDBRANCH   2  10
TORSDOF 2
ENDMDL
MODEL 7
REMARK VINA RESULT:    -4.120      1.593      2.506
REMARK INTER + INTRA:          -4.728
REMARK INTER:                  -4.524
REMARK INTRA:                  -0.203
REMARK UNBOUND:                -0.246
REMARK SMILES O=C([O-])c1ccccc1O
REMARK SMILES IDX 4 1 9 2 5 3 8 4 6 5 7 6 2 7 1 8 3 9 10 10
REMARK H PARENT 10 11
REMARK Flexibility Score: inf
ROOT
ATOM      1  C   UNL     1      31.542   7.164 -22.492  1.00  0.00     0.039 A 
ATOM      2  C   UNL     1      30.376   6.366 -22.620  1.00  0.00     0.124 A 
ATOM      3  C   UNL     1      32.490   7.158 -23.533  1.00  0.00     0.014 A 
ATOM      4  C   UNL     1      30.221   5.542 -23.742  1.00  0.00     0.047 A 
ATOM      5  C   UNL     1      32.309   6.347 -24.656  1.00  0.00     0.001 A 
ATOM      6  C   UNL     1      31.181   5.534 -24.755  1.00  0.00     0.004 A 
ENDROOT
BRANCH   1   7
ATOM      7  C   UNL     1      31.819   7.977 -21.287  1.00  0.00     0.075 C 
ATOM      8  O   UNL     1      31.120   7.829 -20.250  1.00  0.00    -0.545 OA
ATOM      9  O   UNL     1      32.802   8.960 -21.302  1.00  0.00    -0.545 OA
ENDBRANCH   1   7
BRANCH   2  10
ATOM     10  O   UNL     1      29.344   6.388 -21.681  1.00  0.00    -0.507 OA
ATOM     11  H   UNL     1      29.242   7.112 -20.983  1.00  0.00     0.293 HD
ENDBRANCH   2  10
TORSDOF 2
ENDMDL
MODEL 8
REMARK VINA RESULT:    -4.034      2.266      3.529
REMARK INTER + INTRA:          -4.633
REMARK INTER:                  -4.380
REMARK INTRA:                  -0.253
REMARK UNBOUND:                -0.246
REMARK SMILES O=C([O-])c1ccccc1O
REMARK SMILES IDX 4 1 9 2 5 3 8 4 6 5 7 6 2 7 1 8 3 9 10 10
REMARK H PARENT 10 11
REMARK Flexibility Score: inf
ROOT
ATOM      1  C   UNL     1      32.325   7.275 -22.584  1.00  0.00     0.039 A 
ATOM      2  C   UNL     1      31.808   8.117 -21.566  1.00  0.00     0.124 A 
ATOM      3  C   UNL     1      33.706   7.004 -22.607  1.00  0.00     0.014 A 
ATOM      4  C   UNL     1      32.684   8.711 -20.647  1.00  0.00     0.047 A 
ATOM      5  C   UNL     1      34.562   7.587 -21.670  1.00  0.00     0.001 A 
ATOM      6  C   UNL     1      34.053   8.446 -20.698  1.00  0.00     0.004 A 
ENDROOT
BRANCH   1   7
ATOM      7  C   UNL     1      31.471   6.699 -23.646  1.00  0.00     0.075 C 
ATOM      8  O   UNL     1      31.828   6.769 -24.852  1.00  0.00    -0.545 OA
ATOM      9  O   UNL     1      30.237   6.137 -23.341  1.00  0.00    -0.545 OA
ENDBRANCH   1   7
BRANCH   2  10
ATOM     10  O   UNL     1      30.442   8.360 -21.412  1.00  0.00    -0.507 OA
ATOM     11  H   UNL     1      30.071   9.128 -20.871  1.00  0.00     0.293 HD
ENDBRANCH   2  10
TORSDOF 2
ENDMDL
MODEL 9
REMARK VINA RESULT:    -4.015     11.749     12.745
REMARK INTER + INTRA:          -4.613
REMARK INTER:                  -4.367
REMARK INTRA:                  -0.246
REMARK UNBOUND:                -0.246
REMARK SMILES O=C([O-])c1ccccc1O
REMARK SMILES IDX 4 1 9 2 5 3 8 4 6 5 7 6 2 7 1 8 3 9 10 10
REMARK H PARENT 10 11
REMARK Flexibility Score: inf
ROOT
ATOM      1  C   UNL     1      28.179  10.648 -32.607  1.00  0.00     0.039 A 
ATOM      2  C   UNL     1      29.346  10.554 -33.409  1.00  0.00     0.124 A 
ATOM      3  C   UNL     1      27.838  11.894 -32.046  1.00  0.00     0.014 A 
ATOM      4  C   UNL     1      30.165  11.678 -33.575  1.00  0.00     0.047 A 
ATOM      5  C   UNL     1      28.655  13.010 -32.240  1.00  0.00     0.001 A 
ATOM      6  C   UNL     1      29.821  12.899 -32.995  1.00  0.00     0.004 A 
ENDROOT
BRANCH   1   7
ATOM      7  C   UNL     1      27.326   9.478 -32.306  1.00  0.00     0.075 C 
ATOM      8  O   UNL     1      27.074   9.169 -31.112  1.00  0.00    -0.545 OA
ATOM      9  O   UNL     1      26.850   8.664 -33.328  1.00  0.00    -0.545 OA
ENDBRANCH   1   7
BRANCH   2  10
ATOM     10  O   UNL     1      29.704   9.383 -34.080  1.00  0.00    -0.507 OA
ATOM     11  H   UNL     1      29.050   8.825 -34.613  1.00  0.00     0.293 HD
ENDBRANCH   2  10
TORSDOF 2
ENDMDL
