MODEL 1
REMARK VINA RESULT:    -5.513      0.000      0.000
REMARK INTER + INTRA:          -7.073
REMARK INTER:                  -6.802
REMARK INTRA:                  -0.271
REMARK UNBOUND:                -0.271
REMARK SMILES O=c1c(O)c(-c2cc(O)c(O)c(O)c2)oc2cc(O)cc(O)c12
REMARK SMILES IDX 5 1 3 2 2 3 1 4 23 5 21 6 20 7 18 8 17 9 16 10 15 11 6 12
REMARK SMILES IDX 7 13 8 14 14 15 10 16 12 17 9 18 11 20 13 22 4 24 22 26
REMARK SMILES IDX 19 28
REMARK H PARENT 9 19 11 21 13 23 4 25 22 27 19 29
REMARK Flexibility Score: inf
ROOT
ATOM      1  C   UNL     1      17.952   6.354  35.100  1.00  0.00     0.180 A 
ATOM      2  C   UNL     1      18.243   5.564  33.974  1.00  0.00     0.208 A 
ATOM      3  C   UNL     1      19.194   6.022  33.048  1.00  0.00     0.238 A 
ATOM      4  O   UNL     1      19.491   5.286  32.072  1.00  0.00    -0.285 OA
ATOM      5  C   UNL     1      19.830   7.271  33.251  1.00  0.00     0.111 A 
ATOM      6  C   UNL     1      20.780   7.851  32.357  1.00  0.00     0.134 A 
ATOM      7  C   UNL     1      21.441   9.030  32.723  1.00  0.00     0.093 A 
ATOM      8  C   UNL     1      21.143   9.683  33.917  1.00  0.00     0.123 A 
ATOM      9  C   UNL     1      20.173   9.156  34.771  1.00  0.00     0.094 A 
ATOM     10  C   UNL     1      19.521   7.962  34.451  1.00  0.00     0.146 A 
ATOM     11  O   UNL     1      18.612   7.489  35.295  1.00  0.00    -0.452 OA
ENDROOT
BRANCH   1  12
ATOM     12  C   UNL     1      16.943   5.949  36.105  1.00  0.00     0.029 A 
ATOM     13  C   UNL     1      17.247   4.926  37.014  1.00  0.00     0.062 A 
ATOM     14  C   UNL     1      16.325   4.532  37.992  1.00  0.00     0.162 A 
ATOM     15  C   UNL     1      15.709   6.608  36.207  1.00  0.00     0.062 A 
ATOM     16  C   UNL     1      15.073   5.185  38.074  1.00  0.00     0.200 A 
ATOM     17  C   UNL     1      14.776   6.225  37.181  1.00  0.00     0.162 A 
BRANCH  14  18
ATOM     18  O   UNL     1      16.694   3.496  38.854  1.00  0.00    -0.504 OA
ATOM     19  H   UNL     1      17.649   3.239  39.052  1.00  0.00     0.293 HD
ENDBRANCH  14  18
BRANCH  16  20
ATOM     20  O   UNL     1      14.106   4.838  39.021  1.00  0.00    -0.502 OA
ATOM     21  H   UNL     1      13.258   4.336  38.805  1.00  0.00     0.293 HD
ENDBRANCH  16  20
BRANCH  17  22
ATOM     22  O   UNL     1      13.549   6.879  37.271  1.00  0.00    -0.504 OA
ATOM     23  H   UNL     1      13.386   7.612  37.952  1.00  0.00     0.293 HD
ENDBRANCH  17  22
ENDBRANCH   1  12
BRANCH   2  24
ATOM     24  O   UNL     1      17.619   4.326  33.804  1.00  0.00    -0.502 OA
ATOM     25  H   UNL     1      18.137   3.480  33.592  1.00  0.00     0.293 HD
ENDBRANCH   2  24
BRANCH   6  26
ATOM     26  O   UNL     1      21.086   7.330  31.096  1.00  0.00    -0.507 OA
ATOM     27  H   UNL     1      20.962   6.365  30.829  1.00  0.00     0.293 HD
ENDBRANCH   6  26
BRANCH   8  28
ATOM     28  O   UNL     1      21.810  10.861  34.242  1.00  0.00    -0.508 OA
ATOM     29  H   UNL     1      21.397  11.770  34.067  1.00  0.00     0.293 HD
ENDBRANCH   8  28
TORSDOF 7
ENDMDL
MODEL 2
REMARK VINA RESULT:    -5.399     12.944     15.366
REMARK INTER + INTRA:          -6.933
REMARK INTER:                  -6.756
REMARK INTRA:                  -0.177
REMARK UNBOUND:                -0.271
REMARK SMILES O=c1c(O)c(-c2cc(O)c(O)c(O)c2)oc2cc(O)cc(O)c12
REMARK SMILES IDX 5 1 3 2 2 3 1 4 23 5 21 6 20 7 18 8 17 9 16 10 15 11 6 12
REMARK SMILES IDX 7 13 8 14 14 15 10 16 12 17 9 18 11 20 13 22 4 24 22 26
REMARK SMILES IDX 19 28
REMARK H PARENT 9 19 11 21 13 23 4 25 22 27 19 29
REMARK Flexibility Score: inf
ROOT
ATOM      1  C   UNL     1       6.957   6.327  27.032  1.00  0.00     0.180 A 
ATOM      2  C   UNL     1       6.643   5.537  28.151  1.00  0.00     0.208 A 
ATOM      3  C   UNL     1       5.719   6.023  29.091  1.00  0.00     0.238 A 
ATOM      4  O   UNL     1       5.401   5.288  30.061  1.00  0.00    -0.285 OA
ATOM      5  C   UNL     1       5.133   7.299  28.907  1.00  0.00     0.111 A 
ATOM      6  C   UNL     1       4.216   7.907  29.816  1.00  0.00     0.134 A 
ATOM      7  C   UNL     1       3.600   9.116  29.469  1.00  0.00     0.093 A 
ATOM      8  C   UNL     1       3.915   9.770  28.280  1.00  0.00     0.123 A 
ATOM      9  C   UNL     1       4.855   9.214  27.411  1.00  0.00     0.094 A 
ATOM     10  C   UNL     1       5.461   7.991  27.713  1.00  0.00     0.146 A 
ATOM     11  O   UNL     1       6.342   7.490  26.855  1.00  0.00    -0.452 OA
ENDROOT
BRANCH   1  12
ATOM     12  C   UNL     1       7.940   5.893  26.013  1.00  0.00     0.029 A 
ATOM     13  C   UNL     1       9.144   6.598  25.872  1.00  0.00     0.062 A 
ATOM     14  C   UNL     1      10.105   6.204  24.933  1.00  0.00     0.162 A 
ATOM     15  C   UNL     1       7.719   4.755  25.224  1.00  0.00     0.062 A 
ATOM     16  C   UNL     1       9.866   5.068  24.125  1.00  0.00     0.200 A 
ATOM     17  C   UNL     1       8.673   4.347  24.281  1.00  0.00     0.162 A 
BRANCH  14  18
ATOM     18  O   UNL     1      11.274   6.962  24.842  1.00  0.00    -0.504 OA
ATOM     19  H   UNL     1      11.780   7.320  25.638  1.00  0.00     0.293 HD
ENDBRANCH  14  18
BRANCH  16  20
ATOM     20  O   UNL     1      10.780   4.623  23.166  1.00  0.00    -0.502 OA
ATOM     21  H   UNL     1      11.682   4.228  23.384  1.00  0.00     0.293 HD
ENDBRANCH  16  20
BRANCH  17  22
ATOM     22  O   UNL     1       8.442   3.220  23.495  1.00  0.00    -0.504 OA
ATOM     23  H   UNL     1       8.853   2.321  23.721  1.00  0.00     0.293 HD
ENDBRANCH  17  22
ENDBRANCH   1  12
BRANCH   2  24
ATOM     24  O   UNL     1       7.217   4.272  28.302  1.00  0.00    -0.502 OA
ATOM     25  H   UNL     1       7.748   4.009  29.124  1.00  0.00     0.293 HD
ENDBRANCH   2  24
BRANCH   6  26
ATOM     26  O   UNL     1       3.900   7.384  31.074  1.00  0.00    -0.507 OA
ATOM     27  H   UNL     1       4.077   6.434  31.361  1.00  0.00     0.293 HD
ENDBRANCH   6  26
BRANCH   8  28
ATOM     28  O   UNL     1       3.294  10.979  27.974  1.00  0.00    -0.508 OA
ATOM     29  H   UNL     1       3.040  11.642  28.697  1.00  0.00     0.293 HD
ENDBRANCH   8  28
TORSDOF 7
ENDMDL
MODEL 3
REMARK VINA RESULT:    -5.331      3.499      7.751
REMARK INTER + INTRA:          -6.849
REMARK INTER:                  -6.618
REMARK INTRA:                  -0.231
REMARK UNBOUND:                -0.271
REMARK SMILES O=c1c(O)c(-c2cc(O)c(O)c(O)c2)oc2cc(O)cc(O)c12
REMARK SMILES IDX 5 1 3 2 2 3 1 4 23 5 21 6 20 7 18 8 17 9 16 10 15 11 6 12
REMARK SMILES IDX 7 13 8 14 14 15 10 16 12 17 9 18 11 20 13 22 4 24 22 26
REMARK SMILES IDX 19 28
REMARK H PARENT 9 19 11 21 13 23 4 25 22 27 19 29
REMARK Flexibility Score: inf
ROOT
ATOM      1  C   UNL     1      14.176   6.455  37.603  1.00  0.00     0.180 A 
ATOM      2  C   UNL     1      13.093   6.224  36.738  1.00  0.00     0.208 A 
ATOM      3  C   UNL     1      11.892   6.921  36.949  1.00  0.00     0.238 A 
ATOM      4  O   UNL     1      10.944   6.751  36.139  1.00  0.00    -0.285 OA
ATOM      5  C   UNL     1      11.784   7.826  38.032  1.00  0.00     0.111 A 
ATOM      6  C   UNL     1      10.603   8.556  38.364  1.00  0.00     0.134 A 
ATOM      7  C   UNL     1      10.649   9.521  39.377  1.00  0.00     0.093 A 
ATOM      8  C   UNL     1      11.813   9.738  40.113  1.00  0.00     0.123 A 
ATOM      9  C   UNL     1      12.957   8.988  39.837  1.00  0.00     0.094 A 
ATOM     10  C   UNL     1      12.952   8.043  38.808  1.00  0.00     0.146 A 
ATOM     11  O   UNL     1      14.065   7.358  38.570  1.00  0.00    -0.452 OA
ENDROOT
BRANCH   1  12
ATOM     12  C   UNL     1      15.464   5.740  37.459  1.00  0.00     0.029 A 
ATOM     13  C   UNL     1      16.299   6.035  36.371  1.00  0.00     0.062 A 
ATOM     14  C   UNL     1      17.534   5.394  36.214  1.00  0.00     0.162 A 
ATOM     15  C   UNL     1      15.897   4.813  38.419  1.00  0.00     0.062 A 
ATOM     16  C   UNL     1      17.954   4.444  37.175  1.00  0.00     0.200 A 
ATOM     17  C   UNL     1      17.131   4.164  38.276  1.00  0.00     0.162 A 
BRANCH  14  18
ATOM     18  O   UNL     1      18.305   5.731  35.100  1.00  0.00    -0.504 OA
ATOM     19  H   UNL     1      19.065   6.393  35.118  1.00  0.00     0.293 HD
ENDBRANCH  14  18
BRANCH  16  20
ATOM     20  O   UNL     1      19.170   3.763  37.076  1.00  0.00    -0.502 OA
ATOM     21  H   UNL     1      19.319   2.951  36.496  1.00  0.00     0.293 HD
ENDBRANCH  16  20
BRANCH  17  22
ATOM     22  O   UNL     1      17.550   3.239  39.230  1.00  0.00    -0.504 OA
ATOM     23  H   UNL     1      17.994   3.530  40.094  1.00  0.00     0.293 HD
ENDBRANCH  17  22
ENDBRANCH   1  12
BRANCH   2  24
ATOM     24  O   UNL     1      13.227   5.342  35.663  1.00  0.00    -0.502 OA
ATOM     25  H   UNL     1      14.119   5.159  35.216  1.00  0.00     0.293 HD
ENDBRANCH   2  24
BRANCH   6  26
ATOM     26  O   UNL     1       9.362   8.352  37.753  1.00  0.00    -0.507 OA
ATOM     27  H   UNL     1       9.116   7.539  37.208  1.00  0.00     0.293 HD
ENDBRANCH   6  26
BRANCH   8  28
ATOM     28  O   UNL     1      11.819  10.696  41.124  1.00  0.00    -0.508 OA
ATOM     29  H   UNL     1      12.189  10.492  42.045  1.00  0.00     0.293 HD
ENDBRANCH   8  28
TORSDOF 7
ENDMDL
MODEL 4
REMARK VINA RESULT:    -5.304      1.742      2.538
REMARK INTER + INTRA:          -6.815
REMARK INTER:                  -6.490
REMARK INTRA:                  -0.325
REMARK UNBOUND:                -0.271
REMARK SMILES O=c1c(O)c(-c2cc(O)c(O)c(O)c2)oc2cc(O)cc(O)c12
REMARK SMILES IDX 5 1 3 2 2 3 1 4 23 5 21 6 20 7 18 8 17 9 16 10 15 11 6 12
REMARK SMILES IDX 7 13 8 14 14 15 10 16 12 17 9 18 11 20 13 22 4 24 22 26
REMARK SMILES IDX 19 28
REMARK H PARENT 9 19 11 21 13 23 4 25 22 27 19 29
REMARK Flexibility Score: inf
ROOT
ATOM      1  C   UNL     1      16.129   6.236  35.858  1.00  0.00     0.180 A 
ATOM      2  C   UNL     1      16.221   5.094  35.045  1.00  0.00     0.208 A 
ATOM      3  C   UNL     1      17.342   4.939  34.212  1.00  0.00     0.238 A 
ATOM      4  O   UNL     1      17.445   3.889  33.527  1.00  0.00    -0.285 OA
ATOM      5  C   UNL     1      18.346   5.937  34.191  1.00  0.00     0.111 A 
ATOM      6  C   UNL     1      19.504   5.904  33.357  1.00  0.00     0.134 A 
ATOM      7  C   UNL     1      20.496   6.879  33.513  1.00  0.00     0.093 A 
ATOM      8  C   UNL     1      20.345   7.920  34.426  1.00  0.00     0.123 A 
ATOM      9  C   UNL     1      19.190   7.996  35.206  1.00  0.00     0.094 A 
ATOM     10  C   UNL     1      18.198   7.018  35.098  1.00  0.00     0.146 A 
ATOM     11  O   UNL     1      17.118   7.121  35.864  1.00  0.00    -0.452 OA
ENDROOT
BRANCH   1  12
ATOM     12  C   UNL     1      14.967   6.480  36.743  1.00  0.00     0.029 A 
ATOM     13  C   UNL     1      15.106   6.307  38.127  1.00  0.00     0.062 A 
ATOM     14  C   UNL     1      14.034   6.549  38.996  1.00  0.00     0.162 A 
ATOM     15  C   UNL     1      13.743   6.938  36.232  1.00  0.00     0.062 A 
ATOM     16  C   UNL     1      12.796   6.989  38.471  1.00  0.00     0.200 A 
ATOM     17  C   UNL     1      12.662   7.186  37.089  1.00  0.00     0.162 A 
BRANCH  14  18
ATOM     18  O   UNL     1      14.244   6.343  40.361  1.00  0.00    -0.504 OA
ATOM     19  H   UNL     1      15.143   6.137  40.770  1.00  0.00     0.293 HD
ENDBRANCH  14  18
BRANCH  16  20
ATOM     20  O   UNL     1      11.685   7.244  39.280  1.00  0.00    -0.502 OA
ATOM     21  H   UNL     1      10.802   6.765  39.193  1.00  0.00     0.293 HD
ENDBRANCH  16  20
BRANCH  17  22
ATOM     22  O   UNL     1      11.448   7.633  36.572  1.00  0.00    -0.504 OA
ATOM     23  H   UNL     1      10.851   7.029  36.017  1.00  0.00     0.293 HD
ENDBRANCH  17  22
ENDBRANCH   1  12
BRANCH   2  24
ATOM     24  O   UNL     1      15.229   4.112  35.096  1.00  0.00    -0.502 OA
ATOM     25  H   UNL     1      14.312   4.285  35.491  1.00  0.00     0.293 HD
ENDBRANCH   2  24
BRANCH   6  26
ATOM     26  O   UNL     1      19.712   4.958  32.348  1.00  0.00    -0.507 OA
ATOM     27  H   UNL     1      19.765   3.962  32.496  1.00  0.00     0.293 HD
ENDBRANCH   6  26
BRANCH   8  28
ATOM     28  O   UNL     1      21.346   8.882  34.546  1.00  0.00    -0.508 OA
ATOM     29  H   UNL     1      21.255   9.666  35.181  1.00  0.00     0.293 HD
ENDBRANCH   8  28
TORSDOF 7
ENDMDL
MODEL 5
REMARK VINA RESULT:    -5.282     12.908     15.360
REMARK INTER + INTRA:          -6.788
REMARK INTER:                  -6.426
REMARK INTRA:                  -0.362
REMARK UNBOUND:                -0.271
REMARK SMILES O=c1c(O)c(-c2cc(O)c(O)c(O)c2)oc2cc(O)cc(O)c12
REMARK SMILES IDX 5 1 3 2 2 3 1 4 23 5 21 6 20 7 18 8 17 9 16 10 15 11 6 12
REMARK SMILES IDX 7 13 8 14 14 15 10 16 12 17 9 18 11 20 13 22 4 24 22 26
REMARK SMILES IDX 19 28
REMARK H PARENT 9 19 11 21 13 23 4 25 22 27 19 29
REMARK Flexibility Score: inf
ROOT
ATOM      1  C   UNL     1       7.964   6.059  25.934  1.00  0.00     0.180 A 
ATOM      2  C   UNL     1       7.347   4.832  26.236  1.00  0.00     0.208 A 
ATOM      3  C   UNL     1       6.075   4.837  26.831  1.00  0.00     0.238 A 
ATOM      4  O   UNL     1       5.504   3.738  27.049  1.00  0.00    -0.285 OA
ATOM      5  C   UNL     1       5.443   6.069  27.131  1.00  0.00     0.111 A 
ATOM      6  C   UNL     1       4.173   6.194  27.771  1.00  0.00     0.134 A 
ATOM      7  C   UNL     1       3.587   7.458  27.901  1.00  0.00     0.093 A 
ATOM      8  C   UNL     1       4.250   8.607  27.475  1.00  0.00     0.123 A 
ATOM      9  C   UNL     1       5.519   8.503  26.902  1.00  0.00     0.094 A 
ATOM     10  C   UNL     1       6.115   7.252  26.727  1.00  0.00     0.146 A 
ATOM     11  O   UNL     1       7.319   7.195  26.169  1.00  0.00    -0.452 OA
ENDROOT
BRANCH   1  12
ATOM     12  C   UNL     1       9.313   6.133  25.330  1.00  0.00     0.029 A 
ATOM     13  C   UNL     1       9.444   6.156  23.934  1.00  0.00     0.062 A 
ATOM     14  C   UNL     1      10.704   6.247  23.329  1.00  0.00     0.162 A 
ATOM     15  C   UNL     1      10.465   6.239  26.125  1.00  0.00     0.062 A 
ATOM     16  C   UNL     1      11.862   6.331  24.137  1.00  0.00     0.200 A 
ATOM     17  C   UNL     1      11.732   6.331  25.533  1.00  0.00     0.162 A 
BRANCH  14  18
ATOM     18  O   UNL     1      10.755   6.252  21.933  1.00  0.00    -0.504 OA
ATOM     19  H   UNL     1      10.242   5.612  21.346  1.00  0.00     0.293 HD
ENDBRANCH  14  18
BRANCH  16  20
ATOM     20  O   UNL     1      13.148   6.418  23.598  1.00  0.00    -0.502 OA
ATOM     21  H   UNL     1      13.738   5.621  23.412  1.00  0.00     0.293 HD
ENDBRANCH  16  20
BRANCH  17  22
ATOM     22  O   UNL     1      12.871   6.429  26.330  1.00  0.00    -0.504 OA
ATOM     23  H   UNL     1      13.634   5.767  26.249  1.00  0.00     0.293 HD
ENDBRANCH  17  22
ENDBRANCH   1  12
BRANCH   2  24
ATOM     24  O   UNL     1       7.979   3.629  25.912  1.00  0.00    -0.502 OA
ATOM     25  H   UNL     1       8.817   3.590  25.343  1.00  0.00     0.293 HD
ENDBRANCH   2  24
BRANCH   6  26
ATOM     26  O   UNL     1       3.465   5.118  28.316  1.00  0.00    -0.507 OA
ATOM     27  H   UNL     1       3.826   4.490  29.018  1.00  0.00     0.293 HD
ENDBRANCH   6  26
BRANCH   8  28
ATOM     28  O   UNL     1       3.643   9.851  27.633  1.00  0.00    -0.508 OA
ATOM     29  H   UNL     1       3.658  10.339  28.521  1.00  0.00     0.293 HD
ENDBRANCH   8  28
TORSDOF 7
ENDMDL
MODEL 6
REMARK VINA RESULT:    -5.250     14.672     16.585
REMARK INTER + INTRA:          -6.748
REMARK INTER:                  -6.400
REMARK INTRA:                  -0.348
REMARK UNBOUND:                -0.271
REMARK SMILES O=c1c(O)c(-c2cc(O)c(O)c(O)c2)oc2cc(O)cc(O)c12
REMARK SMILES IDX 5 1 3 2 2 3 1 4 23 5 21 6 20 7 18 8 17 9 16 10 15 11 6 12
REMARK SMILES IDX 7 13 8 14 14 15 10 16 12 17 9 18 11 20 13 22 4 24 22 26
REMARK SMILES IDX 19 28
REMARK H PARENT 9 19 11 21 13 23 4 25 22 27 19 29
REMARK Flexibility Score: inf
ROOT
ATOM      1  C   UNL     1      13.841  -4.351  23.882  1.00  0.00     0.180 A 
ATOM      2  C   UNL     1      12.875  -4.766  22.948  1.00  0.00     0.208 A 
ATOM      3  C   UNL     1      12.196  -3.796  22.193  1.00  0.00     0.238 A 
ATOM      4  O   UNL     1      11.373  -4.176  21.320  1.00  0.00    -0.285 OA
ATOM      5  C   UNL     1      12.480  -2.423  22.392  1.00  0.00     0.111 A 
ATOM      6  C   UNL     1      11.825  -1.354  21.712  1.00  0.00     0.134 A 
ATOM      7  C   UNL     1      12.276  -0.041  21.892  1.00  0.00     0.093 A 
ATOM      8  C   UNL     1      13.314   0.249  22.776  1.00  0.00     0.123 A 
ATOM      9  C   UNL     1      13.923  -0.783  23.492  1.00  0.00     0.094 A 
ATOM     10  C   UNL     1      13.518  -2.107  23.306  1.00  0.00     0.146 A 
ATOM     11  O   UNL     1      14.130  -3.061  23.999  1.00  0.00    -0.452 OA
ENDROOT
BRANCH   1  12
ATOM     12  C   UNL     1      14.578  -5.313  24.732  1.00  0.00     0.029 A 
ATOM     13  C   UNL     1      15.746  -5.913  24.240  1.00  0.00     0.062 A 
ATOM     14  C   UNL     1      16.481  -6.812  25.024  1.00  0.00     0.162 A 
ATOM     15  C   UNL     1      14.166  -5.595  26.043  1.00  0.00     0.062 A 
ATOM     16  C   UNL     1      16.047  -7.109  26.337  1.00  0.00     0.200 A 
ATOM     17  C   UNL     1      14.892  -6.492  26.839  1.00  0.00     0.162 A 
BRANCH  14  18
ATOM     18  O   UNL     1      17.627  -7.379  24.462  1.00  0.00    -0.504 OA
ATOM     19  H   UNL     1      18.561  -7.233  24.814  1.00  0.00     0.293 HD
ENDBRANCH  14  18
BRANCH  16  20
ATOM     20  O   UNL     1      16.728  -8.000  27.170  1.00  0.00    -0.502 OA
ATOM     21  H   UNL     1      17.675  -8.311  27.011  1.00  0.00     0.293 HD
ENDBRANCH  16  20
BRANCH  17  22
ATOM     22  O   UNL     1      14.471  -6.773  28.138  1.00  0.00    -0.504 OA
ATOM     23  H   UNL     1      14.762  -7.615  28.620  1.00  0.00     0.293 HD
ENDBRANCH  17  22
ENDBRANCH   1  12
BRANCH   2  24
ATOM     24  O   UNL     1      12.626  -6.127  22.752  1.00  0.00    -0.502 OA
ATOM     25  H   UNL     1      12.193  -6.709  23.461  1.00  0.00     0.293 HD
ENDBRANCH   2  24
BRANCH   6  26
ATOM     26  O   UNL     1      10.717  -1.522  20.875  1.00  0.00    -0.507 OA
ATOM     27  H   UNL     1       9.830  -1.057  20.997  1.00  0.00     0.293 HD
ENDBRANCH   6  26
BRANCH   8  28
ATOM     28  O   UNL     1      13.728   1.569  22.943  1.00  0.00    -0.508 OA
ATOM     29  H   UNL     1      13.998   2.143  22.153  1.00  0.00     0.293 HD
ENDBRANCH   8  28
TORSDOF 7
ENDMDL
MODEL 7
REMARK VINA RESULT:    -5.230      1.728      3.006
REMARK INTER + INTRA:          -6.724
REMARK INTER:                  -6.398
REMARK INTRA:                  -0.326
REMARK UNBOUND:                -0.271
REMARK SMILES O=c1c(O)c(-c2cc(O)c(O)c(O)c2)oc2cc(O)cc(O)c12
REMARK SMILES IDX 5 1 3 2 2 3 1 4 23 5 21 6 20 7 18 8 17 9 16 10 15 11 6 12
REMARK SMILES IDX 7 13 8 14 14 15 10 16 12 17 9 18 11 20 13 22 4 24 22 26
REMARK SMILES IDX 19 28
REMARK H PARENT 9 19 11 21 13 23 4 25 22 27 19 29
REMARK Flexibility Score: inf
ROOT
ATOM      1  C   UNL     1      16.091   6.246  35.895  1.00  0.00     0.180 A 
ATOM      2  C   UNL     1      16.196   5.114  35.069  1.00  0.00     0.208 A 
ATOM      3  C   UNL     1      17.323   4.977  34.242  1.00  0.00     0.238 A 
ATOM      4  O   UNL     1      17.439   3.935  33.546  1.00  0.00    -0.285 OA
ATOM      5  C   UNL     1      18.321   5.982  34.240  1.00  0.00     0.111 A 
ATOM      6  C   UNL     1      19.484   5.966  33.413  1.00  0.00     0.134 A 
ATOM      7  C   UNL     1      20.469   6.946  33.587  1.00  0.00     0.093 A 
ATOM      8  C   UNL     1      20.304   7.976  34.511  1.00  0.00     0.123 A 
ATOM      9  C   UNL     1      19.144   8.035  35.283  1.00  0.00     0.094 A 
ATOM     10  C   UNL     1      18.159   7.051  35.157  1.00  0.00     0.146 A 
ATOM     11  O   UNL     1      17.074   7.138  35.918  1.00  0.00    -0.452 OA
ENDROOT
BRANCH   1  12
ATOM     12  C   UNL     1      14.921   6.472  36.775  1.00  0.00     0.029 A 
ATOM     13  C   UNL     1      13.729   6.965  36.224  1.00  0.00     0.062 A 
ATOM     14  C   UNL     1      12.597   7.170  37.022  1.00  0.00     0.162 A 
ATOM     15  C   UNL     1      14.960   6.149  38.139  1.00  0.00     0.062 A 
ATOM     16  C   UNL     1      12.650   6.863  38.402  1.00  0.00     0.200 A 
ATOM     17  C   UNL     1      13.834   6.349  38.950  1.00  0.00     0.162 A 
BRANCH  14  18
ATOM     18  O   UNL     1      11.450   7.675  36.405  1.00  0.00    -0.504 OA
ATOM     19  H   UNL     1      10.588   7.873  36.890  1.00  0.00     0.293 HD
ENDBRANCH  14  18
BRANCH  16  20
ATOM     20  O   UNL     1      11.560   7.050  39.255  1.00  0.00    -0.502 OA
ATOM     21  H   UNL     1      11.631   7.104  40.260  1.00  0.00     0.293 HD
ENDBRANCH  16  20
BRANCH  17  22
ATOM     22  O   UNL     1      13.883   6.032  40.306  1.00  0.00    -0.504 OA
ATOM     23  H   UNL     1      14.018   5.080  40.625  1.00  0.00     0.293 HD
ENDBRANCH  17  22
ENDBRANCH   1  12
BRANCH   2  24
ATOM     24  O   UNL     1      15.211   4.125  35.103  1.00  0.00    -0.502 OA
ATOM     25  H   UNL     1      14.640   3.952  35.923  1.00  0.00     0.293 HD
ENDBRANCH   2  24
BRANCH   6  26
ATOM     26  O   UNL     1      19.706   5.033  32.394  1.00  0.00    -0.507 OA
ATOM     27  H   UNL     1      20.547   4.486  32.290  1.00  0.00     0.293 HD
ENDBRANCH   6  26
BRANCH   8  28
ATOM     28  O   UNL     1      21.298   8.943  34.648  1.00  0.00    -0.508 OA
ATOM     29  H   UNL     1      21.366   9.520  35.478  1.00  0.00     0.293 HD
ENDBRANCH   8  28
TORSDOF 7
ENDMDL
MODEL 8
REMARK VINA RESULT:    -5.225      2.801      5.663
REMARK INTER + INTRA:          -6.718
REMARK INTER:                  -6.350
REMARK INTRA:                  -0.368
REMARK UNBOUND:                -0.271
REMARK SMILES O=c1c(O)c(-c2cc(O)c(O)c(O)c2)oc2cc(O)cc(O)c12
REMARK SMILES IDX 5 1 3 2 2 3 1 4 23 5 21 6 20 7 18 8 17 9 16 10 15 11 6 12
REMARK SMILES IDX 7 13 8 14 14 15 10 16 12 17 9 18 11 20 13 22 4 24 22 26
REMARK SMILES IDX 19 28
REMARK H PARENT 9 19 11 21 13 23 4 25 22 27 19 29
REMARK Flexibility Score: inf
ROOT
ATOM      1  C   UNL     1      14.247   6.372  37.918  1.00  0.00     0.180 A 
ATOM      2  C   UNL     1      14.362   5.022  38.293  1.00  0.00     0.208 A 
ATOM      3  C   UNL     1      15.437   4.266  37.799  1.00  0.00     0.238 A 
ATOM      4  O   UNL     1      15.565   3.075  38.181  1.00  0.00    -0.285 OA
ATOM      5  C   UNL     1      16.375   4.866  36.923  1.00  0.00     0.111 A 
ATOM      6  C   UNL     1      17.480   4.185  36.330  1.00  0.00     0.134 A 
ATOM      7  C   UNL     1      18.417   4.908  35.583  1.00  0.00     0.093 A 
ATOM      8  C   UNL     1      18.256   6.273  35.353  1.00  0.00     0.123 A 
ATOM      9  C   UNL     1      17.148   6.938  35.878  1.00  0.00     0.094 A 
ATOM     10  C   UNL     1      16.214   6.250  36.658  1.00  0.00     0.146 A 
ATOM     11  O   UNL     1      15.178   6.922  37.148  1.00  0.00    -0.452 OA
ENDROOT
BRANCH   1  12
ATOM     12  C   UNL     1      13.127   7.224  38.378  1.00  0.00     0.029 A 
ATOM     13  C   UNL     1      13.299   8.037  39.508  1.00  0.00     0.062 A 
ATOM     14  C   UNL     1      12.268   8.871  39.960  1.00  0.00     0.162 A 
ATOM     15  C   UNL     1      11.916   7.281  37.674  1.00  0.00     0.062 A 
ATOM     16  C   UNL     1      11.041   8.907  39.257  1.00  0.00     0.200 A 
ATOM     17  C   UNL     1      10.876   8.112  38.114  1.00  0.00     0.162 A 
BRANCH  14  18
ATOM     18  O   UNL     1      12.508   9.642  41.099  1.00  0.00    -0.504 OA
ATOM     19  H   UNL     1      12.423   9.298  42.043  1.00  0.00     0.293 HD
ENDBRANCH  14  18
BRANCH  16  20
ATOM     20  O   UNL     1       9.970   9.711  39.656  1.00  0.00    -0.502 OA
ATOM     21  H   UNL     1       9.847  10.064  40.594  1.00  0.00     0.293 HD
ENDBRANCH  16  20
BRANCH  17  22
ATOM     22  O   UNL     1       9.672   8.157  37.413  1.00  0.00    -0.504 OA
ATOM     23  H   UNL     1       9.627   7.958  36.420  1.00  0.00     0.293 HD
ENDBRANCH  17  22
ENDBRANCH   1  12
BRANCH   2  24
ATOM     24  O   UNL     1      13.437   4.457  39.175  1.00  0.00    -0.502 OA
ATOM     25  H   UNL     1      13.590   3.560  39.623  1.00  0.00     0.293 HD
ENDBRANCH   2  24
BRANCH   6  26
ATOM     26  O   UNL     1      17.686   2.804  36.420  1.00  0.00    -0.507 OA
ATOM     27  H   UNL     1      18.422   2.302  35.947  1.00  0.00     0.293 HD
ENDBRANCH   6  26
BRANCH   8  28
ATOM     28  O   UNL     1      19.201   6.959  34.593  1.00  0.00    -0.508 OA
ATOM     29  H   UNL     1      19.071   7.931  34.337  1.00  0.00     0.293 HD
ENDBRANCH   8  28
TORSDOF 7
ENDMDL
MODEL 9
REMARK VINA RESULT:    -5.092     15.496     17.441
REMARK INTER + INTRA:          -6.554
REMARK INTER:                  -6.231
REMARK INTRA:                  -0.323
REMARK UNBOUND:                -0.271
REMARK SMILES O=c1c(O)c(-c2cc(O)c(O)c(O)c2)oc2cc(O)cc(O)c12
REMARK SMILES IDX 5 1 3 2 2 3 1 4 23 5 21 6 20 7 18 8 17 9 16 10 15 11 6 12
REMARK SMILES IDX 7 13 8 14 14 15 10 16 12 17 9 18 11 20 13 22 4 24 22 26
REMARK SMILES IDX 19 28
REMARK H PARENT 9 19 11 21 13 23 4 25 22 27 19 29
REMARK Flexibility Score: inf
ROOT
ATOM      1  C   UNL     1      13.550  -4.401  23.972  1.00  0.00     0.180 A 
ATOM      2  C   UNL     1      13.881  -3.044  23.809  1.00  0.00     0.208 A 
ATOM      3  C   UNL     1      13.047  -2.229  23.025  1.00  0.00     0.238 A 
ATOM      4  O   UNL     1      13.318  -1.004  22.929  1.00  0.00    -0.285 OA
ATOM      5  C   UNL     1      11.904  -2.785  22.401  1.00  0.00     0.111 A 
ATOM      6  C   UNL     1      11.013  -2.062  21.552  1.00  0.00     0.134 A 
ATOM      7  C   UNL     1       9.843  -2.680  21.094  1.00  0.00     0.093 A 
ATOM      8  C   UNL     1       9.565  -4.011  21.398  1.00  0.00     0.123 A 
ATOM      9  C   UNL     1      10.459  -4.745  22.178  1.00  0.00     0.094 A 
ATOM     10  C   UNL     1      11.617  -4.146  22.680  1.00  0.00     0.146 A 
ATOM     11  O   UNL     1      12.438  -4.876  23.426  1.00  0.00    -0.452 OA
ENDROOT
BRANCH   1  12
ATOM     12  C   UNL     1      14.393  -5.326  24.762  1.00  0.00     0.029 A 
ATOM     13  C   UNL     1      15.571  -5.838  24.198  1.00  0.00     0.062 A 
ATOM     14  C   UNL     1      16.404  -6.699  24.924  1.00  0.00     0.162 A 
ATOM     15  C   UNL     1      14.071  -5.658  26.086  1.00  0.00     0.062 A 
ATOM     16  C   UNL     1      16.060  -7.047  26.251  1.00  0.00     0.200 A 
ATOM     17  C   UNL     1      14.894  -6.518  26.825  1.00  0.00     0.162 A 
BRANCH  14  18
ATOM     18  O   UNL     1      17.553  -7.178  24.292  1.00  0.00    -0.504 OA
ATOM     19  H   UNL     1      17.588  -8.028  23.749  1.00  0.00     0.293 HD
ENDBRANCH  14  18
BRANCH  16  20
ATOM     20  O   UNL     1      16.842  -7.906  27.029  1.00  0.00    -0.502 OA
ATOM     21  H   UNL     1      16.468  -8.641  27.609  1.00  0.00     0.293 HD
ENDBRANCH  16  20
BRANCH  17  22
ATOM     22  O   UNL     1      14.562  -6.850  28.137  1.00  0.00    -0.504 OA
ATOM     23  H   UNL     1      15.260  -6.872  28.873  1.00  0.00     0.293 HD
ENDBRANCH  17  22
ENDBRANCH   1  12
BRANCH   2  24
ATOM     24  O   UNL     1      15.001  -2.511  24.452  1.00  0.00    -0.502 OA
ATOM     25  H   UNL     1      14.982  -1.617  24.929  1.00  0.00     0.293 HD
ENDBRANCH   2  24
BRANCH   6  26
ATOM     26  O   UNL     1      11.242  -0.755  21.111  1.00  0.00    -0.507 OA
ATOM     27  H   UNL     1      12.153  -0.329  21.026  1.00  0.00     0.293 HD
ENDBRANCH   6  26
BRANCH   8  28
ATOM     28  O   UNL     1       8.398  -4.598  20.912  1.00  0.00    -0.508 OA
ATOM     29  H   UNL     1       7.707  -4.061  20.403  1.00  0.00     0.293 HD
ENDBRANCH   8  28
TORSDOF 7
ENDMDL
