MODEL 1
REMARK VINA RESULT:    -4.629      0.000      0.000
REMARK INTER + INTRA:          -5.456
REMARK INTER:                  -5.306
REMARK INTRA:                  -0.150
REMARK UNBOUND:                -0.150
REMARK SMILES O=C([O-])C=Cc1ccc(O)cc1
REMARK SMILES IDX 6 1 7 2 12 3 8 4 11 5 9 6 5 7 4 8 2 9 1 10 3 11 10 12
REMARK H PARENT 10 13
REMARK Flexibility Score: inf
ROOT
ATOM      1  C   UNL     1       5.741   8.233  -2.013  1.00  0.00    -0.025 A 
ATOM      2  C   UNL     1       4.869   7.140  -1.881  1.00  0.00     0.012 A 
ATOM      3  C   UNL     1       5.201   9.504  -2.299  1.00  0.00     0.012 A 
ATOM      4  C   UNL     1       3.487   7.313  -2.004  1.00  0.00     0.047 A 
ATOM      5  C   UNL     1       3.818   9.673  -2.422  1.00  0.00     0.047 A 
ATOM      6  C   UNL     1       2.957   8.581  -2.272  1.00  0.00     0.115 A 
ENDROOT
BRANCH   1   7
ATOM      7  C   UNL     1       7.200   7.996  -1.885  1.00  0.00     0.010 C 
ATOM      8  C   UNL     1       7.795   6.831  -2.178  1.00  0.00     0.025 C 
BRANCH   8   9
ATOM      9  C   UNL     1       9.249   6.645  -2.048  1.00  0.00     0.064 C 
ATOM     10  O   UNL     1      10.030   7.524  -2.498  1.00  0.00    -0.545 OA
ATOM     11  O   UNL     1       9.775   5.512  -1.439  1.00  0.00    -0.545 OA
ENDBRANCH   8   9
ENDBRANCH   1   7
BRANCH   6  12
ATOM     12  O   UNL     1       1.582   8.765  -2.398  1.00  0.00    -0.508 OA
ATOM     13  H   UNL     1       1.185   9.682  -2.562  1.00  0.00     0.293 HD
ENDBRANCH   6  12
TORSDOF 3
ENDMDL
MODEL 2
REMARK VINA RESULT:    -4.552      0.146      1.403
REMARK INTER + INTRA:          -5.367
REMARK INTER:                  -5.230
REMARK INTRA:                  -0.138
REMARK UNBOUND:                -0.150
REMARK SMILES O=C([O-])C=Cc1ccc(O)cc1
REMARK SMILES IDX 6 1 7 2 12 3 8 4 11 5 9 6 5 7 4 8 2 9 1 10 3 11 10 12
REMARK H PARENT 10 13
REMARK Flexibility Score: inf
ROOT
ATOM      1  C   UNL     1       5.791   8.165  -2.016  1.00  0.00    -0.025 A 
ATOM      2  C   UNL     1       5.353   9.481  -2.241  1.00  0.00     0.012 A 
ATOM      3  C   UNL     1       4.833   7.133  -1.941  1.00  0.00     0.012 A 
ATOM      4  C   UNL     1       3.994   9.759  -2.413  1.00  0.00     0.047 A 
ATOM      5  C   UNL     1       3.474   7.415  -2.112  1.00  0.00     0.047 A 
ATOM      6  C   UNL     1       3.051   8.726  -2.351  1.00  0.00     0.115 A 
ENDROOT
BRANCH   1   7
ATOM      7  C   UNL     1       7.243   7.922  -1.829  1.00  0.00     0.010 C 
ATOM      8  C   UNL     1       7.874   6.817  -2.249  1.00  0.00     0.025 C 
BRANCH   8   9
ATOM      9  C   UNL     1       9.320   6.624  -2.053  1.00  0.00     0.064 C 
ATOM     10  O   UNL     1      10.125   7.496  -2.474  1.00  0.00    -0.545 OA
ATOM     11  O   UNL     1       9.812   5.492  -1.414  1.00  0.00    -0.545 OA
ENDBRANCH   8   9
ENDBRANCH   1   7
BRANCH   6  12
ATOM     12  O   UNL     1       1.694   8.991  -2.521  1.00  0.00    -0.508 OA
ATOM     13  H   UNL     1       1.254   9.793  -2.087  1.00  0.00     0.293 HD
ENDBRANCH   6  12
TORSDOF 3
ENDMDL
MODEL 3
REMARK VINA RESULT:    -4.427     14.011     16.017
REMARK INTER + INTRA:          -5.223
REMARK INTER:                  -5.073
REMARK INTRA:                  -0.150
REMARK UNBOUND:                -0.150
REMARK SMILES O=C([O-])C=Cc1ccc(O)cc1
REMARK SMILES IDX 6 1 7 2 12 3 8 4 11 5 9 6 5 7 4 8 2 9 1 10 3 11 10 12
REMARK H PARENT 10 13
REMARK Flexibility Score: inf
ROOT
ATOM      1  C   UNL     1      -7.371   2.291  -6.349  1.00  0.00    -0.025 A 
ATOM      2  C   UNL     1      -7.518   1.481  -7.488  1.00  0.00     0.012 A 
ATOM      3  C   UNL     1      -6.424   3.335  -6.375  1.00  0.00     0.012 A 
ATOM      4  C   UNL     1      -6.758   1.722  -8.636  1.00  0.00     0.047 A 
ATOM      5  C   UNL     1      -5.665   3.573  -7.525  1.00  0.00     0.047 A 
ATOM      6  C   UNL     1      -5.831   2.771  -8.659  1.00  0.00     0.115 A 
ENDROOT
BRANCH   1   7
ATOM      7  C   UNL     1      -8.193   1.988  -5.151  1.00  0.00     0.010 C 
ATOM      8  C   UNL     1      -8.540   0.747  -4.780  1.00  0.00     0.025 C 
BRANCH   8   9
ATOM      9  C   UNL     1      -9.346   0.492  -3.576  1.00  0.00     0.064 C 
ATOM     10  O   UNL     1      -9.854   1.461  -2.952  1.00  0.00    -0.545 OA
ATOM     11  O   UNL     1      -9.553  -0.802  -3.113  1.00  0.00    -0.545 OA
ENDBRANCH   8   9
ENDBRANCH   1   7
BRANCH   6  12
ATOM     12  O   UNL     1      -5.067   3.021  -9.797  1.00  0.00    -0.508 OA
ATOM     13  H   UNL     1      -5.153   2.448 -10.628  1.00  0.00     0.293 HD
ENDBRANCH   6  12
TORSDOF 3
ENDMDL
MODEL 4
REMARK VINA RESULT:    -4.266      1.976      2.413
REMARK INTER + INTRA:          -5.039
REMARK INTER:                  -4.900
REMARK INTRA:                  -0.139
REMARK UNBOUND:                -0.150
REMARK SMILES O=C([O-])C=Cc1ccc(O)cc1
REMARK SMILES IDX 6 1 7 2 12 3 8 4 11 5 9 6 5 7 4 8 2 9 1 10 3 11 10 12
REMARK H PARENT 10 13
REMARK Flexibility Score: inf
ROOT
ATOM      1  C   UNL     1       6.396   6.696  -2.739  1.00  0.00    -0.025 A 
ATOM      2  C   UNL     1       6.011   7.047  -4.043  1.00  0.00     0.012 A 
ATOM      3  C   UNL     1       5.590   7.107  -1.657  1.00  0.00     0.012 A 
ATOM      4  C   UNL     1       4.835   7.769  -4.268  1.00  0.00     0.047 A 
ATOM      5  C   UNL     1       4.415   7.831  -1.886  1.00  0.00     0.047 A 
ATOM      6  C   UNL     1       4.032   8.161  -3.190  1.00  0.00     0.115 A 
ENDROOT
BRANCH   1   7
ATOM      7  C   UNL     1       7.658   5.938  -2.551  1.00  0.00     0.010 C 
ATOM      8  C   UNL     1       7.791   4.632  -2.822  1.00  0.00     0.025 C 
BRANCH   8   9
ATOM      9  C   UNL     1       9.067   3.924  -2.633  1.00  0.00     0.064 C 
ATOM     10  O   UNL     1      10.049   4.536  -2.137  1.00  0.00    -0.545 OA
ATOM     11  O   UNL     1       9.207   2.590  -2.996  1.00  0.00    -0.545 OA
ENDBRANCH   8   9
ENDBRANCH   1   7
BRANCH   6  12
ATOM     12  O   UNL     1       2.859   8.881  -3.402  1.00  0.00    -0.508 OA
ATOM     13  H   UNL     1       2.611   9.230  -4.320  1.00  0.00     0.293 HD
ENDBRANCH   6  12
TORSDOF 3
ENDMDL
MODEL 5
REMARK VINA RESULT:    -4.111     13.719     15.299
REMARK INTER + INTRA:          -4.861
REMARK INTER:                  -4.722
REMARK INTRA:                  -0.139
REMARK UNBOUND:                -0.150
REMARK SMILES O=C([O-])C=Cc1ccc(O)cc1
REMARK SMILES IDX 6 1 7 2 12 3 8 4 11 5 9 6 5 7 4 8 2 9 1 10 3 11 10 12
REMARK H PARENT 10 13
REMARK Flexibility Score: inf
ROOT
ATOM      1  C   UNL     1       6.658  -6.746  -0.524  1.00  0.00    -0.025 A 
ATOM      2  C   UNL     1       6.239  -6.612   0.810  1.00  0.00     0.012 A 
ATOM      3  C   UNL     1       7.677  -5.897  -1.006  1.00  0.00     0.012 A 
ATOM      4  C   UNL     1       6.839  -5.673   1.654  1.00  0.00     0.047 A 
ATOM      5  C   UNL     1       8.274  -4.958  -0.159  1.00  0.00     0.047 A 
ATOM      6  C   UNL     1       7.860  -4.844   1.172  1.00  0.00     0.115 A 
ENDROOT
BRANCH   1   7
ATOM      7  C   UNL     1       5.983  -7.750  -1.383  1.00  0.00     0.010 C 
ATOM      8  C   UNL     1       5.532  -7.491  -2.619  1.00  0.00     0.025 C 
BRANCH   8   9
ATOM      9  C   UNL     1       4.879  -8.522  -3.441  1.00  0.00     0.064 C 
ATOM     10  O   UNL     1       5.460  -9.623  -3.633  1.00  0.00    -0.545 OA
ATOM     11  O   UNL     1       3.632  -8.300  -4.013  1.00  0.00    -0.545 OA
ENDBRANCH   8   9
ENDBRANCH   1   7
BRANCH   6  12
ATOM     12  O   UNL     1       8.465  -3.904   2.003  1.00  0.00    -0.508 OA
ATOM     13  H   UNL     1       8.146  -3.755   2.953  1.00  0.00     0.293 HD
ENDBRANCH   6  12
TORSDOF 3
ENDMDL
MODEL 6
REMARK VINA RESULT:    -4.078     15.855     17.273
REMARK INTER + INTRA:          -4.823
REMARK INTER:                  -4.682
REMARK INTRA:                  -0.141
REMARK UNBOUND:                -0.150
REMARK SMILES O=C([O-])C=Cc1ccc(O)cc1
REMARK SMILES IDX 6 1 7 2 12 3 8 4 11 5 9 6 5 7 4 8 2 9 1 10 3 11 10 12
REMARK H PARENT 10 13
REMARK Flexibility Score: inf
ROOT
ATOM      1  C   UNL     1      -8.907   1.140  -4.880  1.00  0.00    -0.025 A 
ATOM      2  C   UNL     1      -8.006   2.182  -5.158  1.00  0.00     0.012 A 
ATOM      3  C   UNL     1      -9.477   0.429  -5.957  1.00  0.00     0.012 A 
ATOM      4  C   UNL     1      -7.662   2.493  -6.476  1.00  0.00     0.047 A 
ATOM      5  C   UNL     1      -9.131   0.744  -7.275  1.00  0.00     0.047 A 
ATOM      6  C   UNL     1      -8.222   1.773  -7.539  1.00  0.00     0.115 A 
ENDROOT
BRANCH   1   7
ATOM      7  C   UNL     1      -9.249   0.855  -3.465  1.00  0.00     0.010 C 
ATOM      8  C   UNL     1      -9.427  -0.380  -2.975  1.00  0.00     0.025 C 
BRANCH   8   9
ATOM      9  C   UNL     1      -9.753  -0.617  -1.560  1.00  0.00     0.064 C 
ATOM     10  O   UNL     1      -9.833   0.360  -0.770  1.00  0.00    -0.545 OA
ATOM     11  O   UNL     1      -9.972  -1.903  -1.080  1.00  0.00    -0.545 OA
ENDBRANCH   8   9
ENDBRANCH   1   7
BRANCH   6  12
ATOM     12  O   UNL     1      -7.887   2.074  -8.857  1.00  0.00    -0.508 OA
ATOM     13  H   UNL     1      -8.387   1.664  -9.636  1.00  0.00     0.293 HD
ENDBRANCH   6  12
TORSDOF 3
ENDMDL
MODEL 7
REMARK VINA RESULT:    -4.049     12.600     15.046
REMARK INTER + INTRA:          -4.790
REMARK INTER:                  -4.651
REMARK INTRA:                  -0.139
REMARK UNBOUND:                -0.150
REMARK SMILES O=C([O-])C=Cc1ccc(O)cc1
REMARK SMILES IDX 6 1 7 2 12 3 8 4 11 5 9 6 5 7 4 8 2 9 1 10 3 11 10 12
REMARK H PARENT 10 13
REMARK Flexibility Score: inf
ROOT
ATOM      1  C   UNL     1      -6.948   2.189  -7.456  1.00  0.00    -0.025 A 
ATOM      2  C   UNL     1      -7.944   1.510  -8.179  1.00  0.00     0.012 A 
ATOM      3  C   UNL     1      -7.000   2.174  -6.047  1.00  0.00     0.012 A 
ATOM      4  C   UNL     1      -8.954   0.811  -7.512  1.00  0.00     0.047 A 
ATOM      5  C   UNL     1      -8.014   1.474  -5.384  1.00  0.00     0.047 A 
ATOM      6  C   UNL     1      -8.991   0.789  -6.113  1.00  0.00     0.115 A 
ENDROOT
BRANCH   1   7
ATOM      7  C   UNL     1      -5.903   2.926  -8.209  1.00  0.00     0.010 C 
ATOM      8  C   UNL     1      -5.355   4.076  -7.792  1.00  0.00     0.025 C 
BRANCH   8   9
ATOM      9  C   UNL     1      -4.311   4.766  -8.565  1.00  0.00     0.064 C 
ATOM     10  O   UNL     1      -4.620   5.753  -9.283  1.00  0.00    -0.545 OA
ATOM     11  O   UNL     1      -2.987   4.343  -8.520  1.00  0.00    -0.545 OA
ENDBRANCH   8   9
ENDBRANCH   1   7
BRANCH   6  12
ATOM     12  O   UNL     1      -9.993   0.096  -5.438  1.00  0.00    -0.508 OA
ATOM     13  H   UNL     1      -9.945  -0.062  -4.438  1.00  0.00     0.293 HD
ENDBRANCH   6  12
TORSDOF 3
ENDMDL
MODEL 8
REMARK VINA RESULT:    -4.043     13.527     15.399
REMARK INTER + INTRA:          -4.783
REMARK INTER:                  -4.635
REMARK INTRA:                  -0.149
REMARK UNBOUND:                -0.150
REMARK SMILES O=C([O-])C=Cc1ccc(O)cc1
REMARK SMILES IDX 6 1 7 2 12 3 8 4 11 5 9 6 5 7 4 8 2 9 1 10 3 11 10 12
REMARK H PARENT 10 13
REMARK Flexibility Score: inf
ROOT
ATOM      1  C   UNL     1      -7.324   3.618  -6.860  1.00  0.00    -0.025 A 
ATOM      2  C   UNL     1      -5.972   3.289  -7.056  1.00  0.00     0.012 A 
ATOM      3  C   UNL     1      -7.861   4.727  -7.546  1.00  0.00     0.012 A 
ATOM      4  C   UNL     1      -5.180   4.033  -7.936  1.00  0.00     0.047 A 
ATOM      5  C   UNL     1      -7.064   5.469  -8.424  1.00  0.00     0.047 A 
ATOM      6  C   UNL     1      -5.724   5.123  -8.624  1.00  0.00     0.115 A 
ENDROOT
BRANCH   1   7
ATOM      7  C   UNL     1      -8.121   2.806  -5.907  1.00  0.00     0.010 C 
ATOM      8  C   UNL     1      -7.825   1.541  -5.577  1.00  0.00     0.025 C 
BRANCH   8   9
ATOM      9  C   UNL     1      -8.637   0.777  -4.617  1.00  0.00     0.064 C 
ATOM     10  O   UNL     1      -8.583   1.063  -3.392  1.00  0.00    -0.545 OA
ATOM     11  O   UNL     1      -9.461  -0.260  -5.040  1.00  0.00    -0.545 OA
ENDBRANCH   8   9
ENDBRANCH   1   7
BRANCH   6  12
ATOM     12  O   UNL     1      -4.945   5.871  -9.503  1.00  0.00    -0.508 OA
ATOM     13  H   UNL     1      -3.968   6.060  -9.314  1.00  0.00     0.293 HD
ENDBRANCH   6  12
TORSDOF 3
ENDMDL
MODEL 9
REMARK VINA RESULT:    -4.018     11.591     13.640
REMARK INTER + INTRA:          -4.755
REMARK INTER:                  -4.619
REMARK INTRA:                  -0.136
REMARK UNBOUND:                -0.150
REMARK SMILES O=C([O-])C=Cc1ccc(O)cc1
REMARK SMILES IDX 6 1 7 2 12 3 8 4 11 5 9 6 5 7 4 8 2 9 1 10 3 11 10 12
REMARK H PARENT 10 13
REMARK Flexibility Score: inf
ROOT
ATOM      1  C   UNL     1      -5.588   3.857  -8.057  1.00  0.00    -0.025 A 
ATOM      2  C   UNL     1      -5.950   2.778  -8.881  1.00  0.00     0.012 A 
ATOM      3  C   UNL     1      -6.070   3.893  -6.733  1.00  0.00     0.012 A 
ATOM      4  C   UNL     1      -6.754   1.745  -8.389  1.00  0.00     0.047 A 
ATOM      5  C   UNL     1      -6.874   2.858  -6.244  1.00  0.00     0.047 A 
ATOM      6  C   UNL     1      -7.216   1.781  -7.068  1.00  0.00     0.115 A 
ENDROOT
BRANCH   1   7
ATOM      7  C   UNL     1      -4.742   4.934  -8.629  1.00  0.00     0.010 C 
ATOM      8  C   UNL     1      -3.412   4.843  -8.768  1.00  0.00     0.025 C 
BRANCH   8   9
ATOM      9  C   UNL     1      -2.614   5.932  -9.353  1.00  0.00     0.064 C 
ATOM     10  O   UNL     1      -1.416   5.720  -9.675  1.00  0.00    -0.545 OA
ATOM     11  O   UNL     1      -3.162   7.194  -9.553  1.00  0.00    -0.545 OA
ENDBRANCH   8   9
ENDBRANCH   1   7
BRANCH   6  12
ATOM     12  O   UNL     1      -8.017   0.758  -6.567  1.00  0.00    -0.508 OA
ATOM     13  H   UNL     1      -8.811   0.405  -7.087  1.00  0.00     0.293 HD
ENDBRANCH   6  12
TORSDOF 3
ENDMDL
