MODEL 1
REMARK VINA RESULT:    -5.662      0.000      0.000
REMARK INTER + INTRA:          -6.880
REMARK INTER:                  -6.655
REMARK INTRA:                  -0.225
REMARK UNBOUND:                -0.225
REMARK SMILES CCC=Cc1oc(O)c2ccc(O)cc12
REMARK SMILES IDX 7 1 6 2 5 3 15 4 14 5 12 6 11 7 10 8 9 9 8 10 4 12 3 13 2 14
REMARK SMILES IDX 1 15 13 16
REMARK H PARENT 8 11 13 17
REMARK Flexibility Score: inf
ROOT
ATOM      1  C   UNL     1      49.688 107.802  53.392  1.00  0.00     0.290 A 
ATOM      2  O   UNL     1      48.631 108.475  53.802  1.00  0.00    -0.425 OA
ATOM      3  C   UNL     1      47.545 107.770  53.540  1.00  0.00     0.138 A 
ATOM      4  C   UNL     1      47.921 106.569  52.946  1.00  0.00     0.035 A 
ATOM      5  C   UNL     1      47.191 105.444  52.554  1.00  0.00     0.059 A 
ATOM      6  C   UNL     1      47.896 104.354  52.008  1.00  0.00     0.116 A 
ATOM      7  C   UNL     1      49.304 104.407  51.882  1.00  0.00     0.047 A 
ATOM      8  C   UNL     1      50.018 105.539  52.315  1.00  0.00     0.020 A 
ATOM      9  C   UNL     1      49.288 106.601  52.848  1.00  0.00     0.067 A 
ENDROOT
BRANCH   1  10
ATOM     10  O   UNL     1      50.995 108.262  53.516  1.00  0.00    -0.480 OA
ATOM     11  H   UNL     1      51.514 108.595  52.713  1.00  0.00     0.297 HD
ENDBRANCH   1  10
BRANCH   3  12
ATOM     12  C   UNL     1      46.192 108.247  53.872  1.00  0.00     0.043 C 
ATOM     13  C   UNL     1      45.665 109.354  53.339  1.00  0.00    -0.023 C 
BRANCH  13  14
ATOM     14  C   UNL     1      44.290 109.826  53.713  1.00  0.00     0.024 C 
ATOM     15  C   UNL     1      43.884 109.321  55.095  1.00  0.00     0.008 C 
ENDBRANCH  13  14
ENDBRANCH   3  12
BRANCH   6  16
ATOM     16  O   UNL     1      47.193 103.223  51.600  1.00  0.00    -0.508 OA
ATOM     17  H   UNL     1      46.292 102.988  52.000  1.00  0.00     0.293 HD
ENDBRANCH   6  16
TORSDOF 4
ENDMDL
MODEL 2
REMARK VINA RESULT:    -5.542      8.664      9.768
REMARK INTER + INTRA:          -6.738
REMARK INTER:                  -6.535
REMARK INTRA:                  -0.203
REMARK UNBOUND:                -0.225
REMARK SMILES CCC=Cc1oc(O)c2ccc(O)cc12
REMARK SMILES IDX 7 1 6 2 5 3 15 4 14 5 12 6 11 7 10 8 9 9 8 10 4 12 3 13 2 14
REMARK SMILES IDX 1 15 13 16
REMARK H PARENT 8 11 13 17
REMARK Flexibility Score: inf
ROOT
ATOM      1  C   UNL     1      50.065 113.960  45.059  1.00  0.00     0.290 A 
ATOM      2  O   UNL     1      49.025 114.081  45.860  1.00  0.00    -0.425 OA
ATOM      3  C   UNL     1      49.414 113.865  47.104  1.00  0.00     0.138 A 
ATOM      4  C   UNL     1      50.781 113.610  47.110  1.00  0.00     0.035 A 
ATOM      5  C   UNL     1      51.697 113.405  48.146  1.00  0.00     0.059 A 
ATOM      6  C   UNL     1      53.049 113.208  47.806  1.00  0.00     0.116 A 
ATOM      7  C   UNL     1      53.454 113.236  46.450  1.00  0.00     0.047 A 
ATOM      8  C   UNL     1      52.518 113.476  45.429  1.00  0.00     0.020 A 
ATOM      9  C   UNL     1      51.188 113.664  45.801  1.00  0.00     0.067 A 
ENDROOT
BRANCH   1  10
ATOM     10  O   UNL     1      50.003 114.124  43.679  1.00  0.00    -0.480 OA
ATOM     11  H   UNL     1      50.548 113.541  43.055  1.00  0.00     0.297 HD
ENDBRANCH   1  10
BRANCH   3  12
ATOM     12  C   UNL     1      48.484 113.921  48.245  1.00  0.00     0.043 C 
ATOM     13  C   UNL     1      47.157 113.862  48.100  1.00  0.00    -0.023 C 
BRANCH  13  14
ATOM     14  C   UNL     1      46.234 113.942  49.281  1.00  0.00     0.024 C 
ATOM     15  C   UNL     1      46.756 113.112  50.452  1.00  0.00     0.008 C 
ENDBRANCH  13  14
ENDBRANCH   3  12
BRANCH   6  16
ATOM     16  O   UNL     1      53.982 112.993  48.818  1.00  0.00    -0.508 OA
ATOM     17  H   UNL     1      53.981 113.550  49.665  1.00  0.00     0.293 HD
ENDBRANCH   6  16
TORSDOF 4
ENDMDL
MODEL 3
REMARK VINA RESULT:    -5.458      6.256      8.118
REMARK INTER + INTRA:          -6.640
REMARK INTER:                  -6.425
REMARK INTRA:                  -0.215
REMARK UNBOUND:                -0.225
REMARK SMILES CCC=Cc1oc(O)c2ccc(O)cc12
REMARK SMILES IDX 7 1 6 2 5 3 15 4 14 5 12 6 11 7 10 8 9 9 8 10 4 12 3 13 2 14
REMARK SMILES IDX 1 15 13 16
REMARK H PARENT 8 11 13 17
REMARK Flexibility Score: inf
ROOT
ATOM      1  C   UNL     1      44.961 113.728  48.398  1.00  0.00     0.290 A 
ATOM      2  O   UNL     1      44.655 113.349  49.623  1.00  0.00    -0.425 OA
ATOM      3  C   UNL     1      45.767 113.036  50.266  1.00  0.00     0.138 A 
ATOM      4  C   UNL     1      46.849 113.240  49.417  1.00  0.00     0.035 A 
ATOM      5  C   UNL     1      48.230 113.148  49.613  1.00  0.00     0.059 A 
ATOM      6  C   UNL     1      49.076 113.467  48.533  1.00  0.00     0.116 A 
ATOM      7  C   UNL     1      48.527 113.885  47.297  1.00  0.00     0.047 A 
ATOM      8  C   UNL     1      47.135 114.000  47.137  1.00  0.00     0.020 A 
ATOM      9  C   UNL     1      46.327 113.674  48.225  1.00  0.00     0.067 A 
ENDROOT
BRANCH   1  10
ATOM     10  O   UNL     1      44.021 114.125  47.453  1.00  0.00    -0.480 OA
ATOM     11  H   UNL     1      43.481 114.973  47.572  1.00  0.00     0.297 HD
ENDBRANCH   1  10
BRANCH   3  12
ATOM     12  C   UNL     1      45.769 112.569  51.662  1.00  0.00     0.043 C 
ATOM     13  C   UNL     1      45.054 111.517  52.074  1.00  0.00    -0.023 C 
BRANCH  13  14
ATOM     14  C   UNL     1      45.061 111.076  53.509  1.00  0.00     0.024 C 
ATOM     15  C   UNL     1      45.217 112.265  54.455  1.00  0.00     0.008 C 
ENDBRANCH  13  14
ENDBRANCH   3  12
BRANCH   6  16
ATOM     16  O   UNL     1      50.456 113.375  48.698  1.00  0.00    -0.508 OA
ATOM     17  H   UNL     1      51.033 112.858  48.044  1.00  0.00     0.293 HD
ENDBRANCH   6  16
TORSDOF 4
ENDMDL
MODEL 4
REMARK VINA RESULT:    -4.915      8.731     10.262
REMARK INTER + INTRA:          -6.002
REMARK INTER:                  -5.789
REMARK INTRA:                  -0.213
REMARK UNBOUND:                -0.225
REMARK SMILES CCC=Cc1oc(O)c2ccc(O)cc12
REMARK SMILES IDX 7 1 6 2 5 3 15 4 14 5 12 6 11 7 10 8 9 9 8 10 4 12 3 13 2 14
REMARK SMILES IDX 1 15 13 16
REMARK H PARENT 8 11 13 17
REMARK Flexibility Score: inf
ROOT
ATOM      1  C   UNL     1      54.722 112.924  46.720  1.00  0.00     0.290 A 
ATOM      2  O   UNL     1      54.822 112.919  48.034  1.00  0.00    -0.425 OA
ATOM      3  C   UNL     1      53.651 113.243  48.554  1.00  0.00     0.138 A 
ATOM      4  C   UNL     1      52.742 113.451  47.521  1.00  0.00     0.035 A 
ATOM      5  C   UNL     1      51.372 113.726  47.514  1.00  0.00     0.059 A 
ATOM      6  C   UNL     1      50.726 113.842  46.267  1.00  0.00     0.116 A 
ATOM      7  C   UNL     1      51.456 113.667  45.068  1.00  0.00     0.047 A 
ATOM      8  C   UNL     1      52.828 113.359  45.104  1.00  0.00     0.020 A 
ATOM      9  C   UNL     1      53.435 113.253  46.354  1.00  0.00     0.067 A 
ENDROOT
BRANCH   1  10
ATOM     10  O   UNL     1      55.777 112.626  45.862  1.00  0.00    -0.480 OA
ATOM     11  H   UNL     1      56.720 112.507  46.210  1.00  0.00     0.297 HD
ENDBRANCH   1  10
BRANCH   3  12
ATOM     12  C   UNL     1      53.427 113.332  50.007  1.00  0.00     0.043 C 
ATOM     13  C   UNL     1      52.547 112.560  50.652  1.00  0.00    -0.023 C 
BRANCH  13  14
ATOM     14  C   UNL     1      52.327 112.688  52.131  1.00  0.00     0.024 C 
ATOM     15  C   UNL     1      52.967 113.961  52.680  1.00  0.00     0.008 C 
ENDBRANCH  13  14
ENDBRANCH   3  12
BRANCH   6  16
ATOM     16  O   UNL     1      49.363 114.125  46.230  1.00  0.00    -0.508 OA
ATOM     17  H   UNL     1      48.817 113.986  45.386  1.00  0.00     0.293 HD
ENDBRANCH   6  16
TORSDOF 4
ENDMDL
MODEL 5
REMARK VINA RESULT:    -4.902      2.611      3.600
REMARK INTER + INTRA:          -5.987
REMARK INTER:                  -5.769
REMARK INTRA:                  -0.218
REMARK UNBOUND:                -0.225
REMARK SMILES CCC=Cc1oc(O)c2ccc(O)cc12
REMARK SMILES IDX 7 1 6 2 5 3 15 4 14 5 12 6 11 7 10 8 9 9 8 10 4 12 3 13 2 14
REMARK SMILES IDX 1 15 13 16
REMARK H PARENT 8 11 13 17
REMARK Flexibility Score: inf
ROOT
ATOM      1  C   UNL     1      46.220 106.699  54.319  1.00  0.00     0.290 A 
ATOM      2  O   UNL     1      46.707 107.756  54.937  1.00  0.00    -0.425 OA
ATOM      3  C   UNL     1      47.937 107.976  54.505  1.00  0.00     0.138 A 
ATOM      4  C   UNL     1      48.253 107.022  53.543  1.00  0.00     0.035 A 
ATOM      5  C   UNL     1      49.369 106.849  52.720  1.00  0.00     0.059 A 
ATOM      6  C   UNL     1      49.358 105.779  51.804  1.00  0.00     0.116 A 
ATOM      7  C   UNL     1      48.233 104.924  51.722  1.00  0.00     0.047 A 
ATOM      8  C   UNL     1      47.110 105.140  52.539  1.00  0.00     0.020 A 
ATOM      9  C   UNL     1      47.156 106.206  53.436  1.00  0.00     0.067 A 
ENDROOT
BRANCH   1  10
ATOM     10  O   UNL     1      44.944 106.191  54.542  1.00  0.00    -0.480 OA
ATOM     11  H   UNL     1      44.126 106.787  54.501  1.00  0.00     0.297 HD
ENDBRANCH   1  10
BRANCH   3  12
ATOM     12  C   UNL     1      48.764 109.087  55.004  1.00  0.00     0.043 C 
ATOM     13  C   UNL     1      48.484 110.369  54.749  1.00  0.00    -0.023 C 
BRANCH  13  14
ATOM     14  C   UNL     1      49.358 111.480  55.256  1.00  0.00     0.024 C 
ATOM     15  C   UNL     1      49.392 111.508  56.782  1.00  0.00     0.008 C 
ENDBRANCH  13  14
ENDBRANCH   3  12
BRANCH   6  16
ATOM     16  O   UNL     1      50.460 105.578  50.978  1.00  0.00    -0.508 OA
ATOM     17  H   UNL     1      50.425 105.793  49.988  1.00  0.00     0.293 HD
ENDBRANCH   6  16
TORSDOF 4
ENDMDL
MODEL 6
REMARK VINA RESULT:    -4.672      1.923      4.229
REMARK INTER + INTRA:          -5.716
REMARK INTER:                  -5.461
REMARK INTRA:                  -0.254
REMARK UNBOUND:                -0.225
REMARK SMILES CCC=Cc1oc(O)c2ccc(O)cc12
REMARK SMILES IDX 7 1 6 2 5 3 15 4 14 5 12 6 11 7 10 8 9 9 8 10 4 12 3 13 2 14
REMARK SMILES IDX 1 15 13 16
REMARK H PARENT 8 11 13 17
REMARK Flexibility Score: inf
ROOT
ATOM      1  C   UNL     1      46.788 108.088  53.688  1.00  0.00     0.290 A 
ATOM      2  O   UNL     1      47.801 108.895  53.932  1.00  0.00    -0.425 OA
ATOM      3  C   UNL     1      48.926 108.278  53.616  1.00  0.00     0.138 A 
ATOM      4  C   UNL     1      48.623 107.013  53.124  1.00  0.00     0.035 A 
ATOM      5  C   UNL     1      49.416 106.000  52.578  1.00  0.00     0.059 A 
ATOM      6  C   UNL     1      48.778 104.828  52.128  1.00  0.00     0.116 A 
ATOM      7  C   UNL     1      47.371 104.704  52.217  1.00  0.00     0.047 A 
ATOM      8  C   UNL     1      46.593 105.752  52.741  1.00  0.00     0.020 A 
ATOM      9  C   UNL     1      47.258 106.896  53.180  1.00  0.00     0.067 A 
ENDROOT
BRANCH   1  10
ATOM     10  O   UNL     1      45.457 108.426  53.910  1.00  0.00    -0.480 OA
ATOM     11  H   UNL     1      44.765 107.721  54.131  1.00  0.00     0.297 HD
ENDBRANCH   1  10
BRANCH   3  12
ATOM     12  C   UNL     1      50.247 108.910  53.777  1.00  0.00     0.043 C 
ATOM     13  C   UNL     1      50.979 108.783  54.888  1.00  0.00    -0.023 C 
BRANCH  13  14
ATOM     14  C   UNL     1      52.313 109.456  55.030  1.00  0.00     0.024 C 
ATOM     15  C   UNL     1      52.597 110.382  53.849  1.00  0.00     0.008 C 
ENDBRANCH  13  14
ENDBRANCH   3  12
BRANCH   6  16
ATOM     16  O   UNL     1      49.544 103.798  51.588  1.00  0.00    -0.508 OA
ATOM     17  H   UNL     1      50.317 103.389  52.101  1.00  0.00     0.293 HD
ENDBRANCH   6  16
TORSDOF 4
ENDMDL
MODEL 7
REMARK VINA RESULT:    -4.643      2.034      4.903
REMARK INTER + INTRA:          -5.682
REMARK INTER:                  -5.418
REMARK INTRA:                  -0.264
REMARK UNBOUND:                -0.225
REMARK SMILES CCC=Cc1oc(O)c2ccc(O)cc12
REMARK SMILES IDX 7 1 6 2 5 3 15 4 14 5 12 6 11 7 10 8 9 9 8 10 4 12 3 13 2 14
REMARK SMILES IDX 1 15 13 16
REMARK H PARENT 8 11 13 17
REMARK Flexibility Score: inf
ROOT
ATOM      1  C   UNL     1      48.154 109.714  54.167  1.00  0.00     0.290 A 
ATOM      2  O   UNL     1      48.973 108.914  53.513  1.00  0.00    -0.425 OA
ATOM      3  C   UNL     1      48.448 107.702  53.474  1.00  0.00     0.138 A 
ATOM      4  C   UNL     1      47.217 107.724  54.120  1.00  0.00     0.035 A 
ATOM      5  C   UNL     1      46.225 106.754  54.290  1.00  0.00     0.059 A 
ATOM      6  C   UNL     1      45.051 107.120  54.978  1.00  0.00     0.116 A 
ATOM      7  C   UNL     1      44.891 108.440  55.461  1.00  0.00     0.047 A 
ATOM      8  C   UNL     1      45.891 109.405  55.248  1.00  0.00     0.020 A 
ATOM      9  C   UNL     1      47.040 109.009  54.566  1.00  0.00     0.067 A 
ENDROOT
BRANCH   1  10
ATOM     10  O   UNL     1      48.405 111.064  54.391  1.00  0.00    -0.480 OA
ATOM     11  H   UNL     1      47.670 111.693  54.693  1.00  0.00     0.297 HD
ENDBRANCH   1  10
BRANCH   3  12
ATOM     12  C   UNL     1      49.121 106.570  52.815  1.00  0.00     0.043 C 
ATOM     13  C   UNL     1      48.740 106.095  51.625  1.00  0.00    -0.023 C 
BRANCH  13  14
ATOM     14  C   UNL     1      49.433 104.925  50.988  1.00  0.00     0.024 C 
ATOM     15  C   UNL     1      50.171 104.084  52.027  1.00  0.00     0.008 C 
ENDBRANCH  13  14
ENDBRANCH   3  12
BRANCH   6  16
ATOM     16  O   UNL     1      44.050 106.171  55.170  1.00  0.00    -0.508 OA
ATOM     17  H   UNL     1      43.917 105.717  56.066  1.00  0.00     0.293 HD
ENDBRANCH   6  16
TORSDOF 4
ENDMDL
MODEL 8
REMARK VINA RESULT:    -4.530      2.217      5.748
REMARK INTER + INTRA:          -5.549
REMARK INTER:                  -5.337
REMARK INTRA:                  -0.212
REMARK UNBOUND:                -0.225
REMARK SMILES CCC=Cc1oc(O)c2ccc(O)cc12
REMARK SMILES IDX 7 1 6 2 5 3 15 4 14 5 12 6 11 7 10 8 9 9 8 10 4 12 3 13 2 14
REMARK SMILES IDX 1 15 13 16
REMARK H PARENT 8 11 13 17
REMARK Flexibility Score: inf
ROOT
ATOM      1  C   UNL     1      46.314 108.932  53.873  1.00  0.00     0.290 A 
ATOM      2  O   UNL     1      46.646 107.774  53.338  1.00  0.00    -0.425 OA
ATOM      3  C   UNL     1      47.957 107.627  53.414  1.00  0.00     0.138 A 
ATOM      4  C   UNL     1      48.499 108.740  54.048  1.00  0.00     0.035 A 
ATOM      5  C   UNL     1      49.799 109.053  54.453  1.00  0.00     0.059 A 
ATOM      6  C   UNL     1      50.009 110.275  55.122  1.00  0.00     0.116 A 
ATOM      7  C   UNL     1      48.920 111.141  55.383  1.00  0.00     0.047 A 
ATOM      8  C   UNL     1      47.617 110.786  54.993  1.00  0.00     0.020 A 
ATOM      9  C   UNL     1      47.445 109.571  54.331  1.00  0.00     0.067 A 
ENDROOT
BRANCH   1  10
ATOM     10  O   UNL     1      45.007 109.400  53.956  1.00  0.00    -0.480 OA
ATOM     11  H   UNL     1      44.579 109.904  53.189  1.00  0.00     0.297 HD
ENDBRANCH   1  10
BRANCH   3  12
ATOM     12  C   UNL     1      48.651 106.435  52.897  1.00  0.00     0.043 C 
ATOM     13  C   UNL     1      48.084 105.585  52.036  1.00  0.00    -0.023 C 
BRANCH  13  14
ATOM     14  C   UNL     1      48.810 104.367  51.542  1.00  0.00     0.024 C 
ATOM     15  C   UNL     1      50.280 104.391  51.955  1.00  0.00     0.008 C 
ENDBRANCH  13  14
ENDBRANCH   3  12
BRANCH   6  16
ATOM     16  O   UNL     1      51.297 110.617  55.529  1.00  0.00    -0.508 OA
ATOM     17  H   UNL     1      51.456 111.309  56.252  1.00  0.00     0.293 HD
ENDBRANCH   6  16
TORSDOF 4
ENDMDL
MODEL 9
REMARK VINA RESULT:    -4.466     11.257     13.038
REMARK INTER + INTRA:          -5.474
REMARK INTER:                  -5.205
REMARK INTRA:                  -0.269
REMARK UNBOUND:                -0.225
REMARK SMILES CCC=Cc1oc(O)c2ccc(O)cc12
REMARK SMILES IDX 7 1 6 2 5 3 15 4 14 5 12 6 11 7 10 8 9 9 8 10 4 12 3 13 2 14
REMARK SMILES IDX 1 15 13 16
REMARK H PARENT 8 11 13 17
REMARK Flexibility Score: inf
ROOT
ATOM      1  C   UNL     1      54.822  95.657  56.110  1.00  0.00     0.290 A 
ATOM      2  O   UNL     1      53.854  94.786  55.906  1.00  0.00    -0.425 OA
ATOM      3  C   UNL     1      52.741  95.244  56.453  1.00  0.00     0.138 A 
ATOM      4  C   UNL     1      53.000  96.486  57.025  1.00  0.00     0.035 A 
ATOM      5  C   UNL     1      52.174  97.427  57.646  1.00  0.00     0.059 A 
ATOM      6  C   UNL     1      52.757  98.630  58.090  1.00  0.00     0.116 A 
ATOM      7  C   UNL     1      54.137  98.869  57.890  1.00  0.00     0.047 A 
ATOM      8  C   UNL     1      54.939  97.919  57.233  1.00  0.00     0.020 A 
ATOM      9  C   UNL     1      54.331  96.738  56.809  1.00  0.00     0.067 A 
ENDROOT
BRANCH   1  10
ATOM     10  O   UNL     1      56.128  95.483  55.664  1.00  0.00    -0.480 OA
ATOM     11  H   UNL     1      56.875  95.246  56.304  1.00  0.00     0.297 HD
ENDBRANCH   1  10
BRANCH   3  12
ATOM     12  C   UNL     1      51.471  94.501  56.404  1.00  0.00     0.043 C 
ATOM     13  C   UNL     1      50.489  94.803  55.549  1.00  0.00    -0.023 C 
BRANCH  13  14
ATOM     14  C   UNL     1      49.197  94.039  55.537  1.00  0.00     0.024 C 
ATOM     15  C   UNL     1      48.388  94.295  56.806  1.00  0.00     0.008 C 
ENDBRANCH  13  14
ENDBRANCH   3  12
BRANCH   6  16
ATOM     16  O   UNL     1      51.959  99.581  58.720  1.00  0.00    -0.508 OA
ATOM     17  H   UNL     1      52.218 100.561  58.736  1.00  0.00     0.293 HD
ENDBRANCH   6  16
TORSDOF 4
ENDMDL
