MODEL 1
REMARK VINA RESULT:     0.000      0.000      0.000
REMARK INTER + INTRA:          -0.494
REMARK INTER:                   0.000
REMARK INTRA:                  -0.494
REMARK UNBOUND:                -0.494
REMARK SMILES CC1=CCC[C@@H](C)C(=O)C[C@@H](C(C)C)C(=O)C1
REMARK SMILES IDX 8 1 9 2 6 3 7 4 5 5 4 6 3 7 2 8 1 9 10 11 11 12 15 13 16 14
REMARK SMILES IDX 17 15 12 17 13 18 14 19
REMARK H PARENT
REMARK Flexibility Score: 70.00
ROOT
ATOM      1  C   UNL     1     127.187 127.201 138.568  1.00  0.00     0.136 C 
ATOM      2  O   UNL     1     126.373 126.470 139.116  1.00  0.00    -0.299 OA
ENDROOT
BRANCH   1   3
ATOM      3  C   UNL     1     128.493 126.590 138.085  1.00  0.00     0.053 C 
ATOM      4  C   UNL     1     128.214 125.525 137.017  1.00  0.00     0.016 C 
BRANCH   3   5
ATOM      5  C   UNL     1     129.276 125.981 139.267  1.00  0.00     0.015 C 
BRANCH   5   6
ATOM      6  C   UNL     1     129.680 127.027 140.320  1.00  0.00     0.028 C 
BRANCH   6   7
ATOM      7  C   UNL     1     130.766 127.944 139.809  1.00  0.00    -0.028 C 
ATOM      8  C   UNL     1     130.660 129.279 139.602  1.00  0.00    -0.070 CG0
ATOM      9  C   UNL     1     131.871 130.001 139.065  1.00  0.00     0.039 C 
ATOM     10  G   UNL     1     129.391 130.080 139.841  1.00  0.00     0.000 G0
ENDBRANCH   6   7
ENDBRANCH   5   6
ENDBRANCH   3   5
ENDBRANCH   1   3
BRANCH   1  11
ATOM     11  C   UNL     1     126.868 128.684 138.505  1.00  0.00     0.087 C 
BRANCH  11  12
ATOM     12  C   UNL     1     127.872 129.565 137.709  1.00  0.00     0.066 C 
BRANCH  12  13
ATOM     13  C   UNL     1     128.734 130.494 138.559  1.00  0.00     0.140 C 
ATOM     14  O   UNL     1     128.833 131.661 138.201  1.00  0.00    -0.299 OA
BRANCH  13  15
ATOM     15  C   UNL     1     129.399 130.096 139.860  1.00  0.00     0.106 CG0
ATOM     16  G   UNL     1     130.655 129.280 139.606  1.00  0.00     0.000 G0
ENDBRANCH  13  15
ENDBRANCH  12  13
BRANCH  12  17
ATOM     17  C   UNL     1     127.203 130.383 136.560  1.00  0.00    -0.006 C 
ATOM     18  C   UNL     1     125.667 130.333 136.593  1.00  0.00     0.008 C 
ATOM     19  C   UNL     1     127.719 129.970 135.171  1.00  0.00     0.008 C 
ENDBRANCH  12  17
ENDBRANCH  11  12
ENDBRANCH   1  11
TORSDOF 1
ENDMDL
MODEL 2
REMARK VINA RESULT:     0.006      8.475     10.814
REMARK INTER + INTRA:          -0.485
REMARK INTER:                   0.000
REMARK INTRA:                  -0.485
REMARK UNBOUND:                -0.494
REMARK SMILES CC1=CCC[C@@H](C)C(=O)C[C@@H](C(C)C)C(=O)C1
REMARK SMILES IDX 8 1 9 2 6 3 7 4 5 5 4 6 3 7 2 8 1 9 10 11 11 12 15 13 16 14
REMARK SMILES IDX 17 15 12 17 13 18 14 19
REMARK H PARENT
REMARK Flexibility Score: 70.00
ROOT
ATOM      1  C   UNL     1     130.681 127.816 126.861  1.00  0.00     0.136 C 
ATOM      2  O   UNL     1     131.208 127.852 125.758  1.00  0.00    -0.299 OA
ENDROOT
BRANCH   1   3
ATOM      3  C   UNL     1     129.239 127.343 126.954  1.00  0.00     0.053 C 
ATOM      4  C   UNL     1     129.127 125.895 126.459  1.00  0.00     0.016 C 
BRANCH   3   5
ATOM      5  C   UNL     1     128.311 128.268 126.140  1.00  0.00     0.015 C 
BRANCH   5   6
ATOM      6  C   UNL     1     128.140 129.658 126.778  1.00  0.00     0.028 C 
BRANCH   6   7
ATOM      7  C   UNL     1     127.459 129.575 128.123  1.00  0.00    -0.028 C 
ATOM      8  C   UNL     1     128.016 129.855 129.327  1.00  0.00    -0.070 CG0
ATOM      9  C   UNL     1     127.154 129.686 130.553  1.00  0.00     0.039 C 
ATOM     10  G   UNL     1     129.460 130.291 129.515  1.00  0.00     0.000 G0
ENDBRANCH   6   7
ENDBRANCH   5   6
ENDBRANCH   3   5
ENDBRANCH   1   3
BRANCH   1  11
ATOM     11  C   UNL     1     131.478 128.347 128.039  1.00  0.00     0.087 C 
BRANCH  11  12
ATOM     12  C   UNL     1     130.912 128.019 129.450  1.00  0.00     0.066 C 
BRANCH  12  13
ATOM     13  C   UNL     1     130.290 129.201 130.189  1.00  0.00     0.140 C 
ATOM     14  O   UNL     1     130.535 129.315 131.383  1.00  0.00    -0.299 OA
BRANCH  13  15
ATOM     15  C   UNL     1     129.470 130.289 129.529  1.00  0.00     0.106 CG0
ATOM     16  G   UNL     1     128.029 129.847 129.336  1.00  0.00     0.000 G0
ENDBRANCH  13  15
ENDBRANCH  12  13
BRANCH  12  17
ATOM     17  C   UNL     1     131.942 127.307 130.382  1.00  0.00    -0.006 C 
ATOM     18  C   UNL     1     133.404 127.593 130.002  1.00  0.00     0.008 C 
ATOM     19  C   UNL     1     131.702 125.791 130.467  1.00  0.00     0.008 C 
ENDBRANCH  12  17
ENDBRANCH  11  12
ENDBRANCH   1  11
TORSDOF 1
ENDMDL
MODEL 3
REMARK VINA RESULT:     0.011      5.178      7.066
REMARK INTER + INTRA:          -0.476
REMARK INTER:                   0.000
REMARK INTRA:                  -0.476
REMARK UNBOUND:                -0.494
REMARK SMILES CC1=CCC[C@@H](C)C(=O)C[C@@H](C(C)C)C(=O)C1
REMARK SMILES IDX 8 1 9 2 6 3 7 4 5 5 4 6 3 7 2 8 1 9 10 11 11 12 15 13 16 14
REMARK SMILES IDX 17 15 12 17 13 18 14 19
REMARK H PARENT
REMARK Flexibility Score: 70.00
ROOT
ATOM      1  C   UNL     1     130.662 127.283 133.864  1.00  0.00     0.136 C 
ATOM      2  O   UNL     1     131.582 126.787 134.500  1.00  0.00    -0.299 OA
ENDROOT
BRANCH   1   3
ATOM      3  C   UNL     1     130.164 128.660 134.274  1.00  0.00     0.053 C 
ATOM      4  C   UNL     1     131.330 129.658 134.291  1.00  0.00     0.016 C 
BRANCH   3   5
ATOM      5  C   UNL     1     129.481 128.601 135.656  1.00  0.00     0.015 C 
BRANCH   5   6
ATOM      6  C   UNL     1     128.225 127.713 135.666  1.00  0.00     0.028 C 
BRANCH   6   7
ATOM      7  C   UNL     1     127.080 128.356 134.921  1.00  0.00    -0.028 C 
ATOM      8  C   UNL     1     126.490 127.889 133.794  1.00  0.00    -0.070 CG0
ATOM      9  C   UNL     1     125.368 128.706 133.201  1.00  0.00     0.039 C 
ATOM     10  G   UNL     1     126.913 126.619 133.075  1.00  0.00     0.000 G0
ENDBRANCH   6   7
ENDBRANCH   5   6
ENDBRANCH   3   5
ENDBRANCH   1   3
BRANCH   1  11
ATOM     11  C   UNL     1     130.021 126.437 132.778  1.00  0.00     0.087 C 
BRANCH  11  12
ATOM     12  C   UNL     1     129.154 127.203 131.739  1.00  0.00     0.066 C 
BRANCH  12  13
ATOM     13  C   UNL     1     127.659 126.907 131.799  1.00  0.00     0.140 C 
ATOM     14  O   UNL     1     127.051 126.836 130.738  1.00  0.00    -0.299 OA
BRANCH  13  15
ATOM     15  C   UNL     1     126.895 126.605 133.071  1.00  0.00     0.106 CG0
ATOM     16  G   UNL     1     126.500 127.885 133.789  1.00  0.00     0.000 G0
ENDBRANCH  13  15
ENDBRANCH  12  13
BRANCH  12  17
ATOM     17  C   UNL     1     129.658 127.038 130.270  1.00  0.00    -0.006 C 
ATOM     18  C   UNL     1     130.608 125.844 130.084  1.00  0.00     0.008 C 
ATOM     19  C   UNL     1     130.305 128.322 129.726  1.00  0.00     0.008 C 
ENDBRANCH  12  17
ENDBRANCH  11  12
ENDBRANCH   1  11
TORSDOF 1
ENDMDL
MODEL 4
REMARK VINA RESULT:     0.036      8.987     10.581
REMARK INTER + INTRA:          -0.439
REMARK INTER:                   0.000
REMARK INTRA:                  -0.439
REMARK UNBOUND:                -0.494
REMARK SMILES CC1=CCC[C@@H](C)C(=O)C[C@@H](C(C)C)C(=O)C1
REMARK SMILES IDX 8 1 9 2 6 3 7 4 5 5 4 6 3 7 2 8 1 9 10 11 11 12 15 13 16 14
REMARK SMILES IDX 17 15 12 17 13 18 14 19
REMARK H PARENT
REMARK Flexibility Score: 70.00
ROOT
ATOM      1  C   UNL     1     134.996 134.272 137.630  1.00  0.00     0.136 C 
ATOM      2  O   UNL     1     134.414 133.410 138.275  1.00  0.00    -0.299 OA
ENDROOT
BRANCH   1   3
ATOM      3  C   UNL     1     136.031 133.828 136.607  1.00  0.00     0.053 C 
ATOM      4  C   UNL     1     135.347 133.079 135.456  1.00  0.00     0.016 C 
BRANCH   3   5
ATOM      5  C   UNL     1     137.103 132.940 137.272  1.00  0.00     0.015 C 
BRANCH   5   6
ATOM      6  C   UNL     1     137.813 133.635 138.446  1.00  0.00     0.028 C 
BRANCH   6   7
ATOM      7  C   UNL     1     138.808 134.665 137.967  1.00  0.00    -0.028 C 
ATOM      8  C   UNL     1     138.723 136.007 138.140  1.00  0.00    -0.070 CG0
ATOM      9  C   UNL     1     139.825 136.858 137.559  1.00  0.00     0.039 C 
ATOM     10  G   UNL     1     137.572 136.703 138.847  1.00  0.00     0.000 G0
ENDBRANCH   6   7
ENDBRANCH   5   6
ENDBRANCH   3   5
ENDBRANCH   1   3
BRANCH   1  11
ATOM     11  C   UNL     1     134.711 135.722 137.976  1.00  0.00     0.087 C 
BRANCH  11  12
ATOM     12  C   UNL     1     135.488 136.786 137.150  1.00  0.00     0.066 C 
BRANCH  12  13
ATOM     13  C   UNL     1     136.670 137.429 137.870  1.00  0.00     0.140 C 
ATOM     14  O   UNL     1     136.854 138.627 137.700  1.00  0.00    -0.299 OA
BRANCH  13  15
ATOM     15  C   UNL     1     137.572 136.708 138.850  1.00  0.00     0.106 CG0
ATOM     16  G   UNL     1     138.715 136.011 138.132  1.00  0.00     0.000 G0
ENDBRANCH  13  15
ENDBRANCH  12  13
BRANCH  12  17
ATOM     17  C   UNL     1     134.571 137.902 136.557  1.00  0.00    -0.006 C 
ATOM     18  C   UNL     1     133.157 137.910 137.159  1.00  0.00     0.008 C 
ATOM     19  C   UNL     1     134.495 137.843 135.023  1.00  0.00     0.008 C 
ENDBRANCH  12  17
ENDBRANCH  11  12
ENDBRANCH   1  11
TORSDOF 1
ENDMDL
MODEL 5
REMARK VINA RESULT:     0.044      6.278      8.825
REMARK INTER + INTRA:          -0.427
REMARK INTER:                   0.000
REMARK INTRA:                  -0.427
REMARK UNBOUND:                -0.494
REMARK SMILES CC1=CCC[C@@H](C)C(=O)C[C@@H](C(C)C)C(=O)C1
REMARK SMILES IDX 8 1 9 2 6 3 7 4 5 5 4 6 3 7 2 8 1 9 10 11 11 12 15 13 16 14
REMARK SMILES IDX 17 15 12 17 13 18 14 19
REMARK H PARENT
REMARK Flexibility Score: 70.00
ROOT
ATOM      1  C   UNL     1     124.010 131.962 135.704  1.00  0.00     0.136 C 
ATOM      2  O   UNL     1     123.319 132.098 136.704  1.00  0.00    -0.299 OA
ENDROOT
BRANCH   1   3
ATOM      3  C   UNL     1     124.790 133.165 135.199  1.00  0.00     0.053 C 
ATOM      4  C   UNL     1     125.879 133.550 136.210  1.00  0.00     0.016 C 
BRANCH   3   5
ATOM      5  C   UNL     1     123.843 134.356 134.942  1.00  0.00     0.015 C 
BRANCH   5   6
ATOM      6  C   UNL     1     122.630 133.980 134.073  1.00  0.00     0.028 C 
BRANCH   6   7
ATOM      7  C   UNL     1     122.985 133.943 132.606  1.00  0.00    -0.028 C 
ATOM      8  C   UNL     1     122.928 132.861 131.791  1.00  0.00    -0.070 CG0
ATOM      9  C   UNL     1     123.348 133.045 130.354  1.00  0.00     0.039 C 
ATOM     10  G   UNL     1     122.505 131.474 132.246  1.00  0.00     0.000 G0
ENDBRANCH   6   7
ENDBRANCH   5   6
ENDBRANCH   3   5
ENDBRANCH   1   3
BRANCH   1  11
ATOM     11  C   UNL     1     123.953 130.624 134.987  1.00  0.00     0.087 C 
BRANCH  11  12
ATOM     12  C   UNL     1     124.658 130.562 133.602  1.00  0.00     0.066 C 
BRANCH  12  13
ATOM     13  C   UNL     1     123.721 130.558 132.398  1.00  0.00     0.140 C 
ATOM     14  O   UNL     1     123.917 129.718 131.530  1.00  0.00    -0.299 OA
BRANCH  13  15
ATOM     15  C   UNL     1     122.513 131.460 132.249  1.00  0.00     0.106 CG0
ATOM     16  G   UNL     1     122.921 132.850 131.790  1.00  0.00     0.000 G0
ENDBRANCH  13  15
ENDBRANCH  12  13
BRANCH  12  17
ATOM     17  C   UNL     1     125.672 129.382 133.475  1.00  0.00    -0.006 C 
ATOM     18  C   UNL     1     125.383 128.225 134.445  1.00  0.00     0.008 C 
ATOM     19  C   UNL     1     127.131 129.846 133.621  1.00  0.00     0.008 C 
ENDBRANCH  12  17
ENDBRANCH  11  12
ENDBRANCH   1  11
TORSDOF 1
ENDMDL
MODEL 6
REMARK VINA RESULT:     0.046     15.185     17.275
REMARK INTER + INTRA:          -0.424
REMARK INTER:                   0.000
REMARK INTRA:                  -0.424
REMARK UNBOUND:                -0.494
REMARK SMILES CC1=CCC[C@@H](C)C(=O)C[C@@H](C(C)C)C(=O)C1
REMARK SMILES IDX 8 1 9 2 6 3 7 4 5 5 4 6 3 7 2 8 1 9 10 11 11 12 15 13 16 14
REMARK SMILES IDX 17 15 12 17 13 18 14 19
REMARK H PARENT
REMARK Flexibility Score: 70.00
ROOT
ATOM      1  C   UNL     1     132.998 136.194 125.483  1.00  0.00     0.136 C 
ATOM      2  O   UNL     1     132.431 137.151 125.992  1.00  0.00    -0.299 OA
ENDROOT
BRANCH   1   3
ATOM      3  C   UNL     1     132.395 135.586 124.226  1.00  0.00     0.053 C 
ATOM      4  C   UNL     1     132.508 134.056 124.274  1.00  0.00     0.016 C 
BRANCH   3   5
ATOM      5  C   UNL     1     133.090 136.142 122.967  1.00  0.00     0.015 C 
BRANCH   5   6
ATOM      6  C   UNL     1     133.901 135.077 122.209  1.00  0.00     0.028 C 
BRANCH   6   7
ATOM      7  C   UNL     1     135.319 135.529 121.956  1.00  0.00    -0.028 C 
ATOM      8  C   UNL     1     136.393 135.288 122.747  1.00  0.00    -0.070 CG0
ATOM      9  C   UNL     1     137.723 135.853 122.311  1.00  0.00     0.039 C 
ATOM     10  G   UNL     1     136.332 134.519 124.056  1.00  0.00     0.000 G0
ENDBRANCH   6   7
ENDBRANCH   5   6
ENDBRANCH   3   5
ENDBRANCH   1   3
BRANCH   1  11
ATOM     11  C   UNL     1     134.205 135.626 126.207  1.00  0.00     0.087 C 
BRANCH  11  12
ATOM     12  C   UNL     1     135.568 136.311 125.902  1.00  0.00     0.066 C 
BRANCH  12  13
ATOM     13  C   UNL     1     136.613 135.413 125.248  1.00  0.00     0.140 C 
ATOM     14  O   UNL     1     137.722 135.363 125.765  1.00  0.00    -0.299 OA
BRANCH  13  15
ATOM     15  C   UNL     1     136.346 134.511 124.061  1.00  0.00     0.106 CG0
ATOM     16  G   UNL     1     136.400 135.291 122.758  1.00  0.00     0.000 G0
ENDBRANCH  13  15
ENDBRANCH  12  13
BRANCH  12  17
ATOM     17  C   UNL     1     136.196 137.020 127.144  1.00  0.00    -0.006 C 
ATOM     18  C   UNL     1     135.482 136.683 128.462  1.00  0.00     0.008 C 
ATOM     19  C   UNL     1     136.286 138.544 126.963  1.00  0.00     0.008 C 
ENDBRANCH  12  17
ENDBRANCH  11  12
ENDBRANCH   1  11
TORSDOF 1
ENDMDL
MODEL 7
REMARK VINA RESULT:     0.047      8.139      9.108
REMARK INTER + INTRA:          -0.423
REMARK INTER:                   0.000
REMARK INTRA:                  -0.423
REMARK UNBOUND:                -0.494
REMARK SMILES CC1=CCC[C@@H](C)C(=O)C[C@@H](C(C)C)C(=O)C1
REMARK SMILES IDX 8 1 9 2 6 3 7 4 5 5 4 6 3 7 2 8 1 9 10 11 11 12 15 13 16 14
REMARK SMILES IDX 17 15 12 17 13 18 14 19
REMARK H PARENT
REMARK Flexibility Score: 70.00
ROOT
ATOM      1  C   UNL     1     127.527 127.733 129.580  1.00  0.00     0.136 C 
ATOM      2  O   UNL     1     126.556 127.354 128.938  1.00  0.00    -0.299 OA
ENDROOT
BRANCH   1   3
ATOM      3  C   UNL     1     128.769 126.856 129.592  1.00  0.00     0.053 C 
ATOM      4  C   UNL     1     129.397 126.849 130.992  1.00  0.00     0.016 C 
BRANCH   3   5
ATOM      5  C   UNL     1     129.788 127.346 128.542  1.00  0.00     0.015 C 
BRANCH   5   6
ATOM      6  C   UNL     1     131.096 127.858 129.170  1.00  0.00     0.028 C 
BRANCH   6   7
ATOM      7  C   UNL     1     131.448 129.242 128.680  1.00  0.00    -0.028 C 
ATOM      8  C   UNL     1     131.096 130.415 129.261  1.00  0.00    -0.070 CG0
ATOM      9  C   UNL     1     131.540 131.690 128.587  1.00  0.00     0.039 C 
ATOM     10  G   UNL     1     130.253 130.522 130.521  1.00  0.00     0.000 G0
ENDBRANCH   6   7
ENDBRANCH   5   6
ENDBRANCH   3   5
ENDBRANCH   1   3
BRANCH   1  11
ATOM     11  C   UNL     1     127.375 129.003 130.399  1.00  0.00     0.087 C 
BRANCH  11  12
ATOM     12  C   UNL     1     127.713 130.332 129.665  1.00  0.00     0.066 C 
BRANCH  12  13
ATOM     13  C   UNL     1     128.887 131.113 130.247  1.00  0.00     0.140 C 
ATOM     14  O   UNL     1     128.688 132.275 130.576  1.00  0.00    -0.299 OA
BRANCH  13  15
ATOM     15  C   UNL     1     130.253 130.523 130.529  1.00  0.00     0.106 CG0
ATOM     16  G   UNL     1     131.081 130.425 129.259  1.00  0.00     0.000 G0
ENDBRANCH  13  15
ENDBRANCH  12  13
BRANCH  12  17
ATOM     17  C   UNL     1     126.484 131.282 129.507  1.00  0.00    -0.006 C 
ATOM     18  C   UNL     1     125.359 130.994 130.514  1.00  0.00     0.008 C 
ATOM     19  C   UNL     1     125.927 131.283 128.074  1.00  0.00     0.008 C 
ENDBRANCH  12  17
ENDBRANCH  11  12
ENDBRANCH   1  11
TORSDOF 1
ENDMDL
MODEL 8
REMARK VINA RESULT:     0.074      7.268      9.647
REMARK INTER + INTRA:          -0.380
REMARK INTER:                   0.000
REMARK INTRA:                  -0.380
REMARK UNBOUND:                -0.494
REMARK SMILES CC1=CCC[C@@H](C)C(=O)C[C@@H](C(C)C)C(=O)C1
REMARK SMILES IDX 8 1 9 2 6 3 7 4 5 5 4 6 3 7 2 8 1 9 10 11 11 12 15 13 16 14
REMARK SMILES IDX 17 15 12 17 13 18 14 19
REMARK H PARENT
REMARK Flexibility Score: 70.00
ROOT
ATOM      1  C   UNL     1     127.099 131.749 130.648  1.00  0.00     0.136 C 
ATOM      2  O   UNL     1     128.187 131.227 130.447  1.00  0.00    -0.299 OA
ENDROOT
BRANCH   1   3
ATOM      3  C   UNL     1     126.929 132.601 131.896  1.00  0.00     0.053 C 
ATOM      4  C   UNL     1     128.006 133.693 131.939  1.00  0.00     0.016 C 
BRANCH   3   5
ATOM      5  C   UNL     1     126.995 131.724 133.164  1.00  0.00     0.015 C 
BRANCH   5   6
ATOM      6  C   UNL     1     125.962 130.583 133.157  1.00  0.00     0.028 C 
BRANCH   6   7
ATOM      7  C   UNL     1     124.585 131.074 133.534  1.00  0.00    -0.028 C 
ATOM      8  C   UNL     1     123.484 131.065 132.744  1.00  0.00    -0.070 CG0
ATOM      9  C   UNL     1     122.206 131.625 133.320  1.00  0.00     0.039 C 
ATOM     10  G   UNL     1     123.469 130.564 131.309  1.00  0.00     0.000 G0
ENDBRANCH   6   7
ENDBRANCH   5   6
ENDBRANCH   3   5
ENDBRANCH   1   3
BRANCH   1  11
ATOM     11  C   UNL     1     125.973 131.420 129.684  1.00  0.00     0.087 C 
BRANCH  11  12
ATOM     12  C   UNL     1     124.735 132.361 129.734  1.00  0.00     0.066 C 
BRANCH  12  13
ATOM     13  C   UNL     1     123.476 131.744 130.335  1.00  0.00     0.140 C 
ATOM     14  O   UNL     1     122.396 132.172 129.951  1.00  0.00    -0.299 OA
BRANCH  13  15
ATOM     15  C   UNL     1     123.471 130.579 131.303  1.00  0.00     0.106 CG0
ATOM     16  G   UNL     1     123.479 131.064 132.743  1.00  0.00     0.000 G0
ENDBRANCH  13  15
ENDBRANCH  12  13
BRANCH  12  17
ATOM     17  C   UNL     1     124.390 133.005 128.354  1.00  0.00    -0.006 C 
ATOM     18  C   UNL     1     124.639 132.063 127.165  1.00  0.00     0.008 C 
ATOM     19  C   UNL     1     125.118 134.342 128.134  1.00  0.00     0.008 C 
ENDBRANCH  12  17
ENDBRANCH  11  12
ENDBRANCH   1  11
TORSDOF 1
ENDMDL
MODEL 9
REMARK VINA RESULT:     0.115      6.897      8.197
REMARK INTER + INTRA:          -0.319
REMARK INTER:                   0.000
REMARK INTRA:                  -0.319
REMARK UNBOUND:                -0.494
REMARK SMILES CC1=CCC[C@@H](C)C(=O)C[C@@H](C(C)C)C(=O)C1
REMARK SMILES IDX 8 1 9 2 6 3 7 4 5 5 4 6 3 7 2 8 1 9 10 11 11 12 15 13 16 14
REMARK SMILES IDX 17 15 12 17 13 18 14 19
REMARK H PARENT
REMARK Flexibility Score: 70.00
ROOT
ATOM      1  C   UNL     1     130.726 134.458 134.376  1.00  0.00     0.136 C 
ATOM      2  O   UNL     1     131.454 133.542 134.019  1.00  0.00    -0.299 OA
ENDROOT
BRANCH   1   3
ATOM      3  C   UNL     1     131.278 135.469 135.369  1.00  0.00     0.053 C 
ATOM      4  C   UNL     1     132.512 136.166 134.782  1.00  0.00     0.016 C 
BRANCH   3   5
ATOM      5  C   UNL     1     131.628 134.781 136.705  1.00  0.00     0.015 C 
BRANCH   5   6
ATOM      6  C   UNL     1     130.427 134.684 137.662  1.00  0.00     0.028 C 
BRANCH   6   7
ATOM      7  C   UNL     1     129.682 135.994 137.758  1.00  0.00    -0.028 C 
ATOM      8  C   UNL     1     128.414 136.230 137.342  1.00  0.00    -0.070 CG0
ATOM      9  C   UNL     1     127.869 137.627 137.517  1.00  0.00     0.039 C 
ATOM     10  G   UNL     1     127.527 135.189 136.679  1.00  0.00     0.000 G0
ENDBRANCH   6   7
ENDBRANCH   5   6
ENDBRANCH   3   5
ENDBRANCH   1   3
BRANCH   1  11
ATOM     11  C   UNL     1     129.293 134.455 133.875  1.00  0.00     0.087 C 
BRANCH  11  12
ATOM     12  C   UNL     1     128.451 135.720 134.207  1.00  0.00     0.066 C 
BRANCH  12  13
ATOM     13  C   UNL     1     127.320 135.501 135.208  1.00  0.00     0.140 C 
ATOM     14  O   UNL     1     126.174 135.501 134.777  1.00  0.00    -0.299 OA
BRANCH  13  15
ATOM     15  C   UNL     1     127.523 135.192 136.676  1.00  0.00     0.106 CG0
ATOM     16  G   UNL     1     128.417 136.229 137.335  1.00  0.00     0.000 G0
ENDBRANCH  13  15
ENDBRANCH  12  13
BRANCH  12  17
ATOM     17  C   UNL     1     127.892 136.442 132.941  1.00  0.00    -0.006 C 
ATOM     18  C   UNL     1     128.266 135.739 131.626  1.00  0.00     0.008 C 
ATOM     19  C   UNL     1     128.299 137.923 132.885  1.00  0.00     0.008 C 
ENDBRANCH  12  17
ENDBRANCH  11  12
ENDBRANCH   1  11
TORSDOF 1
ENDMDL
