MODEL 1
REMARK VINA RESULT:    -3.405      0.000      0.000
REMARK INTER + INTRA:          -4.043
REMARK INTER:                  -4.003
REMARK INTRA:                  -0.040
REMARK UNBOUND:                -0.040
REMARK SMILES CCCCC(=O)[O-]
REMARK SMILES IDX 4 1 5 2 6 3 7 4 3 5 2 6 1 7
REMARK H PARENT
REMARK Flexibility Score: inf
ROOT
ATOM      1  C   UNL     1     -28.134 -20.519 -27.036  1.00  0.00     0.053 C 
ENDROOT
BRANCH   1   2
ATOM      2  C   UNL     1     -28.508 -19.398 -26.115  1.00  0.00     0.041 C 
ATOM      3  O   UNL     1     -29.442 -18.611 -26.421  1.00  0.00    -0.550 OA
ATOM      4  O   UNL     1     -27.846 -19.243 -24.905  1.00  0.00    -0.550 OA
ENDBRANCH   1   2
BRANCH   1   5
ATOM      5  C   UNL     1     -28.373 -20.150 -28.506  1.00  0.00     0.006 C 
BRANCH   5   6
ATOM      6  C   UNL     1     -27.433 -20.909 -29.455  1.00  0.00    -0.003 C 
ATOM      7  C   UNL     1     -26.588 -21.925 -28.694  1.00  0.00     0.004 C 
ENDBRANCH   5   6
ENDBRANCH   1   5
TORSDOF 3
ENDMDL
MODEL 2
REMARK VINA RESULT:    -3.405      2.966      4.002
REMARK INTER + INTRA:          -4.042
REMARK INTER:                  -3.994
REMARK INTRA:                  -0.048
REMARK UNBOUND:                -0.040
REMARK SMILES CCCCC(=O)[O-]
REMARK SMILES IDX 4 1 5 2 6 3 7 4 3 5 2 6 1 7
REMARK H PARENT
REMARK Flexibility Score: inf
ROOT
ATOM      1  C   UNL     1     -27.699 -21.592 -28.428  1.00  0.00     0.053 C 
ENDROOT
BRANCH   1   2
ATOM      2  C   UNL     1     -26.267 -21.826 -28.802  1.00  0.00     0.041 C 
ATOM      3  O   UNL     1     -25.952 -22.040 -30.002  1.00  0.00    -0.550 OA
ATOM      4  O   UNL     1     -25.278 -21.774 -27.829  1.00  0.00    -0.550 OA
ENDBRANCH   1   2
BRANCH   1   5
ATOM      5  C   UNL     1     -27.938 -20.146 -27.973  1.00  0.00     0.006 C 
BRANCH   5   6
ATOM      6  C   UNL     1     -28.080 -20.033 -26.449  1.00  0.00    -0.003 C 
ATOM      7  C   UNL     1     -29.280 -19.171 -26.071  1.00  0.00     0.004 C 
ENDBRANCH   5   6
ENDBRANCH   1   5
TORSDOF 3
ENDMDL
MODEL 3
REMARK VINA RESULT:    -3.260      0.934      1.502
REMARK INTER + INTRA:          -3.872
REMARK INTER:                  -3.829
REMARK INTRA:                  -0.042
REMARK UNBOUND:                -0.040
REMARK SMILES CCCCC(=O)[O-]
REMARK SMILES IDX 4 1 5 2 6 3 7 4 3 5 2 6 1 7
REMARK H PARENT
REMARK Flexibility Score: inf
ROOT
ATOM      1  C   UNL     1     -27.157 -20.441 -27.188  1.00  0.00     0.053 C 
ENDROOT
BRANCH   1   2
ATOM      2  C   UNL     1     -28.268 -19.687 -26.523  1.00  0.00     0.041 C 
ATOM      3  O   UNL     1     -28.137 -19.277 -25.340  1.00  0.00    -0.550 OA
ATOM      4  O   UNL     1     -29.435 -19.410 -27.222  1.00  0.00    -0.550 OA
ENDBRANCH   1   2
BRANCH   1   5
ATOM      5  C   UNL     1     -27.097 -20.153 -28.694  1.00  0.00     0.006 C 
BRANCH   5   6
ATOM      6  C   UNL     1     -26.662 -21.384 -29.502  1.00  0.00    -0.003 C 
ATOM      7  C   UNL     1     -25.798 -22.318 -28.660  1.00  0.00     0.004 C 
ENDBRANCH   5   6
ENDBRANCH   1   5
TORSDOF 3
ENDMDL
MODEL 4
REMARK VINA RESULT:    -3.091     13.986     14.679
REMARK INTER + INTRA:          -3.673
REMARK INTER:                  -3.621
REMARK INTRA:                  -0.052
REMARK UNBOUND:                -0.040
REMARK SMILES CCCCC(=O)[O-]
REMARK SMILES IDX 4 1 5 2 6 3 7 4 3 5 2 6 1 7
REMARK H PARENT
REMARK Flexibility Score: inf
ROOT
ATOM      1  C   UNL     1     -23.615 -14.460 -14.656  1.00  0.00     0.053 C 
ENDROOT
BRANCH   1   2
ATOM      2  C   UNL     1     -24.845 -13.849 -14.057  1.00  0.00     0.041 C 
ATOM      3  O   UNL     1     -24.820 -12.667 -13.626  1.00  0.00    -0.550 OA
ATOM      4  O   UNL     1     -26.027 -14.576 -14.005  1.00  0.00    -0.550 OA
ENDBRANCH   1   2
BRANCH   1   5
ATOM      5  C   UNL     1     -22.591 -13.393 -15.064  1.00  0.00     0.006 C 
BRANCH   5   6
ATOM      6  C   UNL     1     -22.191 -13.507 -16.542  1.00  0.00    -0.003 C 
ATOM      7  C   UNL     1     -22.748 -12.342 -17.354  1.00  0.00     0.004 C 
ENDBRANCH   5   6
ENDBRANCH   1   5
TORSDOF 3
ENDMDL
MODEL 5
REMARK VINA RESULT:    -3.071     13.870     14.715
REMARK INTER + INTRA:          -3.649
REMARK INTER:                  -3.575
REMARK INTRA:                  -0.074
REMARK UNBOUND:                -0.040
REMARK SMILES CCCCC(=O)[O-]
REMARK SMILES IDX 4 1 5 2 6 3 7 4 3 5 2 6 1 7
REMARK H PARENT
REMARK Flexibility Score: inf
ROOT
ATOM      1  C   UNL     1     -22.646 -13.568 -15.276  1.00  0.00     0.053 C 
ENDROOT
BRANCH   1   2
ATOM      2  C   UNL     1     -22.285 -13.289 -16.703  1.00  0.00     0.041 C 
ATOM      3  O   UNL     1     -23.045 -12.592 -17.425  1.00  0.00    -0.550 OA
ATOM      4  O   UNL     1     -21.092 -13.772 -17.225  1.00  0.00    -0.550 OA
ENDBRANCH   1   2
BRANCH   1   5
ATOM      5  C   UNL     1     -23.646 -12.540 -14.731  1.00  0.00     0.006 C 
BRANCH   5   6
ATOM      6  C   UNL     1     -24.836 -13.205 -14.025  1.00  0.00    -0.003 C 
ATOM      7  C   UNL     1     -24.753 -14.725 -14.122  1.00  0.00     0.004 C 
ENDBRANCH   5   6
ENDBRANCH   1   5
TORSDOF 3
ENDMDL
MODEL 6
REMARK VINA RESULT:    -3.035     13.585     14.607
REMARK INTER + INTRA:          -3.607
REMARK INTER:                  -3.575
REMARK INTRA:                  -0.032
REMARK UNBOUND:                -0.040
REMARK SMILES CCCCC(=O)[O-]
REMARK SMILES IDX 4 1 5 2 6 3 7 4 3 5 2 6 1 7
REMARK H PARENT
REMARK Flexibility Score: inf
ROOT
ATOM      1  C   UNL     1     -22.982 -12.520 -16.273  1.00  0.00     0.053 C 
ENDROOT
BRANCH   1   2
ATOM      2  C   UNL     1     -22.243 -12.545 -17.576  1.00  0.00     0.041 C 
ATOM      3  O   UNL     1     -21.097 -13.062 -17.644  1.00  0.00    -0.550 OA
ATOM      4  O   UNL     1     -22.835 -12.028 -18.720  1.00  0.00    -0.550 OA
ENDBRANCH   1   2
BRANCH   1   5
ATOM      5  C   UNL     1     -22.616 -13.718 -15.388  1.00  0.00     0.006 C 
BRANCH   5   6
ATOM      6  C   UNL     1     -23.729 -14.063 -14.388  1.00  0.00    -0.003 C 
ATOM      7  C   UNL     1     -24.567 -12.833 -14.053  1.00  0.00     0.004 C 
ENDBRANCH   5   6
ENDBRANCH   1   5
TORSDOF 3
ENDMDL
MODEL 7
REMARK VINA RESULT:    -3.015      2.016      2.828
REMARK INTER + INTRA:          -3.584
REMARK INTER:                  -3.495
REMARK INTRA:                  -0.089
REMARK UNBOUND:                -0.040
REMARK SMILES CCCCC(=O)[O-]
REMARK SMILES IDX 4 1 5 2 6 3 7 4 3 5 2 6 1 7
REMARK H PARENT
REMARK Flexibility Score: inf
ROOT
ATOM      1  C   UNL     1     -27.141 -21.992 -28.604  1.00  0.00     0.053 C 
ENDROOT
BRANCH   1   2
ATOM      2  C   UNL     1     -27.627 -20.643 -28.169  1.00  0.00     0.041 C 
ATOM      3  O   UNL     1     -28.425 -19.993 -28.893  1.00  0.00    -0.550 OA
ATOM      4  O   UNL     1     -27.224 -20.121 -26.947  1.00  0.00    -0.550 OA
ENDBRANCH   1   2
BRANCH   1   5
ATOM      5  C   UNL     1     -25.798 -21.902 -29.339  1.00  0.00     0.006 C 
BRANCH   5   6
ATOM      6  C   UNL     1     -24.736 -22.824 -28.722  1.00  0.00    -0.003 C 
ATOM      7  C   UNL     1     -24.159 -22.221 -27.445  1.00  0.00     0.004 C 
ENDBRANCH   5   6
ENDBRANCH   1   5
TORSDOF 3
ENDMDL
MODEL 8
REMARK VINA RESULT:    -2.978     13.879     14.527
REMARK INTER + INTRA:          -3.540
REMARK INTER:                  -3.495
REMARK INTRA:                  -0.045
REMARK UNBOUND:                -0.040
REMARK SMILES CCCCC(=O)[O-]
REMARK SMILES IDX 4 1 5 2 6 3 7 4 3 5 2 6 1 7
REMARK H PARENT
REMARK Flexibility Score: inf
ROOT
ATOM      1  C   UNL     1     -21.517 -13.704 -17.014  1.00  0.00     0.053 C 
ENDROOT
BRANCH   1   2
ATOM      2  C   UNL     1     -20.307 -13.387 -17.839  1.00  0.00     0.041 C 
ATOM      3  O   UNL     1     -20.424 -12.733 -18.909  1.00  0.00    -0.550 OA
ATOM      4  O   UNL     1     -19.049 -13.784 -17.408  1.00  0.00    -0.550 OA
ENDBRANCH   1   2
BRANCH   1   5
ATOM      5  C   UNL     1     -22.594 -12.619 -17.143  1.00  0.00     0.006 C 
BRANCH   5   6
ATOM      6  C   UNL     1     -23.255 -12.293 -15.796  1.00  0.00    -0.003 C 
ATOM      7  C   UNL     1     -22.915 -13.348 -14.748  1.00  0.00     0.004 C 
ENDBRANCH   5   6
ENDBRANCH   1   5
TORSDOF 3
ENDMDL
MODEL 9
REMARK VINA RESULT:    -2.912     12.574     13.639
REMARK INTER + INTRA:          -3.462
REMARK INTER:                  -3.398
REMARK INTRA:                  -0.065
REMARK UNBOUND:                -0.040
REMARK SMILES CCCCC(=O)[O-]
REMARK SMILES IDX 4 1 5 2 6 3 7 4 3 5 2 6 1 7
REMARK H PARENT
REMARK Flexibility Score: inf
ROOT
ATOM      1  C   UNL     1     -21.723 -30.130 -22.255  1.00  0.00     0.053 C 
ENDROOT
BRANCH   1   2
ATOM      2  C   UNL     1     -22.699 -29.904 -21.140  1.00  0.00     0.041 C 
ATOM      3  O   UNL     1     -23.213 -30.884 -20.540  1.00  0.00    -0.550 OA
ATOM      4  O   UNL     1     -23.014 -28.612 -20.745  1.00  0.00    -0.550 OA
ENDBRANCH   1   2
BRANCH   1   5
ATOM      5  C   UNL     1     -21.505 -31.625 -22.525  1.00  0.00     0.006 C 
BRANCH   5   6
ATOM      6  C   UNL     1     -20.090 -32.083 -22.144  1.00  0.00    -0.003 C 
ATOM      7  C   UNL     1     -19.037 -31.121 -22.684  1.00  0.00     0.004 C 
ENDBRANCH   5   6
ENDBRANCH   1   5
TORSDOF 3
ENDMDL
