MODEL 1
REMARK VINA RESULT:    -5.598      0.000      0.000
REMARK INTER + INTRA:          -6.842
REMARK INTER:                  -6.580
REMARK INTRA:                  -0.262
REMARK UNBOUND:                -0.262
REMARK SMILES O=c1cc(-c2ccc(O)c(O)c2)oc2cc(O)cc(O)c12
REMARK SMILES IDX 4 1 3 2 2 3 1 4 21 5 19 6 18 7 16 8 15 9 14 10 13 11 5 12
REMARK SMILES IDX 6 13 7 14 8 15 12 16 10 17 9 18 11 20 20 22 17 24
REMARK H PARENT 9 19 11 21 20 23 17 25
REMARK Flexibility Score: inf
ROOT
ATOM      1  C   UNL     1       3.352  -7.992   7.982  1.00  0.00     0.138 A 
ATOM      2  C   UNL     1       4.457  -8.289   8.791  1.00  0.00     0.100 A 
ATOM      3  C   UNL     1       5.613  -8.815   8.215  1.00  0.00     0.197 A 
ATOM      4  O   UNL     1       6.607  -9.019   8.959  1.00  0.00    -0.289 OA
ATOM      5  C   UNL     1       5.649  -9.081   6.825  1.00  0.00     0.107 A 
ATOM      6  C   UNL     1       6.760  -9.649   6.132  1.00  0.00     0.134 A 
ATOM      7  C   UNL     1       6.714  -9.774   4.738  1.00  0.00     0.093 A 
ATOM      8  C   UNL     1       5.579  -9.405   4.017  1.00  0.00     0.123 A 
ATOM      9  C   UNL     1       4.468  -8.895   4.689  1.00  0.00     0.094 A 
ATOM     10  C   UNL     1       4.494  -8.727   6.075  1.00  0.00     0.146 A 
ATOM     11  O   UNL     1       3.421  -8.221   6.674  1.00  0.00    -0.456 OA
ENDROOT
BRANCH   1  12
ATOM     12  C   UNL     1       2.095  -7.433   8.542  1.00  0.00     0.021 A 
ATOM     13  C   UNL     1       1.832  -6.050   8.534  1.00  0.00     0.016 A 
ATOM     14  C   UNL     1       0.637  -5.553   9.059  1.00  0.00     0.051 A 
ATOM     15  C   UNL     1      -0.318  -6.423   9.594  1.00  0.00     0.157 A 
ATOM     16  C   UNL     1       1.125  -8.304   9.068  1.00  0.00     0.062 A 
ATOM     17  C   UNL     1      -0.075  -7.806   9.597  1.00  0.00     0.158 A 
BRANCH  15  18
ATOM     18  O   UNL     1      -1.501  -5.898  10.112  1.00  0.00    -0.504 OA
ATOM     19  H   UNL     1      -1.504  -5.145  10.789  1.00  0.00     0.293 HD
ENDBRANCH  15  18
BRANCH  17  20
ATOM     20  O   UNL     1      -1.025  -8.680  10.125  1.00  0.00    -0.504 OA
ATOM     21  H   UNL     1      -1.727  -8.365  10.784  1.00  0.00     0.293 HD
ENDBRANCH  17  20
ENDBRANCH   1  12
BRANCH   6  22
ATOM     22  O   UNL     1       7.915 -10.125   6.761  1.00  0.00    -0.507 OA
ATOM     23  H   UNL     1       8.443  -9.626   7.460  1.00  0.00     0.293 HD
ENDBRANCH   6  22
BRANCH   8  24
ATOM     24  O   UNL     1       5.564  -9.557   2.633  1.00  0.00    -0.508 OA
ATOM     25  H   UNL     1       6.370  -9.319   2.065  1.00  0.00     0.293 HD
ENDBRANCH   8  24
TORSDOF 5
ENDMDL
MODEL 2
REMARK VINA RESULT:    -5.299      1.166      2.682
REMARK INTER + INTRA:          -6.491
REMARK INTER:                  -6.227
REMARK INTRA:                  -0.264
REMARK UNBOUND:                -0.262
REMARK SMILES O=c1cc(-c2ccc(O)c(O)c2)oc2cc(O)cc(O)c12
REMARK SMILES IDX 4 1 3 2 2 3 1 4 21 5 19 6 18 7 16 8 15 9 14 10 13 11 5 12
REMARK SMILES IDX 6 13 7 14 8 15 12 16 10 17 9 18 11 20 20 22 17 24
REMARK H PARENT 9 19 11 21 20 23 17 25
REMARK Flexibility Score: inf
ROOT
ATOM      1  C   UNL     1       3.141  -8.094   7.464  1.00  0.00     0.138 A 
ATOM      2  C   UNL     1       3.094  -8.412   6.101  1.00  0.00     0.100 A 
ATOM      3  C   UNL     1       4.197  -9.012   5.493  1.00  0.00     0.197 A 
ATOM      4  O   UNL     1       4.103  -9.336   4.281  1.00  0.00    -0.289 OA
ATOM      5  C   UNL     1       5.368  -9.261   6.248  1.00  0.00     0.107 A 
ATOM      6  C   UNL     1       6.566  -9.836   5.727  1.00  0.00     0.134 A 
ATOM      7  C   UNL     1       7.627 -10.125   6.594  1.00  0.00     0.093 A 
ATOM      8  C   UNL     1       7.556  -9.809   7.951  1.00  0.00     0.123 A 
ATOM      9  C   UNL     1       6.409  -9.201   8.462  1.00  0.00     0.094 A 
ATOM     10  C   UNL     1       5.321  -8.930   7.629  1.00  0.00     0.146 A 
ATOM     11  O   UNL     1       4.241  -8.367   8.160  1.00  0.00    -0.456 OA
ENDROOT
BRANCH   1  12
ATOM     12  C   UNL     1       1.997  -7.452   8.162  1.00  0.00     0.021 A 
ATOM     13  C   UNL     1       1.821  -6.056   8.165  1.00  0.00     0.016 A 
ATOM     14  C   UNL     1       0.730  -5.481   8.821  1.00  0.00     0.051 A 
ATOM     15  C   UNL     1      -0.206  -6.285   9.478  1.00  0.00     0.157 A 
ATOM     16  C   UNL     1       1.045  -8.257   8.812  1.00  0.00     0.062 A 
ATOM     17  C   UNL     1      -0.050  -7.681   9.473  1.00  0.00     0.158 A 
BRANCH  15  18
ATOM     18  O   UNL     1      -1.283  -5.682  10.125  1.00  0.00    -0.504 OA
ATOM     19  H   UNL     1      -1.903  -6.200  10.736  1.00  0.00     0.293 HD
ENDBRANCH  15  18
BRANCH  17  20
ATOM     20  O   UNL     1      -0.982  -8.489  10.122  1.00  0.00    -0.504 OA
ATOM     21  H   UNL     1      -1.895  -8.138  10.388  1.00  0.00     0.293 HD
ENDBRANCH  17  20
ENDBRANCH   1  12
BRANCH   6  22
ATOM     22  O   UNL     1       6.776 -10.119   4.373  1.00  0.00    -0.507 OA
ATOM     23  H   UNL     1       6.161 -10.669   3.795  1.00  0.00     0.293 HD
ENDBRANCH   6  22
BRANCH   8  24
ATOM     24  O   UNL     1       8.637 -10.098   8.781  1.00  0.00    -0.508 OA
ATOM     25  H   UNL     1       8.982 -11.045   8.891  1.00  0.00     0.293 HD
ENDBRANCH   8  24
TORSDOF 5
ENDMDL
MODEL 3
REMARK VINA RESULT:    -5.209     21.975     23.963
REMARK INTER + INTRA:          -6.384
REMARK INTER:                  -6.088
REMARK INTRA:                  -0.297
REMARK UNBOUND:                -0.262
REMARK SMILES O=c1cc(-c2ccc(O)c(O)c2)oc2cc(O)cc(O)c12
REMARK SMILES IDX 4 1 3 2 2 3 1 4 21 5 19 6 18 7 16 8 15 9 14 10 13 11 5 12
REMARK SMILES IDX 6 13 7 14 8 15 12 16 10 17 9 18 11 20 20 22 17 24
REMARK H PARENT 9 19 11 21 20 23 17 25
REMARK Flexibility Score: inf
ROOT
ATOM      1  C   UNL     1       1.394   8.198  -8.898  1.00  0.00     0.138 A 
ATOM      2  C   UNL     1       0.533   9.298  -8.999  1.00  0.00     0.100 A 
ATOM      3  C   UNL     1      -0.843   9.090  -9.102  1.00  0.00     0.197 A 
ATOM      4  O   UNL     1      -1.594  10.099  -9.137  1.00  0.00    -0.289 OA
ATOM      5  C   UNL     1      -1.355   7.771  -9.141  1.00  0.00     0.107 A 
ATOM      6  C   UNL     1      -2.736   7.436  -9.278  1.00  0.00     0.134 A 
ATOM      7  C   UNL     1      -3.132   6.095  -9.204  1.00  0.00     0.093 A 
ATOM      8  C   UNL     1      -2.195   5.073  -9.055  1.00  0.00     0.123 A 
ATOM      9  C   UNL     1      -0.838   5.385  -8.970  1.00  0.00     0.094 A 
ATOM     10  C   UNL     1      -0.414   6.715  -9.006  1.00  0.00     0.146 A 
ATOM     11  O   UNL     1       0.887   6.969  -8.904  1.00  0.00    -0.456 OA
ENDROOT
BRANCH   1  12
ATOM     12  C   UNL     1       2.867   8.360  -8.788  1.00  0.00     0.021 A 
ATOM     13  C   UNL     1       3.444   9.346  -7.966  1.00  0.00     0.016 A 
ATOM     14  C   UNL     1       4.832   9.470  -7.875  1.00  0.00     0.051 A 
ATOM     15  C   UNL     1       5.668   8.611  -8.594  1.00  0.00     0.157 A 
ATOM     16  C   UNL     1       3.713   7.490  -9.498  1.00  0.00     0.062 A 
ATOM     17  C   UNL     1       5.107   7.614  -9.409  1.00  0.00     0.158 A 
BRANCH  15  18
ATOM     18  O   UNL     1       7.050   8.759  -8.484  1.00  0.00    -0.504 OA
ATOM     19  H   UNL     1       7.510   9.649  -8.635  1.00  0.00     0.293 HD
ENDBRANCH  15  18
BRANCH  17  20
ATOM     20  O   UNL     1       5.935   6.751 -10.125  1.00  0.00    -0.504 OA
ATOM     21  H   UNL     1       6.753   6.327  -9.702  1.00  0.00     0.293 HD
ENDBRANCH  17  20
ENDBRANCH   1  12
BRANCH   6  22
ATOM     22  O   UNL     1      -3.749   8.372  -9.511  1.00  0.00    -0.507 OA
ATOM     23  H   UNL     1      -4.392   8.716  -8.815  1.00  0.00     0.293 HD
ENDBRANCH   6  22
BRANCH   8  24
ATOM     24  O   UNL     1      -2.625   3.750  -9.000  1.00  0.00    -0.508 OA
ATOM     25  H   UNL     1      -2.967   3.339  -8.139  1.00  0.00     0.293 HD
ENDBRANCH   8  24
TORSDOF 5
ENDMDL
MODEL 4
REMARK VINA RESULT:    -4.634      1.423      7.067
REMARK INTER + INTRA:          -5.708
REMARK INTER:                  -5.446
REMARK INTRA:                  -0.262
REMARK UNBOUND:                -0.262
REMARK SMILES O=c1cc(-c2ccc(O)c(O)c2)oc2cc(O)cc(O)c12
REMARK SMILES IDX 4 1 3 2 2 3 1 4 21 5 19 6 18 7 16 8 15 9 14 10 13 11 5 12
REMARK SMILES IDX 6 13 7 14 8 15 12 16 10 17 9 18 11 20 20 22 17 24
REMARK H PARENT 9 19 11 21 20 23 17 25
REMARK Flexibility Score: inf
ROOT
ATOM      1  C   UNL     1       3.313  -8.032   6.789  1.00  0.00     0.138 A 
ATOM      2  C   UNL     1       3.407  -6.707   7.238  1.00  0.00     0.100 A 
ATOM      3  C   UNL     1       2.509  -6.238   8.197  1.00  0.00     0.197 A 
ATOM      4  O   UNL     1       2.654  -5.062   8.619  1.00  0.00    -0.289 OA
ATOM      5  C   UNL     1       1.489  -7.091   8.683  1.00  0.00     0.107 A 
ATOM      6  C   UNL     1       0.496  -6.712   9.636  1.00  0.00     0.134 A 
ATOM      7  C   UNL     1      -0.403  -7.673  10.115  1.00  0.00     0.093 A 
ATOM      8  C   UNL     1      -0.383  -8.982   9.636  1.00  0.00     0.123 A 
ATOM      9  C   UNL     1       0.551  -9.351   8.667  1.00  0.00     0.094 A 
ATOM     10  C   UNL     1       1.483  -8.425   8.194  1.00  0.00     0.146 A 
ATOM     11  O   UNL     1       2.367  -8.822   7.284  1.00  0.00    -0.456 OA
ENDROOT
BRANCH   1  12
ATOM     12  C   UNL     1       4.241  -8.583   5.768  1.00  0.00     0.021 A 
ATOM     13  C   UNL     1       3.916  -8.586   4.398  1.00  0.00     0.016 A 
ATOM     14  C   UNL     1       4.812  -9.102   3.459  1.00  0.00     0.051 A 
ATOM     15  C   UNL     1       6.047  -9.616   3.866  1.00  0.00     0.157 A 
ATOM     16  C   UNL     1       5.490  -9.088   6.169  1.00  0.00     0.062 A 
ATOM     17  C   UNL     1       6.390  -9.607   5.227  1.00  0.00     0.158 A 
BRANCH  15  18
ATOM     18  O   UNL     1       6.920 -10.125   2.905  1.00  0.00    -0.504 OA
ATOM     19  H   UNL     1       7.876 -10.374   3.124  1.00  0.00     0.293 HD
ENDBRANCH  15  18
BRANCH  17  20
ATOM     20  O   UNL     1       7.622 -10.113   5.639  1.00  0.00    -0.504 OA
ATOM     21  H   UNL     1       7.703 -11.029   6.066  1.00  0.00     0.293 HD
ENDBRANCH  17  20
ENDBRANCH   1  12
BRANCH   6  22
ATOM     22  O   UNL     1       0.334  -5.411  10.124  1.00  0.00    -0.507 OA
ATOM     23  H   UNL     1       0.908  -4.983  10.833  1.00  0.00     0.293 HD
ENDBRANCH   6  22
BRANCH   8  24
ATOM     24  O   UNL     1      -1.303  -9.907  10.125  1.00  0.00    -0.508 OA
ATOM     25  H   UNL     1      -1.129 -10.426  10.978  1.00  0.00     0.293 HD
ENDBRANCH   8  24
TORSDOF 5
ENDMDL
MODEL 5
REMARK VINA RESULT:    -4.395     21.918     22.946
REMARK INTER + INTRA:          -5.427
REMARK INTER:                  -5.158
REMARK INTRA:                  -0.269
REMARK UNBOUND:                -0.262
REMARK SMILES O=c1cc(-c2ccc(O)c(O)c2)oc2cc(O)cc(O)c12
REMARK SMILES IDX 4 1 3 2 2 3 1 4 21 5 19 6 18 7 16 8 15 9 14 10 13 11 5 12
REMARK SMILES IDX 6 13 7 14 8 15 12 16 10 17 9 18 11 20 20 22 17 24
REMARK H PARENT 9 19 11 21 20 23 17 25
REMARK Flexibility Score: inf
ROOT
ATOM      1  C   UNL     1       3.699   8.627  -8.338  1.00  0.00     0.138 A 
ATOM      2  C   UNL     1       4.471   9.524  -7.588  1.00  0.00     0.100 A 
ATOM      3  C   UNL     1       5.815   9.240  -7.342  1.00  0.00     0.197 A 
ATOM      4  O   UNL     1       6.496  10.090  -6.714  1.00  0.00    -0.289 OA
ATOM      5  C   UNL     1       6.377   8.031  -7.819  1.00  0.00     0.107 A 
ATOM      6  C   UNL     1       7.727   7.619  -7.600  1.00  0.00     0.134 A 
ATOM      7  C   UNL     1       8.197   6.447  -8.206  1.00  0.00     0.093 A 
ATOM      8  C   UNL     1       7.355   5.644  -8.975  1.00  0.00     0.123 A 
ATOM      9  C   UNL     1       6.021   6.012  -9.154  1.00  0.00     0.094 A 
ATOM     10  C   UNL     1       5.530   7.192  -8.591  1.00  0.00     0.146 A 
ATOM     11  O   UNL     1       4.258   7.514  -8.802  1.00  0.00    -0.456 OA
ENDROOT
BRANCH   1  12
ATOM     12  C   UNL     1       2.264   8.878  -8.627  1.00  0.00     0.021 A 
ATOM     13  C   UNL     1       1.857   9.716  -9.683  1.00  0.00     0.016 A 
ATOM     14  C   UNL     1       0.500   9.926  -9.938  1.00  0.00     0.051 A 
ATOM     15  C   UNL     1      -0.474   9.300  -9.153  1.00  0.00     0.157 A 
ATOM     16  C   UNL     1       1.280   8.240  -7.851  1.00  0.00     0.062 A 
ATOM     17  C   UNL     1      -0.083   8.451  -8.106  1.00  0.00     0.158 A 
BRANCH  15  18
ATOM     18  O   UNL     1      -1.820   9.530  -9.432  1.00  0.00    -0.504 OA
ATOM     19  H   UNL     1      -2.237  10.450  -9.357  1.00  0.00     0.293 HD
ENDBRANCH  15  18
BRANCH  17  20
ATOM     20  O   UNL     1      -1.049   7.820  -7.323  1.00  0.00    -0.504 OA
ATOM     21  H   UNL     1      -0.793   7.212  -6.553  1.00  0.00     0.293 HD
ENDBRANCH  17  20
ENDBRANCH   1  12
BRANCH   6  22
ATOM     22  O   UNL     1       8.633   8.304  -6.784  1.00  0.00    -0.507 OA
ATOM     23  H   UNL     1       9.040   7.940  -5.937  1.00  0.00     0.293 HD
ENDBRANCH   6  22
BRANCH   8  24
ATOM     24  O   UNL     1       7.854   4.478  -9.550  1.00  0.00    -0.508 OA
ATOM     25  H   UNL     1       7.573   4.182 -10.478  1.00  0.00     0.293 HD
ENDBRANCH   8  24
TORSDOF 5
ENDMDL
MODEL 6
REMARK VINA RESULT:    -4.326      1.822      7.172
REMARK INTER + INTRA:          -5.347
REMARK INTER:                  -5.085
REMARK INTRA:                  -0.263
REMARK UNBOUND:                -0.262
REMARK SMILES O=c1cc(-c2ccc(O)c(O)c2)oc2cc(O)cc(O)c12
REMARK SMILES IDX 4 1 3 2 2 3 1 4 21 5 19 6 18 7 16 8 15 9 14 10 13 11 5 12
REMARK SMILES IDX 6 13 7 14 8 15 12 16 10 17 9 18 11 20 20 22 17 24
REMARK H PARENT 9 19 11 21 20 23 17 25
REMARK Flexibility Score: inf
ROOT
ATOM      1  C   UNL     1       3.387  -8.612   6.409  1.00  0.00     0.138 A 
ATOM      2  C   UNL     1       2.282  -9.420   6.708  1.00  0.00     0.100 A 
ATOM      3  C   UNL     1       1.365  -9.006   7.674  1.00  0.00     0.197 A 
ATOM      4  O   UNL     1       0.355  -9.728   7.881  1.00  0.00    -0.289 OA
ATOM      5  C   UNL     1       1.576  -7.792   8.371  1.00  0.00     0.107 A 
ATOM      6  C   UNL     1       0.726  -7.285   9.400  1.00  0.00     0.134 A 
ATOM      7  C   UNL     1       0.984  -6.023   9.948  1.00  0.00     0.093 A 
ATOM      8  C   UNL     1       2.090  -5.273   9.547  1.00  0.00     0.123 A 
ATOM      9  C   UNL     1       2.955  -5.781   8.577  1.00  0.00     0.094 A 
ATOM     10  C   UNL     1       2.707  -7.022   7.987  1.00  0.00     0.146 A 
ATOM     11  O   UNL     1       3.546  -7.460   7.054  1.00  0.00    -0.456 OA
ENDROOT
BRANCH   1  12
ATOM     12  C   UNL     1       4.395  -9.004   5.392  1.00  0.00     0.021 A 
ATOM     13  C   UNL     1       5.541  -9.747   5.733  1.00  0.00     0.016 A 
ATOM     14  C   UNL     1       6.468 -10.111   4.754  1.00  0.00     0.051 A 
ATOM     15  C   UNL     1       6.267  -9.748   3.419  1.00  0.00     0.157 A 
ATOM     16  C   UNL     1       4.191  -8.655   4.045  1.00  0.00     0.062 A 
ATOM     17  C   UNL     1       5.122  -9.019   3.061  1.00  0.00     0.158 A 
BRANCH  15  18
ATOM     18  O   UNL     1       7.210 -10.125   2.464  1.00  0.00    -0.504 OA
ATOM     19  H   UNL     1       8.002  -9.539   2.229  1.00  0.00     0.293 HD
ENDBRANCH  15  18
BRANCH  17  20
ATOM     20  O   UNL     1       4.913  -8.658   1.731  1.00  0.00    -0.504 OA
ATOM     21  H   UNL     1       4.722  -9.351   1.016  1.00  0.00     0.293 HD
ENDBRANCH  17  20
ENDBRANCH   1  12
BRANCH   6  22
ATOM     22  O   UNL     1      -0.361  -7.985   9.934  1.00  0.00    -0.507 OA
ATOM     23  H   UNL     1      -1.254  -8.102   9.481  1.00  0.00     0.293 HD
ENDBRANCH   6  22
BRANCH   8  24
ATOM     24  O   UNL     1       2.322  -4.028  10.125  1.00  0.00    -0.508 OA
ATOM     25  H   UNL     1       2.833  -3.935  10.995  1.00  0.00     0.293 HD
ENDBRANCH   8  24
TORSDOF 5
ENDMDL
MODEL 7
REMARK VINA RESULT:    -4.320     21.207     22.787
REMARK INTER + INTRA:          -5.339
REMARK INTER:                  -5.049
REMARK INTRA:                  -0.291
REMARK UNBOUND:                -0.262
REMARK SMILES O=c1cc(-c2ccc(O)c(O)c2)oc2cc(O)cc(O)c12
REMARK SMILES IDX 4 1 3 2 2 3 1 4 21 5 19 6 18 7 16 8 15 9 14 10 13 11 5 12
REMARK SMILES IDX 6 13 7 14 8 15 12 16 10 17 9 18 11 20 20 22 17 24
REMARK H PARENT 9 19 11 21 20 23 17 25
REMARK Flexibility Score: inf
ROOT
ATOM      1  C   UNL     1       5.149   8.088  -8.796  1.00  0.00     0.138 A 
ATOM      2  C   UNL     1       6.266   8.927  -8.685  1.00  0.00     0.100 A 
ATOM      3  C   UNL     1       7.532   8.369  -8.504  1.00  0.00     0.197 A 
ATOM      4  O   UNL     1       8.522   9.145  -8.462  1.00  0.00    -0.289 OA
ATOM      5  C   UNL     1       7.674   6.965  -8.396  1.00  0.00     0.107 A 
ATOM      6  C   UNL     1       8.910   6.285  -8.176  1.00  0.00     0.134 A 
ATOM      7  C   UNL     1       8.940   4.885  -8.186  1.00  0.00     0.093 A 
ATOM      8  C   UNL     1       7.773   4.140  -8.352  1.00  0.00     0.123 A 
ATOM      9  C   UNL     1       6.552   4.794  -8.517  1.00  0.00     0.094 A 
ATOM     10  C   UNL     1       6.493   6.189  -8.546  1.00  0.00     0.146 A 
ATOM     11  O   UNL     1       5.312   6.771  -8.724  1.00  0.00    -0.456 OA
ENDROOT
BRANCH   1  12
ATOM     12  C   UNL     1       3.778   8.628  -8.987  1.00  0.00     0.021 A 
ATOM     13  C   UNL     1       3.496   9.604  -9.961  1.00  0.00     0.016 A 
ATOM     14  C   UNL     1       2.195  10.086 -10.125  1.00  0.00     0.051 A 
ATOM     15  C   UNL     1       1.154   9.599  -9.329  1.00  0.00     0.157 A 
ATOM     16  C   UNL     1       2.724   8.132  -8.200  1.00  0.00     0.062 A 
ATOM     17  C   UNL     1       1.418   8.615  -8.363  1.00  0.00     0.158 A 
BRANCH  15  18
ATOM     18  O   UNL     1      -0.134  10.100  -9.516  1.00  0.00    -0.504 OA
ATOM     19  H   UNL     1      -0.522  10.257 -10.437  1.00  0.00     0.293 HD
ENDBRANCH  15  18
BRANCH  17  20
ATOM     20  O   UNL     1       0.383   8.122  -7.570  1.00  0.00    -0.504 OA
ATOM     21  H   UNL     1      -0.097   7.260  -7.799  1.00  0.00     0.293 HD
ENDBRANCH  17  20
ENDBRANCH   1  12
BRANCH   6  22
ATOM     22  O   UNL     1      10.125   6.931  -7.921  1.00  0.00    -0.507 OA
ATOM     23  H   UNL     1      10.241   7.728  -7.315  1.00  0.00     0.293 HD
ENDBRANCH   6  22
BRANCH   8  24
ATOM     24  O   UNL     1       7.839   2.749  -8.341  1.00  0.00    -0.508 OA
ATOM     25  H   UNL     1       7.351   2.201  -7.642  1.00  0.00     0.293 HD
ENDBRANCH   8  24
TORSDOF 5
ENDMDL
MODEL 8
REMARK VINA RESULT:    -4.301     22.341     23.121
REMARK INTER + INTRA:          -5.318
REMARK INTER:                  -5.048
REMARK INTRA:                  -0.270
REMARK UNBOUND:                -0.262
REMARK SMILES O=c1cc(-c2ccc(O)c(O)c2)oc2cc(O)cc(O)c12
REMARK SMILES IDX 4 1 3 2 2 3 1 4 21 5 19 6 18 7 16 8 15 9 14 10 13 11 5 12
REMARK SMILES IDX 6 13 7 14 8 15 12 16 10 17 9 18 11 20 20 22 17 24
REMARK H PARENT 9 19 11 21 20 23 17 25
REMARK Flexibility Score: inf
ROOT
ATOM      1  C   UNL     1       4.185   8.350  -8.469  1.00  0.00     0.138 A 
ATOM      2  C   UNL     1       4.929   7.433  -9.224  1.00  0.00     0.100 A 
ATOM      3  C   UNL     1       6.275   7.222  -8.923  1.00  0.00     0.197 A 
ATOM      4  O   UNL     1       6.901   6.353  -9.583  1.00  0.00    -0.289 OA
ATOM      5  C   UNL     1       6.888   7.961  -7.884  1.00  0.00     0.107 A 
ATOM      6  C   UNL     1       8.262   7.856  -7.510  1.00  0.00     0.134 A 
ATOM      7  C   UNL     1       8.732   8.567  -6.399  1.00  0.00     0.093 A 
ATOM      8  C   UNL     1       7.895   9.422  -5.683  1.00  0.00     0.123 A 
ATOM      9  C   UNL     1       6.563   9.572  -6.070  1.00  0.00     0.094 A 
ATOM     10  C   UNL     1       6.055   8.850  -7.153  1.00  0.00     0.146 A 
ATOM     11  O   UNL     1       4.776   9.008  -7.477  1.00  0.00    -0.456 OA
ENDROOT
BRANCH   1  12
ATOM     12  C   UNL     1       2.751   8.615  -8.746  1.00  0.00     0.021 A 
ATOM     13  C   UNL     1       2.337   9.333  -9.884  1.00  0.00     0.016 A 
ATOM     14  C   UNL     1       0.980   9.559 -10.125  1.00  0.00     0.051 A 
ATOM     15  C   UNL     1       0.013   9.069  -9.242  1.00  0.00     0.157 A 
ATOM     16  C   UNL     1       1.773   8.113  -7.870  1.00  0.00     0.062 A 
ATOM     17  C   UNL     1       0.409   8.341  -8.110  1.00  0.00     0.158 A 
BRANCH  15  18
ATOM     18  O   UNL     1      -1.334   9.312  -9.509  1.00  0.00    -0.504 OA
ATOM     19  H   UNL     1      -2.034   9.327  -8.777  1.00  0.00     0.293 HD
ENDBRANCH  15  18
BRANCH  17  20
ATOM     20  O   UNL     1      -0.550   7.845  -7.228  1.00  0.00    -0.504 OA
ATOM     21  H   UNL     1      -0.905   6.899  -7.306  1.00  0.00     0.293 HD
ENDBRANCH  17  20
ENDBRANCH   1  12
BRANCH   6  22
ATOM     22  O   UNL     1       9.207   7.091  -8.204  1.00  0.00    -0.507 OA
ATOM     23  H   UNL     1      10.198   7.274  -8.225  1.00  0.00     0.293 HD
ENDBRANCH   6  22
BRANCH   8  24
ATOM     24  O   UNL     1       8.401  10.125  -4.592  1.00  0.00    -0.508 OA
ATOM     25  H   UNL     1       8.114  11.077  -4.396  1.00  0.00     0.293 HD
ENDBRANCH   8  24
TORSDOF 5
ENDMDL
