MODEL 1
REMARK VINA RESULT:    -4.801      0.000      0.000
REMARK INTER + INTRA:          -5.640
REMARK INTER:                  -5.503
REMARK INTRA:                  -0.137
REMARK UNBOUND:                -0.137
REMARK SMILES O=C([O-])C=Cc1ccc(O)cc1
REMARK SMILES IDX 6 1 7 2 12 3 8 4 11 5 9 6 5 7 4 8 2 9 1 10 3 11 10 12
REMARK H PARENT 10 13
REMARK Flexibility Score: inf
ROOT
ATOM      1  C   UNL     1     -37.674 -15.067  -7.632  1.00  0.00    -0.025 A 
ATOM      2  C   UNL     1     -38.889 -15.269  -6.943  1.00  0.00     0.012 A 
ATOM      3  C   UNL     1     -37.131 -16.131  -8.372  1.00  0.00     0.012 A 
ATOM      4  C   UNL     1     -39.524 -16.514  -6.979  1.00  0.00     0.047 A 
ATOM      5  C   UNL     1     -37.770 -17.375  -8.405  1.00  0.00     0.047 A 
ATOM      6  C   UNL     1     -38.965 -17.570  -7.708  1.00  0.00     0.115 A 
ENDROOT
BRANCH   1   7
ATOM      7  C   UNL     1     -36.965 -13.764  -7.636  1.00  0.00     0.010 C 
ATOM      8  C   UNL     1     -37.573 -12.584  -7.820  1.00  0.00     0.025 C 
BRANCH   8   9
ATOM      9  C   UNL     1     -36.837 -11.309  -7.805  1.00  0.00     0.064 C 
ATOM     10  O   UNL     1     -37.124 -10.400  -6.980  1.00  0.00    -0.545 OA
ATOM     11  O   UNL     1     -35.808 -11.104  -8.714  1.00  0.00    -0.545 OA
ENDBRANCH   8   9
ENDBRANCH   1   7
BRANCH   6  12
ATOM     12  O   UNL     1     -39.591 -18.815  -7.750  1.00  0.00    -0.508 OA
ATOM     13  H   UNL     1     -40.455 -18.989  -7.251  1.00  0.00     0.293 HD
ENDBRANCH   6  12
TORSDOF 3
ENDMDL
MODEL 2
REMARK VINA RESULT:    -4.702      0.183      1.407
REMARK INTER + INTRA:          -5.527
REMARK INTER:                  -5.377
REMARK INTRA:                  -0.149
REMARK UNBOUND:                -0.137
REMARK SMILES O=C([O-])C=Cc1ccc(O)cc1
REMARK SMILES IDX 6 1 7 2 12 3 8 4 11 5 9 6 5 7 4 8 2 9 1 10 3 11 10 12
REMARK H PARENT 10 13
REMARK Flexibility Score: inf
ROOT
ATOM      1  C   UNL     1     -37.532 -15.105  -7.789  1.00  0.00    -0.025 A 
ATOM      2  C   UNL     1     -36.991 -16.255  -8.403  1.00  0.00     0.012 A 
ATOM      3  C   UNL     1     -38.754 -15.216  -7.104  1.00  0.00     0.012 A 
ATOM      4  C   UNL     1     -37.675 -17.474  -8.349  1.00  0.00     0.047 A 
ATOM      5  C   UNL     1     -39.434 -16.436  -7.054  1.00  0.00     0.047 A 
ATOM      6  C   UNL     1     -38.899 -17.566  -7.676  1.00  0.00     0.115 A 
ENDROOT
BRANCH   1   7
ATOM      7  C   UNL     1     -36.843 -13.791  -7.807  1.00  0.00     0.010 C 
ATOM      8  C   UNL     1     -37.466 -12.620  -7.615  1.00  0.00     0.025 C 
BRANCH   8   9
ATOM      9  C   UNL     1     -36.748 -11.336  -7.627  1.00  0.00     0.064 C 
ATOM     10  O   UNL     1     -37.034 -10.420  -6.810  1.00  0.00    -0.545 OA
ATOM     11  O   UNL     1     -35.734 -11.129  -8.554  1.00  0.00    -0.545 OA
ENDBRANCH   8   9
ENDBRANCH   1   7
BRANCH   6  12
ATOM     12  O   UNL     1     -39.588 -18.777  -7.618  1.00  0.00    -0.508 OA
ATOM     13  H   UNL     1     -39.852 -19.276  -8.458  1.00  0.00     0.293 HD
ENDBRANCH   6  12
TORSDOF 3
ENDMDL
MODEL 3
REMARK VINA RESULT:    -4.529      3.430      7.579
REMARK INTER + INTRA:          -5.328
REMARK INTER:                  -5.177
REMARK INTRA:                  -0.151
REMARK UNBOUND:                -0.137
REMARK SMILES O=C([O-])C=Cc1ccc(O)cc1
REMARK SMILES IDX 6 1 7 2 12 3 8 4 11 5 9 6 5 7 4 8 2 9 1 10 3 11 10 12
REMARK H PARENT 10 13
REMARK Flexibility Score: inf
ROOT
ATOM      1  C   UNL     1     -36.007  -9.514  -7.167  1.00  0.00    -0.025 A 
ATOM      2  C   UNL     1     -36.114  -8.369  -6.349  1.00  0.00     0.012 A 
ATOM      3  C   UNL     1     -34.852  -9.679  -7.951  1.00  0.00     0.012 A 
ATOM      4  C   UNL     1     -35.099  -7.408  -6.340  1.00  0.00     0.047 A 
ATOM      5  C   UNL     1     -33.839  -8.715  -7.939  1.00  0.00     0.047 A 
ATOM      6  C   UNL     1     -33.960  -7.578  -7.137  1.00  0.00     0.115 A 
ENDROOT
BRANCH   1   7
ATOM      7  C   UNL     1     -37.049 -10.569  -7.207  1.00  0.00     0.010 C 
ATOM      8  C   UNL     1     -36.879 -11.764  -7.789  1.00  0.00     0.025 C 
BRANCH   8   9
ATOM      9  C   UNL     1     -37.933 -12.791  -7.797  1.00  0.00     0.064 C 
ATOM     10  O   UNL     1     -38.936 -12.691  -8.555  1.00  0.00    -0.545 OA
ATOM     11  O   UNL     1     -37.821 -13.892  -6.958  1.00  0.00    -0.545 OA
ENDBRANCH   8   9
ENDBRANCH   1   7
BRANCH   6  12
ATOM     12  O   UNL     1     -32.943  -6.625  -7.135  1.00  0.00    -0.508 OA
ATOM     13  H   UNL     1     -32.989  -5.801  -7.722  1.00  0.00     0.293 HD
ENDBRANCH   6  12
TORSDOF 3
ENDMDL
MODEL 4
REMARK VINA RESULT:    -4.413      3.364      5.444
REMARK INTER + INTRA:          -5.196
REMARK INTER:                  -5.044
REMARK INTRA:                  -0.151
REMARK UNBOUND:                -0.137
REMARK SMILES O=C([O-])C=Cc1ccc(O)cc1
REMARK SMILES IDX 6 1 7 2 12 3 8 4 11 5 9 6 5 7 4 8 2 9 1 10 3 11 10 12
REMARK H PARENT 10 13
REMARK Flexibility Score: inf
ROOT
ATOM      1  C   UNL     1     -36.621 -13.579  -9.503  1.00  0.00    -0.025 A 
ATOM      2  C   UNL     1     -36.515 -12.189  -9.288  1.00  0.00     0.012 A 
ATOM      3  C   UNL     1     -37.201 -14.376  -8.500  1.00  0.00     0.012 A 
ATOM      4  C   UNL     1     -36.957 -11.622  -8.088  1.00  0.00     0.047 A 
ATOM      5  C   UNL     1     -37.641 -13.805  -7.302  1.00  0.00     0.047 A 
ATOM      6  C   UNL     1     -37.518 -12.430  -7.092  1.00  0.00     0.115 A 
ENDROOT
BRANCH   1   7
ATOM      7  C   UNL     1     -36.179 -14.230 -10.761  1.00  0.00     0.010 C 
ATOM      8  C   UNL     1     -36.093 -15.557 -10.924  1.00  0.00     0.025 C 
BRANCH   8   9
ATOM      9  C   UNL     1     -35.661 -16.167 -12.191  1.00  0.00     0.064 C 
ATOM     10  O   UNL     1     -34.870 -17.148 -12.207  1.00  0.00    -0.545 OA
ATOM     11  O   UNL     1     -36.135 -15.656 -13.393  1.00  0.00    -0.545 OA
ENDBRANCH   8   9
ENDBRANCH   1   7
BRANCH   6  12
ATOM     12  O   UNL     1     -37.961 -11.874  -5.893  1.00  0.00    -0.508 OA
ATOM     13  H   UNL     1     -37.747 -12.302  -5.000  1.00  0.00     0.293 HD
ENDBRANCH   6  12
TORSDOF 3
ENDMDL
MODEL 5
REMARK VINA RESULT:    -4.408      1.240      5.924
REMARK INTER + INTRA:          -5.190
REMARK INTER:                  -5.051
REMARK INTRA:                  -0.139
REMARK UNBOUND:                -0.137
REMARK SMILES O=C([O-])C=Cc1ccc(O)cc1
REMARK SMILES IDX 6 1 7 2 12 3 8 4 11 5 9 6 5 7 4 8 2 9 1 10 3 11 10 12
REMARK H PARENT 10 13
REMARK Flexibility Score: inf
ROOT
ATOM      1  C   UNL     1     -37.544 -13.364  -7.486  1.00  0.00    -0.025 A 
ATOM      2  C   UNL     1     -36.603 -13.361  -8.537  1.00  0.00     0.012 A 
ATOM      3  C   UNL     1     -37.829 -12.154  -6.830  1.00  0.00     0.012 A 
ATOM      4  C   UNL     1     -35.951 -12.179  -8.900  1.00  0.00     0.047 A 
ATOM      5  C   UNL     1     -37.174 -10.975  -7.196  1.00  0.00     0.047 A 
ATOM      6  C   UNL     1     -36.232 -10.983  -8.228  1.00  0.00     0.115 A 
ENDROOT
BRANCH   1   7
ATOM      7  C   UNL     1     -38.272 -14.588  -7.069  1.00  0.00     0.010 C 
ATOM      8  C   UNL     1     -38.006 -15.812  -7.543  1.00  0.00     0.025 C 
BRANCH   8   9
ATOM      9  C   UNL     1     -38.742 -17.006  -7.097  1.00  0.00     0.064 C 
ATOM     10  O   UNL     1     -38.593 -17.467  -5.933  1.00  0.00    -0.545 OA
ATOM     11  O   UNL     1     -39.620 -17.634  -7.971  1.00  0.00    -0.545 OA
ENDBRANCH   8   9
ENDBRANCH   1   7
BRANCH   6  12
ATOM     12  O   UNL     1     -35.587  -9.800  -8.582  1.00  0.00    -0.508 OA
ATOM     13  H   UNL     1     -35.753  -9.354  -9.476  1.00  0.00     0.293 HD
ENDBRANCH   6  12
TORSDOF 3
ENDMDL
MODEL 6
REMARK VINA RESULT:    -4.397      3.800      5.658
REMARK INTER + INTRA:          -5.177
REMARK INTER:                  -5.033
REMARK INTRA:                  -0.144
REMARK UNBOUND:                -0.137
REMARK SMILES O=C([O-])C=Cc1ccc(O)cc1
REMARK SMILES IDX 6 1 7 2 12 3 8 4 11 5 9 6 5 7 4 8 2 9 1 10 3 11 10 12
REMARK H PARENT 10 13
REMARK Flexibility Score: inf
ROOT
ATOM      1  C   UNL     1     -36.502 -12.360  -9.479  1.00  0.00    -0.025 A 
ATOM      2  C   UNL     1     -35.798 -11.268  -8.931  1.00  0.00     0.012 A 
ATOM      3  C   UNL     1     -37.500 -12.978  -8.706  1.00  0.00     0.012 A 
ATOM      4  C   UNL     1     -36.074 -10.827  -7.633  1.00  0.00     0.047 A 
ATOM      5  C   UNL     1     -37.772 -12.535  -7.409  1.00  0.00     0.047 A 
ATOM      6  C   UNL     1     -37.060 -11.462  -6.868  1.00  0.00     0.115 A 
ENDROOT
BRANCH   1   7
ATOM      7  C   UNL     1     -36.256 -12.860 -10.855  1.00  0.00     0.010 C 
ATOM      8  C   UNL     1     -37.220 -13.028 -11.770  1.00  0.00     0.025 C 
BRANCH   8   9
ATOM      9  C   UNL     1     -36.937 -13.516 -13.130  1.00  0.00     0.064 C 
ATOM     10  O   UNL     1     -37.862 -13.681 -13.970  1.00  0.00    -0.545 OA
ATOM     11  O   UNL     1     -35.627 -13.797 -13.496  1.00  0.00    -0.545 OA
ENDBRANCH   8   9
ENDBRANCH   1   7
BRANCH   6  12
ATOM     12  O   UNL     1     -37.342 -11.030  -5.573  1.00  0.00    -0.508 OA
ATOM     13  H   UNL     1     -38.156 -11.363  -5.070  1.00  0.00     0.293 HD
ENDBRANCH   6  12
TORSDOF 3
ENDMDL
MODEL 7
REMARK VINA RESULT:    -4.393      6.446      8.027
REMARK INTER + INTRA:          -5.172
REMARK INTER:                  -5.022
REMARK INTRA:                  -0.150
REMARK UNBOUND:                -0.137
REMARK SMILES O=C([O-])C=Cc1ccc(O)cc1
REMARK SMILES IDX 6 1 7 2 12 3 8 4 11 5 9 6 5 7 4 8 2 9 1 10 3 11 10 12
REMARK H PARENT 10 13
REMARK Flexibility Score: inf
ROOT
ATOM      1  C   UNL     1     -34.734  -9.232  -8.428  1.00  0.00    -0.025 A 
ATOM      2  C   UNL     1     -35.898  -9.609  -7.725  1.00  0.00     0.012 A 
ATOM      3  C   UNL     1     -34.001  -8.120  -7.976  1.00  0.00     0.012 A 
ATOM      4  C   UNL     1     -36.324  -8.873  -6.616  1.00  0.00     0.047 A 
ATOM      5  C   UNL     1     -34.432  -7.387  -6.867  1.00  0.00     0.047 A 
ATOM      6  C   UNL     1     -35.594  -7.758  -6.186  1.00  0.00     0.115 A 
ENDROOT
BRANCH   1   7
ATOM      7  C   UNL     1     -34.231  -9.984  -9.604  1.00  0.00     0.010 C 
ATOM      8  C   UNL     1     -33.408  -9.465 -10.525  1.00  0.00     0.025 C 
BRANCH   8   9
ATOM      9  C   UNL     1     -32.920 -10.246 -11.673  1.00  0.00     0.064 C 
ATOM     10  O   UNL     1     -32.667  -9.694 -12.778  1.00  0.00    -0.545 OA
ATOM     11  O   UNL     1     -32.731 -11.615 -11.537  1.00  0.00    -0.545 OA
ENDBRANCH   8   9
ENDBRANCH   1   7
BRANCH   6  12
ATOM     12  O   UNL     1     -36.012  -7.018  -5.081  1.00  0.00    -0.508 OA
ATOM     13  H   UNL     1     -35.870  -7.353  -4.136  1.00  0.00     0.293 HD
ENDBRANCH   6  12
TORSDOF 3
ENDMDL
MODEL 8
REMARK VINA RESULT:    -4.383      5.831      8.034
REMARK INTER + INTRA:          -5.162
REMARK INTER:                  -5.025
REMARK INTRA:                  -0.136
REMARK UNBOUND:                -0.137
REMARK SMILES O=C([O-])C=Cc1ccc(O)cc1
REMARK SMILES IDX 6 1 7 2 12 3 8 4 11 5 9 6 5 7 4 8 2 9 1 10 3 11 10 12
REMARK H PARENT 10 13
REMARK Flexibility Score: inf
ROOT
ATOM      1  C   UNL     1     -34.506  -7.951  -7.827  1.00  0.00    -0.025 A 
ATOM      2  C   UNL     1     -34.721  -9.275  -8.265  1.00  0.00     0.012 A 
ATOM      3  C   UNL     1     -35.165  -7.507  -6.667  1.00  0.00     0.012 A 
ATOM      4  C   UNL     1     -35.592 -10.118  -7.568  1.00  0.00     0.047 A 
ATOM      5  C   UNL     1     -36.036  -8.353  -5.975  1.00  0.00     0.047 A 
ATOM      6  C   UNL     1     -36.254  -9.658  -6.423  1.00  0.00     0.115 A 
ENDROOT
BRANCH   1   7
ATOM      7  C   UNL     1     -33.584  -7.019  -8.522  1.00  0.00     0.010 C 
ATOM      8  C   UNL     1     -33.295  -7.093  -9.828  1.00  0.00     0.025 C 
BRANCH   8   9
ATOM      9  C   UNL     1     -32.384  -6.142 -10.486  1.00  0.00     0.064 C 
ATOM     10  O   UNL     1     -31.133  -6.289 -10.427  1.00  0.00    -0.545 OA
ATOM     11  O   UNL     1     -32.910  -5.065 -11.188  1.00  0.00    -0.545 OA
ENDBRANCH   8   9
ENDBRANCH   1   7
BRANCH   6  12
ATOM     12  O   UNL     1     -37.124 -10.491  -5.723  1.00  0.00    -0.508 OA
ATOM     13  H   UNL     1     -37.196 -11.479  -5.934  1.00  0.00     0.293 HD
ENDBRANCH   6  12
TORSDOF 3
ENDMDL
MODEL 9
REMARK VINA RESULT:    -4.361      5.293      7.594
REMARK INTER + INTRA:          -5.136
REMARK INTER:                  -4.984
REMARK INTRA:                  -0.152
REMARK UNBOUND:                -0.137
REMARK SMILES O=C([O-])C=Cc1ccc(O)cc1
REMARK SMILES IDX 6 1 7 2 12 3 8 4 11 5 9 6 5 7 4 8 2 9 1 10 3 11 10 12
REMARK H PARENT 10 13
REMARK Flexibility Score: inf
ROOT
ATOM      1  C   UNL     1     -34.848  -9.561  -8.256  1.00  0.00    -0.025 A 
ATOM      2  C   UNL     1     -34.126  -8.377  -7.998  1.00  0.00     0.012 A 
ATOM      3  C   UNL     1     -35.983  -9.845  -7.476  1.00  0.00     0.012 A 
ATOM      4  C   UNL     1     -34.522  -7.516  -6.969  1.00  0.00     0.047 A 
ATOM      5  C   UNL     1     -36.374  -8.983  -6.448  1.00  0.00     0.047 A 
ATOM      6  C   UNL     1     -35.646  -7.819  -6.190  1.00  0.00     0.115 A 
ENDROOT
BRANCH   1   7
ATOM      7  C   UNL     1     -34.478 -10.502  -9.342  1.00  0.00     0.010 C 
ATOM      8  C   UNL     1     -35.263 -11.503  -9.760  1.00  0.00     0.025 C 
BRANCH   8   9
ATOM      9  C   UNL     1     -34.867 -12.411 -10.850  1.00  0.00     0.064 C 
ATOM     10  O   UNL     1     -34.513 -11.964 -11.974  1.00  0.00    -0.545 OA
ATOM     11  O   UNL     1     -34.881 -13.783 -10.636  1.00  0.00    -0.545 OA
ENDBRANCH   8   9
ENDBRANCH   1   7
BRANCH   6  12
ATOM     12  O   UNL     1     -36.048  -6.968  -5.162  1.00  0.00    -0.508 OA
ATOM     13  H   UNL     1     -36.863  -6.374  -5.255  1.00  0.00     0.293 HD
ENDBRANCH   6  12
TORSDOF 3
ENDMDL
