MODEL 1
REMARK VINA RESULT:    -3.749      0.000      0.000
REMARK INTER + INTRA:          -7.894
REMARK INTER:                  -6.817
REMARK INTRA:                  -1.076
REMARK UNBOUND:                -1.076
REMARK SMILES CCCCCCCCCCCCCC[C@@H](C)C(=O)[O-]
REMARK SMILES IDX 9 1 10 2 11 3 12 4 13 5 14 6 15 7 16 8 17 9 18 10 19 11 8 12
REMARK SMILES IDX 7 13 6 14 5 15 4 16 3 17 2 18 1 19
REMARK H PARENT
REMARK Flexibility Score: inf
ROOT
ATOM      1  C   UNL     1      10.175  -5.905   4.185  1.00  0.00     0.000 C 
ENDROOT
BRANCH   1   2
ATOM      2  C   UNL     1      10.995  -6.333   2.958  1.00  0.00     0.000 C 
BRANCH   2   3
ATOM      3  C   UNL     1      12.470  -6.546   3.332  1.00  0.00     0.000 C 
BRANCH   3   4
ATOM      4  C   UNL     1      12.761  -6.225   4.808  1.00  0.00     0.000 C 
BRANCH   4   5
ATOM      5  C   UNL     1      13.931  -5.239   4.976  1.00  0.00     0.001 C 
BRANCH   5   6
ATOM      6  C   UNL     1      14.984  -5.369   3.858  1.00  0.00     0.009 C 
BRANCH   6   7
ATOM      7  C   UNL     1      16.398  -5.740   4.356  1.00  0.00     0.032 C 
ATOM      8  C   UNL     1      16.514  -5.499   5.866  1.00  0.00     0.014 C 
BRANCH   7   9
ATOM      9  C   UNL     1      16.732  -7.174   4.048  1.00  0.00     0.044 C 
ATOM     10  O   UNL     1      17.574  -7.793   4.751  1.00  0.00    -0.550 OA
ATOM     11  O   UNL     1      16.117  -7.827   2.985  1.00  0.00    -0.550 OA
ENDBRANCH   7   9
ENDBRANCH   6   7
ENDBRANCH   5   6
ENDBRANCH   4   5
ENDBRANCH   3   4
ENDBRANCH   2   3
ENDBRANCH   1   2
BRANCH   1  12
ATOM     12  C   UNL     1       8.705  -5.615   3.844  1.00  0.00     0.000 C 
BRANCH  12  13
ATOM     13  C   UNL     1       8.104  -6.649   2.875  1.00  0.00    -0.000 C 
BRANCH  13  14
ATOM     14  C   UNL     1       6.608  -6.906   3.155  1.00  0.00    -0.000 C 
BRANCH  14  15
ATOM     15  C   UNL     1       5.901  -5.732   3.854  1.00  0.00    -0.000 C 
BRANCH  15  16
ATOM     16  C   UNL     1       4.887  -6.192   4.914  1.00  0.00    -0.000 C 
BRANCH  16  17
ATOM     17  C   UNL     1       5.540  -6.522   6.268  1.00  0.00    -0.000 C 
BRANCH  17  18
ATOM     18  C   UNL     1       5.869  -8.010   6.487  1.00  0.00    -0.003 C 
ATOM     19  C   UNL     1       4.825  -8.736   7.335  1.00  0.00     0.004 C 
ENDBRANCH  17  18
ENDBRANCH  16  17
ENDBRANCH  15  16
ENDBRANCH  14  15
ENDBRANCH  13  14
ENDBRANCH  12  13
ENDBRANCH   1  12
TORSDOF 14
ENDMDL
MODEL 2
REMARK VINA RESULT:    -3.479      4.215      9.368
REMARK INTER + INTRA:          -7.403
REMARK INTER:                  -6.421
REMARK INTRA:                  -0.982
REMARK UNBOUND:                -1.076
REMARK SMILES CCCCCCCCCCCCCC[C@@H](C)C(=O)[O-]
REMARK SMILES IDX 9 1 10 2 11 3 12 4 13 5 14 6 15 7 16 8 17 9 18 10 19 11 8 12
REMARK SMILES IDX 7 13 6 14 5 15 4 16 3 17 2 18 1 19
REMARK H PARENT
REMARK Flexibility Score: inf
ROOT
ATOM      1  C   UNL     1      10.816  -6.138   3.202  1.00  0.00     0.000 C 
ENDROOT
BRANCH   1   2
ATOM      2  C   UNL     1       9.917  -5.660   4.352  1.00  0.00     0.000 C 
BRANCH   2   3
ATOM      3  C   UNL     1       8.459  -5.524   3.887  1.00  0.00     0.000 C 
BRANCH   3   4
ATOM      4  C   UNL     1       7.972  -6.748   3.093  1.00  0.00     0.000 C 
BRANCH   4   5
ATOM      5  C   UNL     1       6.779  -7.450   3.766  1.00  0.00     0.001 C 
BRANCH   5   6
ATOM      6  C   UNL     1       6.936  -7.556   5.295  1.00  0.00     0.009 C 
BRANCH   6   7
ATOM      7  C   UNL     1       5.682  -7.139   6.095  1.00  0.00     0.032 C 
ATOM      8  C   UNL     1       4.876  -6.092   5.318  1.00  0.00     0.014 C 
BRANCH   7   9
ATOM      9  C   UNL     1       4.806  -8.323   6.403  1.00  0.00     0.044 C 
ATOM     10  O   UNL     1       4.754  -8.782   7.574  1.00  0.00    -0.550 OA
ATOM     11  O   UNL     1       4.049  -8.918   5.400  1.00  0.00    -0.550 OA
ENDBRANCH   7   9
ENDBRANCH   6   7
ENDBRANCH   5   6
ENDBRANCH   4   5
ENDBRANCH   3   4
ENDBRANCH   2   3
ENDBRANCH   1   2
BRANCH   1  12
ATOM     12  C   UNL     1      12.185  -5.438   3.190  1.00  0.00     0.000 C 
BRANCH  12  13
ATOM     13  C   UNL     1      13.236  -6.174   4.039  1.00  0.00    -0.000 C 
BRANCH  13  14
ATOM     14  C   UNL     1      14.042  -5.207   4.931  1.00  0.00    -0.000 C 
BRANCH  14  15
ATOM     15  C   UNL     1      15.535  -5.563   5.036  1.00  0.00    -0.000 C 
BRANCH  15  16
ATOM     16  C   UNL     1      16.168  -5.888   3.673  1.00  0.00    -0.000 C 
BRANCH  16  17
ATOM     17  C   UNL     1      16.808  -7.287   3.627  1.00  0.00    -0.000 C 
BRANCH  17  18
ATOM     18  C   UNL     1      17.374  -7.790   4.968  1.00  0.00    -0.003 C 
ATOM     19  C   UNL     1      17.435  -9.315   5.059  1.00  0.00     0.004 C 
ENDBRANCH  17  18
ENDBRANCH  16  17
ENDBRANCH  15  16
ENDBRANCH  14  15
ENDBRANCH  13  14
ENDBRANCH  12  13
ENDBRANCH   1  12
TORSDOF 14
ENDMDL
MODEL 3
REMARK VINA RESULT:    -3.434      1.248      2.236
REMARK INTER + INTRA:          -7.321
REMARK INTER:                  -6.411
REMARK INTRA:                  -0.911
REMARK UNBOUND:                -1.076
REMARK SMILES CCCCCCCCCCCCCC[C@@H](C)C(=O)[O-]
REMARK SMILES IDX 9 1 10 2 11 3 12 4 13 5 14 6 15 7 16 8 17 9 18 10 19 11 8 12
REMARK SMILES IDX 7 13 6 14 5 15 4 16 3 17 2 18 1 19
REMARK H PARENT
REMARK Flexibility Score: inf
ROOT
ATOM      1  C   UNL     1       9.338  -5.176   3.439  1.00  0.00     0.000 C 
ENDROOT
BRANCH   1   2
ATOM      2  C   UNL     1      10.827  -5.481   3.217  1.00  0.00     0.000 C 
BRANCH   2   3
ATOM      3  C   UNL     1      11.472  -6.022   4.503  1.00  0.00     0.000 C 
BRANCH   3   4
ATOM      4  C   UNL     1      12.891  -6.568   4.272  1.00  0.00     0.000 C 
BRANCH   4   5
ATOM      5  C   UNL     1      13.968  -5.475   4.391  1.00  0.00     0.001 C 
BRANCH   5   6
ATOM      6  C   UNL     1      15.273  -5.844   3.659  1.00  0.00     0.009 C 
BRANCH   6   7
ATOM      7  C   UNL     1      16.533  -5.824   4.554  1.00  0.00     0.032 C 
ATOM      8  C   UNL     1      16.148  -5.551   6.012  1.00  0.00     0.014 C 
BRANCH   7   9
ATOM      9  C   UNL     1      17.292  -7.119   4.465  1.00  0.00     0.044 C 
ATOM     10  O   UNL     1      17.733  -7.519   3.355  1.00  0.00    -0.550 OA
ATOM     11  O   UNL     1      17.513  -7.884   5.605  1.00  0.00    -0.550 OA
ENDBRANCH   7   9
ENDBRANCH   6   7
ENDBRANCH   5   6
ENDBRANCH   4   5
ENDBRANCH   3   4
ENDBRANCH   2   3
ENDBRANCH   1   2
BRANCH   1  12
ATOM     12  C   UNL     1       8.746  -5.948   4.629  1.00  0.00     0.000 C 
BRANCH  12  13
ATOM     13  C   UNL     1       7.338  -6.499   4.339  1.00  0.00    -0.000 C 
BRANCH  13  14
ATOM     14  C   UNL     1       6.626  -6.975   5.623  1.00  0.00    -0.000 C 
BRANCH  14  15
ATOM     15  C   UNL     1       5.243  -7.597   5.366  1.00  0.00    -0.000 C 
BRANCH  15  16
ATOM     16  C   UNL     1       4.665  -7.221   3.992  1.00  0.00    -0.000 C 
BRANCH  16  17
ATOM     17  C   UNL     1       3.435  -6.301   4.089  1.00  0.00    -0.000 C 
BRANCH  17  18
ATOM     18  C   UNL     1       3.716  -4.808   3.842  1.00  0.00    -0.003 C 
ATOM     19  C   UNL     1       3.862  -4.004   5.134  1.00  0.00     0.004 C 
ENDBRANCH  17  18
ENDBRANCH  16  17
ENDBRANCH  15  16
ENDBRANCH  14  15
ENDBRANCH  13  14
ENDBRANCH  12  13
ENDBRANCH   1  12
TORSDOF 14
ENDMDL
MODEL 4
REMARK VINA RESULT:    -3.409      1.314      2.305
REMARK INTER + INTRA:          -7.275
REMARK INTER:                  -6.347
REMARK INTRA:                  -0.928
REMARK UNBOUND:                -1.076
REMARK SMILES CCCCCCCCCCCCCC[C@@H](C)C(=O)[O-]
REMARK SMILES IDX 9 1 10 2 11 3 12 4 13 5 14 6 15 7 16 8 17 9 18 10 19 11 8 12
REMARK SMILES IDX 7 13 6 14 5 15 4 16 3 17 2 18 1 19
REMARK H PARENT
REMARK Flexibility Score: inf
ROOT
ATOM      1  C   UNL     1      11.451  -6.031   4.425  1.00  0.00     0.000 C 
ENDROOT
BRANCH   1   2
ATOM      2  C   UNL     1      12.887  -6.558   4.277  1.00  0.00     0.000 C 
BRANCH   2   3
ATOM      3  C   UNL     1      13.895  -5.399   4.244  1.00  0.00     0.000 C 
BRANCH   3   4
ATOM      4  C   UNL     1      14.658  -5.237   5.570  1.00  0.00     0.000 C 
BRANCH   4   5
ATOM      5  C   UNL     1      16.153  -5.573   5.433  1.00  0.00     0.001 C 
BRANCH   5   6
ATOM      6  C   UNL     1      16.474  -6.349   4.140  1.00  0.00     0.009 C 
BRANCH   6   7
ATOM      7  C   UNL     1      17.375  -7.586   4.346  1.00  0.00     0.032 C 
ATOM      8  C   UNL     1      17.619  -7.826   5.841  1.00  0.00     0.014 C 
BRANCH   7   9
ATOM      9  C   UNL     1      16.771  -8.817   3.730  1.00  0.00     0.044 C 
ATOM     10  O   UNL     1      17.512  -9.755   3.333  1.00  0.00    -0.550 OA
ATOM     11  O   UNL     1      15.392  -8.931   3.592  1.00  0.00    -0.550 OA
ENDBRANCH   7   9
ENDBRANCH   6   7
ENDBRANCH   5   6
ENDBRANCH   4   5
ENDBRANCH   3   4
ENDBRANCH   2   3
ENDBRANCH   1   2
BRANCH   1  12
ATOM     12  C   UNL     1      10.930  -5.364   3.142  1.00  0.00     0.000 C 
BRANCH  12  13
ATOM     13  C   UNL     1       9.434  -5.010   3.222  1.00  0.00    -0.000 C 
BRANCH  13  14
ATOM     14  C   UNL     1       8.752  -5.645   4.452  1.00  0.00    -0.000 C 
BRANCH  14  15
ATOM     15  C   UNL     1       7.459  -6.408   4.114  1.00  0.00    -0.000 C 
BRANCH  15  16
ATOM     16  C   UNL     1       6.870  -7.148   5.326  1.00  0.00    -0.000 C 
BRANCH  16  17
ATOM     17  C   UNL     1       5.550  -6.530   5.823  1.00  0.00    -0.000 C 
BRANCH  17  18
ATOM     18  C   UNL     1       4.892  -5.532   4.854  1.00  0.00    -0.003 C 
ATOM     19  C   UNL     1       3.633  -6.086   4.187  1.00  0.00     0.004 C 
ENDBRANCH  17  18
ENDBRANCH  16  17
ENDBRANCH  15  16
ENDBRANCH  14  15
ENDBRANCH  13  14
ENDBRANCH  12  13
ENDBRANCH   1  12
TORSDOF 14
ENDMDL
MODEL 5
REMARK VINA RESULT:    -3.397      1.652      3.413
REMARK INTER + INTRA:          -7.254
REMARK INTER:                  -5.974
REMARK INTRA:                  -1.280
REMARK UNBOUND:                -1.076
REMARK SMILES CCCCCCCCCCCCCC[C@@H](C)C(=O)[O-]
REMARK SMILES IDX 9 1 10 2 11 3 12 4 13 5 14 6 15 7 16 8 17 9 18 10 19 11 8 12
REMARK SMILES IDX 7 13 6 14 5 15 4 16 3 17 2 18 1 19
REMARK H PARENT
REMARK Flexibility Score: inf
ROOT
ATOM      1  C   UNL     1       6.732  -6.454   5.071  1.00  0.00     0.000 C 
ENDROOT
BRANCH   1   2
ATOM      2  C   UNL     1       7.850  -6.334   4.024  1.00  0.00     0.000 C 
BRANCH   2   3
ATOM      3  C   UNL     1       9.086  -5.643   4.620  1.00  0.00     0.000 C 
BRANCH   3   4
ATOM      4  C   UNL     1      10.297  -5.671   3.672  1.00  0.00     0.000 C 
BRANCH   4   5
ATOM      5  C   UNL     1      11.599  -6.063   4.392  1.00  0.00     0.001 C 
BRANCH   5   6
ATOM      6  C   UNL     1      12.631  -6.709   3.447  1.00  0.00     0.009 C 
BRANCH   6   7
ATOM      7  C   UNL     1      14.029  -6.054   3.487  1.00  0.00     0.032 C 
ATOM      8  C   UNL     1      14.224  -5.289   4.802  1.00  0.00     0.014 C 
BRANCH   7   9
ATOM      9  C   UNL     1      15.122  -7.076   3.331  1.00  0.00     0.044 C 
ATOM     10  O   UNL     1      16.292  -6.711   3.044  1.00  0.00    -0.550 OA
ATOM     11  O   UNL     1      14.849  -8.428   3.502  1.00  0.00    -0.550 OA
ENDBRANCH   7   9
ENDBRANCH   6   7
ENDBRANCH   5   6
ENDBRANCH   4   5
ENDBRANCH   3   4
ENDBRANCH   2   3
ENDBRANCH   1   2
BRANCH   1  12
ATOM     12  C   UNL     1       6.538  -7.895   5.568  1.00  0.00     0.000 C 
BRANCH  12  13
ATOM     13  C   UNL     1       5.405  -8.020   6.603  1.00  0.00    -0.000 C 
BRANCH  13  14
ATOM     14  C   UNL     1       4.205  -8.821   6.055  1.00  0.00    -0.000 C 
BRANCH  14  15
ATOM     15  C   UNL     1       4.459  -9.442   4.670  1.00  0.00    -0.000 C 
BRANCH  15  16
ATOM     16  C   UNL     1       3.515  -8.893   3.588  1.00  0.00    -0.000 C 
BRANCH  16  17
ATOM     17  C   UNL     1       2.863  -7.555   3.982  1.00  0.00    -0.000 C 
BRANCH  17  18
ATOM     18  C   UNL     1       3.534  -6.304   3.387  1.00  0.00    -0.003 C 
ATOM     19  C   UNL     1       3.352  -5.057   4.254  1.00  0.00     0.004 C 
ENDBRANCH  17  18
ENDBRANCH  16  17
ENDBRANCH  15  16
ENDBRANCH  14  15
ENDBRANCH  13  14
ENDBRANCH  12  13
ENDBRANCH   1  12
TORSDOF 14
ENDMDL
MODEL 6
REMARK VINA RESULT:    -3.208      1.295      1.922
REMARK INTER + INTRA:          -6.910
REMARK INTER:                  -6.030
REMARK INTRA:                  -0.881
REMARK UNBOUND:                -1.076
REMARK SMILES CCCCCCCCCCCCCC[C@@H](C)C(=O)[O-]
REMARK SMILES IDX 9 1 10 2 11 3 12 4 13 5 14 6 15 7 16 8 17 9 18 10 19 11 8 12
REMARK SMILES IDX 7 13 6 14 5 15 4 16 3 17 2 18 1 19
REMARK H PARENT
REMARK Flexibility Score: inf
ROOT
ATOM      1  C   UNL     1      10.934  -6.025   4.854  1.00  0.00     0.000 C 
ENDROOT
BRANCH   1   2
ATOM      2  C   UNL     1      12.415  -6.428   4.791  1.00  0.00     0.000 C 
BRANCH   2   3
ATOM      3  C   UNL     1      12.764  -7.020   3.417  1.00  0.00     0.000 C 
BRANCH   3   4
ATOM      4  C   UNL     1      14.240  -6.817   3.039  1.00  0.00     0.000 C 
BRANCH   4   5
ATOM      5  C   UNL     1      14.771  -5.435   3.459  1.00  0.00     0.001 C 
BRANCH   5   6
ATOM      6  C   UNL     1      16.303  -5.409   3.620  1.00  0.00     0.009 C 
BRANCH   6   7
ATOM      7  C   UNL     1      16.927  -6.770   3.998  1.00  0.00     0.032 C 
ATOM      8  C   UNL     1      18.229  -6.995   3.221  1.00  0.00     0.014 C 
BRANCH   7   9
ATOM      9  C   UNL     1      17.197  -6.862   5.474  1.00  0.00     0.044 C 
ATOM     10  O   UNL     1      16.907  -5.899   6.231  1.00  0.00    -0.550 OA
ATOM     11  O   UNL     1      17.768  -8.009   6.015  1.00  0.00    -0.550 OA
ENDBRANCH   7   9
ENDBRANCH   6   7
ENDBRANCH   5   6
ENDBRANCH   4   5
ENDBRANCH   3   4
ENDBRANCH   2   3
ENDBRANCH   1   2
BRANCH   1  12
ATOM     12  C   UNL     1      10.387  -5.565   3.492  1.00  0.00     0.000 C 
BRANCH  12  13
ATOM     13  C   UNL     1       8.951  -5.020   3.582  1.00  0.00    -0.000 C 
BRANCH  13  14
ATOM     14  C   UNL     1       7.899  -6.095   3.234  1.00  0.00    -0.000 C 
BRANCH  14  15
ATOM     15  C   UNL     1       6.959  -6.439   4.402  1.00  0.00    -0.000 C 
BRANCH  15  16
ATOM     16  C   UNL     1       5.583  -6.940   3.932  1.00  0.00    -0.000 C 
BRANCH  16  17
ATOM     17  C   UNL     1       4.569  -7.075   5.082  1.00  0.00    -0.000 C 
BRANCH  17  18
ATOM     18  C   UNL     1       4.439  -8.490   5.674  1.00  0.00    -0.003 C 
ATOM     19  C   UNL     1       5.028  -8.609   7.080  1.00  0.00     0.004 C 
ENDBRANCH  17  18
ENDBRANCH  16  17
ENDBRANCH  15  16
ENDBRANCH  14  15
ENDBRANCH  13  14
ENDBRANCH  12  13
ENDBRANCH   1  12
TORSDOF 14
ENDMDL
MODEL 7
REMARK VINA RESULT:    -2.912      4.251      9.576
REMARK INTER + INTRA:          -6.372
REMARK INTER:                  -5.399
REMARK INTRA:                  -0.973
REMARK UNBOUND:                -1.076
REMARK SMILES CCCCCCCCCCCCCC[C@@H](C)C(=O)[O-]
REMARK SMILES IDX 9 1 10 2 11 3 12 4 13 5 14 6 15 7 16 8 17 9 18 10 19 11 8 12
REMARK SMILES IDX 7 13 6 14 5 15 4 16 3 17 2 18 1 19
REMARK H PARENT
REMARK Flexibility Score: inf
ROOT
ATOM      1  C   UNL     1       8.681  -5.200   2.913  1.00  0.00     0.000 C 
ENDROOT
BRANCH   1   2
ATOM      2  C   UNL     1       8.016  -6.109   3.958  1.00  0.00     0.000 C 
BRANCH   2   3
ATOM      3  C   UNL     1       7.452  -7.378   3.300  1.00  0.00     0.000 C 
BRANCH   3   4
ATOM      4  C   UNL     1       5.924  -7.331   3.132  1.00  0.00     0.000 C 
BRANCH   4   5
ATOM      5  C   UNL     1       5.188  -7.180   4.475  1.00  0.00     0.001 C 
BRANCH   5   6
ATOM      6  C   UNL     1       3.685  -6.884   4.300  1.00  0.00     0.009 C 
BRANCH   6   7
ATOM      7  C   UNL     1       3.378  -5.560   3.568  1.00  0.00     0.032 C 
ATOM      8  C   UNL     1       1.880  -5.242   3.644  1.00  0.00     0.014 C 
BRANCH   7   9
ATOM      9  C   UNL     1       4.166  -4.415   4.143  1.00  0.00     0.044 C 
ATOM     10  O   UNL     1       3.901  -3.981   5.295  1.00  0.00    -0.550 OA
ATOM     11  O   UNL     1       5.192  -3.829   3.411  1.00  0.00    -0.550 OA
ENDBRANCH   7   9
ENDBRANCH   6   7
ENDBRANCH   5   6
ENDBRANCH   4   5
ENDBRANCH   3   4
ENDBRANCH   2   3
ENDBRANCH   1   2
BRANCH   1  12
ATOM     12  C   UNL     1      10.205  -5.106   3.093  1.00  0.00     0.000 C 
BRANCH  12  13
ATOM     13  C   UNL     1      10.723  -5.995   4.238  1.00  0.00    -0.000 C 
BRANCH  13  14
ATOM     14  C   UNL     1      12.265  -6.037   4.286  1.00  0.00    -0.000 C 
BRANCH  14  15
ATOM     15  C   UNL     1      12.939  -5.343   3.090  1.00  0.00    -0.000 C 
BRANCH  15  16
ATOM     16  C   UNL     1      14.389  -4.925   3.382  1.00  0.00    -0.000 C 
BRANCH  16  17
ATOM     17  C   UNL     1      15.278  -6.104   3.818  1.00  0.00    -0.000 C 
BRANCH  17  18
ATOM     18  C   UNL     1      16.441  -5.732   4.754  1.00  0.00    -0.003 C 
ATOM     19  C   UNL     1      15.987  -5.414   6.179  1.00  0.00     0.004 C 
ENDBRANCH  17  18
ENDBRANCH  16  17
ENDBRANCH  15  16
ENDBRANCH  14  15
ENDBRANCH  13  14
ENDBRANCH  12  13
ENDBRANCH   1  12
TORSDOF 14
ENDMDL
MODEL 8
REMARK VINA RESULT:    -2.871      1.418      2.636
REMARK INTER + INTRA:          -6.297
REMARK INTER:                  -5.501
REMARK INTRA:                  -0.797
REMARK UNBOUND:                -1.076
REMARK SMILES CCCCCCCCCCCCCC[C@@H](C)C(=O)[O-]
REMARK SMILES IDX 9 1 10 2 11 3 12 4 13 5 14 6 15 7 16 8 17 9 18 10 19 11 8 12
REMARK SMILES IDX 7 13 6 14 5 15 4 16 3 17 2 18 1 19
REMARK H PARENT
REMARK Flexibility Score: inf
ROOT
ATOM      1  C   UNL     1      12.387  -6.014   4.941  1.00  0.00     0.000 C 
ENDROOT
BRANCH   1   2
ATOM      2  C   UNL     1      13.865  -5.623   4.783  1.00  0.00     0.000 C 
BRANCH   2   3
ATOM      3  C   UNL     1      14.224  -5.428   3.302  1.00  0.00     0.000 C 
BRANCH   3   4
ATOM      4  C   UNL     1      15.452  -6.249   2.875  1.00  0.00     0.000 C 
BRANCH   4   5
ATOM      5  C   UNL     1      16.623  -6.116   3.866  1.00  0.00     0.001 C 
BRANCH   5   6
ATOM      6  C   UNL     1      17.753  -7.127   3.591  1.00  0.00     0.009 C 
BRANCH   6   7
ATOM      7  C   UNL     1      17.842  -8.276   4.619  1.00  0.00     0.032 C 
ATOM      8  C   UNL     1      17.394  -7.792   6.002  1.00  0.00     0.014 C 
BRANCH   7   9
ATOM      9  C   UNL     1      17.007  -9.456   4.202  1.00  0.00     0.044 C 
ATOM     10  O   UNL     1      16.318 -10.076   5.054  1.00  0.00    -0.550 OA
ATOM     11  O   UNL     1      16.990  -9.871   2.875  1.00  0.00    -0.550 OA
ENDBRANCH   7   9
ENDBRANCH   6   7
ENDBRANCH   5   6
ENDBRANCH   4   5
ENDBRANCH   3   4
ENDBRANCH   2   3
ENDBRANCH   1   2
BRANCH   1  12
ATOM     12  C   UNL     1      11.715  -6.342   3.598  1.00  0.00     0.000 C 
BRANCH  12  13
ATOM     13  C   UNL     1      10.792  -5.214   3.105  1.00  0.00    -0.000 C 
BRANCH  13  14
ATOM     14  C   UNL     1       9.326  -5.680   2.973  1.00  0.00    -0.000 C 
BRANCH  14  15
ATOM     15  C   UNL     1       8.715  -6.177   4.295  1.00  0.00    -0.000 C 
BRANCH  15  16
ATOM     16  C   UNL     1       7.307  -6.767   4.116  1.00  0.00    -0.000 C 
BRANCH  16  17
ATOM     17  C   UNL     1       6.348  -6.389   5.260  1.00  0.00    -0.000 C 
BRANCH  17  18
ATOM     18  C   UNL     1       6.035  -7.525   6.251  1.00  0.00    -0.003 C 
ATOM     19  C   UNL     1       4.791  -8.327   5.869  1.00  0.00     0.004 C 
ENDBRANCH  17  18
ENDBRANCH  16  17
ENDBRANCH  15  16
ENDBRANCH  14  15
ENDBRANCH  13  14
ENDBRANCH  12  13
ENDBRANCH   1  12
TORSDOF 14
ENDMDL
