MODEL 1
REMARK VINA RESULT:    -6.725      0.000      0.000
REMARK INTER + INTRA:          -7.544
REMARK INTER:                  -7.315
REMARK INTRA:                  -0.230
REMARK UNBOUND:                -0.230
REMARK SMILES C[C@@H]1[C@@H](C)CC[C@@]2(C(=O)[O-])CC[C@@]3(C)C(=CC[C@H]4[C@]5(C)CC[C@H](O)C(C)(C)[C@H]5CC[C@@]43C)[C@@H]12
REMARK SMILES IDX 7 1 6 2 11 3 33 4 5 5 12 6 15 7 2 8 3 9 13 10 16 11 1 12
REMARK SMILES IDX 4 13 14 14 31 15 17 16 18 17 30 18 32 19 19 20 29 21 28 22
REMARK SMILES IDX 21 23 20 24 25 25 22 26 23 27 26 28 27 29 8 30 9 31 10 32
REMARK SMILES IDX 24 33
REMARK H PARENT 24 34
REMARK Flexibility Score: inf
ROOT
ATOM      1  C   UNL     1      45.151  30.571  90.239  1.00  0.00     0.017 C 
ATOM      2  C   UNL     1      46.369  31.508  89.988  1.00  0.00     0.014 C 
ATOM      3  C   UNL     1      43.844  31.399  90.023  1.00  0.00     0.014 C 
ATOM      4  C   UNL     1      45.241  29.294  89.306  1.00  0.00     0.030 C 
ATOM      5  C   UNL     1      47.673  30.711  89.901  1.00  0.00     0.004 C 
ATOM      6  C   UNL     1      43.227  31.266  88.619  1.00  0.00     0.013 C 
ATOM      7  C   UNL     1      43.847  28.824  88.845  1.00  0.00    -0.063 C 
ATOM      8  C   UNL     1      46.268  29.433  88.132  1.00  0.00    -0.003 C 
ATOM      9  C   UNL     1      47.701  29.794  88.654  1.00  0.00    -0.011 C 
ATOM     10  C   UNL     1      42.854  29.801  88.183  1.00  0.00    -0.006 C 
ATOM     11  C   UNL     1      43.533  27.523  89.025  1.00  0.00    -0.027 C 
ATOM     12  C   UNL     1      46.321  28.138  87.289  1.00  0.00     0.008 C 
ATOM     13  C   UNL     1      48.551  30.450  87.548  1.00  0.00     0.008 C 
ATOM     14  C   UNL     1      43.108  29.744  86.639  1.00  0.00     0.017 C 
ATOM     15  C   UNL     1      41.327  29.384  88.548  1.00  0.00    -0.020 C 
ATOM     16  C   UNL     1      42.149  26.945  88.923  1.00  0.00     0.032 C 
ATOM     17  C   UNL     1      41.119  27.848  88.203  1.00  0.00     0.006 C 
ATOM     18  C   UNL     1      40.283  30.228  87.737  1.00  0.00     0.008 C 
ATOM     19  C   UNL     1      41.064  29.650  90.055  1.00  0.00     0.012 C 
ATOM     20  C   UNL     1      39.623  27.285  88.221  1.00  0.00    -0.025 C 
ATOM     21  C   UNL     1      38.839  29.710  87.831  1.00  0.00     0.005 C 
ATOM     22  C   UNL     1      38.755  28.248  87.323  1.00  0.00     0.003 C 
ATOM     23  C   UNL     1      39.612  25.872  87.548  1.00  0.00     0.010 C 
ATOM     24  C   UNL     1      39.060  27.133  89.676  1.00  0.00     0.012 C 
ATOM     25  C   UNL     1      37.305  27.741  86.951  1.00  0.00    -0.006 C 
ATOM     26  C   UNL     1      38.207  25.340  87.217  1.00  0.00     0.033 C 
ATOM     27  C   UNL     1      37.407  26.308  86.333  1.00  0.00     0.120 C 
ATOM     28  C   UNL     1      36.672  28.670  85.876  1.00  0.00     0.014 C 
ATOM     29  C   UNL     1      36.324  27.734  88.151  1.00  0.00     0.014 C 
ENDROOT
BRANCH   1  30
ATOM     30  C   UNL     1      45.147  30.112  91.698  1.00  0.00     0.048 C 
ATOM     31  O   UNL     1      45.621  28.984  92.003  1.00  0.00    -0.550 OA
ATOM     32  O   UNL     1      44.551  30.876  92.697  1.00  0.00    -0.550 OA
ENDBRANCH   1  30
BRANCH  27  33
ATOM     33  O   UNL     1      38.009  26.370  85.062  1.00  0.00    -0.393 OA
ATOM     34  H   UNL     1      38.905  25.948  85.143  1.00  0.00     0.210 HD
ENDBRANCH  27  33
TORSDOF 2
ENDMDL
MODEL 2
REMARK VINA RESULT:    -6.444      2.609      8.641
REMARK INTER + INTRA:          -7.239
REMARK INTER:                  -7.029
REMARK INTRA:                  -0.211
REMARK UNBOUND:                -0.230
REMARK SMILES C[C@@H]1[C@@H](C)CC[C@@]2(C(=O)[O-])CC[C@@]3(C)C(=CC[C@H]4[C@]5(C)CC[C@H](O)C(C)(C)[C@H]5CC[C@@]43C)[C@@H]12
REMARK SMILES IDX 7 1 6 2 11 3 33 4 5 5 12 6 15 7 2 8 3 9 13 10 16 11 1 12
REMARK SMILES IDX 4 13 14 14 31 15 17 16 18 17 30 18 32 19 19 20 29 21 28 22
REMARK SMILES IDX 21 23 20 24 25 25 22 26 23 27 26 28 27 29 8 30 9 31 10 32
REMARK SMILES IDX 24 33
REMARK H PARENT 24 34
REMARK Flexibility Score: inf
ROOT
ATOM      1  C   UNL     1      42.938  28.558  90.430  1.00  0.00     0.017 C 
ATOM      2  C   UNL     1      41.585  27.837  90.153  1.00  0.00     0.014 C 
ATOM      3  C   UNL     1      44.096  27.543  90.165  1.00  0.00     0.014 C 
ATOM      4  C   UNL     1      43.048  29.873  89.554  1.00  0.00     0.030 C 
ATOM      5  C   UNL     1      40.424  28.833  90.115  1.00  0.00     0.004 C 
ATOM      6  C   UNL     1      44.721  27.639  88.761  1.00  0.00     0.013 C 
ATOM      7  C   UNL     1      44.497  30.136  89.098  1.00  0.00    -0.063 C 
ATOM      8  C   UNL     1      42.006  29.949  88.386  1.00  0.00    -0.003 C 
ATOM      9  C   UNL     1      40.537  29.797  88.908  1.00  0.00    -0.011 C 
ATOM     10  C   UNL     1      45.320  29.044  88.384  1.00  0.00    -0.006 C 
ATOM     11  C   UNL     1      45.014  31.362  89.330  1.00  0.00    -0.027 C 
ATOM     12  C   UNL     1      42.156  31.272  87.600  1.00  0.00     0.008 C 
ATOM     13  C   UNL     1      39.589  29.332  87.785  1.00  0.00     0.008 C 
ATOM     14  C   UNL     1      45.072  29.208  86.847  1.00  0.00     0.017 C 
ATOM     15  C   UNL     1      46.895  29.198  88.749  1.00  0.00    -0.020 C 
ATOM     16  C   UNL     1      46.471  31.717  89.237  1.00  0.00     0.032 C 
ATOM     17  C   UNL     1      47.342  30.695  88.468  1.00  0.00     0.006 C 
ATOM     18  C   UNL     1      47.789  28.236  87.892  1.00  0.00     0.008 C 
ATOM     19  C   UNL     1      47.119  28.827  90.241  1.00  0.00     0.012 C 
ATOM     20  C   UNL     1      48.909  31.013  88.494  1.00  0.00    -0.025 C 
ATOM     21  C   UNL     1      49.297  28.515  87.992  1.00  0.00     0.005 C 
ATOM     22  C   UNL     1      49.609  29.966  87.546  1.00  0.00     0.003 C 
ATOM     23  C   UNL     1      49.140  32.435  87.882  1.00  0.00     0.010 C 
ATOM     24  C   UNL     1      49.494  31.010  89.948  1.00  0.00     0.012 C 
ATOM     25  C   UNL     1      51.120  30.253  87.180  1.00  0.00    -0.006 C 
ATOM     26  C   UNL     1      50.610  32.752  87.559  1.00  0.00     0.033 C 
ATOM     27  C   UNL     1      51.243  31.710  86.625  1.00  0.00     0.120 C 
ATOM     28  C   UNL     1      51.593  29.284  86.059  1.00  0.00     0.014 C 
ATOM     29  C   UNL     1      52.094  30.051  88.368  1.00  0.00     0.014 C 
ENDROOT
BRANCH   1  30
ATOM     30  C   UNL     1      43.020  28.945  91.908  1.00  0.00     0.048 C 
ATOM     31  O   UNL     1      42.645  28.128  92.793  1.00  0.00    -0.550 OA
ATOM     32  O   UNL     1      43.419  30.218  92.303  1.00  0.00    -0.550 OA
ENDBRANCH   1  30
BRANCH  27  33
ATOM     33  O   UNL     1      50.634  31.800  85.359  1.00  0.00    -0.393 OA
ATOM     34  H   UNL     1      50.182  32.683  85.315  1.00  0.00     0.210 HD
ENDBRANCH  27  33
TORSDOF 2
ENDMDL
MODEL 3
REMARK VINA RESULT:    -6.328      1.641      2.081
REMARK INTER + INTRA:          -7.112
REMARK INTER:                  -6.852
REMARK INTRA:                  -0.260
REMARK UNBOUND:                -0.230
REMARK SMILES C[C@@H]1[C@@H](C)CC[C@@]2(C(=O)[O-])CC[C@@]3(C)C(=CC[C@H]4[C@]5(C)CC[C@H](O)C(C)(C)[C@H]5CC[C@@]43C)[C@@H]12
REMARK SMILES IDX 7 1 6 2 11 3 33 4 5 5 12 6 15 7 2 8 3 9 13 10 16 11 1 12
REMARK SMILES IDX 4 13 14 14 31 15 17 16 18 17 30 18 32 19 19 20 29 21 28 22
REMARK SMILES IDX 21 23 20 24 25 25 22 26 23 27 26 28 27 29 8 30 9 31 10 32
REMARK SMILES IDX 24 33
REMARK H PARENT 24 34
REMARK Flexibility Score: inf
ROOT
ATOM      1  C   UNL     1      43.799  29.282  90.637  1.00  0.00     0.017 C 
ATOM      2  C   UNL     1      44.728  30.382  91.231  1.00  0.00     0.014 C 
ATOM      3  C   UNL     1      42.317  29.735  90.832  1.00  0.00     0.014 C 
ATOM      4  C   UNL     1      44.174  29.007  89.123  1.00  0.00     0.030 C 
ATOM      5  C   UNL     1      46.187  30.152  90.831  1.00  0.00     0.004 C 
ATOM      6  C   UNL     1      41.698  30.439  89.611  1.00  0.00     0.013 C 
ATOM      7  C   UNL     1      42.928  28.676  88.278  1.00  0.00    -0.063 C 
ATOM      8  C   UNL     1      45.084  30.109  88.482  1.00  0.00    -0.003 C 
ATOM      9  C   UNL     1      46.398  30.330  89.308  1.00  0.00    -0.011 C 
ATOM     10  C   UNL     1      41.693  29.600  88.280  1.00  0.00    -0.006 C 
ATOM     11  C   UNL     1      42.963  27.557  87.521  1.00  0.00    -0.027 C 
ATOM     12  C   UNL     1      45.431  29.754  87.018  1.00  0.00     0.008 C 
ATOM     13  C   UNL     1      47.007  31.718  89.029  1.00  0.00     0.008 C 
ATOM     14  C   UNL     1      41.891  30.640  87.126  1.00  0.00     0.017 C 
ATOM     15  C   UNL     1      40.339  28.729  88.066  1.00  0.00    -0.020 C 
ATOM     16  C   UNL     1      41.770  26.913  86.875  1.00  0.00     0.032 C 
ATOM     17  C   UNL     1      40.515  27.815  86.781  1.00  0.00     0.006 C 
ATOM     18  C   UNL     1      39.083  29.646  87.864  1.00  0.00     0.008 C 
ATOM     19  C   UNL     1      40.077  27.861  89.328  1.00  0.00     0.012 C 
ATOM     20  C   UNL     1      39.214  27.077  86.218  1.00  0.00    -0.025 C 
ATOM     21  C   UNL     1      37.823  28.901  87.394  1.00  0.00     0.005 C 
ATOM     22  C   UNL     1      38.094  28.174  86.052  1.00  0.00     0.003 C 
ATOM     23  C   UNL     1      39.536  26.511  84.795  1.00  0.00     0.010 C 
ATOM     24  C   UNL     1      38.768  25.879  87.125  1.00  0.00     0.012 C 
ATOM     25  C   UNL     1      36.807  27.745  85.241  1.00  0.00    -0.006 C 
ATOM     26  C   UNL     1      38.301  26.046  84.004  1.00  0.00     0.033 C 
ATOM     27  C   UNL     1      37.246  27.152  83.862  1.00  0.00     0.120 C 
ATOM     28  C   UNL     1      35.915  28.987  84.954  1.00  0.00     0.014 C 
ATOM     29  C   UNL     1      35.909  26.731  85.995  1.00  0.00     0.014 C 
ENDROOT
BRANCH   1  30
ATOM     30  C   UNL     1      43.971  27.983  91.428  1.00  0.00     0.048 C 
ATOM     31  O   UNL     1      44.510  26.982  90.881  1.00  0.00    -0.550 OA
ATOM     32  O   UNL     1      43.467  27.847  92.718  1.00  0.00    -0.550 OA
ENDBRANCH   1  30
BRANCH  27  33
ATOM     33  O   UNL     1      37.760  28.172  83.038  1.00  0.00    -0.393 OA
ATOM     34  H   UNL     1      37.008  28.503  82.481  1.00  0.00     0.210 HD
ENDBRANCH  27  33
TORSDOF 2
ENDMDL
MODEL 4
REMARK VINA RESULT:    -6.110      4.616      8.165
REMARK INTER + INTRA:          -6.876
REMARK INTER:                  -6.720
REMARK INTRA:                  -0.156
REMARK UNBOUND:                -0.230
REMARK SMILES C[C@@H]1[C@@H](C)CC[C@@]2(C(=O)[O-])CC[C@@]3(C)C(=CC[C@H]4[C@]5(C)CC[C@H](O)C(C)(C)[C@H]5CC[C@@]43C)[C@@H]12
REMARK SMILES IDX 7 1 6 2 11 3 33 4 5 5 12 6 15 7 2 8 3 9 13 10 16 11 1 12
REMARK SMILES IDX 4 13 14 14 31 15 17 16 18 17 30 18 32 19 19 20 29 21 28 22
REMARK SMILES IDX 21 23 20 24 25 25 22 26 23 27 26 28 27 29 8 30 9 31 10 32
REMARK SMILES IDX 24 33
REMARK H PARENT 24 34
REMARK Flexibility Score: inf
ROOT
ATOM      1  C   UNL     1      50.776  34.088  85.751  1.00  0.00     0.017 C 
ATOM      2  C   UNL     1      51.449  34.511  84.411  1.00  0.00     0.014 C 
ATOM      3  C   UNL     1      49.253  33.867  85.485  1.00  0.00     0.014 C 
ATOM      4  C   UNL     1      51.497  32.810  86.347  1.00  0.00     0.030 C 
ATOM      5  C   UNL     1      52.975  34.472  84.520  1.00  0.00     0.004 C 
ATOM      6  C   UNL     1      48.857  32.404  85.216  1.00  0.00     0.013 C 
ATOM      7  C   UNL     1      50.503  31.875  87.062  1.00  0.00    -0.063 C 
ATOM      8  C   UNL     1      52.424  32.067  85.325  1.00  0.00    -0.003 C 
ATOM      9  C   UNL     1      53.498  33.027  84.710  1.00  0.00    -0.011 C 
ATOM     10  C   UNL     1      49.219  31.387  86.360  1.00  0.00    -0.006 C 
ATOM     11  C   UNL     1      50.803  31.484  88.320  1.00  0.00    -0.027 C 
ATOM     12  C   UNL     1      53.114  30.853  85.989  1.00  0.00     0.008 C 
ATOM     13  C   UNL     1      54.027  32.488  83.366  1.00  0.00     0.008 C 
ATOM     14  C   UNL     1      49.572  30.045  85.633  1.00  0.00     0.017 C 
ATOM     15  C   UNL     1      48.029  31.177  87.445  1.00  0.00    -0.020 C 
ATOM     16  C   UNL     1      49.844  30.834  89.276  1.00  0.00     0.032 C 
ATOM     17  C   UNL     1      48.565  30.257  88.622  1.00  0.00     0.006 C 
ATOM     18  C   UNL     1      46.771  30.495  86.804  1.00  0.00     0.008 C 
ATOM     19  C   UNL     1      47.576  32.560  87.988  1.00  0.00     0.012 C 
ATOM     20  C   UNL     1      47.490  29.692  89.662  1.00  0.00    -0.025 C 
ATOM     21  C   UNL     1      45.717  30.026  87.821  1.00  0.00     0.005 C 
ATOM     22  C   UNL     1      46.340  29.018  88.820  1.00  0.00     0.003 C 
ATOM     23  C   UNL     1      48.167  28.572  90.520  1.00  0.00     0.010 C 
ATOM     24  C   UNL     1      46.965  30.800  90.638  1.00  0.00     0.012 C 
ATOM     25  C   UNL     1      45.307  28.134  89.626  1.00  0.00    -0.006 C 
ATOM     26  C   UNL     1      47.183  27.728  91.348  1.00  0.00     0.033 C 
ATOM     27  C   UNL     1      46.090  27.085  90.482  1.00  0.00     0.120 C 
ATOM     28  C   UNL     1      44.392  27.349  88.643  1.00  0.00     0.014 C 
ATOM     29  C   UNL     1      44.360  28.962  90.533  1.00  0.00     0.014 C 
ENDROOT
BRANCH   1  30
ATOM     30  C   UNL     1      50.886  35.230  86.764  1.00  0.00     0.048 C 
ATOM     31  O   UNL     1      51.910  35.325  87.494  1.00  0.00    -0.550 OA
ATOM     32  O   UNL     1      49.840  36.125  86.964  1.00  0.00    -0.550 OA
ENDBRANCH   1  30
BRANCH  27  33
ATOM     33  O   UNL     1      46.679  26.119  89.644  1.00  0.00    -0.393 OA
ATOM     34  H   UNL     1      46.145  25.287  89.739  1.00  0.00     0.210 HD
ENDBRANCH  27  33
TORSDOF 2
ENDMDL
MODEL 5
REMARK VINA RESULT:    -6.043      2.723      8.769
REMARK INTER + INTRA:          -6.802
REMARK INTER:                  -6.527
REMARK INTRA:                  -0.275
REMARK UNBOUND:                -0.230
REMARK SMILES C[C@@H]1[C@@H](C)CC[C@@]2(C(=O)[O-])CC[C@@]3(C)C(=CC[C@H]4[C@]5(C)CC[C@H](O)C(C)(C)[C@H]5CC[C@@]43C)[C@@H]12
REMARK SMILES IDX 7 1 6 2 11 3 33 4 5 5 12 6 15 7 2 8 3 9 13 10 16 11 1 12
REMARK SMILES IDX 4 13 14 14 31 15 17 16 18 17 30 18 32 19 19 20 29 21 28 22
REMARK SMILES IDX 21 23 20 24 25 25 22 26 23 27 26 28 27 29 8 30 9 31 10 32
REMARK SMILES IDX 24 33
REMARK H PARENT 24 34
REMARK Flexibility Score: inf
ROOT
ATOM      1  C   UNL     1      42.335  30.200  88.561  1.00  0.00     0.017 C 
ATOM      2  C   UNL     1      40.960  30.186  89.293  1.00  0.00     0.014 C 
ATOM      3  C   UNL     1      43.247  31.262  89.253  1.00  0.00     0.014 C 
ATOM      4  C   UNL     1      42.965  28.747  88.553  1.00  0.00     0.030 C 
ATOM      5  C   UNL     1      40.114  28.986  88.863  1.00  0.00     0.004 C 
ATOM      6  C   UNL     1      44.201  30.690  90.318  1.00  0.00     0.013 C 
ATOM      7  C   UNL     1      44.502  28.790  88.675  1.00  0.00    -0.063 C 
ATOM      8  C   UNL     1      42.291  27.754  89.559  1.00  0.00    -0.003 C 
ATOM      9  C   UNL     1      40.745  27.648  89.323  1.00  0.00    -0.011 C 
ATOM     10  C   UNL     1      45.190  29.578  89.808  1.00  0.00    -0.006 C 
ATOM     11  C   UNL     1      45.222  28.100  87.765  1.00  0.00    -0.027 C 
ATOM     12  C   UNL     1      42.939  26.353  89.469  1.00  0.00     0.008 C 
ATOM     13  C   UNL     1      40.020  27.140  90.585  1.00  0.00     0.008 C 
ATOM     14  C   UNL     1      45.373  28.594  91.012  1.00  0.00     0.017 C 
ATOM     15  C   UNL     1      46.618  30.162  89.299  1.00  0.00    -0.020 C 
ATOM     16  C   UNL     1      46.699  28.254  87.534  1.00  0.00     0.032 C 
ATOM     17  C   UNL     1      47.463  28.975  88.670  1.00  0.00     0.006 C 
ATOM     18  C   UNL     1      47.439  30.799  90.473  1.00  0.00     0.008 C 
ATOM     19  C   UNL     1      46.374  31.281  88.249  1.00  0.00     0.012 C 
ATOM     20  C   UNL     1      49.005  29.255  88.353  1.00  0.00    -0.025 C 
ATOM     21  C   UNL     1      48.899  31.128  90.121  1.00  0.00     0.005 C 
ATOM     22  C   UNL     1      49.646  29.850  89.665  1.00  0.00     0.003 C 
ATOM     23  C   UNL     1      49.711  27.890  88.058  1.00  0.00     0.010 C 
ATOM     24  C   UNL     1      49.198  30.181  87.104  1.00  0.00     0.012 C 
ATOM     25  C   UNL     1      51.224  29.939  89.694  1.00  0.00    -0.006 C 
ATOM     26  C   UNL     1      51.247  27.964  88.037  1.00  0.00     0.033 C 
ATOM     27  C   UNL     1      51.823  28.539  89.340  1.00  0.00     0.120 C 
ATOM     28  C   UNL     1      51.714  30.309  91.124  1.00  0.00     0.014 C 
ATOM     29  C   UNL     1      51.801  31.021  88.745  1.00  0.00     0.014 C 
ENDROOT
BRANCH   1  30
ATOM     30  C   UNL     1      42.142  30.659  87.115  1.00  0.00     0.048 C 
ATOM     31  O   UNL     1      41.751  31.834  86.876  1.00  0.00    -0.550 OA
ATOM     32  O   UNL     1      42.303  29.780  86.047  1.00  0.00    -0.550 OA
ENDBRANCH   1  30
BRANCH  27  33
ATOM     33  O   UNL     1      51.582  27.630  90.387  1.00  0.00    -0.393 OA
ATOM     34  H   UNL     1      51.828  28.088  91.233  1.00  0.00     0.210 HD
ENDBRANCH  27  33
TORSDOF 2
ENDMDL
MODEL 6
REMARK VINA RESULT:    -5.999     11.191     13.615
REMARK INTER + INTRA:          -6.755
REMARK INTER:                  -6.540
REMARK INTRA:                  -0.215
REMARK UNBOUND:                -0.230
REMARK SMILES C[C@@H]1[C@@H](C)CC[C@@]2(C(=O)[O-])CC[C@@]3(C)C(=CC[C@H]4[C@]5(C)CC[C@H](O)C(C)(C)[C@H]5CC[C@@]43C)[C@@H]12
REMARK SMILES IDX 7 1 6 2 11 3 33 4 5 5 12 6 15 7 2 8 3 9 13 10 16 11 1 12
REMARK SMILES IDX 4 13 14 14 31 15 17 16 18 17 30 18 32 19 19 20 29 21 28 22
REMARK SMILES IDX 21 23 20 24 25 25 22 26 23 27 26 28 27 29 8 30 9 31 10 32
REMARK SMILES IDX 24 33
REMARK H PARENT 24 34
REMARK Flexibility Score: inf
ROOT
ATOM      1  C   UNL     1      46.794  20.523  76.440  1.00  0.00     0.017 C 
ATOM      2  C   UNL     1      48.339  20.710  76.375  1.00  0.00     0.014 C 
ATOM      3  C   UNL     1      46.398  20.235  77.923  1.00  0.00     0.014 C 
ATOM      4  C   UNL     1      46.062  21.790  75.834  1.00  0.00     0.030 C 
ATOM      5  C   UNL     1      48.773  21.271  75.019  1.00  0.00     0.004 C 
ATOM      6  C   UNL     1      45.941  21.473  78.715  1.00  0.00     0.013 C 
ATOM      7  C   UNL     1      44.746  22.099  76.575  1.00  0.00    -0.063 C 
ATOM      8  C   UNL     1      46.989  23.042  75.668  1.00  0.00    -0.003 C 
ATOM      9  C   UNL     1      48.257  22.716  74.807  1.00  0.00    -0.011 C 
ATOM     10  C   UNL     1      44.710  22.243  78.110  1.00  0.00    -0.006 C 
ATOM     11  C   UNL     1      43.630  22.255  75.831  1.00  0.00    -0.027 C 
ATOM     12  C   UNL     1      46.212  24.224  75.043  1.00  0.00     0.008 C 
ATOM     13  C   UNL     1      49.395  23.718  75.084  1.00  0.00     0.008 C 
ATOM     14  C   UNL     1      44.957  23.755  78.439  1.00  0.00     0.017 C 
ATOM     15  C   UNL     1      43.279  21.738  78.689  1.00  0.00    -0.020 C 
ATOM     16  C   UNL     1      42.227  22.261  76.369  1.00  0.00     0.032 C 
ATOM     17  C   UNL     1      42.117  22.475  77.898  1.00  0.00     0.006 C 
ATOM     18  C   UNL     1      43.125  22.052  80.218  1.00  0.00     0.008 C 
ATOM     19  C   UNL     1      43.168  20.198  78.522  1.00  0.00     0.012 C 
ATOM     20  C   UNL     1      40.633  22.343  78.477  1.00  0.00    -0.025 C 
ATOM     21  C   UNL     1      41.705  21.846  80.768  1.00  0.00     0.005 C 
ATOM     22  C   UNL     1      40.694  22.737  80.002  1.00  0.00     0.003 C 
ATOM     23  C   UNL     1      39.719  23.389  77.754  1.00  0.00     0.010 C 
ATOM     24  C   UNL     1      40.023  20.920  78.237  1.00  0.00     0.012 C 
ATOM     25  C   UNL     1      39.306  22.963  80.724  1.00  0.00    -0.006 C 
ATOM     26  C   UNL     1      38.345  23.591  78.415  1.00  0.00     0.033 C 
ATOM     27  C   UNL     1      38.459  23.984  79.896  1.00  0.00     0.120 C 
ATOM     28  C   UNL     1      39.529  23.577  82.136  1.00  0.00     0.014 C 
ATOM     29  C   UNL     1      38.501  21.656  80.941  1.00  0.00     0.014 C 
ENDROOT
BRANCH   1  30
ATOM     30  C   UNL     1      46.392  19.290  75.628  1.00  0.00     0.048 C 
ATOM     31  O   UNL     1      46.007  19.423  74.434  1.00  0.00    -0.550 OA
ATOM     32  O   UNL     1      46.355  18.023  76.203  1.00  0.00    -0.550 OA
ENDBRANCH   1  30
BRANCH  27  33
ATOM     33  O   UNL     1      39.025  25.269  79.986  1.00  0.00    -0.393 OA
ATOM     34  H   UNL     1      39.266  25.547  79.063  1.00  0.00     0.210 HD
ENDBRANCH  27  33
TORSDOF 2
ENDMDL
MODEL 7
REMARK VINA RESULT:    -5.951     11.148     14.835
REMARK INTER + INTRA:          -6.702
REMARK INTER:                  -6.440
REMARK INTRA:                  -0.262
REMARK UNBOUND:                -0.230
REMARK SMILES C[C@@H]1[C@@H](C)CC[C@@]2(C(=O)[O-])CC[C@@]3(C)C(=CC[C@H]4[C@]5(C)CC[C@H](O)C(C)(C)[C@H]5CC[C@@]43C)[C@@H]12
REMARK SMILES IDX 7 1 6 2 11 3 33 4 5 5 12 6 15 7 2 8 3 9 13 10 16 11 1 12
REMARK SMILES IDX 4 13 14 14 31 15 17 16 18 17 30 18 32 19 19 20 29 21 28 22
REMARK SMILES IDX 21 23 20 24 25 25 22 26 23 27 26 28 27 29 8 30 9 31 10 32
REMARK SMILES IDX 24 33
REMARK H PARENT 24 34
REMARK Flexibility Score: inf
ROOT
ATOM      1  C   UNL     1      39.619  23.193  79.660  1.00  0.00     0.017 C 
ATOM      2  C   UNL     1      38.852  22.948  80.993  1.00  0.00     0.014 C 
ATOM      3  C   UNL     1      41.036  23.751  80.006  1.00  0.00     0.014 C 
ATOM      4  C   UNL     1      39.665  21.862  78.802  1.00  0.00     0.030 C 
ATOM      5  C   UNL     1      37.573  22.142  80.758  1.00  0.00     0.004 C 
ATOM      6  C   UNL     1      42.148  22.688  80.056  1.00  0.00     0.013 C 
ATOM      7  C   UNL     1      40.988  21.731  78.021  1.00  0.00    -0.063 C 
ATOM      8  C   UNL     1      39.289  20.572  79.607  1.00  0.00    -0.003 C 
ATOM      9  C   UNL     1      37.884  20.700  80.287  1.00  0.00    -0.011 C 
ATOM     10  C   UNL     1      42.350  21.862  78.732  1.00  0.00    -0.006 C 
ATOM     11  C   UNL     1      40.912  21.481  76.696  1.00  0.00    -0.027 C 
ATOM     12  C   UNL     1      39.327  19.323  78.696  1.00  0.00     0.008 C 
ATOM     13  C   UNL     1      37.746  19.727  81.475  1.00  0.00     0.008 C 
ATOM     14  C   UNL     1      42.771  20.426  79.193  1.00  0.00     0.017 C 
ATOM     15  C   UNL     1      43.450  22.507  77.726  1.00  0.00    -0.020 C 
ATOM     16  C   UNL     1      42.049  21.615  75.724  1.00  0.00     0.032 C 
ATOM     17  C   UNL     1      43.454  21.678  76.372  1.00  0.00     0.006 C 
ATOM     18  C   UNL     1      44.893  22.474  78.341  1.00  0.00     0.008 C 
ATOM     19  C   UNL     1      43.097  23.996  77.460  1.00  0.00     0.012 C 
ATOM     20  C   UNL     1      44.643  21.958  75.341  1.00  0.00    -0.025 C 
ATOM     21  C   UNL     1      46.013  22.819  77.347  1.00  0.00     0.005 C 
ATOM     22  C   UNL     1      45.993  21.839  76.147  1.00  0.00     0.003 C 
ATOM     23  C   UNL     1      44.639  20.831  74.255  1.00  0.00     0.010 C 
ATOM     24  C   UNL     1      44.487  23.335  74.609  1.00  0.00     0.012 C 
ATOM     25  C   UNL     1      47.319  21.788  75.289  1.00  0.00    -0.006 C 
ATOM     26  C   UNL     1      45.903  20.792  73.379  1.00  0.00     0.033 C 
ATOM     27  C   UNL     1      47.188  20.664  74.210  1.00  0.00     0.120 C 
ATOM     28  C   UNL     1      48.531  21.427  76.196  1.00  0.00     0.014 C 
ATOM     29  C   UNL     1      47.671  23.138  74.613  1.00  0.00     0.014 C 
ENDROOT
BRANCH   1  30
ATOM     30  C   UNL     1      38.904  24.274  78.848  1.00  0.00     0.048 C 
ATOM     31  O   UNL     1      38.261  23.958  77.809  1.00  0.00    -0.550 OA
ATOM     32  O   UNL     1      39.016  25.622  79.177  1.00  0.00    -0.550 OA
ENDBRANCH   1  30
BRANCH  27  33
ATOM     33  O   UNL     1      47.212  19.398  74.824  1.00  0.00    -0.393 OA
ATOM     34  H   UNL     1      47.262  18.723  74.096  1.00  0.00     0.210 HD
ENDBRANCH  27  33
TORSDOF 2
ENDMDL
MODEL 8
REMARK VINA RESULT:    -5.924      5.133      8.910
REMARK INTER + INTRA:          -6.674
REMARK INTER:                  -6.422
REMARK INTRA:                  -0.252
REMARK UNBOUND:                -0.230
REMARK SMILES C[C@@H]1[C@@H](C)CC[C@@]2(C(=O)[O-])CC[C@@]3(C)C(=CC[C@H]4[C@]5(C)CC[C@H](O)C(C)(C)[C@H]5CC[C@@]43C)[C@@H]12
REMARK SMILES IDX 7 1 6 2 11 3 33 4 5 5 12 6 15 7 2 8 3 9 13 10 16 11 1 12
REMARK SMILES IDX 4 13 14 14 31 15 17 16 18 17 30 18 32 19 19 20 29 21 28 22
REMARK SMILES IDX 21 23 20 24 25 25 22 26 23 27 26 28 27 29 8 30 9 31 10 32
REMARK SMILES IDX 24 33
REMARK H PARENT 24 34
REMARK Flexibility Score: inf
ROOT
ATOM      1  C   UNL     1      46.552  27.478  90.318  1.00  0.00     0.017 C 
ATOM      2  C   UNL     1      45.307  26.718  90.865  1.00  0.00     0.014 C 
ATOM      3  C   UNL     1      46.607  27.277  88.770  1.00  0.00     0.014 C 
ATOM      4  C   UNL     1      46.496  29.002  90.748  1.00  0.00     0.030 C 
ATOM      5  C   UNL     1      45.022  27.095  92.320  1.00  0.00     0.004 C 
ATOM      6  C   UNL     1      45.973  28.418  87.954  1.00  0.00     0.013 C 
ATOM      7  C   UNL     1      47.080  29.924  89.659  1.00  0.00    -0.063 C 
ATOM      8  C   UNL     1      45.093  29.466  91.267  1.00  0.00    -0.003 C 
ATOM      9  C   UNL     1      44.589  28.576  92.453  1.00  0.00    -0.011 C 
ATOM     10  C   UNL     1      46.590  29.845  88.199  1.00  0.00    -0.006 C 
ATOM     11  C   UNL     1      48.024  30.815  90.033  1.00  0.00    -0.027 C 
ATOM     12  C   UNL     1      45.128  30.952  91.695  1.00  0.00     0.008 C 
ATOM     13  C   UNL     1      43.056  28.655  92.601  1.00  0.00     0.008 C 
ATOM     14  C   UNL     1      45.398  30.849  88.056  1.00  0.00     0.017 C 
ATOM     15  C   UNL     1      47.800  30.213  87.179  1.00  0.00    -0.020 C 
ATOM     16  C   UNL     1      48.914  31.578  89.093  1.00  0.00     0.032 C 
ATOM     17  C   UNL     1      48.438  31.598  87.620  1.00  0.00     0.006 C 
ATOM     18  C   UNL     1      47.296  30.338  85.699  1.00  0.00     0.008 C 
ATOM     19  C   UNL     1      48.864  29.082  87.209  1.00  0.00     0.012 C 
ATOM     20  C   UNL     1      49.460  32.293  86.607  1.00  0.00    -0.025 C 
ATOM     21  C   UNL     1      48.325  30.942  84.729  1.00  0.00     0.005 C 
ATOM     22  C   UNL     1      48.749  32.355  85.201  1.00  0.00     0.003 C 
ATOM     23  C   UNL     1      49.707  33.766  87.078  1.00  0.00     0.010 C 
ATOM     24  C   UNL     1      50.845  31.562  86.560  1.00  0.00     0.012 C 
ATOM     25  C   UNL     1      49.443  33.258  84.104  1.00  0.00    -0.006 C 
ATOM     26  C   UNL     1      50.422  34.650  86.041  1.00  0.00     0.033 C 
ATOM     27  C   UNL     1      49.685  34.685  84.694  1.00  0.00     0.120 C 
ATOM     28  C   UNL     1      48.510  33.413  82.869  1.00  0.00     0.014 C 
ATOM     29  C   UNL     1      50.774  32.669  83.570  1.00  0.00     0.014 C 
ENDROOT
BRANCH   1  30
ATOM     30  C   UNL     1      47.826  26.854  90.890  1.00  0.00     0.048 C 
ATOM     31  O   UNL     1      48.575  27.535  91.643  1.00  0.00    -0.550 OA
ATOM     32  O   UNL     1      48.232  25.573  90.529  1.00  0.00    -0.550 OA
ENDBRANCH   1  30
BRANCH  27  33
ATOM     33  O   UNL     1      48.458  35.355  84.861  1.00  0.00    -0.393 OA
ATOM     34  H   UNL     1      47.739  34.683  84.726  1.00  0.00     0.210 HD
ENDBRANCH  27  33
TORSDOF 2
ENDMDL
MODEL 9
REMARK VINA RESULT:    -5.830     10.353     13.375
REMARK INTER + INTRA:          -6.571
REMARK INTER:                  -6.325
REMARK INTRA:                  -0.245
REMARK UNBOUND:                -0.230
REMARK SMILES C[C@@H]1[C@@H](C)CC[C@@]2(C(=O)[O-])CC[C@@]3(C)C(=CC[C@H]4[C@]5(C)CC[C@H](O)C(C)(C)[C@H]5CC[C@@]43C)[C@@H]12
REMARK SMILES IDX 7 1 6 2 11 3 33 4 5 5 12 6 15 7 2 8 3 9 13 10 16 11 1 12
REMARK SMILES IDX 4 13 14 14 31 15 17 16 18 17 30 18 32 19 19 20 29 21 28 22
REMARK SMILES IDX 21 23 20 24 25 25 22 26 23 27 26 28 27 29 8 30 9 31 10 32
REMARK SMILES IDX 24 33
REMARK H PARENT 24 34
REMARK Flexibility Score: inf
ROOT
ATOM      1  C   UNL     1      50.641  33.298  81.729  1.00  0.00     0.017 C 
ATOM      2  C   UNL     1      50.730  33.114  80.185  1.00  0.00     0.014 C 
ATOM      3  C   UNL     1      50.505  31.886  82.383  1.00  0.00     0.014 C 
ATOM      4  C   UNL     1      51.892  34.113  82.258  1.00  0.00     0.030 C 
ATOM      5  C   UNL     1      51.146  34.415  79.495  1.00  0.00     0.004 C 
ATOM      6  C   UNL     1      51.832  31.278  82.873  1.00  0.00     0.013 C 
ATOM      7  C   UNL     1      52.340  33.631  83.652  1.00  0.00    -0.063 C 
ATOM      8  C   UNL     1      53.068  34.214  81.228  1.00  0.00    -0.003 C 
ATOM      9  C   UNL     1      52.594  34.821  79.863  1.00  0.00    -0.011 C 
ATOM     10  C   UNL     1      52.619  32.140  83.929  1.00  0.00    -0.006 C 
ATOM     11  C   UNL     1      52.497  34.563  84.617  1.00  0.00    -0.027 C 
ATOM     12  C   UNL     1      54.235  35.048  81.804  1.00  0.00     0.008 C 
ATOM     13  C   UNL     1      53.548  34.431  78.716  1.00  0.00     0.008 C 
ATOM     14  C   UNL     1      54.135  31.889  83.630  1.00  0.00     0.017 C 
ATOM     15  C   UNL     1      52.250  31.776  85.468  1.00  0.00    -0.020 C 
ATOM     16  C   UNL     1      52.632  34.273  86.084  1.00  0.00     0.032 C 
ATOM     17  C   UNL     1      52.984  32.805  86.428  1.00  0.00     0.006 C 
ATOM     18  C   UNL     1      52.703  30.323  85.848  1.00  0.00     0.008 C 
ATOM     19  C   UNL     1      50.710  31.843  85.661  1.00  0.00     0.012 C 
ATOM     20  C   UNL     1      52.989  32.478  87.993  1.00  0.00    -0.025 C 
ATOM     21  C   UNL     1      52.630  30.008  87.350  1.00  0.00     0.005 C 
ATOM     22  C   UNL     1      53.509  30.998  88.154  1.00  0.00     0.003 C 
ATOM     23  C   UNL     1      54.021  33.422  88.697  1.00  0.00     0.010 C 
ATOM     24  C   UNL     1      51.589  32.711  88.656  1.00  0.00     0.012 C 
ATOM     25  C   UNL     1      53.878  30.542  89.622  1.00  0.00    -0.006 C 
ATOM     26  C   UNL     1      54.360  33.021  90.143  1.00  0.00     0.033 C 
ATOM     27  C   UNL     1      54.871  31.576  90.245  1.00  0.00     0.120 C 
ATOM     28  C   UNL     1      54.597  29.163  89.590  1.00  0.00     0.014 C 
ATOM     29  C   UNL     1      52.644  30.366  90.544  1.00  0.00     0.014 C 
ENDROOT
BRANCH   1  30
ATOM     30  C   UNL     1      49.368  34.071  82.081  1.00  0.00     0.048 C 
ATOM     31  O   UNL     1      49.452  35.188  82.662  1.00  0.00    -0.550 OA
ATOM     32  O   UNL     1      48.105  33.532  81.854  1.00  0.00    -0.550 OA
ENDBRANCH   1  30
BRANCH  27  33
ATOM     33  O   UNL     1      56.125  31.488  89.610  1.00  0.00    -0.393 OA
ATOM     34  H   UNL     1      55.964  31.132  88.696  1.00  0.00     0.210 HD
ENDBRANCH  27  33
TORSDOF 2
ENDMDL
