MODEL 1
REMARK VINA RESULT:    -5.564      0.000      0.000
REMARK INTER + INTRA:          -5.564
REMARK INTER:                  -5.564
REMARK INTRA:                   0.000
REMARK UNBOUND:                 0.000
REMARK SMILES CC1=CC(=O)[C@H]2C[C@@H]1C2(C)C
REMARK SMILES IDX 1 1 2 2 3 3 4 4 5 5 6 6 7 7 8 8 9 9 10 10 11 11
REMARK H PARENT
REMARK Flexibility Score: inf
ROOT
ATOM      1  C   UNL     1     -13.921 -34.117 -10.624  1.00  0.00     0.040 C 
ATOM      2  C   UNL     1     -12.690 -34.908 -10.938  1.00  0.00    -0.066 C 
ATOM      3  C   UNL     1     -12.714 -35.994 -11.761  1.00  0.00     0.047 C 
ATOM      4  C   UNL     1     -11.404 -36.687 -11.981  1.00  0.00     0.159 C 
ATOM      5  O   UNL     1     -11.302 -37.726 -12.685  1.00  0.00    -0.295 OA
ATOM      6  C   UNL     1     -10.199 -36.044 -11.292  1.00  0.00     0.067 C 
ATOM      7  C   UNL     1     -10.355 -34.537 -11.591  1.00  0.00     0.021 C 
ATOM      8  C   UNL     1     -11.316 -34.486 -10.381  1.00  0.00     0.022 C 
ATOM      9  C   UNL     1     -10.581 -35.735  -9.816  1.00  0.00    -0.019 C 
ATOM     10  C   UNL     1      -9.348 -35.355  -8.956  1.00  0.00     0.012 C 
ATOM     11  C   UNL     1     -11.415 -36.788  -9.033  1.00  0.00     0.012 C 
ENDROOT
TORSDOF 0
ENDMDL
MODEL 2
REMARK VINA RESULT:    -5.111      7.538      9.083
REMARK INTER + INTRA:          -5.111
REMARK INTER:                  -5.111
REMARK INTRA:                   0.000
REMARK UNBOUND:                 0.000
REMARK SMILES CC1=CC(=O)[C@H]2C[C@@H]1C2(C)C
REMARK SMILES IDX 1 1 2 2 3 3 4 4 5 5 6 6 7 7 8 8 9 9 10 10 11 11
REMARK H PARENT
REMARK Flexibility Score: inf
ROOT
ATOM      1  C   UNL     1     -15.994 -37.869  -4.573  1.00  0.00     0.040 C 
ATOM      2  C   UNL     1     -16.518 -39.106  -5.230  1.00  0.00    -0.066 C 
ATOM      3  C   UNL     1     -15.967 -40.334  -5.014  1.00  0.00     0.047 C 
ATOM      4  C   UNL     1     -16.598 -41.481  -5.742  1.00  0.00     0.159 C 
ATOM      5  O   UNL     1     -16.153 -42.657  -5.659  1.00  0.00    -0.295 OA
ATOM      6  C   UNL     1     -17.819 -41.125  -6.592  1.00  0.00     0.067 C 
ATOM      7  C   UNL     1     -18.662 -40.212  -5.675  1.00  0.00     0.021 C 
ATOM      8  C   UNL     1     -17.757 -39.051  -6.146  1.00  0.00     0.022 C 
ATOM      9  C   UNL     1     -17.479 -39.867  -7.441  1.00  0.00    -0.019 C 
ATOM     10  C   UNL     1     -18.534 -39.599  -8.545  1.00  0.00     0.012 C 
ATOM     11  C   UNL     1     -16.067 -39.768  -8.084  1.00  0.00     0.012 C 
ENDROOT
TORSDOF 0
ENDMDL
MODEL 3
REMARK VINA RESULT:    -4.882      7.141      8.733
REMARK INTER + INTRA:          -4.882
REMARK INTER:                  -4.882
REMARK INTRA:                   0.000
REMARK UNBOUND:                 0.000
REMARK SMILES CC1=CC(=O)[C@H]2C[C@@H]1C2(C)C
REMARK SMILES IDX 1 1 2 2 3 3 4 4 5 5 6 6 7 7 8 8 9 9 10 10 11 11
REMARK H PARENT
REMARK Flexibility Score: inf
ROOT
ATOM      1  C   UNL     1     -13.692 -38.869  -6.928  1.00  0.00     0.040 C 
ATOM      2  C   UNL     1     -15.089 -39.225  -6.528  1.00  0.00    -0.066 C 
ATOM      3  C   UNL     1     -15.684 -38.699  -5.420  1.00  0.00     0.047 C 
ATOM      4  C   UNL     1     -17.087 -39.149  -5.145  1.00  0.00     0.159 C 
ATOM      5  O   UNL     1     -17.728 -38.769  -4.130  1.00  0.00    -0.295 OA
ATOM      6  C   UNL     1     -17.684 -40.101  -6.182  1.00  0.00     0.067 C 
ATOM      7  C   UNL     1     -17.312 -39.462  -7.538  1.00  0.00     0.021 C 
ATOM      8  C   UNL     1     -15.944 -40.169  -7.396  1.00  0.00     0.022 C 
ATOM      9  C   UNL     1     -16.644 -41.218  -6.485  1.00  0.00    -0.019 C 
ATOM     10  C   UNL     1     -17.257 -42.389  -7.295  1.00  0.00     0.012 C 
ATOM     11  C   UNL     1     -15.837 -41.817  -5.298  1.00  0.00     0.012 C 
ENDROOT
TORSDOF 0
ENDMDL
MODEL 4
REMARK VINA RESULT:    -4.866      7.815      9.104
REMARK INTER + INTRA:          -4.866
REMARK INTER:                  -4.866
REMARK INTRA:                   0.000
REMARK UNBOUND:                 0.000
REMARK SMILES CC1=CC(=O)[C@H]2C[C@@H]1C2(C)C
REMARK SMILES IDX 1 1 2 2 3 3 4 4 5 5 6 6 7 7 8 8 9 9 10 10 11 11
REMARK H PARENT
REMARK Flexibility Score: inf
ROOT
ATOM      1  C   UNL     1     -15.149 -39.501  -7.295  1.00  0.00     0.040 C 
ATOM      2  C   UNL     1     -16.568 -39.766  -7.688  1.00  0.00    -0.066 C 
ATOM      3  C   UNL     1     -17.622 -39.203  -7.032  1.00  0.00     0.047 C 
ATOM      4  C   UNL     1     -18.986 -39.562  -7.538  1.00  0.00     0.159 C 
ATOM      5  O   UNL     1     -20.039 -39.141  -6.990  1.00  0.00    -0.295 OA
ATOM      6  C   UNL     1     -19.010 -40.475  -8.765  1.00  0.00     0.067 C 
ATOM      7  C   UNL     1     -17.953 -39.862  -9.710  1.00  0.00     0.021 C 
ATOM      8  C   UNL     1     -16.899 -40.655  -8.904  1.00  0.00     0.022 C 
ATOM      9  C   UNL     1     -18.027 -41.656  -8.521  1.00  0.00    -0.019 C 
ATOM     10  C   UNL     1     -18.193 -42.787  -9.569  1.00  0.00     0.012 C 
ATOM     11  C   UNL     1     -17.987 -42.304  -7.108  1.00  0.00     0.012 C 
ENDROOT
TORSDOF 0
ENDMDL
MODEL 5
REMARK VINA RESULT:    -4.865      7.143      8.729
REMARK INTER + INTRA:          -4.865
REMARK INTER:                  -4.865
REMARK INTRA:                   0.000
REMARK UNBOUND:                 0.000
REMARK SMILES CC1=CC(=O)[C@H]2C[C@@H]1C2(C)C
REMARK SMILES IDX 1 1 2 2 3 3 4 4 5 5 6 6 7 7 8 8 9 9 10 10 11 11
REMARK H PARENT
REMARK Flexibility Score: inf
ROOT
ATOM      1  C   UNL     1     -15.683 -42.663  -5.401  1.00  0.00     0.040 C 
ATOM      2  C   UNL     1     -16.316 -41.379  -5.838  1.00  0.00    -0.066 C 
ATOM      3  C   UNL     1     -16.747 -41.179  -7.115  1.00  0.00     0.047 C 
ATOM      4  C   UNL     1     -17.360 -39.842  -7.406  1.00  0.00     0.159 C 
ATOM      5  O   UNL     1     -17.756 -39.520  -8.557  1.00  0.00    -0.295 OA
ATOM      6  C   UNL     1     -17.470 -38.898  -6.208  1.00  0.00     0.067 C 
ATOM      7  C   UNL     1     -18.023 -39.791  -5.075  1.00  0.00     0.021 C 
ATOM      8  C   UNL     1     -16.563 -40.236  -4.833  1.00  0.00     0.022 C 
ATOM      9  C   UNL     1     -16.106 -38.888  -5.460  1.00  0.00    -0.019 C 
ATOM     10  C   UNL     1     -16.017 -37.749  -4.411  1.00  0.00     0.012 C 
ATOM     11  C   UNL     1     -14.800 -38.875  -6.304  1.00  0.00     0.012 C 
ENDROOT
TORSDOF 0
ENDMDL
MODEL 6
REMARK VINA RESULT:    -4.817      7.512      8.629
REMARK INTER + INTRA:          -4.817
REMARK INTER:                  -4.817
REMARK INTRA:                   0.000
REMARK UNBOUND:                 0.000
REMARK SMILES CC1=CC(=O)[C@H]2C[C@@H]1C2(C)C
REMARK SMILES IDX 1 1 2 2 3 3 4 4 5 5 6 6 7 7 8 8 9 9 10 10 11 11
REMARK H PARENT
REMARK Flexibility Score: inf
ROOT
ATOM      1  C   UNL     1     -19.584 -38.585  -5.732  1.00  0.00     0.040 C 
ATOM      2  C   UNL     1     -18.534 -39.251  -6.564  1.00  0.00    -0.066 C 
ATOM      3  C   UNL     1     -18.601 -39.288  -7.926  1.00  0.00     0.047 C 
ATOM      4  C   UNL     1     -17.478 -39.991  -8.625  1.00  0.00     0.159 C 
ATOM      5  O   UNL     1     -17.447 -40.130  -9.877  1.00  0.00    -0.295 OA
ATOM      6  C   UNL     1     -16.373 -40.527  -7.714  1.00  0.00     0.067 C 
ATOM      7  C   UNL     1     -16.090 -39.362  -6.740  1.00  0.00     0.021 C 
ATOM      8  C   UNL     1     -17.287 -39.880  -5.912  1.00  0.00     0.022 C 
ATOM      9  C   UNL     1     -17.034 -41.286  -6.528  1.00  0.00    -0.019 C 
ATOM     10  C   UNL     1     -16.008 -42.113  -5.712  1.00  0.00     0.012 C 
ATOM     11  C   UNL     1     -18.263 -42.191  -6.825  1.00  0.00     0.012 C 
ENDROOT
TORSDOF 0
ENDMDL
MODEL 7
REMARK VINA RESULT:    -4.760      8.685     10.002
REMARK INTER + INTRA:          -4.760
REMARK INTER:                  -4.760
REMARK INTRA:                   0.000
REMARK UNBOUND:                 0.000
REMARK SMILES CC1=CC(=O)[C@H]2C[C@@H]1C2(C)C
REMARK SMILES IDX 1 1 2 2 3 3 4 4 5 5 6 6 7 7 8 8 9 9 10 10 11 11
REMARK H PARENT
REMARK Flexibility Score: inf
ROOT
ATOM      1  C   UNL     1     -18.236 -39.777  -9.433  1.00  0.00     0.040 C 
ATOM      2  C   UNL     1     -18.336 -39.675  -7.944  1.00  0.00    -0.066 C 
ATOM      3  C   UNL     1     -17.252 -39.417  -7.158  1.00  0.00     0.047 C 
ATOM      4  C   UNL     1     -17.506 -39.345  -5.683  1.00  0.00     0.159 C 
ATOM      5  O   UNL     1     -16.581 -39.155  -4.850  1.00  0.00    -0.295 OA
ATOM      6  C   UNL     1     -18.966 -39.518  -5.260  1.00  0.00     0.067 C 
ATOM      7  C   UNL     1     -19.750 -38.619  -6.241  1.00  0.00     0.021 C 
ATOM      8  C   UNL     1     -19.698 -39.803  -7.232  1.00  0.00     0.022 C 
ATOM      9  C   UNL     1     -19.553 -40.750  -6.005  1.00  0.00    -0.019 C 
ATOM     10  C   UNL     1     -20.926 -41.186  -5.432  1.00  0.00     0.012 C 
ATOM     11  C   UNL     1     -18.664 -42.017  -6.155  1.00  0.00     0.012 C 
ENDROOT
TORSDOF 0
ENDMDL
MODEL 8
REMARK VINA RESULT:    -4.674      9.231     10.593
REMARK INTER + INTRA:          -4.674
REMARK INTER:                  -4.674
REMARK INTRA:                   0.000
REMARK UNBOUND:                 0.000
REMARK SMILES CC1=CC(=O)[C@H]2C[C@@H]1C2(C)C
REMARK SMILES IDX 1 1 2 2 3 3 4 4 5 5 6 6 7 7 8 8 9 9 10 10 11 11
REMARK H PARENT
REMARK Flexibility Score: inf
ROOT
ATOM      1  C   UNL     1     -21.296 -37.207  -6.111  1.00  0.00     0.040 C 
ATOM      2  C   UNL     1     -20.376 -38.377  -5.960  1.00  0.00    -0.066 C 
ATOM      3  C   UNL     1     -19.206 -38.297  -5.264  1.00  0.00     0.047 C 
ATOM      4  C   UNL     1     -18.387 -39.550  -5.199  1.00  0.00     0.159 C 
ATOM      5  O   UNL     1     -17.268 -39.592  -4.624  1.00  0.00    -0.295 OA
ATOM      6  C   UNL     1     -19.005 -40.772  -5.880  1.00  0.00     0.067 C 
ATOM      7  C   UNL     1     -20.475 -40.764  -5.405  1.00  0.00     0.021 C 
ATOM      8  C   UNL     1     -20.746 -39.755  -6.544  1.00  0.00     0.022 C 
ATOM      9  C   UNL     1     -19.515 -40.349  -7.287  1.00  0.00    -0.019 C 
ATOM     10  C   UNL     1     -19.890 -41.568  -8.169  1.00  0.00     0.012 C 
ATOM     11  C   UNL     1     -18.633 -39.388  -8.134  1.00  0.00     0.012 C 
ENDROOT
TORSDOF 0
ENDMDL
MODEL 9
REMARK VINA RESULT:    -4.630      9.056     10.238
REMARK INTER + INTRA:          -4.630
REMARK INTER:                  -4.630
REMARK INTRA:                   0.000
REMARK UNBOUND:                 0.000
REMARK SMILES CC1=CC(=O)[C@H]2C[C@@H]1C2(C)C
REMARK SMILES IDX 1 1 2 2 3 3 4 4 5 5 6 6 7 7 8 8 9 9 10 10 11 11
REMARK H PARENT
REMARK Flexibility Score: inf
ROOT
ATOM      1  C   UNL     1     -18.253 -39.751  -9.402  1.00  0.00     0.040 C 
ATOM      2  C   UNL     1     -18.752 -40.068  -8.028  1.00  0.00    -0.066 C 
ATOM      3  C   UNL     1     -19.729 -40.993  -7.805  1.00  0.00     0.047 C 
ATOM      4  C   UNL     1     -20.128 -41.203  -6.376  1.00  0.00     0.159 C 
ATOM      5  O   UNL     1     -21.047 -41.997  -6.044  1.00  0.00    -0.295 OA
ATOM      6  C   UNL     1     -19.341 -40.386  -5.349  1.00  0.00     0.067 C 
ATOM      7  C   UNL     1     -17.870 -40.545  -5.790  1.00  0.00     0.021 C 
ATOM      8  C   UNL     1     -18.135 -39.394  -6.786  1.00  0.00     0.022 C 
ATOM      9  C   UNL     1     -19.271 -38.912  -5.840  1.00  0.00    -0.019 C 
ATOM     10  C   UNL     1     -18.755 -37.948  -4.740  1.00  0.00     0.012 C 
ATOM     11  C   UNL     1     -20.543 -38.284  -6.478  1.00  0.00     0.012 C 
ENDROOT
TORSDOF 0
ENDMDL
