MODEL 1
REMARK VINA RESULT:     3.654      0.000      0.000
REMARK INTER + INTRA:           5.657
REMARK INTER:                   6.217
REMARK INTRA:                  -0.560
REMARK UNBOUND:                -0.560
REMARK SMILES CCCCCCCCCCCCCC(=O)[O-]
REMARK SMILES IDX 8 1 9 2 10 3 11 4 12 5 13 6 14 7 15 8 16 9 7 10 6 11 5 12
REMARK SMILES IDX 4 13 3 14 2 15 1 16
REMARK H PARENT
REMARK Flexibility Score: inf
ROOT
ATOM      1  C   UNL     1      10.400  14.498  -3.064  1.00  0.00     0.000 C 
ENDROOT
BRANCH   1   2
ATOM      2  C   UNL     1      11.250  13.980  -1.893  1.00  0.00     0.000 C 
BRANCH   2   3
ATOM      3  C   UNL     1      10.429  13.947  -0.595  1.00  0.00     0.000 C 
BRANCH   3   4
ATOM      4  C   UNL     1      11.307  13.849   0.666  1.00  0.00     0.000 C 
BRANCH   4   5
ATOM      5  C   UNL     1      10.634  14.326   1.969  1.00  0.00     0.006 C 
BRANCH   5   6
ATOM      6  C   UNL     1       9.353  15.148   1.762  1.00  0.00     0.053 C 
BRANCH   6   7
ATOM      7  C   UNL     1       9.614  16.621   1.847  1.00  0.00     0.041 C 
ATOM      8  O   UNL     1      10.769  17.074   1.638  1.00  0.00    -0.550 OA
ATOM      9  O   UNL     1       8.571  17.497   2.125  1.00  0.00    -0.550 OA
ENDBRANCH   6   7
ENDBRANCH   5   6
ENDBRANCH   4   5
ENDBRANCH   3   4
ENDBRANCH   2   3
ENDBRANCH   1   2
BRANCH   1  10
ATOM     10  C   UNL     1      11.084  14.302  -4.428  1.00  0.00     0.000 C 
BRANCH  10  11
ATOM     11  C   UNL     1      11.128  15.559  -5.321  1.00  0.00    -0.000 C 
BRANCH  11  12
ATOM     12  C   UNL     1      12.151  16.631  -4.894  1.00  0.00    -0.000 C 
BRANCH  12  13
ATOM     13  C   UNL     1      12.515  17.653  -5.987  1.00  0.00    -0.000 C 
BRANCH  13  14
ATOM     14  C   UNL     1      13.895  17.394  -6.609  1.00  0.00    -0.000 C 
BRANCH  14  15
ATOM     15  C   UNL     1      13.808  16.336  -7.715  1.00  0.00    -0.003 C 
ATOM     16  C   UNL     1      15.140  15.614  -7.893  1.00  0.00     0.004 C 
ENDBRANCH  14  15
ENDBRANCH  13  14
ENDBRANCH  12  13
ENDBRANCH  11  12
ENDBRANCH  10  11
ENDBRANCH   1  10
TORSDOF 12
ENDMDL
MODEL 2
REMARK VINA RESULT:     4.436      3.602      7.693
REMARK INTER + INTRA:           6.987
REMARK INTER:                   7.768
REMARK INTRA:                  -0.781
REMARK UNBOUND:                -0.560
REMARK SMILES CCCCCCCCCCCCCC(=O)[O-]
REMARK SMILES IDX 8 1 9 2 10 3 11 4 12 5 13 6 14 7 15 8 16 9 7 10 6 11 5 12
REMARK SMILES IDX 4 13 3 14 2 15 1 16
REMARK H PARENT
REMARK Flexibility Score: inf
ROOT
ATOM      1  C   UNL     1      10.117  13.900  -1.607  1.00  0.00     0.000 C 
ENDROOT
BRANCH   1   2
ATOM      2  C   UNL     1      11.180  14.309  -2.638  1.00  0.00     0.000 C 
BRANCH   2   3
ATOM      3  C   UNL     1      10.553  15.128  -3.776  1.00  0.00     0.000 C 
BRANCH   3   4
ATOM      4  C   UNL     1      11.366  15.060  -5.082  1.00  0.00     0.000 C 
BRANCH   4   5
ATOM      5  C   UNL     1      11.378  16.360  -5.912  1.00  0.00     0.006 C 
BRANCH   5   6
ATOM      6  C   UNL     1      12.446  17.379  -5.485  1.00  0.00     0.053 C 
BRANCH   6   7
ATOM      7  C   UNL     1      13.558  17.475  -6.484  1.00  0.00     0.041 C 
ATOM      8  O   UNL     1      14.375  18.431  -6.435  1.00  0.00    -0.550 OA
ATOM      9  O   UNL     1      13.711  16.488  -7.451  1.00  0.00    -0.550 OA
ENDBRANCH   6   7
ENDBRANCH   5   6
ENDBRANCH   4   5
ENDBRANCH   3   4
ENDBRANCH   2   3
ENDBRANCH   1   2
BRANCH   1  10
ATOM     10  C   UNL     1      10.648  12.899  -0.567  1.00  0.00     0.000 C 
BRANCH  10  11
ATOM     11  C   UNL     1      12.059  13.209  -0.026  1.00  0.00    -0.000 C 
BRANCH  11  12
ATOM     12  C   UNL     1      12.169  13.282   1.510  1.00  0.00    -0.000 C 
BRANCH  12  13
ATOM     13  C   UNL     1      11.775  14.638   2.125  1.00  0.00    -0.000 C 
BRANCH  13  14
ATOM     14  C   UNL     1      10.258  14.880   2.113  1.00  0.00    -0.000 C 
BRANCH  14  15
ATOM     15  C   UNL     1       9.921  16.212   1.434  1.00  0.00    -0.003 C 
ATOM     16  C   UNL     1      11.127  17.146   1.423  1.00  0.00     0.004 C 
ENDBRANCH  14  15
ENDBRANCH  13  14
ENDBRANCH  12  13
ENDBRANCH  11  12
ENDBRANCH  10  11
ENDBRANCH   1  10
TORSDOF 12
ENDMDL
MODEL 3
REMARK VINA RESULT:     6.144      7.955     12.129
REMARK INTER + INTRA:           9.894
REMARK INTER:                  10.697
REMARK INTRA:                  -0.803
REMARK UNBOUND:                -0.560
REMARK SMILES CCCCCCCCCCCCCC(=O)[O-]
REMARK SMILES IDX 8 1 9 2 10 3 11 4 12 5 13 6 14 7 15 8 16 9 7 10 6 11 5 12
REMARK SMILES IDX 4 13 3 14 2 15 1 16
REMARK H PARENT
REMARK Flexibility Score: inf
ROOT
ATOM      1  C   UNL     1      15.519  15.277 -12.866  1.00  0.00     0.000 C 
ENDROOT
BRANCH   1   2
ATOM      2  C   UNL     1      16.904  14.767 -13.295  1.00  0.00     0.000 C 
BRANCH   2   3
ATOM      3  C   UNL     1      17.939  15.901 -13.260  1.00  0.00     0.000 C 
BRANCH   3   4
ATOM      4  C   UNL     1      17.419  17.166 -12.553  1.00  0.00     0.000 C 
BRANCH   4   5
ATOM      5  C   UNL     1      18.465  17.918 -11.706  1.00  0.00     0.006 C 
BRANCH   5   6
ATOM      6  C   UNL     1      18.097  19.373 -11.381  1.00  0.00     0.053 C 
BRANCH   6   7
ATOM      7  C   UNL     1      18.487  20.308 -12.485  1.00  0.00     0.041 C 
ATOM      8  O   UNL     1      19.649  20.791 -12.527  1.00  0.00    -0.550 OA
ATOM      9  O   UNL     1      17.576  20.621 -13.486  1.00  0.00    -0.550 OA
ENDBRANCH   6   7
ENDBRANCH   5   6
ENDBRANCH   4   5
ENDBRANCH   3   4
ENDBRANCH   2   3
ENDBRANCH   1   2
BRANCH   1  10
ATOM     10  C   UNL     1      14.961  14.529 -11.642  1.00  0.00     0.000 C 
BRANCH  10  11
ATOM     11  C   UNL     1      14.386  15.433 -10.533  1.00  0.00    -0.000 C 
BRANCH  11  12
ATOM     12  C   UNL     1      15.393  15.860  -9.447  1.00  0.00    -0.000 C 
BRANCH  12  13
ATOM     13  C   UNL     1      14.890  15.708  -8.000  1.00  0.00    -0.000 C 
BRANCH  13  14
ATOM     14  C   UNL     1      13.651  16.567  -7.706  1.00  0.00    -0.000 C 
BRANCH  14  15
ATOM     15  C   UNL     1      13.842  17.383  -6.423  1.00  0.00    -0.003 C 
ATOM     16  C   UNL     1      12.505  17.658  -5.741  1.00  0.00     0.004 C 
ENDBRANCH  14  15
ENDBRANCH  13  14
ENDBRANCH  12  13
ENDBRANCH  11  12
ENDBRANCH  10  11
ENDBRANCH   1  10
TORSDOF 12
ENDMDL
MODEL 4
REMARK VINA RESULT:     6.502     13.402     15.731
REMARK INTER + INTRA:          10.502
REMARK INTER:                  11.024
REMARK INTRA:                  -0.522
REMARK UNBOUND:                -0.560
REMARK SMILES CCCCCCCCCCCCCC(=O)[O-]
REMARK SMILES IDX 8 1 9 2 10 3 11 4 12 5 13 6 14 7 15 8 16 9 7 10 6 11 5 12
REMARK SMILES IDX 4 13 3 14 2 15 1 16
REMARK H PARENT
REMARK Flexibility Score: inf
ROOT
ATOM      1  C   UNL     1      18.588  20.001 -12.936  1.00  0.00     0.000 C 
ENDROOT
BRANCH   1   2
ATOM      2  C   UNL     1      19.707  20.999 -12.596  1.00  0.00     0.000 C 
BRANCH   2   3
ATOM      3  C   UNL     1      19.126  22.389 -12.296  1.00  0.00     0.000 C 
BRANCH   3   4
ATOM      4  C   UNL     1      18.407  23.012 -13.506  1.00  0.00     0.000 C 
BRANCH   4   5
ATOM      5  C   UNL     1      18.538  24.544 -13.626  1.00  0.00     0.006 C 
BRANCH   5   6
ATOM      6  C   UNL     1      17.827  25.151 -14.845  1.00  0.00     0.053 C 
BRANCH   6   7
ATOM      7  C   UNL     1      18.799  25.594 -15.896  1.00  0.00     0.041 C 
ATOM      8  O   UNL     1      18.400  26.242 -16.898  1.00  0.00    -0.550 OA
ATOM      9  O   UNL     1      20.154  25.318 -15.750  1.00  0.00    -0.550 OA
ENDBRANCH   6   7
ENDBRANCH   5   6
ENDBRANCH   4   5
ENDBRANCH   3   4
ENDBRANCH   2   3
ENDBRANCH   1   2
BRANCH   1  10
ATOM     10  C   UNL     1      17.894  19.435 -11.685  1.00  0.00     0.000 C 
BRANCH  10  11
ATOM     11  C   UNL     1      18.030  17.911 -11.498  1.00  0.00    -0.000 C 
BRANCH  11  12
ATOM     12  C   UNL     1      18.128  17.096 -12.803  1.00  0.00    -0.000 C 
BRANCH  12  13
ATOM     13  C   UNL     1      17.059  16.000 -12.967  1.00  0.00    -0.000 C 
BRANCH  13  14
ATOM     14  C   UNL     1      17.590  14.752 -13.688  1.00  0.00    -0.000 C 
BRANCH  14  15
ATOM     15  C   UNL     1      19.016  14.423 -13.235  1.00  0.00    -0.003 C 
ATOM     16  C   UNL     1      19.256  12.917 -13.219  1.00  0.00     0.004 C 
ENDBRANCH  14  15
ENDBRANCH  13  14
ENDBRANCH  12  13
ENDBRANCH  11  12
ENDBRANCH  10  11
ENDBRANCH   1  10
TORSDOF 12
ENDMDL
MODEL 5
REMARK VINA RESULT:     6.531      6.318      9.989
REMARK INTER + INTRA:          10.552
REMARK INTER:                  11.184
REMARK INTRA:                  -0.632
REMARK UNBOUND:                -0.560
REMARK SMILES CCCCCCCCCCCCCC(=O)[O-]
REMARK SMILES IDX 8 1 9 2 10 3 11 4 12 5 13 6 14 7 15 8 16 9 7 10 6 11 5 12
REMARK SMILES IDX 4 13 3 14 2 15 1 16
REMARK H PARENT
REMARK Flexibility Score: inf
ROOT
ATOM      1  C   UNL     1      16.026  15.382 -13.310  1.00  0.00     0.000 C 
ENDROOT
BRANCH   1   2
ATOM      2  C   UNL     1      15.294  14.892 -12.051  1.00  0.00     0.000 C 
BRANCH   2   3
ATOM      3  C   UNL     1      15.425  15.913 -10.910  1.00  0.00     0.000 C 
BRANCH   3   4
ATOM      4  C   UNL     1      14.588  15.539  -9.673  1.00  0.00     0.000 C 
BRANCH   4   5
ATOM      5  C   UNL     1      14.915  16.340  -8.397  1.00  0.00     0.006 C 
BRANCH   5   6
ATOM      6  C   UNL     1      13.970  16.072  -7.215  1.00  0.00     0.053 C 
BRANCH   6   7
ATOM      7  C   UNL     1      13.566  17.338  -6.524  1.00  0.00     0.041 C 
ATOM      8  O   UNL     1      12.463  17.409  -5.923  1.00  0.00    -0.550 OA
ATOM      9  O   UNL     1      14.425  18.431  -6.517  1.00  0.00    -0.550 OA
ENDBRANCH   6   7
ENDBRANCH   5   6
ENDBRANCH   4   5
ENDBRANCH   3   4
ENDBRANCH   2   3
ENDBRANCH   1   2
BRANCH   1  10
ATOM     10  C   UNL     1      17.520  15.659 -13.061  1.00  0.00     0.000 C 
BRANCH  10  11
ATOM     11  C   UNL     1      17.926  17.145 -13.121  1.00  0.00    -0.000 C 
BRANCH  11  12
ATOM     12  C   UNL     1      18.370  17.757 -11.778  1.00  0.00    -0.000 C 
BRANCH  12  13
ATOM     13  C   UNL     1      17.914  19.210 -11.544  1.00  0.00    -0.000 C 
BRANCH  13  14
ATOM     14  C   UNL     1      18.215  20.129 -12.738  1.00  0.00    -0.000 C 
BRANCH  14  15
ATOM     15  C   UNL     1      19.058  21.333 -12.302  1.00  0.00    -0.003 C 
ATOM     16  C   UNL     1      20.548  21.055 -12.477  1.00  0.00     0.004 C 
ENDBRANCH  14  15
ENDBRANCH  13  14
ENDBRANCH  12  13
ENDBRANCH  11  12
ENDBRANCH  10  11
ENDBRANCH   1  10
TORSDOF 12
ENDMDL
