MODEL 1
REMARK VINA RESULT:    -5.801      0.000      0.000
REMARK INTER + INTRA:          -6.557
REMARK INTER:                  -6.309
REMARK INTRA:                  -0.247
REMARK UNBOUND:                -0.247
REMARK SMILES O=C([O-])c1ccccc1O
REMARK SMILES IDX 4 1 9 2 5 3 8 4 6 5 7 6 2 7 1 8 3 9 10 10
REMARK H PARENT 10 11
REMARK Flexibility Score: inf
ROOT
ATOM      1  C   UNL     1     126.539 125.887 123.080  1.00  0.00     0.039 A 
ATOM      2  C   UNL     1     125.772 125.299 124.114  1.00  0.00     0.124 A 
ATOM      3  C   UNL     1     127.559 125.128 122.475  1.00  0.00     0.014 A 
ATOM      4  C   UNL     1     126.037 123.981 124.519  1.00  0.00     0.047 A 
ATOM      5  C   UNL     1     127.813 123.818 122.887  1.00  0.00     0.001 A 
ATOM      6  C   UNL     1     127.053 123.245 123.908  1.00  0.00     0.004 A 
ENDROOT
BRANCH   1   7
ATOM      7  C   UNL     1     126.298 127.277 122.616  1.00  0.00     0.075 C 
ATOM      8  O   UNL     1     127.230 128.124 122.586  1.00  0.00    -0.545 OA
ATOM      9  O   UNL     1     125.028 127.668 122.204  1.00  0.00    -0.545 OA
ENDBRANCH   1   7
BRANCH   2  10
ATOM     10  O   UNL     1     124.751 126.013 124.741  1.00  0.00    -0.507 OA
ATOM     11  H   UNL     1     124.281 126.783 124.283  1.00  0.00     0.293 HD
ENDBRANCH   2  10
TORSDOF 2
ENDMDL
MODEL 2
REMARK VINA RESULT:    -5.726      0.146      1.030
REMARK INTER + INTRA:          -6.476
REMARK INTER:                  -6.231
REMARK INTRA:                  -0.244
REMARK UNBOUND:                -0.247
REMARK SMILES O=C([O-])c1ccccc1O
REMARK SMILES IDX 4 1 9 2 5 3 8 4 6 5 7 6 2 7 1 8 3 9 10 10
REMARK H PARENT 10 11
REMARK Flexibility Score: inf
ROOT
ATOM      1  C   UNL     1     126.523 125.808 123.149  1.00  0.00     0.039 A 
ATOM      2  C   UNL     1     125.760 125.201 124.177  1.00  0.00     0.124 A 
ATOM      3  C   UNL     1     127.516 125.048 122.502  1.00  0.00     0.014 A 
ATOM      4  C   UNL     1     126.003 123.865 124.531  1.00  0.00     0.047 A 
ATOM      5  C   UNL     1     127.747 123.720 122.865  1.00  0.00     0.001 A 
ATOM      6  C   UNL     1     126.992 123.129 123.878  1.00  0.00     0.004 A 
ENDROOT
BRANCH   1   7
ATOM      7  C   UNL     1     126.304 127.218 122.737  1.00  0.00     0.075 C 
ATOM      8  O   UNL     1     125.169 127.620 122.369  1.00  0.00    -0.545 OA
ATOM      9  O   UNL     1     127.359 128.124 122.753  1.00  0.00    -0.545 OA
ENDBRANCH   1   7
BRANCH   2  10
ATOM     10  O   UNL     1     124.765 125.915 124.845  1.00  0.00    -0.507 OA
ATOM     11  H   UNL     1     124.521 126.862 124.582  1.00  0.00     0.293 HD
ENDBRANCH   2  10
TORSDOF 2
ENDMDL
MODEL 3
REMARK VINA RESULT:    -5.685      1.385      1.844
REMARK INTER + INTRA:          -6.431
REMARK INTER:                  -6.181
REMARK INTRA:                  -0.251
REMARK UNBOUND:                -0.247
REMARK SMILES O=C([O-])c1ccccc1O
REMARK SMILES IDX 4 1 9 2 5 3 8 4 6 5 7 6 2 7 1 8 3 9 10 10
REMARK H PARENT 10 11
REMARK Flexibility Score: inf
ROOT
ATOM      1  C   UNL     1     126.597 125.782 123.158  1.00  0.00     0.039 A 
ATOM      2  C   UNL     1     127.369 125.353 124.264  1.00  0.00     0.124 A 
ATOM      3  C   UNL     1     125.849 124.828 122.441  1.00  0.00     0.014 A 
ATOM      4  C   UNL     1     127.378 123.997 124.628  1.00  0.00     0.047 A 
ATOM      5  C   UNL     1     125.867 123.482 122.813  1.00  0.00     0.001 A 
ATOM      6  C   UNL     1     126.630 123.067 123.904  1.00  0.00     0.004 A 
ENDROOT
BRANCH   1   7
ATOM      7  C   UNL     1     126.554 127.205 122.734  1.00  0.00     0.075 C 
ATOM      8  O   UNL     1     125.475 127.742 122.368  1.00  0.00    -0.545 OA
ATOM      9  O   UNL     1     127.715 127.971 122.735  1.00  0.00    -0.545 OA
ENDBRANCH   1   7
BRANCH   2  10
ATOM     10  O   UNL     1     128.125 126.262 125.004  1.00  0.00    -0.507 OA
ATOM     11  H   UNL     1     128.670 125.973 125.807  1.00  0.00     0.293 HD
ENDBRANCH   2  10
TORSDOF 2
ENDMDL
MODEL 4
REMARK VINA RESULT:    -5.619      2.441      3.911
REMARK INTER + INTRA:          -6.359
REMARK INTER:                  -6.110
REMARK INTRA:                  -0.249
REMARK UNBOUND:                -0.247
REMARK SMILES O=C([O-])c1ccccc1O
REMARK SMILES IDX 4 1 9 2 5 3 8 4 6 5 7 6 2 7 1 8 3 9 10 10
REMARK H PARENT 10 11
REMARK Flexibility Score: inf
ROOT
ATOM      1  C   UNL     1     126.827 124.203 124.110  1.00  0.00     0.039 A 
ATOM      2  C   UNL     1     126.004 124.759 123.100  1.00  0.00     0.124 A 
ATOM      3  C   UNL     1     127.887 124.976 124.622  1.00  0.00     0.014 A 
ATOM      4  C   UNL     1     126.254 126.057 122.630  1.00  0.00     0.047 A 
ATOM      5  C   UNL     1     128.125 126.266 124.145  1.00  0.00     0.001 A 
ATOM      6  C   UNL     1     127.310 126.806 123.150  1.00  0.00     0.004 A 
ENDROOT
BRANCH   1   7
ATOM      7  C   UNL     1     126.604 122.835 124.641  1.00  0.00     0.075 C 
ATOM      8  O   UNL     1     126.476 122.629 125.877  1.00  0.00    -0.545 OA
ATOM      9  O   UNL     1     126.532 121.750 123.773  1.00  0.00    -0.545 OA
ENDBRANCH   1   7
BRANCH   2  10
ATOM     10  O   UNL     1     124.942 124.031 122.563  1.00  0.00    -0.507 OA
ATOM     11  H   UNL     1     124.321 123.485 123.147  1.00  0.00     0.293 HD
ENDBRANCH   2  10
TORSDOF 2
ENDMDL
MODEL 5
REMARK VINA RESULT:    -5.414      1.482      1.673
REMARK INTER + INTRA:          -6.135
REMARK INTER:                  -5.888
REMARK INTRA:                  -0.248
REMARK UNBOUND:                -0.247
REMARK SMILES O=C([O-])c1ccccc1O
REMARK SMILES IDX 4 1 9 2 5 3 8 4 6 5 7 6 2 7 1 8 3 9 10 10
REMARK H PARENT 10 11
REMARK Flexibility Score: inf
ROOT
ATOM      1  C   UNL     1     125.708 125.319 122.986  1.00  0.00     0.039 A 
ATOM      2  C   UNL     1     126.729 125.275 123.966  1.00  0.00     0.124 A 
ATOM      3  C   UNL     1     125.285 124.115 122.392  1.00  0.00     0.014 A 
ATOM      4  C   UNL     1     127.299 124.044 124.328  1.00  0.00     0.047 A 
ATOM      5  C   UNL     1     125.861 122.897 122.761  1.00  0.00     0.001 A 
ATOM      6  C   UNL     1     126.867 122.862 123.727  1.00  0.00     0.004 A 
ENDROOT
BRANCH   1   7
ATOM      7  C   UNL     1     125.074 126.596 122.569  1.00  0.00     0.075 C 
ATOM      8  O   UNL     1     125.764 127.631 122.375  1.00  0.00    -0.545 OA
ATOM      9  O   UNL     1     123.697 126.667 122.386  1.00  0.00    -0.545 OA
ENDBRANCH   1   7
BRANCH   2  10
ATOM     10  O   UNL     1     127.180 126.443 124.582  1.00  0.00    -0.507 OA
ATOM     11  H   UNL     1     126.892 127.359 124.262  1.00  0.00     0.293 HD
ENDBRANCH   2  10
TORSDOF 2
ENDMDL
MODEL 6
REMARK VINA RESULT:    -5.402      1.284      1.552
REMARK INTER + INTRA:          -6.123
REMARK INTER:                  -5.891
REMARK INTRA:                  -0.232
REMARK UNBOUND:                -0.247
REMARK SMILES O=C([O-])c1ccccc1O
REMARK SMILES IDX 4 1 9 2 5 3 8 4 6 5 7 6 2 7 1 8 3 9 10 10
REMARK H PARENT 10 11
REMARK Flexibility Score: inf
ROOT
ATOM      1  C   UNL     1     126.898 125.984 123.007  1.00  0.00     0.039 A 
ATOM      2  C   UNL     1     125.529 125.651 122.861  1.00  0.00     0.124 A 
ATOM      3  C   UNL     1     127.859 124.960 122.910  1.00  0.00     0.014 A 
ATOM      4  C   UNL     1     125.154 124.320 122.625  1.00  0.00     0.047 A 
ATOM      5  C   UNL     1     127.472 123.639 122.675  1.00  0.00     0.001 A 
ATOM      6  C   UNL     1     126.122 123.319 122.533  1.00  0.00     0.004 A 
ENDROOT
BRANCH   1   7
ATOM      7  C   UNL     1     127.345 127.378 123.257  1.00  0.00     0.075 C 
ATOM      8  O   UNL     1     128.123 127.964 122.459  1.00  0.00    -0.545 OA
ATOM      9  O   UNL     1     126.907 128.062 124.386  1.00  0.00    -0.545 OA
ENDBRANCH   1   7
BRANCH   2  10
ATOM     10  O   UNL     1     124.542 126.633 122.949  1.00  0.00    -0.507 OA
ATOM     11  H   UNL     1     123.597 126.414 123.239  1.00  0.00     0.293 HD
ENDBRANCH   2  10
TORSDOF 2
ENDMDL
MODEL 7
REMARK VINA RESULT:    -5.290      1.651      1.904
REMARK INTER + INTRA:          -6.001
REMARK INTER:                  -5.779
REMARK INTRA:                  -0.222
REMARK UNBOUND:                -0.247
REMARK SMILES O=C([O-])c1ccccc1O
REMARK SMILES IDX 4 1 9 2 5 3 8 4 6 5 7 6 2 7 1 8 3 9 10 10
REMARK H PARENT 10 11
REMARK Flexibility Score: inf
ROOT
ATOM      1  C   UNL     1     125.746 125.563 122.678  1.00  0.00     0.039 A 
ATOM      2  C   UNL     1     125.386 124.207 122.487  1.00  0.00     0.124 A 
ATOM      3  C   UNL     1     127.072 125.869 123.039  1.00  0.00     0.014 A 
ATOM      4  C   UNL     1     126.346 123.198 122.659  1.00  0.00     0.047 A 
ATOM      5  C   UNL     1     128.017 124.854 123.207  1.00  0.00     0.001 A 
ATOM      6  C   UNL     1     127.655 123.521 123.017  1.00  0.00     0.004 A 
ENDROOT
BRANCH   1   7
ATOM      7  C   UNL     1     124.768 126.667 122.509  1.00  0.00     0.075 C 
ATOM      8  O   UNL     1     125.142 127.822 122.173  1.00  0.00    -0.545 OA
ATOM      9  O   UNL     1     123.412 126.441 122.720  1.00  0.00    -0.545 OA
ENDBRANCH   1   7
BRANCH   2  10
ATOM     10  O   UNL     1     124.084 123.857 122.129  1.00  0.00    -0.507 OA
ATOM     11  H   UNL     1     123.344 124.546 122.072  1.00  0.00     0.293 HD
ENDBRANCH   2  10
TORSDOF 2
ENDMDL
MODEL 8
REMARK VINA RESULT:    -5.144      1.921      2.759
REMARK INTER + INTRA:          -5.843
REMARK INTER:                  -5.713
REMARK INTRA:                  -0.130
REMARK UNBOUND:                -0.247
REMARK SMILES O=C([O-])c1ccccc1O
REMARK SMILES IDX 4 1 9 2 5 3 8 4 6 5 7 6 2 7 1 8 3 9 10 10
REMARK H PARENT 10 11
REMARK Flexibility Score: inf
ROOT
ATOM      1  C   UNL     1     124.702 125.956 122.457  1.00  0.00     0.039 A 
ATOM      2  C   UNL     1     125.861 126.730 122.708  1.00  0.00     0.124 A 
ATOM      3  C   UNL     1     124.806 124.552 122.475  1.00  0.00     0.014 A 
ATOM      4  C   UNL     1     127.084 126.094 122.968  1.00  0.00     0.047 A 
ATOM      5  C   UNL     1     126.030 123.932 122.735  1.00  0.00     0.001 A 
ATOM      6  C   UNL     1     127.167 124.701 122.981  1.00  0.00     0.004 A 
ENDROOT
BRANCH   1   7
ATOM      7  C   UNL     1     123.384 126.582 122.177  1.00  0.00     0.075 C 
ATOM      8  O   UNL     1     123.278 127.826 122.011  1.00  0.00    -0.545 OA
ATOM      9  O   UNL     1     122.240 125.797 122.092  1.00  0.00    -0.545 OA
ENDBRANCH   1   7
BRANCH   2  10
ATOM     10  O   UNL     1     125.804 128.124 122.701  1.00  0.00    -0.507 OA
ATOM     11  H   UNL     1     125.969 128.668 123.539  1.00  0.00     0.293 HD
ENDBRANCH   2  10
TORSDOF 2
ENDMDL
MODEL 9
REMARK VINA RESULT:    -5.021      2.539      3.983
REMARK INTER + INTRA:          -5.709
REMARK INTER:                  -5.454
REMARK INTRA:                  -0.255
REMARK UNBOUND:                -0.247
REMARK SMILES O=C([O-])c1ccccc1O
REMARK SMILES IDX 4 1 9 2 5 3 8 4 6 5 7 6 2 7 1 8 3 9 10 10
REMARK H PARENT 10 11
REMARK Flexibility Score: inf
ROOT
ATOM      1  C   UNL     1     126.312 124.313 123.677  1.00  0.00     0.039 A 
ATOM      2  C   UNL     1     127.111 125.355 124.206  1.00  0.00     0.124 A 
ATOM      3  C   UNL     1     125.300 124.635 122.752  1.00  0.00     0.014 A 
ATOM      4  C   UNL     1     126.886 126.681 123.804  1.00  0.00     0.047 A 
ATOM      5  C   UNL     1     125.087 125.959 122.362  1.00  0.00     0.001 A 
ATOM      6  C   UNL     1     125.878 126.980 122.887  1.00  0.00     0.004 A 
ENDROOT
BRANCH   1   7
ATOM      7  C   UNL     1     126.510 122.894 124.070  1.00  0.00     0.075 C 
ATOM      8  O   UNL     1     126.580 121.983 123.203  1.00  0.00    -0.545 OA
ATOM      9  O   UNL     1     126.624 122.548 125.412  1.00  0.00    -0.545 OA
ENDBRANCH   1   7
BRANCH   2  10
ATOM     10  O   UNL     1     128.125 125.083 125.124  1.00  0.00    -0.507 OA
ATOM     11  H   UNL     1     128.734 125.811 125.477  1.00  0.00     0.293 HD
ENDBRANCH   2  10
TORSDOF 2
ENDMDL
