MODEL 1
REMARK VINA RESULT:    -2.539      0.000      0.000
REMARK INTER + INTRA:          -3.076
REMARK INTER:                  -3.058
REMARK INTRA:                  -0.018
REMARK UNBOUND:                -0.018
REMARK SMILES CC[C@H](C)[C@@H]([NH3+])C(=O)[O-]
REMARK SMILES IDX 3 1 4 2 5 3 6 4 7 8 8 9 9 10 2 11 1 12
REMARK H PARENT 6 5 6 6 6 7
REMARK Flexibility Score: inf
ROOT
ATOM      1  C   UNL     1      -0.227  30.123 -13.999  1.00  0.00     0.050 C 
ATOM      2  C   UNL     1       0.025  31.122 -12.855  1.00  0.00     0.014 C 
ENDROOT
BRANCH   1   3
ATOM      3  C   UNL     1       0.942  29.092 -14.090  1.00  0.00     0.230 C 
BRANCH   3   4
ATOM      4  N   UNL     1       0.894  28.314 -15.336  1.00  0.00    -0.350 N 
ATOM      5  H   UNL     1       1.427  28.820 -16.081  1.00  0.00     0.345 HD
ATOM      6  H   UNL     1      -0.085  28.175 -15.670  1.00  0.00     0.345 HD
ATOM      7  H   UNL     1       1.345  27.381 -15.195  1.00  0.00     0.345 HD
ENDBRANCH   3   4
BRANCH   3   8
ATOM      8  C   UNL     1       2.296  29.738 -13.915  1.00  0.00     0.099 C 
ATOM      9  O   UNL     1       2.842  30.328 -14.884  1.00  0.00    -0.544 OA
ATOM     10  O   UNL     1       2.966  29.661 -12.699  1.00  0.00    -0.544 OA
ENDBRANCH   3   8
ENDBRANCH   1   3
BRANCH   1  11
ATOM     11  C   UNL     1      -0.493  30.861 -15.338  1.00  0.00     0.006 C 
ATOM     12  C   UNL     1      -1.983  30.982 -15.666  1.00  0.00     0.004 C 
ENDBRANCH   1  11
TORSDOF 4
ENDMDL
MODEL 2
REMARK VINA RESULT:    -2.534      1.428      2.063
REMARK INTER + INTRA:          -3.071
REMARK INTER:                  -2.994
REMARK INTRA:                  -0.076
REMARK UNBOUND:                -0.018
REMARK SMILES CC[C@H](C)[C@@H]([NH3+])C(=O)[O-]
REMARK SMILES IDX 3 1 4 2 5 3 6 4 7 8 8 9 9 10 2 11 1 12
REMARK H PARENT 6 5 6 6 6 7
REMARK Flexibility Score: inf
ROOT
ATOM      1  C   UNL     1       0.742  30.633 -15.279  1.00  0.00     0.050 C 
ATOM      2  C   UNL     1       2.031  30.596 -16.122  1.00  0.00     0.014 C 
ENDROOT
BRANCH   1   3
ATOM      3  C   UNL     1       0.495  29.249 -14.601  1.00  0.00     0.230 C 
BRANCH   3   4
ATOM      4  N   UNL     1       1.048  28.141 -15.394  1.00  0.00    -0.350 N 
ATOM      5  H   UNL     1       0.687  28.203 -16.374  1.00  0.00     0.345 HD
ATOM      6  H   UNL     1       0.779  27.211 -15.003  1.00  0.00     0.345 HD
ATOM      7  H   UNL     1       2.091  28.210 -15.430  1.00  0.00     0.345 HD
ENDBRANCH   3   4
BRANCH   3   8
ATOM      8  C   UNL     1       1.011  29.201 -13.182  1.00  0.00     0.099 C 
ATOM      9  O   UNL     1       0.607  28.304 -12.396  1.00  0.00    -0.544 OA
ATOM     10  O   UNL     1       1.907  30.159 -12.721  1.00  0.00    -0.544 OA
ENDBRANCH   3   8
ENDBRANCH   1   3
BRANCH   1  11
ATOM     11  C   UNL     1      -0.464  31.121 -16.125  1.00  0.00     0.006 C 
ATOM     12  C   UNL     1      -1.785  31.087 -15.354  1.00  0.00     0.004 C 
ENDBRANCH   1  11
TORSDOF 4
ENDMDL
MODEL 3
REMARK VINA RESULT:    -2.416      1.675      2.621
REMARK INTER + INTRA:          -2.928
REMARK INTER:                  -2.927
REMARK INTRA:                  -0.000
REMARK UNBOUND:                -0.018
REMARK SMILES CC[C@H](C)[C@@H]([NH3+])C(=O)[O-]
REMARK SMILES IDX 3 1 4 2 5 3 6 4 7 8 8 9 9 10 2 11 1 12
REMARK H PARENT 6 5 6 6 6 7
REMARK Flexibility Score: inf
ROOT
ATOM      1  C   UNL     1      -0.010  29.593 -14.667  1.00  0.00     0.050 C 
ATOM      2  C   UNL     1      -0.341  29.963 -16.125  1.00  0.00     0.014 C 
ENDROOT
BRANCH   1   3
ATOM      3  C   UNL     1       0.997  30.620 -14.059  1.00  0.00     0.230 C 
BRANCH   3   4
ATOM      4  N   UNL     1       0.546  31.125 -12.754  1.00  0.00    -0.350 N 
ATOM      5  H   UNL     1       1.119  31.960 -12.489  1.00  0.00     0.345 HD
ATOM      6  H   UNL     1       0.647  30.406 -12.003  1.00  0.00     0.345 HD
ATOM      7  H   UNL     1      -0.454  31.425 -12.810  1.00  0.00     0.345 HD
ENDBRANCH   3   4
BRANCH   3   8
ATOM      8  C   UNL     1       2.399  30.067 -13.964  1.00  0.00     0.099 C 
ATOM      9  O   UNL     1       3.092  29.927 -15.005  1.00  0.00    -0.544 OA
ATOM     10  O   UNL     1       2.925  29.677 -12.737  1.00  0.00    -0.544 OA
ENDBRANCH   3   8
ENDBRANCH   1   3
BRANCH   1  11
ATOM     11  C   UNL     1       0.480  28.124 -14.561  1.00  0.00     0.006 C 
ATOM     12  C   UNL     1       0.057  27.447 -13.256  1.00  0.00     0.004 C 
ENDBRANCH   1  11
TORSDOF 4
ENDMDL
MODEL 4
REMARK VINA RESULT:    -2.298      2.068      3.011
REMARK INTER + INTRA:          -2.785
REMARK INTER:                  -2.737
REMARK INTRA:                  -0.049
REMARK UNBOUND:                -0.018
REMARK SMILES CC[C@H](C)[C@@H]([NH3+])C(=O)[O-]
REMARK SMILES IDX 3 1 4 2 5 3 6 4 7 8 8 9 9 10 2 11 1 12
REMARK H PARENT 6 5 6 6 6 7
REMARK Flexibility Score: inf
ROOT
ATOM      1  C   UNL     1       0.655  31.103 -13.953  1.00  0.00     0.050 C 
ATOM      2  C   UNL     1       0.188  31.062 -12.486  1.00  0.00     0.014 C 
ENDROOT
BRANCH   1   3
ATOM      3  C   UNL     1      -0.246  30.183 -14.837  1.00  0.00     0.230 C 
BRANCH   3   4
ATOM      4  N   UNL     1      -0.584  30.815 -16.121  1.00  0.00    -0.350 N 
ATOM      5  H   UNL     1      -0.476  30.114 -16.891  1.00  0.00     0.345 HD
ATOM      6  H   UNL     1       0.036  31.628 -16.329  1.00  0.00     0.345 HD
ATOM      7  H   UNL     1      -1.581  31.133 -16.114  1.00  0.00     0.345 HD
ENDBRANCH   3   4
BRANCH   3   8
ATOM      8  C   UNL     1       0.361  28.818 -15.056  1.00  0.00     0.099 C 
ATOM      9  O   UNL     1       0.978  28.567 -16.125  1.00  0.00    -0.544 OA
ATOM     10  O   UNL     1       0.219  27.818 -14.100  1.00  0.00    -0.544 OA
ENDBRANCH   3   8
ENDBRANCH   1   3
BRANCH   1  11
ATOM     11  C   UNL     1       2.166  30.767 -14.069  1.00  0.00     0.006 C 
ATOM     12  C   UNL     1       2.804  30.419 -12.722  1.00  0.00     0.004 C 
ENDBRANCH   1  11
TORSDOF 4
ENDMDL
MODEL 5
REMARK VINA RESULT:    -2.129      2.327      3.298
REMARK INTER + INTRA:          -2.582
REMARK INTER:                  -2.678
REMARK INTRA:                   0.096
REMARK UNBOUND:                -0.018
REMARK SMILES CC[C@H](C)[C@@H]([NH3+])C(=O)[O-]
REMARK SMILES IDX 3 1 4 2 5 3 6 4 7 8 8 9 9 10 2 11 1 12
REMARK H PARENT 6 5 6 6 6 7
REMARK Flexibility Score: inf
ROOT
ATOM      1  C   UNL     1       1.086  30.856 -13.430  1.00  0.00     0.050 C 
ATOM      2  C   UNL     1      -0.291  31.125 -12.794  1.00  0.00     0.014 C 
ENDROOT
BRANCH   1   3
ATOM      3  C   UNL     1       1.029  31.093 -14.972  1.00  0.00     0.230 C 
BRANCH   3   4
ATOM      4  N   UNL     1       2.294  30.736 -15.631  1.00  0.00    -0.350 N 
ATOM      5  H   UNL     1       2.107  30.031 -16.381  1.00  0.00     0.345 HD
ATOM      6  H   UNL     1       2.980  30.327 -14.959  1.00  0.00     0.345 HD
ATOM      7  H   UNL     1       2.716  31.581 -16.081  1.00  0.00     0.345 HD
ENDBRANCH   3   4
BRANCH   3   8
ATOM      8  C   UNL     1      -0.133  30.380 -15.624  1.00  0.00     0.099 C 
ATOM      9  O   UNL     1       0.028  29.229 -16.108  1.00  0.00    -0.544 OA
ATOM     10  O   UNL     1      -1.375  30.996 -15.725  1.00  0.00    -0.544 OA
ENDBRANCH   3   8
ENDBRANCH   1   3
BRANCH   1  11
ATOM     11  C   UNL     1       1.611  29.446 -13.050  1.00  0.00     0.006 C 
ATOM     12  C   UNL     1       0.488  28.462 -12.713  1.00  0.00     0.004 C 
ENDBRANCH   1  11
TORSDOF 4
ENDMDL
MODEL 6
REMARK VINA RESULT:    -2.109      2.229      2.637
REMARK INTER + INTRA:          -2.558
REMARK INTER:                  -2.565
REMARK INTRA:                   0.007
REMARK UNBOUND:                -0.018
REMARK SMILES CC[C@H](C)[C@@H]([NH3+])C(=O)[O-]
REMARK SMILES IDX 3 1 4 2 5 3 6 4 7 8 8 9 9 10 2 11 1 12
REMARK H PARENT 6 5 6 6 6 7
REMARK Flexibility Score: inf
ROOT
ATOM      1  C   UNL     1       0.607  29.764 -12.807  1.00  0.00     0.050 C 
ATOM      2  C   UNL     1      -0.384  30.937 -12.690  1.00  0.00     0.014 C 
ENDROOT
BRANCH   1   3
ATOM      3  C   UNL     1       2.018  30.283 -13.228  1.00  0.00     0.230 C 
BRANCH   3   4
ATOM      4  N   UNL     1       3.099  29.512 -12.597  1.00  0.00    -0.350 N 
ATOM      5  H   UNL     1       2.910  28.489 -12.717  1.00  0.00     0.345 HD
ATOM      6  H   UNL     1       3.175  29.714 -11.575  1.00  0.00     0.345 HD
ATOM      7  H   UNL     1       4.012  29.728 -13.060  1.00  0.00     0.345 HD
ENDBRANCH   3   4
BRANCH   3   8
ATOM      8  C   UNL     1       2.195  30.323 -14.727  1.00  0.00     0.099 C 
ATOM      9  O   UNL     1       1.475  31.085 -15.426  1.00  0.00    -0.544 OA
ATOM     10  O   UNL     1       3.125  29.501 -15.353  1.00  0.00    -0.544 OA
ENDBRANCH   3   8
ENDBRANCH   1   3
BRANCH   1  11
ATOM     11  C   UNL     1       0.058  28.660 -13.749  1.00  0.00     0.006 C 
ATOM     12  C   UNL     1       0.054  27.273 -13.104  1.00  0.00     0.004 C 
ENDBRANCH   1  11
TORSDOF 4
ENDMDL
MODEL 7
REMARK VINA RESULT:    -1.704      2.227      3.292
REMARK INTER + INTRA:          -2.070
REMARK INTER:                  -2.130
REMARK INTRA:                   0.060
REMARK UNBOUND:                -0.018
REMARK SMILES CC[C@H](C)[C@@H]([NH3+])C(=O)[O-]
REMARK SMILES IDX 3 1 4 2 5 3 6 4 7 8 8 9 9 10 2 11 1 12
REMARK H PARENT 6 5 6 6 6 7
REMARK Flexibility Score: inf
ROOT
ATOM      1  C   UNL     1       0.148  28.901 -14.698  1.00  0.00     0.050 C 
ATOM      2  C   UNL     1       1.355  28.511 -15.572  1.00  0.00     0.014 C 
ENDROOT
BRANCH   1   3
ATOM      3  C   UNL     1       0.058  30.453 -14.557  1.00  0.00     0.230 C 
BRANCH   3   4
ATOM      4  N   UNL     1      -1.262  30.966 -14.954  1.00  0.00    -0.350 N 
ATOM      5  H   UNL     1      -1.394  30.826 -15.983  1.00  0.00     0.345 HD
ATOM      6  H   UNL     1      -1.363  31.983 -14.745  1.00  0.00     0.345 HD
ATOM      7  H   UNL     1      -2.017  30.436 -14.458  1.00  0.00     0.345 HD
ENDBRANCH   3   4
BRANCH   3   8
ATOM      8  C   UNL     1       0.422  30.930 -13.171  1.00  0.00     0.099 C 
ATOM      9  O   UNL     1       1.629  31.125 -12.870  1.00  0.00    -0.544 OA
ATOM     10  O   UNL     1      -0.562  31.125 -12.208  1.00  0.00    -0.544 OA
ENDBRANCH   3   8
ENDBRANCH   1   3
BRANCH   1  11
ATOM     11  C   UNL     1       0.187  28.167 -13.332  1.00  0.00     0.006 C 
ATOM     12  C   UNL     1      -0.203  26.691 -13.437  1.00  0.00     0.004 C 
ENDBRANCH   1  11
TORSDOF 4
ENDMDL
