MODEL 1
REMARK VINA RESULT:    -4.490      0.000      0.000
REMARK INTER + INTRA:          -6.146
REMARK INTER:                  -6.065
REMARK INTRA:                  -0.081
REMARK UNBOUND:                -0.081
REMARK SMILES [NH3+]CCCC[C@@H]([NH3+])C(=O)[O-]
REMARK SMILES IDX 4 1 3 2 2 3 1 4 5 8 6 9 7 10 8 14 9 15 10 16
REMARK H PARENT 1 5 1 6 1 7 7 11 7 12 7 13
REMARK Flexibility Score: inf
ROOT
ATOM      1  C   UNL     1      20.512   7.472   7.291  1.00  0.00     0.012 C 
ENDROOT
BRANCH   1   2
ATOM      2  C   UNL     1      19.733   8.456   6.403  1.00  0.00     0.061 C 
BRANCH   2   3
ATOM      3  C   UNL     1      20.076   9.927   6.689  1.00  0.00     0.258 C 
BRANCH   3   4
ATOM      4  N   UNL     1      19.129  10.821   6.025  1.00  0.00    -0.358 N 
ATOM      5  H   UNL     1      18.382  10.264   5.550  1.00  0.00     0.344 HD
ATOM      6  H   UNL     1      19.626  11.416   5.323  1.00  0.00     0.344 HD
ATOM      7  H   UNL     1      18.686  11.443   6.740  1.00  0.00     0.344 HD
ENDBRANCH   3   4
ENDBRANCH   2   3
ENDBRANCH   1   2
BRANCH   1   8
ATOM      8  C   UNL     1      20.910   6.142   6.616  1.00  0.00     0.072 C 
BRANCH   8   9
ATOM      9  C   UNL     1      22.164   6.243   5.709  1.00  0.00     0.227 C 
BRANCH   9  10
ATOM     10  N   UNL     1      23.005   7.373   6.121  1.00  0.00    -0.350 N 
ATOM     11  H   UNL     1      22.478   8.270   6.005  1.00  0.00     0.345 HD
ATOM     12  H   UNL     1      23.294   7.272   7.122  1.00  0.00     0.345 HD
ATOM     13  H   UNL     1      23.860   7.421   5.519  1.00  0.00     0.345 HD
ENDBRANCH   9  10
BRANCH   9  14
ATOM     14  C   UNL     1      22.978   4.975   5.748  1.00  0.00     0.099 C 
ATOM     15  O   UNL     1      23.954   4.826   4.965  1.00  0.00    -0.544 OA
ATOM     16  O   UNL     1      22.693   3.984   6.681  1.00  0.00    -0.544 OA
ENDBRANCH   9  14
ENDBRANCH   8   9
ENDBRANCH   1   8
TORSDOF 7
ENDMDL
MODEL 2
REMARK VINA RESULT:    -4.378      3.600      5.367
REMARK INTER + INTRA:          -5.994
REMARK INTER:                  -5.917
REMARK INTRA:                  -0.077
REMARK UNBOUND:                -0.081
REMARK SMILES [NH3+]CCCC[C@@H]([NH3+])C(=O)[O-]
REMARK SMILES IDX 4 1 3 2 2 3 1 4 5 8 6 9 7 10 8 14 9 15 10 16
REMARK H PARENT 1 5 1 6 1 7 7 11 7 12 7 13
REMARK Flexibility Score: inf
ROOT
ATOM      1  C   UNL     1      21.722   6.050   5.939  1.00  0.00     0.012 C 
ENDROOT
BRANCH   1   2
ATOM      2  C   UNL     1      21.503   4.736   6.708  1.00  0.00     0.061 C 
BRANCH   2   3
ATOM      3  C   UNL     1      22.711   3.787   6.634  1.00  0.00     0.258 C 
BRANCH   3   4
ATOM      4  N   UNL     1      22.276   2.392   6.630  1.00  0.00    -0.358 N 
ATOM      5  H   UNL     1      23.095   1.761   6.466  1.00  0.00     0.344 HD
ATOM      6  H   UNL     1      21.559   2.240   5.884  1.00  0.00     0.344 HD
ATOM      7  H   UNL     1      21.852   2.162   7.558  1.00  0.00     0.344 HD
ENDBRANCH   3   4
ENDBRANCH   2   3
ENDBRANCH   1   2
BRANCH   1   8
ATOM      8  C   UNL     1      20.493   6.979   5.851  1.00  0.00     0.072 C 
BRANCH   8   9
ATOM      9  C   UNL     1      20.376   7.987   7.023  1.00  0.00     0.227 C 
BRANCH   9  10
ATOM     10  N   UNL     1      21.682   8.180   7.665  1.00  0.00    -0.350 N 
ATOM     11  H   UNL     1      21.900   9.201   7.730  1.00  0.00     0.345 HD
ATOM     12  H   UNL     1      21.685   7.766   8.626  1.00  0.00     0.345 HD
ATOM     13  H   UNL     1      22.432   7.726   7.093  1.00  0.00     0.345 HD
ENDBRANCH   9  10
BRANCH   9  14
ATOM     14  C   UNL     1      19.848   9.320   6.557  1.00  0.00     0.099 C 
ATOM     15  O   UNL     1      18.705   9.398   6.034  1.00  0.00    -0.544 OA
ATOM     16  O   UNL     1      20.594  10.477   6.745  1.00  0.00    -0.544 OA
ENDBRANCH   9  14
ENDBRANCH   8   9
ENDBRANCH   1   8
TORSDOF 7
ENDMDL
MODEL 3
REMARK VINA RESULT:    -4.122      1.753      2.167
REMARK INTER + INTRA:          -5.648
REMARK INTER:                  -5.452
REMARK INTRA:                  -0.196
REMARK UNBOUND:                -0.081
REMARK SMILES [NH3+]CCCC[C@@H]([NH3+])C(=O)[O-]
REMARK SMILES IDX 4 1 3 2 2 3 1 4 5 8 6 9 7 10 8 14 9 15 10 16
REMARK H PARENT 1 5 1 6 1 7 7 11 7 12 7 13
REMARK Flexibility Score: inf
ROOT
ATOM      1  C   UNL     1      20.444   6.549   6.036  1.00  0.00     0.012 C 
ENDROOT
BRANCH   1   2
ATOM      2  C   UNL     1      20.890   7.556   7.109  1.00  0.00     0.061 C 
BRANCH   2   3
ATOM      3  C   UNL     1      20.226   8.934   6.954  1.00  0.00     0.258 C 
BRANCH   3   4
ATOM      4  N   UNL     1      19.115   8.873   6.005  1.00  0.00    -0.358 N 
ATOM      5  H   UNL     1      18.245   9.254   6.445  1.00  0.00     0.344 HD
ATOM      6  H   UNL     1      18.954   7.885   5.702  1.00  0.00     0.344 HD
ATOM      7  H   UNL     1      19.351   9.450   5.165  1.00  0.00     0.344 HD
ENDBRANCH   3   4
ENDBRANCH   2   3
ENDBRANCH   1   2
BRANCH   1   8
ATOM      8  C   UNL     1      21.585   5.884   5.236  1.00  0.00     0.072 C 
BRANCH   8   9
ATOM      9  C   UNL     1      22.925   5.784   6.010  1.00  0.00     0.227 C 
BRANCH   9  10
ATOM     10  N   UNL     1      23.249   4.379   6.291  1.00  0.00    -0.350 N 
ATOM     11  H   UNL     1      23.285   4.223   7.325  1.00  0.00     0.345 HD
ATOM     12  H   UNL     1      22.531   3.744   5.871  1.00  0.00     0.345 HD
ATOM     13  H   UNL     1      24.190   4.144   5.897  1.00  0.00     0.345 HD
ENDBRANCH   9  10
BRANCH   9  14
ATOM     14  C   UNL     1      24.058   6.412   5.238  1.00  0.00     0.099 C 
ATOM     15  O   UNL     1      25.040   5.712   4.875  1.00  0.00    -0.544 OA
ATOM     16  O   UNL     1      24.004   7.753   4.877  1.00  0.00    -0.544 OA
ENDBRANCH   9  14
ENDBRANCH   8   9
ENDBRANCH   1   8
TORSDOF 7
ENDMDL
MODEL 4
REMARK VINA RESULT:    -3.939      0.988      1.562
REMARK INTER + INTRA:          -5.401
REMARK INTER:                  -5.303
REMARK INTRA:                  -0.099
REMARK UNBOUND:                -0.081
REMARK SMILES [NH3+]CCCC[C@@H]([NH3+])C(=O)[O-]
REMARK SMILES IDX 4 1 3 2 2 3 1 4 5 8 6 9 7 10 8 14 9 15 10 16
REMARK H PARENT 1 5 1 6 1 7 7 11 7 12 7 13
REMARK Flexibility Score: inf
ROOT
ATOM      1  C   UNL     1      19.775   8.306   6.410  1.00  0.00     0.012 C 
ENDROOT
BRANCH   1   2
ATOM      2  C   UNL     1      20.205   9.739   6.765  1.00  0.00     0.061 C 
BRANCH   2   3
ATOM      3  C   UNL     1      19.382  10.813   6.035  1.00  0.00     0.258 C 
BRANCH   3   4
ATOM      4  N   UNL     1      19.404  12.076   6.771  1.00  0.00    -0.358 N 
ATOM      5  H   UNL     1      20.102  12.026   7.549  1.00  0.00     0.344 HD
ATOM      6  H   UNL     1      18.456  12.282   7.161  1.00  0.00     0.344 HD
ATOM      7  H   UNL     1      19.676  12.848   6.120  1.00  0.00     0.344 HD
ENDBRANCH   3   4
ENDBRANCH   2   3
ENDBRANCH   1   2
BRANCH   1   8
ATOM      8  C   UNL     1      20.651   7.184   7.005  1.00  0.00     0.072 C 
BRANCH   8   9
ATOM      9  C   UNL     1      21.665   6.574   6.002  1.00  0.00     0.227 C 
BRANCH   9  10
ATOM     10  N   UNL     1      22.890   7.382   5.958  1.00  0.00    -0.350 N 
ATOM     11  H   UNL     1      22.748   8.273   6.487  1.00  0.00     0.345 HD
ATOM     12  H   UNL     1      23.693   6.858   6.377  1.00  0.00     0.345 HD
ATOM     13  H   UNL     1      23.120   7.628   4.967  1.00  0.00     0.345 HD
ENDBRANCH   9  10
BRANCH   9  14
ATOM     14  C   UNL     1      22.017   5.154   6.367  1.00  0.00     0.099 C 
ATOM     15  O   UNL     1      21.317   4.524   7.203  1.00  0.00    -0.544 OA
ATOM     16  O   UNL     1      23.084   4.512   5.748  1.00  0.00    -0.544 OA
ENDBRANCH   9  14
ENDBRANCH   8   9
ENDBRANCH   1   8
TORSDOF 7
ENDMDL
MODEL 5
REMARK VINA RESULT:    -3.794     23.857     24.653
REMARK INTER + INTRA:          -5.205
REMARK INTER:                  -5.086
REMARK INTRA:                  -0.120
REMARK UNBOUND:                -0.081
REMARK SMILES [NH3+]CCCC[C@@H]([NH3+])C(=O)[O-]
REMARK SMILES IDX 4 1 3 2 2 3 1 4 5 8 6 9 7 10 8 14 9 15 10 16
REMARK H PARENT 1 5 1 6 1 7 7 11 7 12 7 13
REMARK Flexibility Score: inf
ROOT
ATOM      1  C   UNL     1      35.941  -2.023  22.549  1.00  0.00     0.012 C 
ENDROOT
BRANCH   1   2
ATOM      2  C   UNL     1      36.855  -2.017  21.313  1.00  0.00     0.061 C 
BRANCH   2   3
ATOM      3  C   UNL     1      37.110  -3.424  20.747  1.00  0.00     0.258 C 
BRANCH   3   4
ATOM      4  N   UNL     1      36.160  -4.388  21.300  1.00  0.00    -0.358 N 
ATOM      5  H   UNL     1      35.702  -3.992  22.153  1.00  0.00     0.344 HD
ATOM      6  H   UNL     1      36.650  -5.279  21.543  1.00  0.00     0.344 HD
ATOM      7  H   UNL     1      35.424  -4.592  20.585  1.00  0.00     0.344 HD
ENDBRANCH   3   4
ENDBRANCH   2   3
ENDBRANCH   1   2
BRANCH   1   8
ATOM      8  C   UNL     1      36.651  -1.789  23.900  1.00  0.00     0.072 C 
BRANCH   8   9
ATOM      9  C   UNL     1      35.689  -1.689  25.112  1.00  0.00     0.227 C 
BRANCH   9  10
ATOM     10  N   UNL     1      34.995  -0.395  25.109  1.00  0.00    -0.350 N 
ATOM     11  H   UNL     1      35.446   0.249  24.420  1.00  0.00     0.345 HD
ATOM     12  H   UNL     1      33.987  -0.518  24.856  1.00  0.00     0.345 HD
ATOM     13  H   UNL     1      35.061   0.048  26.055  1.00  0.00     0.345 HD
ENDBRANCH   9  10
BRANCH   9  14
ATOM     14  C   UNL     1      34.671  -2.801  25.103  1.00  0.00     0.099 C 
ATOM     15  O   UNL     1      35.047  -4.003  25.125  1.00  0.00    -0.544 OA
ATOM     16  O   UNL     1      33.311  -2.511  25.124  1.00  0.00    -0.544 OA
ENDBRANCH   9  14
ENDBRANCH   8   9
ENDBRANCH   1   8
TORSDOF 7
ENDMDL
MODEL 6
REMARK VINA RESULT:    -3.571     23.353     23.875
REMARK INTER + INTRA:          -4.905
REMARK INTER:                  -4.754
REMARK INTRA:                  -0.151
REMARK UNBOUND:                -0.081
REMARK SMILES [NH3+]CCCC[C@@H]([NH3+])C(=O)[O-]
REMARK SMILES IDX 4 1 3 2 2 3 1 4 5 8 6 9 7 10 8 14 9 15 10 16
REMARK H PARENT 1 5 1 6 1 7 7 11 7 12 7 13
REMARK Flexibility Score: inf
ROOT
ATOM      1  C   UNL     1      36.023  -1.990  24.473  1.00  0.00     0.012 C 
ENDROOT
BRANCH   1   2
ATOM      2  C   UNL     1      34.545  -1.699  24.165  1.00  0.00     0.061 C 
BRANCH   2   3
ATOM      3  C   UNL     1      33.579  -2.414  25.124  1.00  0.00     0.258 C 
BRANCH   3   4
ATOM      4  N   UNL     1      32.191  -2.080  24.809  1.00  0.00    -0.358 N 
ATOM      5  H   UNL     1      31.546  -2.549  25.486  1.00  0.00     0.344 HD
ATOM      6  H   UNL     1      31.960  -2.381  23.834  1.00  0.00     0.344 HD
ATOM      7  H   UNL     1      32.063  -1.044  24.881  1.00  0.00     0.344 HD
ENDBRANCH   3   4
ENDBRANCH   2   3
ENDBRANCH   1   2
BRANCH   1   8
ATOM      8  C   UNL     1      36.988  -1.858  23.276  1.00  0.00     0.072 C 
BRANCH   8   9
ATOM      9  C   UNL     1      36.306  -2.017  21.892  1.00  0.00     0.227 C 
BRANCH   9  10
ATOM     10  N   UNL     1      36.627  -0.873  21.029  1.00  0.00    -0.350 N 
ATOM     11  H   UNL     1      36.427  -1.113  20.031  1.00  0.00     0.345 HD
ATOM     12  H   UNL     1      36.061  -0.036  21.302  1.00  0.00     0.345 HD
ATOM     13  H   UNL     1      37.644  -0.641  21.108  1.00  0.00     0.345 HD
ENDBRANCH   9  10
BRANCH   9  14
ATOM     14  C   UNL     1      36.731  -3.292  21.209  1.00  0.00     0.099 C 
ATOM     15  O   UNL     1      35.941  -4.270  21.151  1.00  0.00    -0.544 OA
ATOM     16  O   UNL     1      37.975  -3.380  20.595  1.00  0.00    -0.544 OA
ENDBRANCH   9  14
ENDBRANCH   8   9
ENDBRANCH   1   8
TORSDOF 7
ENDMDL
MODEL 7
REMARK VINA RESULT:    -3.411      3.218      4.795
REMARK INTER + INTRA:          -4.688
REMARK INTER:                  -4.607
REMARK INTRA:                  -0.081
REMARK UNBOUND:                -0.081
REMARK SMILES [NH3+]CCCC[C@@H]([NH3+])C(=O)[O-]
REMARK SMILES IDX 4 1 3 2 2 3 1 4 5 8 6 9 7 10 8 14 9 15 10 16
REMARK H PARENT 1 5 1 6 1 7 7 11 7 12 7 13
REMARK Flexibility Score: inf
ROOT
ATOM      1  C   UNL     1      22.468   6.786   5.878  1.00  0.00     0.012 C 
ENDROOT
BRANCH   1   2
ATOM      2  C   UNL     1      23.301   5.972   4.875  1.00  0.00     0.061 C 
BRANCH   2   3
ATOM      3  C   UNL     1      24.790   6.358   4.876  1.00  0.00     0.258 C 
BRANCH   3   4
ATOM      4  N   UNL     1      24.952   7.805   5.008  1.00  0.00    -0.358 N 
ATOM      5  H   UNL     1      24.015   8.270   5.034  1.00  0.00     0.344 HD
ATOM      6  H   UNL     1      25.511   8.179   4.208  1.00  0.00     0.344 HD
ATOM      7  H   UNL     1      25.458   8.012   5.900  1.00  0.00     0.344 HD
ENDBRANCH   3   4
ENDBRANCH   2   3
ENDBRANCH   1   2
BRANCH   1   8
ATOM      8  C   UNL     1      20.938   6.619   5.759  1.00  0.00     0.072 C 
BRANCH   8   9
ATOM      9  C   UNL     1      20.139   7.254   6.927  1.00  0.00     0.227 C 
BRANCH   9  10
ATOM     10  N   UNL     1      20.786   6.957   8.211  1.00  0.00    -0.350 N 
ATOM     11  H   UNL     1      21.823   7.059   8.119  1.00  0.00     0.345 HD
ATOM     12  H   UNL     1      20.441   7.606   8.956  1.00  0.00     0.345 HD
ATOM     13  H   UNL     1      20.582   5.970   8.494  1.00  0.00     0.345 HD
ENDBRANCH   9  10
BRANCH   9  14
ATOM     14  C   UNL     1      20.015   8.747   6.764  1.00  0.00     0.099 C 
ATOM     15  O   UNL     1      20.893   9.510   7.248  1.00  0.00    -0.544 OA
ATOM     16  O   UNL     1      18.962   9.291   6.037  1.00  0.00    -0.544 OA
ENDBRANCH   9  14
ENDBRANCH   8   9
ENDBRANCH   1   8
TORSDOF 7
ENDMDL
MODEL 8
REMARK VINA RESULT:    -2.687      3.921      5.635
REMARK INTER + INTRA:          -3.710
REMARK INTER:                  -3.605
REMARK INTRA:                  -0.105
REMARK UNBOUND:                -0.081
REMARK SMILES [NH3+]CCCC[C@@H]([NH3+])C(=O)[O-]
REMARK SMILES IDX 4 1 3 2 2 3 1 4 5 8 6 9 7 10 8 14 9 15 10 16
REMARK H PARENT 1 5 1 6 1 7 7 11 7 12 7 13
REMARK Flexibility Score: inf
ROOT
ATOM      1  C   UNL     1      20.306   7.624   7.254  1.00  0.00     0.012 C 
ENDROOT
BRANCH   1   2
ATOM      2  C   UNL     1      20.737   6.852   5.996  1.00  0.00     0.061 C 
BRANCH   2   3
ATOM      3  C   UNL     1      21.518   5.566   6.317  1.00  0.00     0.258 C 
BRANCH   3   4
ATOM      4  N   UNL     1      22.950   5.757   6.092  1.00  0.00    -0.358 N 
ATOM      5  H   UNL     1      23.271   6.640   6.552  1.00  0.00     0.344 HD
ATOM      6  H   UNL     1      23.151   5.799   5.067  1.00  0.00     0.344 HD
ATOM      7  H   UNL     1      23.471   4.950   6.506  1.00  0.00     0.344 HD
ENDBRANCH   3   4
ENDBRANCH   2   3
ENDBRANCH   1   2
BRANCH   1   8
ATOM      8  C   UNL     1      20.477   9.157   7.181  1.00  0.00     0.072 C 
BRANCH   8   9
ATOM      9  C   UNL     1      19.570   9.846   6.129  1.00  0.00     0.227 C 
BRANCH   9  10
ATOM     10  N   UNL     1      18.158   9.547   6.396  1.00  0.00    -0.350 N 
ATOM     11  H   UNL     1      17.547  10.157   5.804  1.00  0.00     0.345 HD
ATOM     12  H   UNL     1      17.947   8.544   6.187  1.00  0.00     0.345 HD
ATOM     13  H   UNL     1      17.935   9.744   7.399  1.00  0.00     0.345 HD
ENDBRANCH   9  10
BRANCH   9  14
ATOM     14  C   UNL     1      19.772  11.339   6.118  1.00  0.00     0.099 C 
ATOM     15  O   UNL     1      20.934  11.821   6.185  1.00  0.00    -0.544 OA
ATOM     16  O   UNL     1      18.685  12.195   5.982  1.00  0.00    -0.544 OA
ENDBRANCH   9  14
ENDBRANCH   8   9
ENDBRANCH   1   8
TORSDOF 7
ENDMDL
MODEL 9
REMARK VINA RESULT:    -2.457      3.151      5.181
REMARK INTER + INTRA:          -3.399
REMARK INTER:                  -3.420
REMARK INTRA:                   0.021
REMARK UNBOUND:                -0.081
REMARK SMILES [NH3+]CCCC[C@@H]([NH3+])C(=O)[O-]
REMARK SMILES IDX 4 1 3 2 2 3 1 4 5 8 6 9 7 10 8 14 9 15 10 16
REMARK H PARENT 1 5 1 6 1 7 7 11 7 12 7 13
REMARK Flexibility Score: inf
ROOT
ATOM      1  C   UNL     1      22.752   5.452   6.674  1.00  0.00     0.012 C 
ENDROOT
BRANCH   1   2
ATOM      2  C   UNL     1      22.918   4.104   5.951  1.00  0.00     0.061 C 
BRANCH   2   3
ATOM      3  C   UNL     1      22.137   2.962   6.621  1.00  0.00     0.258 C 
BRANCH   3   4
ATOM      4  N   UNL     1      23.013   2.165   7.479  1.00  0.00    -0.358 N 
ATOM      5  H   UNL     1      23.445   1.388   6.927  1.00  0.00     0.344 HD
ATOM      6  H   UNL     1      22.471   1.771   8.281  1.00  0.00     0.344 HD
ATOM      7  H   UNL     1      23.774   2.777   7.854  1.00  0.00     0.344 HD
ENDBRANCH   3   4
ENDBRANCH   2   3
ENDBRANCH   1   2
BRANCH   1   8
ATOM      8  C   UNL     1      22.453   6.660   5.762  1.00  0.00     0.072 C 
BRANCH   8   9
ATOM      9  C   UNL     1      20.956   7.061   5.713  1.00  0.00     0.227 C 
BRANCH   9  10
ATOM     10  N   UNL     1      20.109   5.865   5.613  1.00  0.00    -0.350 N 
ATOM     11  H   UNL     1      20.340   5.200   6.387  1.00  0.00     0.345 HD
ATOM     12  H   UNL     1      19.097   6.124   5.672  1.00  0.00     0.345 HD
ATOM     13  H   UNL     1      20.287   5.377   4.704  1.00  0.00     0.345 HD
ENDBRANCH   9  10
BRANCH   9  14
ATOM     14  C   UNL     1      20.555   7.856   6.929  1.00  0.00     0.099 C 
ATOM     15  O   UNL     1      20.385   9.101   6.842  1.00  0.00    -0.544 OA
ATOM     16  O   UNL     1      20.319   7.217   8.141  1.00  0.00    -0.544 OA
ENDBRANCH   9  14
ENDBRANCH   8   9
ENDBRANCH   1   8
TORSDOF 7
ENDMDL
