MODEL 1
REMARK VINA RESULT:    -4.216      0.000      0.000
REMARK INTER + INTRA:         -12.317
REMARK INTER:                 -11.117
REMARK INTRA:                  -1.200
REMARK UNBOUND:                -1.200
REMARK SMILES CCCCCCCCCCCCCCCCCCCCCCCCCCCCCC(=O)[O-]
REMARK SMILES IDX 16 1 17 2 18 3 19 4 20 5 21 6 22 7 23 8 24 9 25 10 26 11
REMARK SMILES IDX 27 12 28 13 29 14 30 15 31 16 32 17 15 18 14 19 13 20 12 21
REMARK SMILES IDX 11 22 10 23 9 24 8 25 7 26 6 27 5 28 4 29 3 30 2 31 1 32
REMARK H PARENT
REMARK Flexibility Score: inf
ROOT
ATOM      1  C   UNL     1       4.254  16.298  21.853  1.00  0.00     0.000 C 
ENDROOT
BRANCH   1   2
ATOM      2  C   UNL     1       2.889  16.508  22.535  1.00  0.00     0.000 C 
BRANCH   2   3
ATOM      3  C   UNL     1       1.673  15.988  21.744  1.00  0.00     0.000 C 
BRANCH   3   4
ATOM      4  C   UNL     1       0.339  16.061  22.523  1.00  0.00     0.000 C 
BRANCH   4   5
ATOM      5  C   UNL     1      -0.928  15.882  21.662  1.00  0.00     0.000 C 
BRANCH   5   6
ATOM      6  C   UNL     1      -1.897  17.084  21.633  1.00  0.00     0.000 C 
BRANCH   6   7
ATOM      7  C   UNL     1      -2.836  17.202  22.846  1.00  0.00     0.000 C 
BRANCH   7   8
ATOM      8  C   UNL     1      -3.796  16.006  22.973  1.00  0.00     0.000 C 
BRANCH   8   9
ATOM      9  C   UNL     1      -4.283  15.494  21.607  1.00  0.00     0.000 C 
BRANCH   9  10
ATOM     10  C   UNL     1      -5.717  15.954  21.286  1.00  0.00     0.000 C 
BRANCH  10  11
ATOM     11  C   UNL     1      -6.749  14.826  21.445  1.00  0.00     0.000 C 
BRANCH  11  12
ATOM     12  C   UNL     1      -8.069  15.308  22.066  1.00  0.00     0.000 C 
BRANCH  12  13
ATOM     13  C   UNL     1      -8.236  16.825  21.890  1.00  0.00     0.006 C 
BRANCH  13  14
ATOM     14  C   UNL     1      -8.727  17.199  20.484  1.00  0.00     0.053 C 
BRANCH  14  15
ATOM     15  C   UNL     1      -8.692  18.680  20.253  1.00  0.00     0.041 C 
ATOM     16  O   UNL     1      -8.425  19.137  19.110  1.00  0.00    -0.550 OA
ATOM     17  O   UNL     1      -8.961  19.553  21.299  1.00  0.00    -0.550 OA
ENDBRANCH  14  15
ENDBRANCH  13  14
ENDBRANCH  12  13
ENDBRANCH  11  12
ENDBRANCH  10  11
ENDBRANCH   9  10
ENDBRANCH   8   9
ENDBRANCH   7   8
ENDBRANCH   6   7
ENDBRANCH   5   6
ENDBRANCH   4   5
ENDBRANCH   3   4
ENDBRANCH   2   3
ENDBRANCH   1   2
BRANCH   1  18
ATOM     18  C   UNL     1       4.865  14.894  22.026  1.00  0.00     0.000 C 
BRANCH  18  19
ATOM     19  C   UNL     1       6.393  14.918  22.175  1.00  0.00     0.000 C 
BRANCH  19  20
ATOM     20  C   UNL     1       6.915  16.362  22.220  1.00  0.00     0.000 C 
BRANCH  20  21
ATOM     21  C   UNL     1       7.453  16.842  20.863  1.00  0.00     0.000 C 
BRANCH  21  22
ATOM     22  C   UNL     1       8.915  17.314  20.936  1.00  0.00     0.000 C 
BRANCH  22  23
ATOM     23  C   UNL     1       9.885  16.373  20.198  1.00  0.00     0.000 C 
BRANCH  23  24
ATOM     24  C   UNL     1       9.826  14.902  20.646  1.00  0.00    -0.000 C 
BRANCH  24  25
ATOM     25  C   UNL     1      11.059  14.093  20.214  1.00  0.00    -0.000 C 
BRANCH  25  26
ATOM     26  C   UNL     1      11.125  13.969  18.684  1.00  0.00    -0.000 C 
BRANCH  26  27
ATOM     27  C   UNL     1      10.699  12.581  18.172  1.00  0.00    -0.000 C 
BRANCH  27  28
ATOM     28  C   UNL     1      10.793  11.441  19.204  1.00  0.00    -0.000 C 
BRANCH  28  29
ATOM     29  C   UNL     1      10.680  10.044  18.571  1.00  0.00    -0.000 C 
BRANCH  29  30
ATOM     30  C   UNL     1      10.037   9.012  19.515  1.00  0.00    -0.000 C 
BRANCH  30  31
ATOM     31  C   UNL     1      10.253   9.280  21.015  1.00  0.00    -0.003 C 
ATOM     32  C   UNL     1       9.441   8.347  21.913  1.00  0.00     0.004 C 
ENDBRANCH  30  31
ENDBRANCH  29  30
ENDBRANCH  28  29
ENDBRANCH  27  28
ENDBRANCH  26  27
ENDBRANCH  25  26
ENDBRANCH  24  25
ENDBRANCH  23  24
ENDBRANCH  22  23
ENDBRANCH  21  22
ENDBRANCH  20  21
ENDBRANCH  19  20
ENDBRANCH  18  19
ENDBRANCH   1  18
TORSDOF 28
ENDMDL
MODEL 2
REMARK VINA RESULT:    -3.916      5.307     15.403
REMARK INTER + INTRA:         -11.526
REMARK INTER:                  -9.496
REMARK INTRA:                  -2.030
REMARK UNBOUND:                -1.200
REMARK SMILES CCCCCCCCCCCCCCCCCCCCCCCCCCCCCC(=O)[O-]
REMARK SMILES IDX 16 1 17 2 18 3 19 4 20 5 21 6 22 7 23 8 24 9 25 10 26 11
REMARK SMILES IDX 27 12 28 13 29 14 30 15 31 16 32 17 15 18 14 19 13 20 12 21
REMARK SMILES IDX 11 22 10 23 9 24 8 25 7 26 6 27 5 28 4 29 3 30 2 31 1 32
REMARK H PARENT
REMARK Flexibility Score: inf
ROOT
ATOM      1  C   UNL     1       2.735  16.635  21.810  1.00  0.00     0.000 C 
ENDROOT
BRANCH   1   2
ATOM      2  C   UNL     1       4.162  16.113  21.554  1.00  0.00     0.000 C 
BRANCH   2   3
ATOM      3  C   UNL     1       4.561  14.868  22.368  1.00  0.00     0.000 C 
BRANCH   3   4
ATOM      4  C   UNL     1       5.940  14.984  23.059  1.00  0.00     0.000 C 
BRANCH   4   5
ATOM      5  C   UNL     1       6.667  16.326  22.838  1.00  0.00     0.000 C 
BRANCH   5   6
ATOM      6  C   UNL     1       7.882  16.284  21.887  1.00  0.00     0.000 C 
BRANCH   6   7
ATOM      7  C   UNL     1       7.663  16.929  20.508  1.00  0.00     0.000 C 
BRANCH   7   8
ATOM      8  C   UNL     1       8.961  17.482  19.896  1.00  0.00     0.000 C 
BRANCH   8   9
ATOM      9  C   UNL     1      10.144  17.429  20.878  1.00  0.00     0.000 C 
BRANCH   9  10
ATOM     10  C   UNL     1      11.125  16.287  20.555  1.00  0.00     0.000 C 
BRANCH  10  11
ATOM     11  C   UNL     1      10.570  15.311  19.506  1.00  0.00     0.000 C 
BRANCH  11  12
ATOM     12  C   UNL     1      10.326  13.903  20.071  1.00  0.00     0.000 C 
BRANCH  12  13
ATOM     13  C   UNL     1      11.063  12.843  19.239  1.00  0.00     0.006 C 
BRANCH  13  14
ATOM     14  C   UNL     1      10.174  12.241  18.142  1.00  0.00     0.053 C 
BRANCH  14  15
ATOM     15  C   UNL     1      10.149  10.743  18.199  1.00  0.00     0.041 C 
ATOM     16  O   UNL     1       9.401  10.091  17.422  1.00  0.00    -0.550 OA
ATOM     17  O   UNL     1      10.956  10.069  19.106  1.00  0.00    -0.550 OA
ENDBRANCH  14  15
ENDBRANCH  13  14
ENDBRANCH  12  13
ENDBRANCH  11  12
ENDBRANCH  10  11
ENDBRANCH   9  10
ENDBRANCH   8   9
ENDBRANCH   7   8
ENDBRANCH   6   7
ENDBRANCH   5   6
ENDBRANCH   4   5
ENDBRANCH   3   4
ENDBRANCH   2   3
ENDBRANCH   1   2
BRANCH   1  18
ATOM     18  C   UNL     1       2.088  16.156  23.124  1.00  0.00     0.000 C 
BRANCH  18  19
ATOM     19  C   UNL     1       0.561  16.022  23.028  1.00  0.00     0.000 C 
BRANCH  19  20
ATOM     20  C   UNL     1       0.082  16.259  21.587  1.00  0.00     0.000 C 
BRANCH  20  21
ATOM     21  C   UNL     1      -1.240  15.539  21.275  1.00  0.00     0.000 C 
BRANCH  21  22
ATOM     22  C   UNL     1      -2.473  16.420  21.536  1.00  0.00     0.000 C 
BRANCH  22  23
ATOM     23  C   UNL     1      -3.224  16.032  22.823  1.00  0.00     0.000 C 
BRANCH  23  24
ATOM     24  C   UNL     1      -4.632  15.454  22.601  1.00  0.00    -0.000 C 
BRANCH  24  25
ATOM     25  C   UNL     1      -5.408  16.174  21.487  1.00  0.00    -0.000 C 
BRANCH  25  26
ATOM     26  C   UNL     1      -6.645  15.365  21.069  1.00  0.00    -0.000 C 
BRANCH  26  27
ATOM     27  C   UNL     1      -7.728  15.309  22.163  1.00  0.00    -0.000 C 
BRANCH  27  28
ATOM     28  C   UNL     1      -9.056  16.006  21.810  1.00  0.00    -0.000 C 
BRANCH  28  29
ATOM     29  C   UNL     1      -9.123  17.462  22.302  1.00  0.00    -0.000 C 
BRANCH  29  30
ATOM     30  C   UNL     1      -8.437  18.449  21.341  1.00  0.00    -0.000 C 
BRANCH  30  31
ATOM     31  C   UNL     1      -8.543  18.084  19.850  1.00  0.00    -0.003 C 
ATOM     32  C   UNL     1      -8.433  19.297  18.927  1.00  0.00     0.004 C 
ENDBRANCH  30  31
ENDBRANCH  29  30
ENDBRANCH  28  29
ENDBRANCH  27  28
ENDBRANCH  26  27
ENDBRANCH  25  26
ENDBRANCH  24  25
ENDBRANCH  23  24
ENDBRANCH  22  23
ENDBRANCH  21  22
ENDBRANCH  20  21
ENDBRANCH  19  20
ENDBRANCH  18  19
ENDBRANCH   1  18
TORSDOF 28
ENDMDL
MODEL 3
REMARK VINA RESULT:    -3.879      5.205     15.092
REMARK INTER + INTRA:         -11.428
REMARK INTER:                  -9.651
REMARK INTRA:                  -1.777
REMARK UNBOUND:                -1.200
REMARK SMILES CCCCCCCCCCCCCCCCCCCCCCCCCCCCCC(=O)[O-]
REMARK SMILES IDX 16 1 17 2 18 3 19 4 20 5 21 6 22 7 23 8 24 9 25 10 26 11
REMARK SMILES IDX 27 12 28 13 29 14 30 15 31 16 32 17 15 18 14 19 13 20 12 21
REMARK SMILES IDX 11 22 10 23 9 24 8 25 7 26 6 27 5 28 4 29 3 30 2 31 1 32
REMARK H PARENT
REMARK Flexibility Score: inf
ROOT
ATOM      1  C   UNL     1       5.503  16.393  21.253  1.00  0.00     0.000 C 
ENDROOT
BRANCH   1   2
ATOM      2  C   UNL     1       6.996  16.675  20.997  1.00  0.00     0.000 C 
BRANCH   2   3
ATOM      3  C   UNL     1       7.935  16.357  22.177  1.00  0.00     0.000 C 
BRANCH   3   4
ATOM      4  C   UNL     1       9.378  15.997  21.752  1.00  0.00     0.000 C 
BRANCH   4   5
ATOM      5  C   UNL     1       9.738  14.502  21.872  1.00  0.00     0.000 C 
BRANCH   5   6
ATOM      6  C   UNL     1       9.023  13.727  23.000  1.00  0.00     0.000 C 
BRANCH   6   7
ATOM      7  C   UNL     1       8.096  12.592  22.534  1.00  0.00     0.000 C 
BRANCH   7   8
ATOM      8  C   UNL     1       8.568  11.206  23.007  1.00  0.00     0.000 C 
BRANCH   8   9
ATOM      9  C   UNL     1      10.101  11.079  23.020  1.00  0.00     0.000 C 
BRANCH   9  10
ATOM     10  C   UNL     1      10.575   9.659  22.662  1.00  0.00     0.000 C 
BRANCH  10  11
ATOM     11  C   UNL     1       9.945   9.135  21.362  1.00  0.00     0.000 C 
BRANCH  11  12
ATOM     12  C   UNL     1      10.981   8.560  20.385  1.00  0.00     0.000 C 
BRANCH  12  13
ATOM     13  C   UNL     1      11.067   9.414  19.112  1.00  0.00     0.006 C 
BRANCH  13  14
ATOM     14  C   UNL     1      10.973  10.917  19.410  1.00  0.00     0.053 C 
BRANCH  14  15
ATOM     15  C   UNL     1      10.425  11.687  18.247  1.00  0.00     0.041 C 
ATOM     16  O   UNL     1       9.627  11.138  17.441  1.00  0.00    -0.550 OA
ATOM     17  O   UNL     1      10.792  13.013  18.058  1.00  0.00    -0.550 OA
ENDBRANCH  14  15
ENDBRANCH  13  14
ENDBRANCH  12  13
ENDBRANCH  11  12
ENDBRANCH  10  11
ENDBRANCH   9  10
ENDBRANCH   8   9
ENDBRANCH   7   8
ENDBRANCH   6   7
ENDBRANCH   5   6
ENDBRANCH   4   5
ENDBRANCH   3   4
ENDBRANCH   2   3
ENDBRANCH   1   2
BRANCH   1  18
ATOM     18  C   UNL     1       5.193  15.634  22.557  1.00  0.00     0.000 C 
BRANCH  18  19
ATOM     19  C   UNL     1       3.731  15.175  22.653  1.00  0.00     0.000 C 
BRANCH  19  20
ATOM     20  C   UNL     1       2.773  16.332  22.331  1.00  0.00     0.000 C 
BRANCH  20  21
ATOM     21  C   UNL     1       1.358  16.104  22.886  1.00  0.00     0.000 C 
BRANCH  21  22
ATOM     22  C   UNL     1       0.301  15.958  21.778  1.00  0.00     0.000 C 
BRANCH  22  23
ATOM     23  C   UNL     1      -0.978  16.767  22.061  1.00  0.00     0.000 C 
BRANCH  23  24
ATOM     24  C   UNL     1      -2.288  16.067  21.657  1.00  0.00    -0.000 C 
BRANCH  24  25
ATOM     25  C   UNL     1      -3.526  16.674  22.332  1.00  0.00    -0.000 C 
BRANCH  25  26
ATOM     26  C   UNL     1      -4.570  15.590  22.642  1.00  0.00    -0.000 C 
BRANCH  26  27
ATOM     27  C   UNL     1      -5.437  15.220  21.425  1.00  0.00    -0.000 C 
BRANCH  27  28
ATOM     28  C   UNL     1      -6.955  15.188  21.683  1.00  0.00    -0.000 C 
BRANCH  28  29
ATOM     29  C   UNL     1      -7.718  16.293  20.933  1.00  0.00    -0.000 C 
BRANCH  29  30
ATOM     30  C   UNL     1      -9.038  16.681  21.625  1.00  0.00    -0.000 C 
BRANCH  30  31
ATOM     31  C   UNL     1      -8.978  17.972  22.462  1.00  0.00    -0.003 C 
ATOM     32  C   UNL     1      -8.290  19.126  21.734  1.00  0.00     0.004 C 
ENDBRANCH  30  31
ENDBRANCH  29  30
ENDBRANCH  28  29
ENDBRANCH  27  28
ENDBRANCH  26  27
ENDBRANCH  25  26
ENDBRANCH  24  25
ENDBRANCH  23  24
ENDBRANCH  22  23
ENDBRANCH  21  22
ENDBRANCH  20  21
ENDBRANCH  19  20
ENDBRANCH  18  19
ENDBRANCH   1  18
TORSDOF 28
ENDMDL
MODEL 4
REMARK VINA RESULT:    -3.855      1.840      3.897
REMARK INTER + INTRA:         -11.364
REMARK INTER:                  -9.985
REMARK INTRA:                  -1.379
REMARK UNBOUND:                -1.200
REMARK SMILES CCCCCCCCCCCCCCCCCCCCCCCCCCCCCC(=O)[O-]
REMARK SMILES IDX 16 1 17 2 18 3 19 4 20 5 21 6 22 7 23 8 24 9 25 10 26 11
REMARK SMILES IDX 27 12 28 13 29 14 30 15 31 16 32 17 15 18 14 19 13 20 12 21
REMARK SMILES IDX 11 22 10 23 9 24 8 25 7 26 6 27 5 28 4 29 3 30 2 31 1 32
REMARK H PARENT
REMARK Flexibility Score: inf
ROOT
ATOM      1  C   UNL     1       0.016  16.304  21.870  1.00  0.00     0.000 C 
ENDROOT
BRANCH   1   2
ATOM      2  C   UNL     1      -0.924  15.354  21.103  1.00  0.00     0.000 C 
BRANCH   2   3
ATOM      3  C   UNL     1      -2.427  15.563  21.368  1.00  0.00     0.000 C 
BRANCH   3   4
ATOM      4  C   UNL     1      -2.732  16.387  22.641  1.00  0.00     0.000 C 
BRANCH   4   5
ATOM      5  C   UNL     1      -4.134  17.030  22.678  1.00  0.00     0.000 C 
BRANCH   5   6
ATOM      6  C   UNL     1      -5.325  16.049  22.626  1.00  0.00     0.000 C 
BRANCH   6   7
ATOM      7  C   UNL     1      -5.894  15.778  21.223  1.00  0.00     0.000 C 
BRANCH   7   8
ATOM      8  C   UNL     1      -7.431  15.706  21.208  1.00  0.00     0.000 C 
BRANCH   8   9
ATOM      9  C   UNL     1      -8.072  16.933  20.538  1.00  0.00     0.000 C 
BRANCH   9  10
ATOM     10  C   UNL     1      -9.081  17.643  21.458  1.00  0.00     0.000 C 
BRANCH  10  11
ATOM     11  C   UNL     1      -8.416  18.274  22.692  1.00  0.00     0.000 C 
BRANCH  11  12
ATOM     12  C   UNL     1      -8.979  19.663  23.030  1.00  0.00     0.000 C 
BRANCH  12  13
ATOM     13  C   UNL     1      -8.826  20.620  21.839  1.00  0.00     0.006 C 
BRANCH  13  14
ATOM     14  C   UNL     1      -8.089  21.912  22.219  1.00  0.00     0.053 C 
BRANCH  14  15
ATOM     15  C   UNL     1      -8.566  23.088  21.422  1.00  0.00     0.041 C 
ATOM     16  O   UNL     1      -8.920  24.148  22.004  1.00  0.00    -0.550 OA
ATOM     17  O   UNL     1      -8.615  23.013  20.036  1.00  0.00    -0.550 OA
ENDBRANCH  14  15
ENDBRANCH  13  14
ENDBRANCH  12  13
ENDBRANCH  11  12
ENDBRANCH  10  11
ENDBRANCH   9  10
ENDBRANCH   8   9
ENDBRANCH   7   8
ENDBRANCH   6   7
ENDBRANCH   5   6
ENDBRANCH   4   5
ENDBRANCH   3   4
ENDBRANCH   2   3
ENDBRANCH   1   2
BRANCH   1  18
ATOM     18  C   UNL     1       1.518  15.987  21.739  1.00  0.00     0.000 C 
BRANCH  18  19
ATOM     19  C   UNL     1       2.302  16.247  23.034  1.00  0.00     0.000 C 
BRANCH  19  20
ATOM     20  C   UNL     1       3.807  16.360  22.746  1.00  0.00     0.000 C 
BRANCH  20  21
ATOM     21  C   UNL     1       4.467  14.996  22.489  1.00  0.00     0.000 C 
BRANCH  21  22
ATOM     22  C   UNL     1       5.979  15.004  22.772  1.00  0.00     0.000 C 
BRANCH  22  23
ATOM     23  C   UNL     1       6.639  16.359  22.458  1.00  0.00     0.000 C 
BRANCH  23  24
ATOM     24  C   UNL     1       7.400  16.414  21.121  1.00  0.00    -0.000 C 
BRANCH  24  25
ATOM     25  C   UNL     1       8.842  16.922  21.271  1.00  0.00    -0.000 C 
BRANCH  25  26
ATOM     26  C   UNL     1       9.845  15.763  21.172  1.00  0.00    -0.000 C 
BRANCH  26  27
ATOM     27  C   UNL     1      10.309  15.488  19.730  1.00  0.00    -0.000 C 
BRANCH  27  28
ATOM     28  C   UNL     1      11.089  14.174  19.528  1.00  0.00    -0.000 C 
BRANCH  28  29
ATOM     29  C   UNL     1      10.175  12.962  19.286  1.00  0.00    -0.000 C 
BRANCH  29  30
ATOM     30  C   UNL     1      10.522  12.202  17.993  1.00  0.00    -0.000 C 
BRANCH  30  31
ATOM     31  C   UNL     1      10.179  10.701  18.009  1.00  0.00    -0.003 C 
ATOM     32  C   UNL     1      11.125   9.881  18.885  1.00  0.00     0.004 C 
ENDBRANCH  30  31
ENDBRANCH  29  30
ENDBRANCH  28  29
ENDBRANCH  27  28
ENDBRANCH  26  27
ENDBRANCH  25  26
ENDBRANCH  24  25
ENDBRANCH  23  24
ENDBRANCH  22  23
ENDBRANCH  21  22
ENDBRANCH  20  21
ENDBRANCH  19  20
ENDBRANCH  18  19
ENDBRANCH   1  18
TORSDOF 28
ENDMDL
MODEL 5
REMARK VINA RESULT:    -3.796      1.428      2.989
REMARK INTER + INTRA:         -11.209
REMARK INTER:                  -9.492
REMARK INTRA:                  -1.718
REMARK UNBOUND:                -1.200
REMARK SMILES CCCCCCCCCCCCCCCCCCCCCCCCCCCCCC(=O)[O-]
REMARK SMILES IDX 16 1 17 2 18 3 19 4 20 5 21 6 22 7 23 8 24 9 25 10 26 11
REMARK SMILES IDX 27 12 28 13 29 14 30 15 31 16 32 17 15 18 14 19 13 20 12 21
REMARK SMILES IDX 11 22 10 23 9 24 8 25 7 26 6 27 5 28 4 29 3 30 2 31 1 32
REMARK H PARENT
REMARK Flexibility Score: inf
ROOT
ATOM      1  C   UNL     1       6.155  16.327  21.796  1.00  0.00     0.000 C 
ENDROOT
BRANCH   1   2
ATOM      2  C   UNL     1       5.528  15.001  22.267  1.00  0.00     0.000 C 
BRANCH   2   3
ATOM      3  C   UNL     1       4.174  15.135  22.991  1.00  0.00     0.000 C 
BRANCH   3   4
ATOM      4  C   UNL     1       3.134  15.984  22.224  1.00  0.00     0.000 C 
BRANCH   4   5
ATOM      5  C   UNL     1       1.786  16.174  22.951  1.00  0.00     0.000 C 
BRANCH   5   6
ATOM      6  C   UNL     1       0.522  15.992  22.083  1.00  0.00     0.000 C 
BRANCH   6   7
ATOM      7  C   UNL     1      -0.806  16.345  22.773  1.00  0.00     0.000 C 
BRANCH   7   8
ATOM      8  C   UNL     1      -1.984  16.433  21.786  1.00  0.00     0.000 C 
BRANCH   8   9
ATOM      9  C   UNL     1      -3.289  16.877  22.466  1.00  0.00     0.000 C 
BRANCH   9  10
ATOM     10  C   UNL     1      -4.539  16.404  21.701  1.00  0.00     0.000 C 
BRANCH  10  11
ATOM     11  C   UNL     1      -5.449  15.506  22.554  1.00  0.00     0.000 C 
BRANCH  11  12
ATOM     12  C   UNL     1      -6.826  16.133  22.822  1.00  0.00     0.000 C 
BRANCH  12  13
ATOM     13  C   UNL     1      -7.864  15.630  21.808  1.00  0.00     0.006 C 
BRANCH  13  14
ATOM     14  C   UNL     1      -8.322  16.735  20.845  1.00  0.00     0.053 C 
BRANCH  14  15
ATOM     15  C   UNL     1      -8.767  17.967  21.574  1.00  0.00     0.041 C 
ATOM     16  O   UNL     1      -8.848  19.068  20.969  1.00  0.00    -0.550 OA
ATOM     17  O   UNL     1      -9.096  17.895  22.922  1.00  0.00    -0.550 OA
ENDBRANCH  14  15
ENDBRANCH  13  14
ENDBRANCH  12  13
ENDBRANCH  11  12
ENDBRANCH  10  11
ENDBRANCH   9  10
ENDBRANCH   8   9
ENDBRANCH   7   8
ENDBRANCH   6   7
ENDBRANCH   5   6
ENDBRANCH   4   5
ENDBRANCH   3   4
ENDBRANCH   2   3
ENDBRANCH   1   2
BRANCH   1  18
ATOM     18  C   UNL     1       7.695  16.368  21.817  1.00  0.00     0.000 C 
BRANCH  18  19
ATOM     19  C   UNL     1       8.295  17.054  20.581  1.00  0.00     0.000 C 
BRANCH  19  20
ATOM     20  C   UNL     1       9.810  16.807  20.502  1.00  0.00     0.000 C 
BRANCH  20  21
ATOM     21  C   UNL     1      10.166  15.313  20.452  1.00  0.00     0.000 C 
BRANCH  21  22
ATOM     22  C   UNL     1      11.125  14.892  21.579  1.00  0.00     0.000 C 
BRANCH  22  23
ATOM     23  C   UNL     1      10.401  14.221  22.760  1.00  0.00     0.000 C 
BRANCH  23  24
ATOM     24  C   UNL     1      10.113  12.721  22.574  1.00  0.00    -0.000 C 
BRANCH  24  25
ATOM     25  C   UNL     1       8.627  12.421  22.331  1.00  0.00    -0.000 C 
BRANCH  25  26
ATOM     26  C   UNL     1       8.285  10.978  22.734  1.00  0.00    -0.000 C 
BRANCH  26  27
ATOM     27  C   UNL     1       9.469  10.008  22.567  1.00  0.00    -0.000 C 
BRANCH  27  28
ATOM     28  C   UNL     1       9.215   8.814  21.627  1.00  0.00    -0.000 C 
BRANCH  28  29
ATOM     29  C   UNL     1      10.157   8.792  20.411  1.00  0.00    -0.000 C 
BRANCH  29  30
ATOM     30  C   UNL     1      10.697  10.187  20.050  1.00  0.00    -0.000 C 
BRANCH  30  31
ATOM     31  C   UNL     1      10.500  10.600  18.580  1.00  0.00    -0.003 C 
ATOM     32  C   UNL     1      10.429  12.114  18.388  1.00  0.00     0.004 C 
ENDBRANCH  30  31
ENDBRANCH  29  30
ENDBRANCH  28  29
ENDBRANCH  27  28
ENDBRANCH  26  27
ENDBRANCH  25  26
ENDBRANCH  24  25
ENDBRANCH  23  24
ENDBRANCH  22  23
ENDBRANCH  21  22
ENDBRANCH  20  21
ENDBRANCH  19  20
ENDBRANCH  18  19
ENDBRANCH   1  18
TORSDOF 28
ENDMDL
MODEL 6
REMARK VINA RESULT:    -3.758      5.334     15.056
REMARK INTER + INTRA:         -11.110
REMARK INTER:                  -9.785
REMARK INTRA:                  -1.324
REMARK UNBOUND:                -1.200
REMARK SMILES CCCCCCCCCCCCCCCCCCCCCCCCCCCCCC(=O)[O-]
REMARK SMILES IDX 16 1 17 2 18 3 19 4 20 5 21 6 22 7 23 8 24 9 25 10 26 11
REMARK SMILES IDX 27 12 28 13 29 14 30 15 31 16 32 17 15 18 14 19 13 20 12 21
REMARK SMILES IDX 11 22 10 23 9 24 8 25 7 26 6 27 5 28 4 29 3 30 2 31 1 32
REMARK H PARENT
REMARK Flexibility Score: inf
ROOT
ATOM      1  C   UNL     1       3.102  16.411  21.853  1.00  0.00     0.000 C 
ENDROOT
BRANCH   1   2
ATOM      2  C   UNL     1       4.561  15.974  21.627  1.00  0.00     0.000 C 
BRANCH   2   3
ATOM      3  C   UNL     1       4.989  14.700  22.381  1.00  0.00     0.000 C 
BRANCH   3   4
ATOM      4  C   UNL     1       6.425  14.759  22.952  1.00  0.00     0.000 C 
BRANCH   4   5
ATOM      5  C   UNL     1       7.144  16.110  22.763  1.00  0.00     0.000 C 
BRANCH   5   6
ATOM      6  C   UNL     1       8.501  16.053  22.029  1.00  0.00     0.000 C 
BRANCH   6   7
ATOM      7  C   UNL     1       8.569  16.836  20.707  1.00  0.00     0.000 C 
BRANCH   7   8
ATOM      8  C   UNL     1      10.009  17.196  20.301  1.00  0.00     0.000 C 
BRANCH   8   9
ATOM      9  C   UNL     1      11.013  16.085  20.650  1.00  0.00     0.000 C 
BRANCH   9  10
ATOM     10  C   UNL     1      10.806  14.818  19.799  1.00  0.00     0.000 C 
BRANCH  10  11
ATOM     11  C   UNL     1      10.054  13.713  20.557  1.00  0.00     0.000 C 
BRANCH  11  12
ATOM     12  C   UNL     1      10.808  13.225  21.804  1.00  0.00     0.000 C 
BRANCH  12  13
ATOM     13  C   UNL     1      10.916  11.693  21.814  1.00  0.00     0.006 C 
BRANCH  13  14
ATOM     14  C   UNL     1       9.698  11.026  22.468  1.00  0.00     0.053 C 
BRANCH  14  15
ATOM     15  C   UNL     1       9.479   9.634  21.959  1.00  0.00     0.041 C 
ATOM     16  O   UNL     1       8.373   9.057  22.140  1.00  0.00    -0.550 OA
ATOM     17  O   UNL     1      10.496   8.975  21.279  1.00  0.00    -0.550 OA
ENDBRANCH  14  15
ENDBRANCH  13  14
ENDBRANCH  12  13
ENDBRANCH  11  12
ENDBRANCH  10  11
ENDBRANCH   9  10
ENDBRANCH   8   9
ENDBRANCH   7   8
ENDBRANCH   6   7
ENDBRANCH   5   6
ENDBRANCH   4   5
ENDBRANCH   3   4
ENDBRANCH   2   3
ENDBRANCH   1   2
BRANCH   1  18
ATOM     18  C   UNL     1       2.385  15.721  23.029  1.00  0.00     0.000 C 
BRANCH  18  19
ATOM     19  C   UNL     1       0.873  15.992  23.054  1.00  0.00     0.000 C 
BRANCH  19  20
ATOM     20  C   UNL     1       0.329  16.186  21.631  1.00  0.00     0.000 C 
BRANCH  20  21
ATOM     21  C   UNL     1      -1.146  15.775  21.497  1.00  0.00     0.000 C 
BRANCH  21  22
ATOM     22  C   UNL     1      -2.114  16.876  21.961  1.00  0.00     0.000 C 
BRANCH  22  23
ATOM     23  C   UNL     1      -3.022  16.425  23.121  1.00  0.00     0.000 C 
BRANCH  23  24
ATOM     24  C   UNL     1      -4.502  16.819  22.974  1.00  0.00    -0.000 C 
BRANCH  24  25
ATOM     25  C   UNL     1      -4.728  18.337  23.038  1.00  0.00    -0.000 C 
BRANCH  25  26
ATOM     26  C   UNL     1      -5.987  18.737  22.253  1.00  0.00    -0.000 C 
BRANCH  26  27
ATOM     27  C   UNL     1      -6.400  17.693  21.199  1.00  0.00    -0.000 C 
BRANCH  27  28
ATOM     28  C   UNL     1      -7.887  17.717  20.796  1.00  0.00    -0.000 C 
BRANCH  28  29
ATOM     29  C   UNL     1      -8.805  17.056  21.836  1.00  0.00    -0.000 C 
BRANCH  29  30
ATOM     30  C   UNL     1      -8.168  15.817  22.493  1.00  0.00    -0.000 C 
BRANCH  30  31
ATOM     31  C   UNL     1      -7.743  14.708  21.514  1.00  0.00    -0.003 C 
ATOM     32  C   UNL     1      -6.243  14.419  21.552  1.00  0.00     0.004 C 
ENDBRANCH  30  31
ENDBRANCH  29  30
ENDBRANCH  28  29
ENDBRANCH  27  28
ENDBRANCH  26  27
ENDBRANCH  25  26
ENDBRANCH  24  25
ENDBRANCH  23  24
ENDBRANCH  22  23
ENDBRANCH  21  22
ENDBRANCH  20  21
ENDBRANCH  19  20
ENDBRANCH  18  19
ENDBRANCH   1  18
TORSDOF 28
ENDMDL
MODEL 7
REMARK VINA RESULT:    -3.667      1.278      2.341
REMARK INTER + INTRA:         -10.868
REMARK INTER:                  -8.857
REMARK INTRA:                  -2.012
REMARK UNBOUND:                -1.200
REMARK SMILES CCCCCCCCCCCCCCCCCCCCCCCCCCCCCC(=O)[O-]
REMARK SMILES IDX 16 1 17 2 18 3 19 4 20 5 21 6 22 7 23 8 24 9 25 10 26 11
REMARK SMILES IDX 27 12 28 13 29 14 30 15 31 16 32 17 15 18 14 19 13 20 12 21
REMARK SMILES IDX 11 22 10 23 9 24 8 25 7 26 6 27 5 28 4 29 3 30 2 31 1 32
REMARK H PARENT
REMARK Flexibility Score: inf
ROOT
ATOM      1  C   UNL     1       3.488  15.759  22.254  1.00  0.00     0.000 C 
ENDROOT
BRANCH   1   2
ATOM      2  C   UNL     1       2.424  16.455  23.124  1.00  0.00     0.000 C 
BRANCH   2   3
ATOM      3  C   UNL     1       0.981  15.956  22.919  1.00  0.00     0.000 C 
BRANCH   3   4
ATOM      4  C   UNL     1       0.446  16.152  21.481  1.00  0.00     0.000 C 
BRANCH   4   5
ATOM      5  C   UNL     1      -0.925  15.503  21.203  1.00  0.00     0.000 C 
BRANCH   5   6
ATOM      6  C   UNL     1      -2.077  15.939  22.135  1.00  0.00     0.000 C 
BRANCH   6   7
ATOM      7  C   UNL     1      -2.317  17.455  22.220  1.00  0.00     0.000 C 
BRANCH   7   8
ATOM      8  C   UNL     1      -3.689  17.808  22.821  1.00  0.00     0.000 C 
BRANCH   8   9
ATOM      9  C   UNL     1      -4.846  17.538  21.845  1.00  0.00     0.000 C 
BRANCH   9  10
ATOM     10  C   UNL     1      -5.306  16.069  21.872  1.00  0.00     0.000 C 
BRANCH  10  11
ATOM     11  C   UNL     1      -6.655  15.885  22.585  1.00  0.00     0.000 C 
BRANCH  11  12
ATOM     12  C   UNL     1      -7.768  15.404  21.642  1.00  0.00     0.000 C 
BRANCH  12  13
ATOM     13  C   UNL     1      -8.799  16.517  21.399  1.00  0.00     0.006 C 
BRANCH  13  14
ATOM     14  C   UNL     1      -8.546  17.749  22.279  1.00  0.00     0.053 C 
BRANCH  14  15
ATOM     15  C   UNL     1      -8.226  18.966  21.464  1.00  0.00     0.041 C 
ATOM     16  O   UNL     1      -8.084  20.086  22.024  1.00  0.00    -0.550 OA
ATOM     17  O   UNL     1      -8.081  18.861  20.087  1.00  0.00    -0.550 OA
ENDBRANCH  14  15
ENDBRANCH  13  14
ENDBRANCH  12  13
ENDBRANCH  11  12
ENDBRANCH  10  11
ENDBRANCH   9  10
ENDBRANCH   8   9
ENDBRANCH   7   8
ENDBRANCH   6   7
ENDBRANCH   5   6
ENDBRANCH   4   5
ENDBRANCH   3   4
ENDBRANCH   2   3
ENDBRANCH   1   2
BRANCH   1  18
ATOM     18  C   UNL     1       4.937  15.892  22.760  1.00  0.00     0.000 C 
BRANCH  18  19
ATOM     19  C   UNL     1       5.916  16.353  21.668  1.00  0.00     0.000 C 
BRANCH  19  20
ATOM     20  C   UNL     1       7.267  15.635  21.808  1.00  0.00     0.000 C 
BRANCH  20  21
ATOM     21  C   UNL     1       8.428  16.431  21.191  1.00  0.00     0.000 C 
BRANCH  21  22
ATOM     22  C   UNL     1       9.783  15.719  21.344  1.00  0.00     0.000 C 
BRANCH  22  23
ATOM     23  C   UNL     1       9.803  14.324  20.690  1.00  0.00     0.000 C 
BRANCH  23  24
ATOM     24  C   UNL     1      10.257  13.183  21.617  1.00  0.00    -0.000 C 
BRANCH  24  25
ATOM     25  C   UNL     1       9.086  12.359  22.172  1.00  0.00    -0.000 C 
BRANCH  25  26
ATOM     26  C   UNL     1       9.576  11.014  22.729  1.00  0.00    -0.000 C 
BRANCH  26  27
ATOM     27  C   UNL     1      10.954  10.599  22.181  1.00  0.00    -0.000 C 
BRANCH  27  28
ATOM     28  C   UNL     1      10.997   9.232  21.472  1.00  0.00    -0.000 C 
BRANCH  28  29
ATOM     29  C   UNL     1      10.358   9.257  20.074  1.00  0.00    -0.000 C 
BRANCH  29  30
ATOM     30  C   UNL     1      11.114  10.168  19.089  1.00  0.00    -0.000 C 
BRANCH  30  31
ATOM     31  C   UNL     1      10.219  10.988  18.143  1.00  0.00    -0.003 C 
ATOM     32  C   UNL     1      10.880  12.279  17.663  1.00  0.00     0.004 C 
ENDBRANCH  30  31
ENDBRANCH  29  30
ENDBRANCH  28  29
ENDBRANCH  27  28
ENDBRANCH  26  27
ENDBRANCH  25  26
ENDBRANCH  24  25
ENDBRANCH  23  24
ENDBRANCH  22  23
ENDBRANCH  21  22
ENDBRANCH  20  21
ENDBRANCH  19  20
ENDBRANCH  18  19
ENDBRANCH   1  18
TORSDOF 28
ENDMDL
MODEL 8
REMARK VINA RESULT:    -3.456      5.333     15.720
REMARK INTER + INTRA:         -10.313
REMARK INTER:                  -9.576
REMARK INTRA:                  -0.737
REMARK UNBOUND:                -1.200
REMARK SMILES CCCCCCCCCCCCCCCCCCCCCCCCCCCCCC(=O)[O-]
REMARK SMILES IDX 16 1 17 2 18 3 19 4 20 5 21 6 22 7 23 8 24 9 25 10 26 11
REMARK SMILES IDX 27 12 28 13 29 14 30 15 31 16 32 17 15 18 14 19 13 20 12 21
REMARK SMILES IDX 11 22 10 23 9 24 8 25 7 26 6 27 5 28 4 29 3 30 2 31 1 32
REMARK H PARENT
REMARK Flexibility Score: inf
ROOT
ATOM      1  C   UNL     1       2.544  16.376  21.875  1.00  0.00     0.000 C 
ENDROOT
BRANCH   1   2
ATOM      2  C   UNL     1       3.756  15.869  22.680  1.00  0.00     0.000 C 
BRANCH   2   3
ATOM      3  C   UNL     1       5.130  16.339  22.165  1.00  0.00     0.000 C 
BRANCH   3   4
ATOM      4  C   UNL     1       6.319  15.500  22.688  1.00  0.00     0.000 C 
BRANCH   4   5
ATOM      5  C   UNL     1       7.625  16.290  22.909  1.00  0.00     0.000 C 
BRANCH   5   6
ATOM      6  C   UNL     1       8.930  15.546  22.551  1.00  0.00     0.000 C 
BRANCH   6   7
ATOM      7  C   UNL     1       8.970  14.928  21.143  1.00  0.00     0.000 C 
BRANCH   7   8
ATOM      8  C   UNL     1       9.304  13.426  21.161  1.00  0.00     0.000 C 
BRANCH   8   9
ATOM      9  C   UNL     1       9.379  12.858  22.588  1.00  0.00     0.000 C 
BRANCH   9  10
ATOM     10  C   UNL     1      10.676  12.065  22.836  1.00  0.00     0.000 C 
BRANCH  10  11
ATOM     11  C   UNL     1      10.551  10.586  22.437  1.00  0.00     0.000 C 
BRANCH  11  12
ATOM     12  C   UNL     1      11.011  10.315  20.997  1.00  0.00     0.000 C 
BRANCH  12  13
ATOM     13  C   UNL     1      10.283   9.097  20.410  1.00  0.00     0.006 C 
BRANCH  13  14
ATOM     14  C   UNL     1      10.666   8.838  18.946  1.00  0.00     0.053 C 
BRANCH  14  15
ATOM     15  C   UNL     1       9.636   9.366  17.994  1.00  0.00     0.041 C 
ATOM     16  O   UNL     1       8.700   8.623  17.594  1.00  0.00    -0.550 OA
ATOM     17  O   UNL     1       9.708  10.681  17.553  1.00  0.00    -0.550 OA
ENDBRANCH  14  15
ENDBRANCH  13  14
ENDBRANCH  12  13
ENDBRANCH  11  12
ENDBRANCH  10  11
ENDBRANCH   9  10
ENDBRANCH   8   9
ENDBRANCH   7   8
ENDBRANCH   6   7
ENDBRANCH   5   6
ENDBRANCH   4   5
ENDBRANCH   3   4
ENDBRANCH   2   3
ENDBRANCH   1   2
BRANCH   1  18
ATOM     18  C   UNL     1       1.174  15.875  22.369  1.00  0.00     0.000 C 
BRANCH  18  19
ATOM     19  C   UNL     1       0.159  15.680  21.231  1.00  0.00     0.000 C 
BRANCH  19  20
ATOM     20  C   UNL     1      -1.272  15.607  21.783  1.00  0.00     0.000 C 
BRANCH  20  21
ATOM     21  C   UNL     1      -1.629  16.811  22.670  1.00  0.00     0.000 C 
BRANCH  21  22
ATOM     22  C   UNL     1      -3.105  16.813  23.104  1.00  0.00     0.000 C 
BRANCH  22  23
ATOM     23  C   UNL     1      -4.072  17.070  21.934  1.00  0.00     0.000 C 
BRANCH  23  24
ATOM     24  C   UNL     1      -5.495  16.521  22.138  1.00  0.00    -0.000 C 
BRANCH  24  25
ATOM     25  C   UNL     1      -5.943  15.581  21.009  1.00  0.00    -0.000 C 
BRANCH  25  26
ATOM     26  C   UNL     1      -6.915  14.515  21.537  1.00  0.00    -0.000 C 
BRANCH  26  27
ATOM     27  C   UNL     1      -8.277  15.095  21.962  1.00  0.00    -0.000 C 
BRANCH  27  28
ATOM     28  C   UNL     1      -8.283  16.606  22.262  1.00  0.00    -0.000 C 
BRANCH  28  29
ATOM     29  C   UNL     1      -9.124  17.417  21.262  1.00  0.00    -0.000 C 
BRANCH  29  30
ATOM     30  C   UNL     1      -8.340  17.797  19.993  1.00  0.00    -0.000 C 
BRANCH  30  31
ATOM     31  C   UNL     1      -8.808  19.090  19.303  1.00  0.00    -0.003 C 
ATOM     32  C   UNL     1      -8.849  20.291  20.246  1.00  0.00     0.004 C 
ENDBRANCH  30  31
ENDBRANCH  29  30
ENDBRANCH  28  29
ENDBRANCH  27  28
ENDBRANCH  26  27
ENDBRANCH  25  26
ENDBRANCH  24  25
ENDBRANCH  23  24
ENDBRANCH  22  23
ENDBRANCH  21  22
ENDBRANCH  20  21
ENDBRANCH  19  20
ENDBRANCH  18  19
ENDBRANCH   1  18
TORSDOF 28
ENDMDL
MODEL 9
REMARK VINA RESULT:    -3.285      5.680     16.098
REMARK INTER + INTRA:          -9.861
REMARK INTER:                  -8.537
REMARK INTRA:                  -1.324
REMARK UNBOUND:                -1.200
REMARK SMILES CCCCCCCCCCCCCCCCCCCCCCCCCCCCCC(=O)[O-]
REMARK SMILES IDX 16 1 17 2 18 3 19 4 20 5 21 6 22 7 23 8 24 9 25 10 26 11
REMARK SMILES IDX 27 12 28 13 29 14 30 15 31 16 32 17 15 18 14 19 13 20 12 21
REMARK SMILES IDX 11 22 10 23 9 24 8 25 7 26 6 27 5 28 4 29 3 30 2 31 1 32
REMARK H PARENT
REMARK Flexibility Score: inf
ROOT
ATOM      1  C   UNL     1       2.372  16.316  22.059  1.00  0.00     0.000 C 
ENDROOT
BRANCH   1   2
ATOM      2  C   UNL     1       3.587  15.707  22.784  1.00  0.00     0.000 C 
BRANCH   2   3
ATOM      3  C   UNL     1       4.739  15.254  21.866  1.00  0.00     0.000 C 
BRANCH   3   4
ATOM      4  C   UNL     1       5.713  16.389  21.474  1.00  0.00     0.000 C 
BRANCH   4   5
ATOM      5  C   UNL     1       7.153  16.222  22.002  1.00  0.00     0.000 C 
BRANCH   5   6
ATOM      6  C   UNL     1       8.249  16.970  21.214  1.00  0.00     0.000 C 
BRANCH   6   7
ATOM      7  C   UNL     1       9.423  16.101  20.731  1.00  0.00     0.000 C 
BRANCH   7   8
ATOM      8  C   UNL     1      10.199  15.452  21.890  1.00  0.00     0.000 C 
BRANCH   8   9
ATOM      9  C   UNL     1      10.863  14.126  21.485  1.00  0.00     0.000 C 
BRANCH   9  10
ATOM     10  C   UNL     1      10.678  13.028  22.549  1.00  0.00     0.000 C 
BRANCH  10  11
ATOM     11  C   UNL     1      10.061  11.744  21.972  1.00  0.00     0.000 C 
BRANCH  11  12
ATOM     12  C   UNL     1      11.113  10.679  21.626  1.00  0.00     0.000 C 
BRANCH  12  13
ATOM     13  C   UNL     1      11.001  10.257  20.154  1.00  0.00     0.006 C 
BRANCH  13  14
ATOM     14  C   UNL     1      10.137   9.002  19.970  1.00  0.00     0.053 C 
BRANCH  14  15
ATOM     15  C   UNL     1      10.100   8.548  18.542  1.00  0.00     0.041 C 
ATOM     16  O   UNL     1      10.979   7.759  18.104  1.00  0.00    -0.550 OA
ATOM     17  O   UNL     1       9.092   8.993  17.698  1.00  0.00    -0.550 OA
ENDBRANCH  14  15
ENDBRANCH  13  14
ENDBRANCH  12  13
ENDBRANCH  11  12
ENDBRANCH  10  11
ENDBRANCH   9  10
ENDBRANCH   8   9
ENDBRANCH   7   8
ENDBRANCH   6   7
ENDBRANCH   5   6
ENDBRANCH   4   5
ENDBRANCH   3   4
ENDBRANCH   2   3
ENDBRANCH   1   2
BRANCH   1  18
ATOM     18  C   UNL     1       1.000  15.958  22.663  1.00  0.00     0.000 C 
BRANCH  18  19
ATOM     19  C   UNL     1      -0.177  16.556  21.877  1.00  0.00     0.000 C 
BRANCH  19  20
ATOM     20  C   UNL     1      -0.875  15.476  21.035  1.00  0.00     0.000 C 
BRANCH  20  21
ATOM     21  C   UNL     1      -2.396  15.443  21.255  1.00  0.00     0.000 C 
BRANCH  21  22
ATOM     22  C   UNL     1      -2.868  16.468  22.300  1.00  0.00     0.000 C 
BRANCH  22  23
ATOM     23  C   UNL     1      -4.180  16.055  22.993  1.00  0.00     0.000 C 
BRANCH  23  24
ATOM     24  C   UNL     1      -5.417  16.041  22.079  1.00  0.00    -0.000 C 
BRANCH  24  25
ATOM     25  C   UNL     1      -6.278  17.306  22.213  1.00  0.00    -0.000 C 
BRANCH  25  26
ATOM     26  C   UNL     1      -7.405  17.316  21.169  1.00  0.00    -0.000 C 
BRANCH  26  27
ATOM     27  C   UNL     1      -8.714  17.929  21.700  1.00  0.00    -0.000 C 
BRANCH  27  28
ATOM     28  C   UNL     1      -8.618  18.582  23.093  1.00  0.00    -0.000 C 
BRANCH  28  29
ATOM     29  C   UNL     1      -9.030  20.063  23.094  1.00  0.00    -0.000 C 
BRANCH  29  30
ATOM     30  C   UNL     1      -8.103  20.941  22.235  1.00  0.00    -0.000 C 
BRANCH  30  31
ATOM     31  C   UNL     1      -7.114  21.814  23.028  1.00  0.00    -0.003 C 
ATOM     32  C   UNL     1      -6.808  23.145  22.343  1.00  0.00     0.004 C 
ENDBRANCH  30  31
ENDBRANCH  29  30
ENDBRANCH  28  29
ENDBRANCH  27  28
ENDBRANCH  26  27
ENDBRANCH  25  26
ENDBRANCH  24  25
ENDBRANCH  23  24
ENDBRANCH  22  23
ENDBRANCH  21  22
ENDBRANCH  20  21
ENDBRANCH  19  20
ENDBRANCH  18  19
ENDBRANCH   1  18
TORSDOF 28
ENDMDL
