MODEL 1
REMARK VINA RESULT:    -6.123      0.000      0.000
REMARK INTER + INTRA:          -8.597
REMARK INTER:                  -8.271
REMARK INTRA:                  -0.326
REMARK UNBOUND:                -0.326
REMARK SMILES O=c1c(-c2ccc(O)cc2)coc2c([C@@H]3O[C@@H](CO)[C@@H](O)[C@@H](O)[C@@H]3O)c(O)ccc12
REMARK SMILES IDX 3 1 11 2 12 3 13 4 30 5 2 6 1 7 29 8 28 9 26 10 14 11 4 12
REMARK SMILES IDX 5 13 6 14 7 15 10 16 9 17 8 18 15 20 24 21 16 22 22 23 17 24
REMARK SMILES IDX 20 25 25 26 23 28 18 30 19 31 21 33 27 35
REMARK H PARENT 8 19 25 27 23 29 19 32 21 34 27 36
REMARK Flexibility Score: inf
ROOT
ATOM      1  C   UNL     1     -10.941 -16.553  14.721  1.00  0.00     0.065 A 
ATOM      2  C   UNL     1     -11.949 -16.548  13.747  1.00  0.00     0.208 A 
ATOM      3  O   UNL     1     -12.492 -17.681  13.323  1.00  0.00    -0.463 OA
ATOM      4  C   UNL     1     -12.157 -18.884  13.789  1.00  0.00     0.147 A 
ATOM      5  C   UNL     1     -11.163 -18.973  14.797  1.00  0.00     0.066 A 
ATOM      6  C   UNL     1     -10.541 -17.794  15.247  1.00  0.00     0.200 A 
ATOM      7  O   UNL     1      -9.608 -17.852  16.098  1.00  0.00    -0.288 OA
ATOM      8  C   UNL     1     -10.798 -20.223  15.300  1.00  0.00     0.020 A 
ATOM      9  C   UNL     1     -11.428 -21.368  14.839  1.00  0.00     0.047 A 
ATOM     10  C   UNL     1     -12.428 -21.305  13.865  1.00  0.00     0.125 A 
ATOM     11  C   UNL     1     -12.788 -20.056  13.267  1.00  0.00     0.069 A 
ENDROOT
BRANCH   1  12
ATOM     12  C   UNL     1     -10.342 -15.267  15.172  1.00  0.00    -0.011 A 
ATOM     13  C   UNL     1      -9.461 -14.561  14.333  1.00  0.00     0.013 A 
ATOM     14  C   UNL     1      -8.934 -13.330  14.734  1.00  0.00     0.047 A 
ATOM     15  C   UNL     1      -9.271 -12.794  15.986  1.00  0.00     0.115 A 
ATOM     16  C   UNL     1     -10.674 -14.720  16.427  1.00  0.00     0.013 A 
ATOM     17  C   UNL     1     -10.137 -13.494  16.830  1.00  0.00     0.047 A 
BRANCH  15  18
ATOM     18  O   UNL     1      -8.753 -11.569  16.397  1.00  0.00    -0.508 OA
ATOM     19  H   UNL     1      -9.279 -10.710  16.298  1.00  0.00     0.293 HD
ENDBRANCH  15  18
ENDBRANCH   1  12
BRANCH  11  20
ATOM     20  C   UNL     1     -13.554 -19.901  11.919  1.00  0.00     0.188 C 
ATOM     21  C   UNL     1     -14.157 -21.089  11.116  1.00  0.00     0.179 C 
ATOM     22  O   UNL     1     -14.536 -18.881  11.997  1.00  0.00    -0.362 OA
ATOM     23  C   UNL     1     -15.460 -21.654  11.741  1.00  0.00     0.177 C 
ATOM     24  C   UNL     1     -15.764 -19.257  12.622  1.00  0.00     0.176 C 
ATOM     25  C   UNL     1     -15.915 -20.786  12.928  1.00  0.00     0.177 C 
BRANCH  21  26
ATOM     26  O   UNL     1     -13.205 -22.081  10.840  1.00  0.00    -0.387 OA
ATOM     27  H   UNL     1     -12.536 -22.048  11.574  1.00  0.00     0.211 HD
ENDBRANCH  21  26
BRANCH  23  28
ATOM     28  O   UNL     1     -16.465 -21.704  10.755  1.00  0.00    -0.387 OA
ATOM     29  H   UNL     1     -16.083 -22.182   9.971  1.00  0.00     0.211 HD
ENDBRANCH  23  28
BRANCH  24  30
ATOM     30  C   UNL     1     -16.904 -18.693  11.750  1.00  0.00     0.191 C 
BRANCH  30  31
ATOM     31  O   UNL     1     -18.141 -18.745  12.406  1.00  0.00    -0.394 OA
ATOM     32  H   UNL     1     -18.174 -17.968  13.023  1.00  0.00     0.210 HD
ENDBRANCH  30  31
ENDBRANCH  24  30
BRANCH  25  33
ATOM     33  O   UNL     1     -17.227 -21.122  13.303  1.00  0.00    -0.388 OA
ATOM     34  H   UNL     1     -17.598 -21.682  12.574  1.00  0.00     0.211 HD
ENDBRANCH  25  33
ENDBRANCH  11  20
BRANCH  10  35
ATOM     35  O   UNL     1     -13.047 -22.513  13.577  1.00  0.00    -0.507 OA
ATOM     36  H   UNL     1     -14.047 -22.593  13.530  1.00  0.00     0.293 HD
ENDBRANCH  10  35
TORSDOF 9
ENDMDL
MODEL 2
REMARK VINA RESULT:    -6.004      1.537      2.027
REMARK INTER + INTRA:          -8.437
REMARK INTER:                  -8.120
REMARK INTRA:                  -0.316
REMARK UNBOUND:                -0.326
REMARK SMILES O=c1c(-c2ccc(O)cc2)coc2c([C@@H]3O[C@@H](CO)[C@@H](O)[C@@H](O)[C@@H]3O)c(O)ccc12
REMARK SMILES IDX 3 1 11 2 12 3 13 4 30 5 2 6 1 7 29 8 28 9 26 10 14 11 4 12
REMARK SMILES IDX 5 13 6 14 7 15 10 16 9 17 8 18 15 20 24 21 16 22 22 23 17 24
REMARK SMILES IDX 20 25 25 26 23 28 18 30 19 31 21 33 27 35
REMARK H PARENT 8 19 25 27 23 29 19 32 21 34 27 36
REMARK Flexibility Score: inf
ROOT
ATOM      1  C   UNL     1     -10.238 -14.830  15.196  1.00  0.00     0.065 A 
ATOM      2  C   UNL     1     -11.342 -14.881  14.333  1.00  0.00     0.208 A 
ATOM      3  O   UNL     1     -11.912 -16.038  14.024  1.00  0.00    -0.463 OA
ATOM      4  C   UNL     1     -11.514 -17.213  14.509  1.00  0.00     0.147 A 
ATOM      5  C   UNL     1     -10.420 -17.245  15.410  1.00  0.00     0.066 A 
ATOM      6  C   UNL     1      -9.769 -16.040  15.735  1.00  0.00     0.200 A 
ATOM      7  O   UNL     1      -8.752 -16.048  16.485  1.00  0.00    -0.288 OA
ATOM      8  C   UNL     1      -9.988 -18.466  15.932  1.00  0.00     0.020 A 
ATOM      9  C   UNL     1     -10.646 -19.637  15.595  1.00  0.00     0.047 A 
ATOM     10  C   UNL     1     -11.744 -19.631  14.730  1.00  0.00     0.125 A 
ATOM     11  C   UNL     1     -12.181 -18.415  14.113  1.00  0.00     0.069 A 
ENDROOT
BRANCH   1  12
ATOM     12  C   UNL     1      -9.613 -13.519  15.519  1.00  0.00    -0.011 A 
ATOM     13  C   UNL     1      -9.020 -12.745  14.504  1.00  0.00     0.013 A 
ATOM     14  C   UNL     1      -8.473 -11.493  14.796  1.00  0.00     0.047 A 
ATOM     15  C   UNL     1      -8.502 -11.000  16.110  1.00  0.00     0.115 A 
ATOM     16  C   UNL     1      -9.636 -13.015  16.834  1.00  0.00     0.013 A 
ATOM     17  C   UNL     1      -9.079 -11.766  17.125  1.00  0.00     0.047 A 
BRANCH  15  18
ATOM     18  O   UNL     1      -7.961  -9.753  16.413  1.00  0.00    -0.508 OA
ATOM     19  H   UNL     1      -8.160  -8.937  15.849  1.00  0.00     0.293 HD
ENDBRANCH  15  18
ENDBRANCH   1  12
BRANCH  11  20
ATOM     20  C   UNL     1     -13.085 -18.332  12.847  1.00  0.00     0.188 C 
ATOM     21  C   UNL     1     -13.802 -19.555  12.205  1.00  0.00     0.179 C 
ATOM     22  O   UNL     1     -14.026 -17.278  12.952  1.00  0.00    -0.362 OA
ATOM     23  C   UNL     1     -15.043 -20.029  13.007  1.00  0.00     0.177 C 
ATOM     24  C   UNL     1     -15.188 -17.566  13.731  1.00  0.00     0.176 C 
ATOM     25  C   UNL     1     -15.344 -19.063  14.167  1.00  0.00     0.177 C 
BRANCH  21  26
ATOM     26  O   UNL     1     -12.911 -20.596  11.906  1.00  0.00    -0.387 OA
ATOM     27  H   UNL     1     -12.593 -20.442  10.977  1.00  0.00     0.211 HD
ENDBRANCH  21  26
BRANCH  23  28
ATOM     28  O   UNL     1     -16.151 -20.117  12.141  1.00  0.00    -0.387 OA
ATOM     29  H   UNL     1     -15.810 -19.993  11.215  1.00  0.00     0.211 HD
ENDBRANCH  23  28
BRANCH  24  30
ATOM     30  C   UNL     1     -16.401 -17.029  12.946  1.00  0.00     0.191 C 
BRANCH  30  31
ATOM     31  O   UNL     1     -16.213 -17.122  11.561  1.00  0.00    -0.394 OA
ATOM     32  H   UNL     1     -16.789 -17.864  11.240  1.00  0.00     0.210 HD
ENDBRANCH  30  31
ENDBRANCH  24  30
BRANCH  25  33
ATOM     33  O   UNL     1     -16.614 -19.327  14.704  1.00  0.00    -0.388 OA
ATOM     34  H   UNL     1     -16.907 -18.501  15.167  1.00  0.00     0.211 HD
ENDBRANCH  25  33
ENDBRANCH  11  20
BRANCH  10  35
ATOM     35  O   UNL     1     -12.374 -20.856  14.567  1.00  0.00    -0.507 OA
ATOM     36  H   UNL     1     -13.194 -21.099  15.091  1.00  0.00     0.293 HD
ENDBRANCH  10  35
TORSDOF 9
ENDMDL
MODEL 3
REMARK VINA RESULT:    -5.885      1.928      3.890
REMARK INTER + INTRA:          -8.275
REMARK INTER:                  -8.102
REMARK INTRA:                  -0.173
REMARK UNBOUND:                -0.326
REMARK SMILES O=c1c(-c2ccc(O)cc2)coc2c([C@@H]3O[C@@H](CO)[C@@H](O)[C@@H](O)[C@@H]3O)c(O)ccc12
REMARK SMILES IDX 3 1 11 2 12 3 13 4 30 5 2 6 1 7 29 8 28 9 26 10 14 11 4 12
REMARK SMILES IDX 5 13 6 14 7 15 10 16 9 17 8 18 15 20 24 21 16 22 22 23 17 24
REMARK SMILES IDX 20 25 25 26 23 28 18 30 19 31 21 33 27 35
REMARK H PARENT 8 19 25 27 23 29 19 32 21 34 27 36
REMARK Flexibility Score: inf
ROOT
ATOM      1  C   UNL     1     -12.258 -15.350  13.922  1.00  0.00     0.065 A 
ATOM      2  C   UNL     1     -12.137 -16.741  14.054  1.00  0.00     0.208 A 
ATOM      3  O   UNL     1     -13.148 -17.544  13.754  1.00  0.00    -0.463 OA
ATOM      4  C   UNL     1     -14.323 -17.116  13.291  1.00  0.00     0.147 A 
ATOM      5  C   UNL     1     -14.517 -15.725  13.103  1.00  0.00     0.066 A 
ATOM      6  C   UNL     1     -13.477 -14.839  13.444  1.00  0.00     0.200 A 
ATOM      7  O   UNL     1     -13.647 -13.590  13.346  1.00  0.00    -0.288 OA
ATOM      8  C   UNL     1     -15.739 -15.255  12.618  1.00  0.00     0.020 A 
ATOM      9  C   UNL     1     -16.745 -16.149  12.291  1.00  0.00     0.047 A 
ATOM     10  C   UNL     1     -16.571 -17.528  12.441  1.00  0.00     0.125 A 
ATOM     11  C   UNL     1     -15.364 -18.054  13.002  1.00  0.00     0.069 A 
ENDROOT
BRANCH   1  12
ATOM     12  C   UNL     1     -11.110 -14.472  14.275  1.00  0.00    -0.011 A 
ATOM     13  C   UNL     1     -10.271 -13.960  13.267  1.00  0.00     0.013 A 
ATOM     14  C   UNL     1      -9.221 -13.098  13.591  1.00  0.00     0.047 A 
ATOM     15  C   UNL     1      -8.987 -12.743  14.928  1.00  0.00     0.115 A 
ATOM     16  C   UNL     1     -10.866 -14.108  15.614  1.00  0.00     0.013 A 
ATOM     17  C   UNL     1      -9.808 -13.254  15.935  1.00  0.00     0.047 A 
BRANCH  15  18
ATOM     18  O   UNL     1      -7.943 -11.883  15.262  1.00  0.00    -0.508 OA
ATOM     19  H   UNL     1      -6.986 -12.085  15.004  1.00  0.00     0.293 HD
ENDBRANCH  15  18
ENDBRANCH   1  12
BRANCH  11  20
ATOM     20  C   UNL     1     -15.208 -19.484  13.601  1.00  0.00     0.188 C 
ATOM     21  C   UNL     1     -16.387 -20.479  13.802  1.00  0.00     0.179 C 
ATOM     22  O   UNL     1     -14.140 -20.187  12.989  1.00  0.00    -0.362 OA
ATOM     23  C   UNL     1     -16.870 -21.133  12.480  1.00  0.00     0.177 C 
ATOM     24  C   UNL     1     -14.439 -20.778  11.723  1.00  0.00     0.176 C 
ATOM     25  C   UNL     1     -15.949 -20.741  11.310  1.00  0.00     0.177 C 
BRANCH  21  26
ATOM     26  O   UNL     1     -17.431 -19.920  14.552  1.00  0.00    -0.387 OA
ATOM     27  H   UNL     1     -17.341 -20.274  15.476  1.00  0.00     0.211 HD
ENDBRANCH  21  26
BRANCH  23  28
ATOM     28  O   UNL     1     -16.898 -22.532  12.636  1.00  0.00    -0.387 OA
ATOM     29  H   UNL     1     -15.955 -22.837  12.719  1.00  0.00     0.211 HD
ENDBRANCH  23  28
BRANCH  24  30
ATOM     30  C   UNL     1     -13.844 -22.200  11.738  1.00  0.00     0.191 C 
BRANCH  30  31
ATOM     31  O   UNL     1     -13.881 -22.771  13.017  1.00  0.00    -0.394 OA
ATOM     32  H   UNL     1     -13.651 -23.731  12.913  1.00  0.00     0.210 HD
ENDBRANCH  30  31
ENDBRANCH  24  30
BRANCH  25  33
ATOM     33  O   UNL     1     -16.211 -21.550  10.192  1.00  0.00    -0.388 OA
ATOM     34  H   UNL     1     -16.428 -22.454  10.538  1.00  0.00     0.211 HD
ENDBRANCH  25  33
ENDBRANCH  11  20
BRANCH  10  35
ATOM     35  O   UNL     1     -17.617 -18.309  11.974  1.00  0.00    -0.507 OA
ATOM     36  H   UNL     1     -18.375 -17.914  11.448  1.00  0.00     0.293 HD
ENDBRANCH  10  35
TORSDOF 9
ENDMDL
MODEL 4
REMARK VINA RESULT:    -5.812     13.550     15.796
REMARK INTER + INTRA:          -8.177
REMARK INTER:                  -7.981
REMARK INTRA:                  -0.197
REMARK UNBOUND:                -0.326
REMARK SMILES O=c1c(-c2ccc(O)cc2)coc2c([C@@H]3O[C@@H](CO)[C@@H](O)[C@@H](O)[C@@H]3O)c(O)ccc12
REMARK SMILES IDX 3 1 11 2 12 3 13 4 30 5 2 6 1 7 29 8 28 9 26 10 14 11 4 12
REMARK SMILES IDX 5 13 6 14 7 15 10 16 9 17 8 18 15 20 24 21 16 22 22 23 17 24
REMARK SMILES IDX 20 25 25 26 23 28 18 30 19 31 21 33 27 35
REMARK H PARENT 8 19 25 27 23 29 19 32 21 34 27 36
REMARK Flexibility Score: inf
ROOT
ATOM      1  C   UNL     1     -19.361 -10.038   3.859  1.00  0.00     0.065 A 
ATOM      2  C   UNL     1     -19.611 -11.373   3.511  1.00  0.00     0.208 A 
ATOM      3  O   UNL     1     -19.292 -11.835   2.310  1.00  0.00    -0.463 OA
ATOM      4  C   UNL     1     -18.701 -11.103   1.366  1.00  0.00     0.147 A 
ATOM      5  C   UNL     1     -18.389  -9.749   1.649  1.00  0.00     0.066 A 
ATOM      6  C   UNL     1     -18.744  -9.214   2.901  1.00  0.00     0.200 A 
ATOM      7  O   UNL     1     -18.535  -7.994   3.155  1.00  0.00    -0.288 OA
ATOM      8  C   UNL     1     -17.768  -8.964   0.675  1.00  0.00     0.020 A 
ATOM      9  C   UNL     1     -17.431  -9.515  -0.550  1.00  0.00     0.047 A 
ATOM     10  C   UNL     1     -17.704 -10.854  -0.844  1.00  0.00     0.125 A 
ATOM     11  C   UNL     1     -18.402 -11.681   0.093  1.00  0.00     0.069 A 
ENDROOT
BRANCH   1  12
ATOM     12  C   UNL     1     -19.737  -9.544   5.211  1.00  0.00    -0.011 A 
ATOM     13  C   UNL     1     -18.745  -9.112   6.111  1.00  0.00     0.013 A 
ATOM     14  C   UNL     1     -19.098  -8.603   7.364  1.00  0.00     0.047 A 
ATOM     15  C   UNL     1     -20.448  -8.530   7.739  1.00  0.00     0.115 A 
ATOM     16  C   UNL     1     -21.089  -9.466   5.598  1.00  0.00     0.013 A 
ATOM     17  C   UNL     1     -21.438  -8.966   6.856  1.00  0.00     0.047 A 
BRANCH  15  18
ATOM     18  O   UNL     1     -20.812  -8.025   8.985  1.00  0.00    -0.508 OA
ATOM     19  H   UNL     1     -20.351  -8.325   9.835  1.00  0.00     0.293 HD
ENDBRANCH  15  18
ENDBRANCH   1  12
BRANCH  11  20
ATOM     20  C   UNL     1     -19.123 -13.016  -0.260  1.00  0.00     0.188 C 
ATOM     21  C   UNL     1     -19.135 -13.652  -1.680  1.00  0.00     0.179 C 
ATOM     22  O   UNL     1     -18.808 -14.035   0.674  1.00  0.00    -0.362 OA
ATOM     23  C   UNL     1     -17.792 -14.327  -2.063  1.00  0.00     0.177 C 
ATOM     24  C   UNL     1     -17.554 -14.688   0.472  1.00  0.00     0.176 C 
ATOM     25  C   UNL     1     -16.823 -14.329  -0.866  1.00  0.00     0.177 C 
BRANCH  21  26
ATOM     26  O   UNL     1     -19.600 -12.760  -2.657  1.00  0.00    -0.387 OA
ATOM     27  H   UNL     1     -19.283 -13.104  -3.533  1.00  0.00     0.211 HD
ENDBRANCH  21  26
BRANCH  23  28
ATOM     28  O   UNL     1     -18.039 -15.644  -2.497  1.00  0.00    -0.387 OA
ATOM     29  H   UNL     1     -17.336 -15.870  -3.164  1.00  0.00     0.211 HD
ENDBRANCH  23  28
BRANCH  24  30
ATOM     30  C   UNL     1     -17.801 -16.200   0.647  1.00  0.00     0.191 C 
BRANCH  30  31
ATOM     31  O   UNL     1     -16.652 -16.872   1.083  1.00  0.00    -0.394 OA
ATOM     32  H   UNL     1     -16.260 -17.322   0.289  1.00  0.00     0.210 HD
ENDBRANCH  30  31
ENDBRANCH  24  30
BRANCH  25  33
ATOM     33  O   UNL     1     -15.737 -15.183  -1.120  1.00  0.00    -0.388 OA
ATOM     34  H   UNL     1     -14.949 -14.603  -1.280  1.00  0.00     0.211 HD
ENDBRANCH  25  33
ENDBRANCH  11  20
BRANCH  10  35
ATOM     35  O   UNL     1     -17.214 -11.302  -2.062  1.00  0.00    -0.507 OA
ATOM     36  H   UNL     1     -17.729 -11.176  -2.914  1.00  0.00     0.293 HD
ENDBRANCH  10  35
TORSDOF 9
ENDMDL
MODEL 5
REMARK VINA RESULT:    -5.731      3.279      4.729
REMARK INTER + INTRA:          -8.067
REMARK INTER:                  -7.631
REMARK INTRA:                  -0.436
REMARK UNBOUND:                -0.326
REMARK SMILES O=c1c(-c2ccc(O)cc2)coc2c([C@@H]3O[C@@H](CO)[C@@H](O)[C@@H](O)[C@@H]3O)c(O)ccc12
REMARK SMILES IDX 3 1 11 2 12 3 13 4 30 5 2 6 1 7 29 8 28 9 26 10 14 11 4 12
REMARK SMILES IDX 5 13 6 14 7 15 10 16 9 17 8 18 15 20 24 21 16 22 22 23 17 24
REMARK SMILES IDX 20 25 25 26 23 28 18 30 19 31 21 33 27 35
REMARK H PARENT 8 19 25 27 23 29 19 32 21 34 27 36
REMARK Flexibility Score: inf
ROOT
ATOM      1  C   UNL     1     -14.227 -15.897  12.577  1.00  0.00     0.065 A 
ATOM      2  C   UNL     1     -13.250 -16.639  11.900  1.00  0.00     0.208 A 
ATOM      3  O   UNL     1     -13.322 -17.962  11.836  1.00  0.00    -0.463 OA
ATOM      4  C   UNL     1     -14.311 -18.677  12.370  1.00  0.00     0.147 A 
ATOM      5  C   UNL     1     -15.354 -17.999  13.050  1.00  0.00     0.066 A 
ATOM      6  C   UNL     1     -15.294 -16.598  13.167  1.00  0.00     0.200 A 
ATOM      7  O   UNL     1     -16.177 -15.975  13.822  1.00  0.00    -0.288 OA
ATOM      8  C   UNL     1     -16.402 -18.729  13.615  1.00  0.00     0.020 A 
ATOM      9  C   UNL     1     -16.437 -20.107  13.485  1.00  0.00     0.047 A 
ATOM     10  C   UNL     1     -15.435 -20.798  12.798  1.00  0.00     0.125 A 
ATOM     11  C   UNL     1     -14.304 -20.104  12.261  1.00  0.00     0.069 A 
ENDROOT
BRANCH   1  12
ATOM     12  C   UNL     1     -14.117 -14.414  12.641  1.00  0.00    -0.011 A 
ATOM     13  C   UNL     1     -13.579 -13.790  13.782  1.00  0.00     0.013 A 
ATOM     14  C   UNL     1     -13.431 -12.402  13.827  1.00  0.00     0.047 A 
ATOM     15  C   UNL     1     -13.829 -11.615  12.735  1.00  0.00     0.115 A 
ATOM     16  C   UNL     1     -14.512 -13.615  11.551  1.00  0.00     0.013 A 
ATOM     17  C   UNL     1     -14.373 -12.225  11.603  1.00  0.00     0.047 A 
BRANCH  15  18
ATOM     18  O   UNL     1     -13.685 -10.230  12.768  1.00  0.00    -0.508 OA
ATOM     19  H   UNL     1     -14.460  -9.612  12.565  1.00  0.00     0.293 HD
ENDBRANCH  15  18
ENDBRANCH   1  12
BRANCH  11  20
ATOM     20  C   UNL     1     -12.954 -20.771  11.861  1.00  0.00     0.188 C 
ATOM     21  C   UNL     1     -12.713 -22.308  11.843  1.00  0.00     0.179 C 
ATOM     22  O   UNL     1     -12.451 -20.234  10.650  1.00  0.00    -0.362 OA
ATOM     23  C   UNL     1     -13.373 -23.019  10.632  1.00  0.00     0.177 C 
ATOM     24  C   UNL     1     -13.035 -20.757   9.456  1.00  0.00     0.176 C 
ATOM     25  C   UNL     1     -13.980 -21.990   9.661  1.00  0.00     0.177 C 
BRANCH  21  26
ATOM     26  O   UNL     1     -13.026 -22.909  13.071  1.00  0.00    -0.387 OA
ATOM     27  H   UNL     1     -13.814 -22.427  13.434  1.00  0.00     0.211 HD
ENDBRANCH  21  26
BRANCH  23  28
ATOM     28  O   UNL     1     -12.410 -23.808   9.974  1.00  0.00    -0.387 OA
ATOM     29  H   UNL     1     -12.877 -24.619   9.635  1.00  0.00     0.211 HD
ENDBRANCH  23  28
BRANCH  24  30
ATOM     30  C   UNL     1     -11.880 -21.030   8.473  1.00  0.00     0.191 C 
BRANCH  30  31
ATOM     31  O   UNL     1     -10.699 -21.390   9.137  1.00  0.00    -0.394 OA
ATOM     32  H   UNL     1      -9.957 -21.281   8.486  1.00  0.00     0.210 HD
ENDBRANCH  30  31
ENDBRANCH  24  30
BRANCH  25  33
ATOM     33  O   UNL     1     -14.315 -22.607   8.444  1.00  0.00    -0.388 OA
ATOM     34  H   UNL     1     -14.230 -23.584   8.586  1.00  0.00     0.211 HD
ENDBRANCH  25  33
ENDBRANCH  11  20
BRANCH  10  35
ATOM     35  O   UNL     1     -15.652 -22.160  12.650  1.00  0.00    -0.507 OA
ATOM     36  H   UNL     1     -15.816 -22.755  13.441  1.00  0.00     0.293 HD
ENDBRANCH  10  35
TORSDOF 9
ENDMDL
MODEL 6
REMARK VINA RESULT:    -5.682     12.628     14.367
REMARK INTER + INTRA:          -8.001
REMARK INTER:                  -7.625
REMARK INTRA:                  -0.375
REMARK UNBOUND:                -0.326
REMARK SMILES O=c1c(-c2ccc(O)cc2)coc2c([C@@H]3O[C@@H](CO)[C@@H](O)[C@@H](O)[C@@H]3O)c(O)ccc12
REMARK SMILES IDX 3 1 11 2 12 3 13 4 30 5 2 6 1 7 29 8 28 9 26 10 14 11 4 12
REMARK SMILES IDX 5 13 6 14 7 15 10 16 9 17 8 18 15 20 24 21 16 22 22 23 17 24
REMARK SMILES IDX 20 25 25 26 23 28 18 30 19 31 21 33 27 35
REMARK H PARENT 8 19 25 27 23 29 19 32 21 34 27 36
REMARK Flexibility Score: inf
ROOT
ATOM      1  C   UNL     1     -15.830  -7.277   6.720  1.00  0.00     0.065 A 
ATOM      2  C   UNL     1     -17.154  -7.584   6.380  1.00  0.00     0.208 A 
ATOM      3  O   UNL     1     -17.458  -8.048   5.175  1.00  0.00    -0.463 OA
ATOM      4  C   UNL     1     -16.557  -8.281   4.221  1.00  0.00     0.147 A 
ATOM      5  C   UNL     1     -15.190  -8.022   4.496  1.00  0.00     0.066 A 
ATOM      6  C   UNL     1     -14.834  -7.497   5.752  1.00  0.00     0.200 A 
ATOM      7  O   UNL     1     -13.631  -7.197   6.000  1.00  0.00    -0.288 OA
ATOM      8  C   UNL     1     -14.229  -8.261   3.512  1.00  0.00     0.020 A 
ATOM      9  C   UNL     1     -14.607  -8.778   2.284  1.00  0.00     0.047 A 
ATOM     10  C   UNL     1     -15.944  -9.067   1.996  1.00  0.00     0.125 A 
ATOM     11  C   UNL     1     -16.975  -8.773   2.945  1.00  0.00     0.069 A 
ENDROOT
BRANCH   1  12
ATOM     12  C   UNL     1     -15.519  -6.749   8.076  1.00  0.00    -0.011 A 
ATOM     13  C   UNL     1     -15.314  -7.632   9.153  1.00  0.00     0.013 A 
ATOM     14  C   UNL     1     -14.975  -7.142  10.417  1.00  0.00     0.047 A 
ATOM     15  C   UNL     1     -14.849  -5.760  10.626  1.00  0.00     0.115 A 
ATOM     16  C   UNL     1     -15.388  -5.364   8.297  1.00  0.00     0.013 A 
ATOM     17  C   UNL     1     -15.060  -4.876   9.565  1.00  0.00     0.047 A 
BRANCH  15  18
ATOM     18  O   UNL     1     -14.512  -5.260  11.881  1.00  0.00    -0.508 OA
ATOM     19  H   UNL     1     -14.147  -4.323  11.998  1.00  0.00     0.293 HD
ENDBRANCH  15  18
ENDBRANCH   1  12
BRANCH  11  20
ATOM     20  C   UNL     1     -18.490  -8.650   2.606  1.00  0.00     0.188 C 
ATOM     21  C   UNL     1     -19.102  -8.977   1.214  1.00  0.00     0.179 C 
ATOM     22  O   UNL     1     -19.293  -9.272   3.595  1.00  0.00    -0.362 OA
ATOM     23  C   UNL     1     -19.208 -10.499   0.931  1.00  0.00     0.177 C 
ATOM     24  C   UNL     1     -19.411 -10.691   3.488  1.00  0.00     0.176 C 
ATOM     25  C   UNL     1     -18.816 -11.313   2.179  1.00  0.00     0.177 C 
BRANCH  21  26
ATOM     26  O   UNL     1     -18.476  -8.269   0.179  1.00  0.00    -0.387 OA
ATOM     27  H   UNL     1     -19.198  -7.874  -0.377  1.00  0.00     0.211 HD
ENDBRANCH  21  26
BRANCH  23  28
ATOM     28  O   UNL     1     -20.524 -10.810   0.536  1.00  0.00    -0.387 OA
ATOM     29  H   UNL     1     -20.720 -11.727   0.866  1.00  0.00     0.211 HD
ENDBRANCH  23  28
BRANCH  24  30
ATOM     30  C   UNL     1     -20.897 -11.038   3.708  1.00  0.00     0.191 C 
BRANCH  30  31
ATOM     31  O   UNL     1     -21.087 -12.405   3.949  1.00  0.00    -0.394 OA
ATOM     32  H   UNL     1     -20.368 -12.888   3.464  1.00  0.00     0.210 HD
ENDBRANCH  30  31
ENDBRANCH  24  30
BRANCH  25  33
ATOM     33  O   UNL     1     -19.184 -12.659   2.018  1.00  0.00    -0.388 OA
ATOM     34  H   UNL     1     -19.923 -12.831   2.655  1.00  0.00     0.211 HD
ENDBRANCH  25  33
ENDBRANCH  11  20
BRANCH  10  35
ATOM     35  O   UNL     1     -16.165  -9.681   0.773  1.00  0.00    -0.507 OA
ATOM     36  H   UNL     1     -15.433 -10.166   0.288  1.00  0.00     0.293 HD
ENDBRANCH  10  35
TORSDOF 9
ENDMDL
MODEL 7
REMARK VINA RESULT:    -5.653      2.054      8.171
REMARK INTER + INTRA:          -7.961
REMARK INTER:                  -7.589
REMARK INTRA:                  -0.373
REMARK UNBOUND:                -0.326
REMARK SMILES O=c1c(-c2ccc(O)cc2)coc2c([C@@H]3O[C@@H](CO)[C@@H](O)[C@@H](O)[C@@H]3O)c(O)ccc12
REMARK SMILES IDX 3 1 11 2 12 3 13 4 30 5 2 6 1 7 29 8 28 9 26 10 14 11 4 12
REMARK SMILES IDX 5 13 6 14 7 15 10 16 9 17 8 18 15 20 24 21 16 22 22 23 17 24
REMARK SMILES IDX 20 25 25 26 23 28 18 30 19 31 21 33 27 35
REMARK H PARENT 8 19 25 27 23 29 19 32 21 34 27 36
REMARK Flexibility Score: inf
ROOT
ATOM      1  C   UNL     1     -13.695 -18.879  13.843  1.00  0.00     0.065 A 
ATOM      2  C   UNL     1     -13.748 -17.514  13.529  1.00  0.00     0.208 A 
ATOM      3  O   UNL     1     -12.776 -16.692  13.901  1.00  0.00    -0.463 OA
ATOM      4  C   UNL     1     -11.687 -17.082  14.562  1.00  0.00     0.147 A 
ATOM      5  C   UNL     1     -11.545 -18.453  14.895  1.00  0.00     0.066 A 
ATOM      6  C   UNL     1     -12.572 -19.350  14.545  1.00  0.00     0.200 A 
ATOM      7  O   UNL     1     -12.500 -20.565  14.886  1.00  0.00    -0.288 OA
ATOM      8  C   UNL     1     -10.411 -18.884  15.585  1.00  0.00     0.020 A 
ATOM      9  C   UNL     1      -9.415 -17.981  15.917  1.00  0.00     0.047 A 
ATOM     10  C   UNL     1      -9.518 -16.628  15.578  1.00  0.00     0.125 A 
ATOM     11  C   UNL     1     -10.692 -16.124  14.933  1.00  0.00     0.069 A 
ENDROOT
BRANCH   1  12
ATOM     12  C   UNL     1     -14.804 -19.778  13.421  1.00  0.00    -0.011 A 
ATOM     13  C   UNL     1     -16.067 -19.685  14.035  1.00  0.00     0.013 A 
ATOM     14  C   UNL     1     -17.123 -20.495  13.609  1.00  0.00     0.047 A 
ATOM     15  C   UNL     1     -16.929 -21.418  12.570  1.00  0.00     0.115 A 
ATOM     16  C   UNL     1     -14.620 -20.707  12.379  1.00  0.00     0.013 A 
ATOM     17  C   UNL     1     -15.676 -21.523  11.962  1.00  0.00     0.047 A 
BRANCH  15  18
ATOM     18  O   UNL     1     -17.974 -22.230  12.137  1.00  0.00    -0.508 OA
ATOM     19  H   UNL     1     -17.819 -22.996  11.494  1.00  0.00     0.293 HD
ENDBRANCH  15  18
ENDBRANCH   1  12
BRANCH  11  20
ATOM     20  C   UNL     1     -11.108 -14.624  14.885  1.00  0.00     0.188 C 
ATOM     21  C   UNL     1     -10.240 -13.459  15.443  1.00  0.00     0.179 C 
ATOM     22  O   UNL     1     -11.560 -14.254  13.593  1.00  0.00    -0.362 OA
ATOM     23  C   UNL     1      -9.030 -13.107  14.537  1.00  0.00     0.177 C 
ATOM     24  C   UNL     1     -10.533 -13.974  12.640  1.00  0.00     0.176 C 
ATOM     25  C   UNL     1      -9.081 -13.909  13.224  1.00  0.00     0.177 C 
BRANCH  21  26
ATOM     26  O   UNL     1      -9.884 -13.658  16.784  1.00  0.00    -0.387 OA
ATOM     27  H   UNL     1     -10.683 -13.432  17.329  1.00  0.00     0.211 HD
ENDBRANCH  21  26
BRANCH  23  28
ATOM     28  O   UNL     1      -9.035 -11.724  14.270  1.00  0.00    -0.387 OA
ATOM     29  H   UNL     1      -8.433 -11.574  13.492  1.00  0.00     0.211 HD
ENDBRANCH  23  28
BRANCH  24  30
ATOM     30  C   UNL     1     -10.950 -12.691  11.894  1.00  0.00     0.191 C 
BRANCH  30  31
ATOM     31  O   UNL     1     -11.681 -11.821  12.713  1.00  0.00    -0.394 OA
ATOM     32  H   UNL     1     -12.367 -11.390  12.139  1.00  0.00     0.210 HD
ENDBRANCH  30  31
ENDBRANCH  24  30
BRANCH  25  33
ATOM     33  O   UNL     1      -8.163 -13.386  12.298  1.00  0.00    -0.388 OA
ATOM     34  H   UNL     1      -8.457 -12.462  12.093  1.00  0.00     0.211 HD
ENDBRANCH  25  33
ENDBRANCH  11  20
BRANCH  10  35
ATOM     35  O   UNL     1      -8.402 -15.860  15.873  1.00  0.00    -0.507 OA
ATOM     36  H   UNL     1      -8.451 -14.858  15.924  1.00  0.00     0.293 HD
ENDBRANCH  10  35
TORSDOF 9
ENDMDL
MODEL 8
REMARK VINA RESULT:    -5.387      9.607     11.964
REMARK INTER + INTRA:          -7.602
REMARK INTER:                  -7.169
REMARK INTRA:                  -0.433
REMARK UNBOUND:                -0.326
REMARK SMILES O=c1c(-c2ccc(O)cc2)coc2c([C@@H]3O[C@@H](CO)[C@@H](O)[C@@H](O)[C@@H]3O)c(O)ccc12
REMARK SMILES IDX 3 1 11 2 12 3 13 4 30 5 2 6 1 7 29 8 28 9 26 10 14 11 4 12
REMARK SMILES IDX 5 13 6 14 7 15 10 16 9 17 8 18 15 20 24 21 16 22 22 23 17 24
REMARK SMILES IDX 20 25 25 26 23 28 18 30 19 31 21 33 27 35
REMARK H PARENT 8 19 25 27 23 29 19 32 21 34 27 36
REMARK Flexibility Score: inf
ROOT
ATOM      1  C   UNL     1     -13.722 -10.633  11.479  1.00  0.00     0.065 A 
ATOM      2  C   UNL     1     -13.862 -10.937  10.118  1.00  0.00     0.208 A 
ATOM      3  O   UNL     1     -14.331 -10.039   9.263  1.00  0.00    -0.463 OA
ATOM      4  C   UNL     1     -14.677  -8.798   9.607  1.00  0.00     0.147 A 
ATOM      5  C   UNL     1     -14.540  -8.402  10.961  1.00  0.00     0.066 A 
ATOM      6  C   UNL     1     -14.077  -9.340  11.903  1.00  0.00     0.200 A 
ATOM      7  O   UNL     1     -14.006  -9.032  13.126  1.00  0.00    -0.288 OA
ATOM      8  C   UNL     1     -14.894  -7.107  11.343  1.00  0.00     0.020 A 
ATOM      9  C   UNL     1     -15.348  -6.204  10.395  1.00  0.00     0.047 A 
ATOM     10  C   UNL     1     -15.467  -6.560   9.049  1.00  0.00     0.125 A 
ATOM     11  C   UNL     1     -15.185  -7.896   8.620  1.00  0.00     0.069 A 
ENDROOT
BRANCH   1  12
ATOM     12  C   UNL     1     -13.201 -11.663  12.417  1.00  0.00    -0.011 A 
ATOM     13  C   UNL     1     -11.814 -11.822  12.600  1.00  0.00     0.013 A 
ATOM     14  C   UNL     1     -11.323 -12.756  13.515  1.00  0.00     0.047 A 
ATOM     15  C   UNL     1     -12.210 -13.555  14.252  1.00  0.00     0.115 A 
ATOM     16  C   UNL     1     -14.082 -12.470  13.163  1.00  0.00     0.013 A 
ATOM     17  C   UNL     1     -13.587 -13.411  14.069  1.00  0.00     0.047 A 
BRANCH  15  18
ATOM     18  O   UNL     1     -11.732 -14.489  15.167  1.00  0.00    -0.508 OA
ATOM     19  H   UNL     1     -10.744 -14.692  15.251  1.00  0.00     0.293 HD
ENDBRANCH  15  18
ENDBRANCH   1  12
BRANCH  11  20
ATOM     20  C   UNL     1     -15.667  -8.522   7.277  1.00  0.00     0.188 C 
ATOM     21  C   UNL     1     -16.434  -7.737   6.175  1.00  0.00     0.179 C 
ATOM     22  O   UNL     1     -14.632  -9.261   6.650  1.00  0.00    -0.362 OA
ATOM     23  C   UNL     1     -15.525  -6.785   5.353  1.00  0.00     0.177 C 
ATOM     24  C   UNL     1     -13.681  -8.486   5.918  1.00  0.00     0.176 C 
ATOM     25  C   UNL     1     -14.047  -6.973   5.742  1.00  0.00     0.177 C 
BRANCH  21  26
ATOM     26  O   UNL     1     -17.582  -7.106   6.673  1.00  0.00    -0.387 OA
ATOM     27  H   UNL     1     -18.302  -7.790   6.688  1.00  0.00     0.211 HD
ENDBRANCH  21  26
BRANCH  23  28
ATOM     28  O   UNL     1     -15.707  -7.037   3.979  1.00  0.00    -0.387 OA
ATOM     29  H   UNL     1     -15.975  -6.177   3.557  1.00  0.00     0.211 HD
ENDBRANCH  23  28
BRANCH  24  30
ATOM     30  C   UNL     1     -13.440  -9.215   4.581  1.00  0.00     0.191 C 
BRANCH  30  31
ATOM     31  O   UNL     1     -14.587  -9.884   4.134  1.00  0.00    -0.394 OA
ATOM     32  H   UNL     1     -15.262  -9.818   4.859  1.00  0.00     0.210 HD
ENDBRANCH  30  31
ENDBRANCH  24  30
BRANCH  25  33
ATOM     33  O   UNL     1     -13.213  -6.332   4.811  1.00  0.00    -0.388 OA
ATOM     34  H   UNL     1     -12.598  -5.753   5.330  1.00  0.00     0.211 HD
ENDBRANCH  25  33
ENDBRANCH  11  20
BRANCH  10  35
ATOM     35  O   UNL     1     -15.827  -5.529   8.195  1.00  0.00    -0.507 OA
ATOM     36  H   UNL     1     -16.666  -4.995   8.339  1.00  0.00     0.293 HD
ENDBRANCH  10  35
TORSDOF 9
ENDMDL
MODEL 9
REMARK VINA RESULT:    -5.337      3.422      8.756
REMARK INTER + INTRA:          -7.535
REMARK INTER:                  -7.228
REMARK INTRA:                  -0.307
REMARK UNBOUND:                -0.326
REMARK SMILES O=c1c(-c2ccc(O)cc2)coc2c([C@@H]3O[C@@H](CO)[C@@H](O)[C@@H](O)[C@@H]3O)c(O)ccc12
REMARK SMILES IDX 3 1 11 2 12 3 13 4 30 5 2 6 1 7 29 8 28 9 26 10 14 11 4 12
REMARK SMILES IDX 5 13 6 14 7 15 10 16 9 17 8 18 15 20 24 21 16 22 22 23 17 24
REMARK SMILES IDX 20 25 25 26 23 28 18 30 19 31 21 33 27 35
REMARK H PARENT 8 19 25 27 23 29 19 32 21 34 27 36
REMARK Flexibility Score: inf
ROOT
ATOM      1  C   UNL     1     -13.873 -22.640   9.119  1.00  0.00     0.065 A 
ATOM      2  C   UNL     1     -14.450 -22.307  10.353  1.00  0.00     0.208 A 
ATOM      3  O   UNL     1     -13.719 -21.787  11.328  1.00  0.00    -0.463 OA
ATOM      4  C   UNL     1     -12.418 -21.519  11.218  1.00  0.00     0.147 A 
ATOM      5  C   UNL     1     -11.765 -21.802   9.992  1.00  0.00     0.066 A 
ATOM      6  C   UNL     1     -12.502 -22.386   8.945  1.00  0.00     0.200 A 
ATOM      7  O   UNL     1     -11.929 -22.707   7.865  1.00  0.00    -0.288 OA
ATOM      8  C   UNL     1     -10.403 -21.527   9.853  1.00  0.00     0.020 A 
ATOM      9  C   UNL     1      -9.701 -20.952  10.900  1.00  0.00     0.047 A 
ATOM     10  C   UNL     1     -10.327 -20.639  12.110  1.00  0.00     0.125 A 
ATOM     11  C   UNL     1     -11.703 -20.966  12.327  1.00  0.00     0.069 A 
ENDROOT
BRANCH   1  12
ATOM     12  C   UNL     1     -14.716 -23.231   8.045  1.00  0.00    -0.011 A 
ATOM     13  C   UNL     1     -15.652 -22.437   7.357  1.00  0.00     0.013 A 
ATOM     14  C   UNL     1     -16.412 -22.977   6.317  1.00  0.00     0.047 A 
ATOM     15  C   UNL     1     -16.255 -24.323   5.955  1.00  0.00     0.115 A 
ATOM     16  C   UNL     1     -14.567 -24.582   7.674  1.00  0.00     0.013 A 
ATOM     17  C   UNL     1     -15.336 -25.122   6.639  1.00  0.00     0.047 A 
BRANCH  15  18
ATOM     18  O   UNL     1     -17.006 -24.873   4.919  1.00  0.00    -0.508 OA
ATOM     19  H   UNL     1     -17.411 -24.296   4.193  1.00  0.00     0.293 HD
ENDBRANCH  15  18
ENDBRANCH   1  12
BRANCH  11  20
ATOM     20  C   UNL     1     -12.389 -21.060  13.722  1.00  0.00     0.188 C 
ATOM     21  C   UNL     1     -11.711 -20.637  15.057  1.00  0.00     0.179 C 
ATOM     22  O   UNL     1     -13.692 -20.504  13.697  1.00  0.00    -0.362 OA
ATOM     23  C   UNL     1     -11.636 -19.099  15.248  1.00  0.00     0.177 C 
ATOM     24  C   UNL     1     -13.755 -19.080  13.791  1.00  0.00     0.176 C 
ATOM     25  C   UNL     1     -12.397 -18.374  14.123  1.00  0.00     0.177 C 
BRANCH  21  26
ATOM     26  O   UNL     1     -10.479 -21.276  15.253  1.00  0.00    -0.387 OA
ATOM     27  H   UNL     1     -10.148 -20.994  16.146  1.00  0.00     0.211 HD
ENDBRANCH  21  26
BRANCH  23  28
ATOM     28  O   UNL     1     -12.174 -18.758  16.504  1.00  0.00    -0.387 OA
ATOM     29  H   UNL     1     -13.161 -18.866  16.439  1.00  0.00     0.211 HD
ENDBRANCH  23  28
BRANCH  24  30
ATOM     30  C   UNL     1     -14.879 -18.744  14.791  1.00  0.00     0.191 C 
BRANCH  30  31
ATOM     31  O   UNL     1     -15.461 -17.497  14.527  1.00  0.00    -0.394 OA
ATOM     32  H   UNL     1     -16.220 -17.393  15.158  1.00  0.00     0.210 HD
ENDBRANCH  30  31
ENDBRANCH  24  30
BRANCH  25  33
ATOM     33  O   UNL     1     -12.572 -17.018  14.448  1.00  0.00    -0.388 OA
ATOM     34  H   UNL     1     -11.709 -16.699  14.816  1.00  0.00     0.211 HD
ENDBRANCH  25  33
ENDBRANCH  11  20
BRANCH  10  35
ATOM     35  O   UNL     1      -9.533 -19.968  13.029  1.00  0.00    -0.507 OA
ATOM     36  H   UNL     1      -8.554 -20.171  13.125  1.00  0.00     0.293 HD
ENDBRANCH  10  35
TORSDOF 9
ENDMDL
