MODEL 1
REMARK VINA RESULT:    -5.520      0.000      0.000
REMARK INTER + INTRA:          -7.340
REMARK INTER:                  -7.133
REMARK INTRA:                  -0.206
REMARK UNBOUND:                -0.206
REMARK SMILES CCO[C@@H]1O[C@H](CO)[C@H](O)[C@H](O)[C@@H]1O
REMARK SMILES IDX 4 1 13 2 11 3 9 4 6 5 5 6 3 7 2 8 1 9 14 10 12 12 7 14 8 15
REMARK SMILES IDX 10 17
REMARK H PARENT 14 11 12 13 8 16 10 18
REMARK Flexibility Score: inf
ROOT
ATOM      1  C   UNL     1      62.647  -4.268  23.364  1.00  0.00     0.281 C 
ATOM      2  C   UNL     1      64.001  -4.420  22.646  1.00  0.00     0.202 C 
ATOM      3  C   UNL     1      64.005  -3.594  21.338  1.00  0.00     0.179 C 
ATOM      4  C   UNL     1      62.731  -3.837  20.502  1.00  0.00     0.177 C 
ATOM      5  C   UNL     1      61.479  -3.753  21.413  1.00  0.00     0.178 C 
ATOM      6  O   UNL     1      61.586  -4.656  22.501  1.00  0.00    -0.341 OA
ENDROOT
BRANCH   1   7
ATOM      7  O   UNL     1      62.651  -5.102  24.506  1.00  0.00    -0.350 OA
BRANCH   7   8
ATOM      8  C   UNL     1      61.326  -5.398  24.900  1.00  0.00     0.160 C 
ATOM      9  C   UNL     1      61.322  -6.689  25.705  1.00  0.00     0.035 C 
ENDBRANCH   7   8
ENDBRANCH   1   7
BRANCH   2  10
ATOM     10  O   UNL     1      64.247  -5.779  22.384  1.00  0.00    -0.385 OA
ATOM     11  H   UNL     1      64.535  -5.844  21.436  1.00  0.00     0.211 HD
ENDBRANCH   2  10
BRANCH   3  12
ATOM     12  O   UNL     1      65.145  -3.879  20.567  1.00  0.00    -0.387 OA
ATOM     13  H   UNL     1      65.838  -3.217  20.826  1.00  0.00     0.211 HD
ENDBRANCH   3  12
BRANCH   5  14
ATOM     14  C   UNL     1      60.175  -4.024  20.641  1.00  0.00     0.191 C 
BRANCH  14  15
ATOM     15  O   UNL     1      59.877  -2.985  19.747  1.00  0.00    -0.394 OA
ATOM     16  H   UNL     1      60.025  -3.343  18.833  1.00  0.00     0.210 HD
ENDBRANCH  14  15
ENDBRANCH   5  14
BRANCH   4  17
ATOM     17  O   UNL     1      62.806  -5.056  19.799  1.00  0.00    -0.387 OA
ATOM     18  H   UNL     1      62.683  -4.867  18.834  1.00  0.00     0.211 HD
ENDBRANCH   4  17
TORSDOF 7
ENDMDL
MODEL 2
REMARK VINA RESULT:    -5.448     11.494     14.978
REMARK INTER + INTRA:          -7.247
REMARK INTER:                  -6.880
REMARK INTRA:                  -0.367
REMARK UNBOUND:                -0.206
REMARK SMILES CCO[C@@H]1O[C@H](CO)[C@H](O)[C@H](O)[C@@H]1O
REMARK SMILES IDX 4 1 13 2 11 3 9 4 6 5 5 6 3 7 2 8 1 9 14 10 12 12 7 14 8 15
REMARK SMILES IDX 10 17
REMARK H PARENT 14 11 12 13 8 16 10 18
REMARK Flexibility Score: inf
ROOT
ATOM      1  C   UNL     1      52.411  -1.687  11.320  1.00  0.00     0.281 C 
ATOM      2  C   UNL     1      51.338  -2.792  11.293  1.00  0.00     0.202 C 
ATOM      3  C   UNL     1      51.314  -3.542  12.646  1.00  0.00     0.179 C 
ATOM      4  C   UNL     1      52.731  -3.944  13.104  1.00  0.00     0.177 C 
ATOM      5  C   UNL     1      53.695  -2.738  12.958  1.00  0.00     0.178 C 
ATOM      6  O   UNL     1      53.682  -2.242  11.629  1.00  0.00    -0.341 OA
ENDROOT
BRANCH   1   7
ATOM      7  O   UNL     1      52.462  -1.083  10.041  1.00  0.00    -0.350 OA
BRANCH   7   8
ATOM      8  C   UNL     1      51.943   0.230  10.100  1.00  0.00     0.160 C 
ATOM      9  C   UNL     1      52.198   0.804  11.485  1.00  0.00     0.035 C 
ENDBRANCH   7   8
ENDBRANCH   1   7
BRANCH   2  10
ATOM     10  O   UNL     1      51.597  -3.677  10.232  1.00  0.00    -0.385 OA
ATOM     11  H   UNL     1      50.742  -4.135  10.020  1.00  0.00     0.211 HD
ENDBRANCH   2  10
BRANCH   3  12
ATOM     12  O   UNL     1      50.494  -4.680  12.576  1.00  0.00    -0.387 OA
ATOM     13  H   UNL     1      49.559  -4.366  12.696  1.00  0.00     0.211 HD
ENDBRANCH   3  12
BRANCH   5  14
ATOM     14  C   UNL     1      55.138  -3.088  13.365  1.00  0.00     0.191 C 
BRANCH  14  15
ATOM     15  O   UNL     1      55.179  -4.213  14.203  1.00  0.00    -0.394 OA
ATOM     16  H   UNL     1      55.013  -3.889  15.126  1.00  0.00     0.210 HD
ENDBRANCH  14  15
ENDBRANCH   5  14
BRANCH   4  17
ATOM     17  O   UNL     1      53.187  -5.086  12.415  1.00  0.00    -0.387 OA
ATOM     18  H   UNL     1      53.177  -4.887  11.444  1.00  0.00     0.211 HD
ENDBRANCH   4  17
TORSDOF 7
ENDMDL
MODEL 3
REMARK VINA RESULT:    -5.432     11.685     15.005
REMARK INTER + INTRA:          -7.226
REMARK INTER:                  -6.906
REMARK INTRA:                  -0.321
REMARK UNBOUND:                -0.206
REMARK SMILES CCO[C@@H]1O[C@H](CO)[C@H](O)[C@H](O)[C@@H]1O
REMARK SMILES IDX 4 1 13 2 11 3 9 4 6 5 5 6 3 7 2 8 1 9 14 10 12 12 7 14 8 15
REMARK SMILES IDX 10 17
REMARK H PARENT 14 11 12 13 8 16 10 18
REMARK Flexibility Score: inf
ROOT
ATOM      1  C   UNL     1      53.396  -3.319  10.332  1.00  0.00     0.281 C 
ATOM      2  C   UNL     1      52.220  -4.251  10.685  1.00  0.00     0.202 C 
ATOM      3  C   UNL     1      51.475  -3.717  11.931  1.00  0.00     0.179 C 
ATOM      4  C   UNL     1      52.449  -3.347  13.068  1.00  0.00     0.177 C 
ATOM      5  C   UNL     1      53.622  -2.503  12.504  1.00  0.00     0.178 C 
ATOM      6  O   UNL     1      54.270  -3.187  11.445  1.00  0.00    -0.341 OA
ENDROOT
BRANCH   1   7
ATOM      7  O   UNL     1      54.103  -3.884   9.244  1.00  0.00    -0.350 OA
BRANCH   7   8
ATOM      8  C   UNL     1      53.431  -3.613   8.031  1.00  0.00     0.160 C 
ATOM      9  C   UNL     1      54.211  -4.232   6.881  1.00  0.00     0.035 C 
ENDBRANCH   7   8
ENDBRANCH   1   7
BRANCH   2  10
ATOM     10  O   UNL     1      52.701  -5.554  10.905  1.00  0.00    -0.385 OA
ATOM     11  H   UNL     1      53.289  -5.515  11.705  1.00  0.00     0.211 HD
ENDBRANCH   2  10
BRANCH   3  12
ATOM     12  O   UNL     1      50.534  -4.653  12.393  1.00  0.00    -0.387 OA
ATOM     13  H   UNL     1      49.711  -4.522  11.851  1.00  0.00     0.211 HD
ENDBRANCH   3  12
BRANCH   5  14
ATOM     14  C   UNL     1      54.650  -2.133  13.588  1.00  0.00     0.191 C 
BRANCH  14  15
ATOM     15  O   UNL     1      55.268  -3.272  14.125  1.00  0.00    -0.394 OA
ATOM     16  H   UNL     1      54.831  -4.059  13.706  1.00  0.00     0.210 HD
ENDBRANCH  14  15
ENDBRANCH   5  14
BRANCH   4  17
ATOM     17  O   UNL     1      52.892  -4.495  13.755  1.00  0.00    -0.387 OA
ATOM     18  H   UNL     1      52.545  -5.294  13.282  1.00  0.00     0.211 HD
ENDBRANCH   4  17
TORSDOF 7
ENDMDL
MODEL 4
REMARK VINA RESULT:    -5.223     11.232     14.315
REMARK INTER + INTRA:          -6.956
REMARK INTER:                  -6.567
REMARK INTRA:                  -0.389
REMARK UNBOUND:                -0.206
REMARK SMILES CCO[C@@H]1O[C@H](CO)[C@H](O)[C@H](O)[C@@H]1O
REMARK SMILES IDX 4 1 13 2 11 3 9 4 6 5 5 6 3 7 2 8 1 9 14 10 12 12 7 14 8 15
REMARK SMILES IDX 10 17
REMARK H PARENT 14 11 12 13 8 16 10 18
REMARK Flexibility Score: inf
ROOT
ATOM      1  C   UNL     1      54.129  -3.369  12.438  1.00  0.00     0.281 C 
ATOM      2  C   UNL     1      52.713  -3.126  12.994  1.00  0.00     0.202 C 
ATOM      3  C   UNL     1      51.707  -4.096  12.329  1.00  0.00     0.179 C 
ATOM      4  C   UNL     1      51.869  -4.128  10.795  1.00  0.00     0.177 C 
ATOM      5  C   UNL     1      53.369  -4.269  10.426  1.00  0.00     0.178 C 
ATOM      6  O   UNL     1      54.133  -3.234  11.023  1.00  0.00    -0.341 OA
ENDROOT
BRANCH   1   7
ATOM      7  O   UNL     1      55.001  -2.408  13.003  1.00  0.00    -0.350 OA
BRANCH   7   8
ATOM      8  C   UNL     1      55.616  -2.930  14.163  1.00  0.00     0.160 C 
ATOM      9  C   UNL     1      56.893  -3.656  13.766  1.00  0.00     0.035 C 
ENDBRANCH   7   8
ENDBRANCH   1   7
BRANCH   2  10
ATOM     10  O   UNL     1      52.342  -1.788  12.772  1.00  0.00    -0.385 OA
ATOM     11  H   UNL     1      51.449  -1.661  13.188  1.00  0.00     0.211 HD
ENDBRANCH   2  10
BRANCH   3  12
ATOM     12  O   UNL     1      50.386  -3.757  12.664  1.00  0.00    -0.387 OA
ATOM     13  H   UNL     1      49.809  -4.497  12.336  1.00  0.00     0.211 HD
ENDBRANCH   3  12
BRANCH   5  14
ATOM     14  C   UNL     1      53.598  -4.270   8.904  1.00  0.00     0.191 C 
BRANCH  14  15
ATOM     15  O   UNL     1      53.614  -2.967   8.383  1.00  0.00    -0.394 OA
ATOM     16  H   UNL     1      53.491  -3.050   7.401  1.00  0.00     0.210 HD
ENDBRANCH  14  15
ENDBRANCH   5  14
BRANCH   4  17
ATOM     17  O   UNL     1      51.267  -3.005  10.194  1.00  0.00    -0.387 OA
ATOM     18  H   UNL     1      51.865  -2.224  10.327  1.00  0.00     0.211 HD
ENDBRANCH   4  17
TORSDOF 7
ENDMDL
MODEL 5
REMARK VINA RESULT:    -5.037     11.032     14.123
REMARK INTER + INTRA:          -6.715
REMARK INTER:                  -6.393
REMARK INTRA:                  -0.322
REMARK UNBOUND:                -0.206
REMARK SMILES CCO[C@@H]1O[C@H](CO)[C@H](O)[C@H](O)[C@@H]1O
REMARK SMILES IDX 4 1 13 2 11 3 9 4 6 5 5 6 3 7 2 8 1 9 14 10 12 12 7 14 8 15
REMARK SMILES IDX 10 17
REMARK H PARENT 14 11 12 13 8 16 10 18
REMARK Flexibility Score: inf
ROOT
ATOM      1  C   UNL     1      53.999  -2.980  12.488  1.00  0.00     0.281 C 
ATOM      2  C   UNL     1      52.900  -3.924  13.014  1.00  0.00     0.202 C 
ATOM      3  C   UNL     1      51.837  -4.164  11.916  1.00  0.00     0.179 C 
ATOM      4  C   UNL     1      51.380  -2.844  11.260  1.00  0.00     0.177 C 
ATOM      5  C   UNL     1      52.617  -1.980  10.899  1.00  0.00     0.178 C 
ATOM      6  O   UNL     1      53.426  -1.758  12.042  1.00  0.00    -0.341 OA
ENDROOT
BRANCH   1   7
ATOM      7  O   UNL     1      54.903  -2.717  13.544  1.00  0.00    -0.350 OA
BRANCH   7   8
ATOM      8  C   UNL     1      55.634  -3.883  13.864  1.00  0.00     0.160 C 
ATOM      9  C   UNL     1      57.120  -3.597  13.710  1.00  0.00     0.035 C 
ENDBRANCH   7   8
ENDBRANCH   1   7
BRANCH   2  10
ATOM     10  O   UNL     1      52.316  -3.373  14.168  1.00  0.00    -0.385 OA
ATOM     11  H   UNL     1      51.954  -4.129  14.699  1.00  0.00     0.211 HD
ENDBRANCH   2  10
BRANCH   3  12
ATOM     12  O   UNL     1      50.725  -4.850  12.435  1.00  0.00    -0.387 OA
ATOM     13  H   UNL     1      50.274  -5.286  11.665  1.00  0.00     0.211 HD
ENDBRANCH   3  12
BRANCH   5  14
ATOM     14  C   UNL     1      52.223  -0.630  10.274  1.00  0.00     0.191 C 
BRANCH  14  15
ATOM     15  O   UNL     1      51.966   0.340  11.255  1.00  0.00    -0.394 OA
ATOM     16  H   UNL     1      51.109   0.088  11.688  1.00  0.00     0.210 HD
ENDBRANCH  14  15
ENDBRANCH   5  14
BRANCH   4  17
ATOM     17  O   UNL     1      50.462  -2.158  12.079  1.00  0.00    -0.387 OA
ATOM     18  H   UNL     1      49.553  -2.503  11.885  1.00  0.00     0.211 HD
ENDBRANCH   4  17
TORSDOF 7
ENDMDL
MODEL 6
REMARK VINA RESULT:    -4.938     14.198     16.143
REMARK INTER + INTRA:          -6.587
REMARK INTER:                  -6.242
REMARK INTRA:                  -0.345
REMARK UNBOUND:                -0.206
REMARK SMILES CCO[C@@H]1O[C@H](CO)[C@H](O)[C@H](O)[C@@H]1O
REMARK SMILES IDX 4 1 13 2 11 3 9 4 6 5 5 6 3 7 2 8 1 9 14 10 12 12 7 14 8 15
REMARK SMILES IDX 10 17
REMARK H PARENT 14 11 12 13 8 16 10 18
REMARK Flexibility Score: inf
ROOT
ATOM      1  C   UNL     1      54.029  -3.718   9.242  1.00  0.00     0.281 C 
ATOM      2  C   UNL     1      53.035  -2.834   8.465  1.00  0.00     0.202 C 
ATOM      3  C   UNL     1      52.499  -1.707   9.379  1.00  0.00     0.179 C 
ATOM      4  C   UNL     1      52.040  -2.249  10.749  1.00  0.00     0.177 C 
ATOM      5  C   UNL     1      53.119  -3.203  11.326  1.00  0.00     0.178 C 
ATOM      6  O   UNL     1      53.412  -4.244  10.409  1.00  0.00    -0.341 OA
ENDROOT
BRANCH   1   7
ATOM      7  O   UNL     1      54.431  -4.783   8.402  1.00  0.00    -0.350 OA
BRANCH   7   8
ATOM      8  C   UNL     1      55.419  -4.343   7.493  1.00  0.00     0.160 C 
ATOM      9  C   UNL     1      56.793  -4.552   8.112  1.00  0.00     0.035 C 
ENDBRANCH   7   8
ENDBRANCH   1   7
BRANCH   2  10
ATOM     10  O   UNL     1      51.983  -3.626   7.973  1.00  0.00    -0.385 OA
ATOM     11  H   UNL     1      52.244  -4.574   8.114  1.00  0.00     0.211 HD
ENDBRANCH   2  10
BRANCH   3  12
ATOM     12  O   UNL     1      51.442  -1.018   8.760  1.00  0.00    -0.387 OA
ATOM     13  H   UNL     1      51.654  -0.050   8.829  1.00  0.00     0.211 HD
ENDBRANCH   3  12
BRANCH   5  14
ATOM     14  C   UNL     1      52.702  -3.807  12.679  1.00  0.00     0.191 C 
BRANCH  14  15
ATOM     15  O   UNL     1      51.564  -4.618  12.555  1.00  0.00    -0.394 OA
ATOM     16  H   UNL     1      50.997  -4.440  13.349  1.00  0.00     0.210 HD
ENDBRANCH  14  15
ENDBRANCH   5  14
BRANCH   4  17
ATOM     17  O   UNL     1      50.773  -2.858  10.660  1.00  0.00    -0.387 OA
ATOM     18  H   UNL     1      50.671  -3.477  11.428  1.00  0.00     0.211 HD
ENDBRANCH   4  17
TORSDOF 7
ENDMDL
MODEL 7
REMARK VINA RESULT:    -4.786     12.973     16.015
REMARK INTER + INTRA:          -6.391
REMARK INTER:                  -6.016
REMARK INTRA:                  -0.375
REMARK UNBOUND:                -0.206
REMARK SMILES CCO[C@@H]1O[C@H](CO)[C@H](O)[C@H](O)[C@@H]1O
REMARK SMILES IDX 4 1 13 2 11 3 9 4 6 5 5 6 3 7 2 8 1 9 14 10 12 12 7 14 8 15
REMARK SMILES IDX 10 17
REMARK H PARENT 14 11 12 13 8 16 10 18
REMARK Flexibility Score: inf
ROOT
ATOM      1  C   UNL     1      52.854  -3.554  10.717  1.00  0.00     0.281 C 
ATOM      2  C   UNL     1      51.688  -2.836  10.011  1.00  0.00     0.202 C 
ATOM      3  C   UNL     1      51.447  -3.460   8.616  1.00  0.00     0.179 C 
ATOM      4  C   UNL     1      52.761  -3.620   7.824  1.00  0.00     0.177 C 
ATOM      5  C   UNL     1      53.847  -4.259   8.729  1.00  0.00     0.178 C 
ATOM      6  O   UNL     1      54.025  -3.500   9.913  1.00  0.00    -0.341 OA
ENDROOT
BRANCH   1   7
ATOM      7  O   UNL     1      53.100  -2.902  11.949  1.00  0.00    -0.350 OA
BRANCH   7   8
ATOM      8  C   UNL     1      53.665  -3.807  12.876  1.00  0.00     0.160 C 
ATOM      9  C   UNL     1      54.981  -3.239  13.386  1.00  0.00     0.035 C 
ENDBRANCH   7   8
ENDBRANCH   1   7
BRANCH   2  10
ATOM     10  O   UNL     1      51.973  -1.463   9.906  1.00  0.00    -0.385 OA
ATOM     11  H   UNL     1      51.654  -1.036  10.744  1.00  0.00     0.211 HD
ENDBRANCH   2  10
BRANCH   3  12
ATOM     12  O   UNL     1      50.532  -2.693   7.874  1.00  0.00    -0.387 OA
ATOM     13  H   UNL     1      49.760  -3.285   7.674  1.00  0.00     0.211 HD
ENDBRANCH   3  12
BRANCH   5  14
ATOM     14  C   UNL     1      55.197  -4.411   8.004  1.00  0.00     0.191 C 
BRANCH  14  15
ATOM     15  O   UNL     1      55.024  -4.608   6.626  1.00  0.00    -0.394 OA
ATOM     16  H   UNL     1      55.496  -3.865   6.169  1.00  0.00     0.210 HD
ENDBRANCH  14  15
ENDBRANCH   5  14
BRANCH   4  17
ATOM     17  O   UNL     1      53.175  -2.394   7.267  1.00  0.00    -0.387 OA
ATOM     18  H   UNL     1      53.116  -2.465   6.279  1.00  0.00     0.211 HD
ENDBRANCH   4  17
TORSDOF 7
ENDMDL
MODEL 8
REMARK VINA RESULT:    -4.715     12.189     15.170
REMARK INTER + INTRA:          -6.300
REMARK INTER:                  -5.935
REMARK INTRA:                  -0.365
REMARK UNBOUND:                -0.206
REMARK SMILES CCO[C@@H]1O[C@H](CO)[C@H](O)[C@H](O)[C@@H]1O
REMARK SMILES IDX 4 1 13 2 11 3 9 4 6 5 5 6 3 7 2 8 1 9 14 10 12 12 7 14 8 15
REMARK SMILES IDX 10 17
REMARK H PARENT 14 11 12 13 8 16 10 18
REMARK Flexibility Score: inf
ROOT
ATOM      1  C   UNL     1      53.410  -2.924  11.819  1.00  0.00     0.281 C 
ATOM      2  C   UNL     1      52.870  -4.233  11.210  1.00  0.00     0.202 C 
ATOM      3  C   UNL     1      52.812  -4.117   9.669  1.00  0.00     0.179 C 
ATOM      4  C   UNL     1      52.147  -2.801   9.216  1.00  0.00     0.177 C 
ATOM      5  C   UNL     1      52.741  -1.609  10.014  1.00  0.00     0.178 C 
ATOM      6  O   UNL     1      52.610  -1.824  11.409  1.00  0.00    -0.341 OA
ENDROOT
BRANCH   1   7
ATOM      7  O   UNL     1      53.368  -3.037  13.229  1.00  0.00    -0.350 OA
BRANCH   7   8
ATOM      8  C   UNL     1      54.541  -2.493  13.798  1.00  0.00     0.160 C 
ATOM      9  C   UNL     1      55.625  -3.560  13.819  1.00  0.00     0.035 C 
ENDBRANCH   7   8
ENDBRANCH   1   7
BRANCH   2  10
ATOM     10  O   UNL     1      51.599  -4.512  11.743  1.00  0.00    -0.385 OA
ATOM     11  H   UNL     1      51.024  -3.726  11.547  1.00  0.00     0.211 HD
ENDBRANCH   2  10
BRANCH   3  12
ATOM     12  O   UNL     1      52.134  -5.213   9.108  1.00  0.00    -0.387 OA
ATOM     13  H   UNL     1      52.654  -5.493   8.310  1.00  0.00     0.211 HD
ENDBRANCH   3  12
BRANCH   5  14
ATOM     14  C   UNL     1      52.089  -0.268   9.632  1.00  0.00     0.191 C 
BRANCH  14  15
ATOM     15  O   UNL     1      51.779  -0.214   8.265  1.00  0.00    -0.394 OA
ATOM     16  H   UNL     1      52.468   0.358   7.838  1.00  0.00     0.210 HD
ENDBRANCH  14  15
ENDBRANCH   5  14
BRANCH   4  17
ATOM     17  O   UNL     1      50.744  -2.874   9.320  1.00  0.00    -0.387 OA
ATOM     18  H   UNL     1      50.351  -2.195   8.714  1.00  0.00     0.211 HD
ENDBRANCH   4  17
TORSDOF 7
ENDMDL
MODEL 9
REMARK VINA RESULT:    -4.700      6.676      9.982
REMARK INTER + INTRA:          -6.281
REMARK INTER:                  -6.029
REMARK INTRA:                  -0.251
REMARK UNBOUND:                -0.206
REMARK SMILES CCO[C@@H]1O[C@H](CO)[C@H](O)[C@H](O)[C@@H]1O
REMARK SMILES IDX 4 1 13 2 11 3 9 4 6 5 5 6 3 7 2 8 1 9 14 10 12 12 7 14 8 15
REMARK SMILES IDX 10 17
REMARK H PARENT 14 11 12 13 8 16 10 18
REMARK Flexibility Score: inf
ROOT
ATOM      1  C   UNL     1      56.314  -0.284  15.898  1.00  0.00     0.281 C 
ATOM      2  C   UNL     1      54.880  -0.085  16.424  1.00  0.00     0.202 C 
ATOM      3  C   UNL     1      54.905   0.739  17.733  1.00  0.00     0.179 C 
ATOM      4  C   UNL     1      55.954   0.204  18.729  1.00  0.00     0.177 C 
ATOM      5  C   UNL     1      57.300  -0.039  17.996  1.00  0.00     0.178 C 
ATOM      6  O   UNL     1      57.120  -0.907  16.889  1.00  0.00    -0.341 OA
ENDROOT
BRANCH   1   7
ATOM      7  O   UNL     1      56.258  -1.112  14.751  1.00  0.00    -0.350 OA
BRANCH   7   8
ATOM      8  C   UNL     1      57.328  -2.035  14.762  1.00  0.00     0.160 C 
ATOM      9  C   UNL     1      56.925  -3.273  13.975  1.00  0.00     0.035 C 
ENDBRANCH   7   8
ENDBRANCH   1   7
BRANCH   2  10
ATOM     10  O   UNL     1      54.274  -1.336  16.628  1.00  0.00    -0.385 OA
ATOM     11  H   UNL     1      53.294  -1.204  16.531  1.00  0.00     0.211 HD
ENDBRANCH   2  10
BRANCH   3  12
ATOM     12  O   UNL     1      53.637   0.758  18.339  1.00  0.00    -0.387 OA
ATOM     13  H   UNL     1      53.786   0.663  19.317  1.00  0.00     0.211 HD
ENDBRANCH   3  12
BRANCH   5  14
ATOM     14  C   UNL     1      58.380  -0.611  18.932  1.00  0.00     0.191 C 
BRANCH  14  15
ATOM     15  O   UNL     1      58.927  -1.799  18.426  1.00  0.00    -0.394 OA
ATOM     16  H   UNL     1      59.895  -1.632  18.284  1.00  0.00     0.210 HD
ENDBRANCH  14  15
ENDBRANCH   5  14
BRANCH   4  17
ATOM     17  O   UNL     1      55.487  -0.947  19.395  1.00  0.00    -0.387 OA
ATOM     18  H   UNL     1      54.507  -0.859  19.518  1.00  0.00     0.211 HD
ENDBRANCH   4  17
TORSDOF 7
ENDMDL
