MODEL 1
REMARK VINA RESULT:    -2.325      0.000      0.000
REMARK INTER + INTRA:          -4.163
REMARK INTER:                  -2.868
REMARK INTRA:                  -1.295
REMARK UNBOUND:                -1.295
REMARK SMILES C=C(CCC=C(C)C)[C@H]1CC=C(C)CC1
REMARK SMILES IDX 3 1 2 2 1 3 9 4 13 5 12 6 11 7 14 8 10 9 15 10 4 11 5 12
REMARK SMILES IDX 6 13 7 14 8 15
REMARK H PARENT
REMARK Flexibility Score: inf
ROOT
ATOM      1  C   UNL     1     171.944 171.460 137.330  1.00  0.00     0.035 C 
ENDROOT
BRANCH   1   2
ATOM      2  C   UNL     1     171.026 171.494 138.537  1.00  0.00    -0.074 C 
ATOM      3  C   UNL     1     171.198 170.584 139.510  1.00  0.00     0.008 C 
BRANCH   2   4
ATOM      4  C   UNL     1     169.876 172.490 138.626  1.00  0.00     0.018 C 
ATOM      5  C   UNL     1     167.299 176.019 138.471  1.00  0.00     0.039 C 
ATOM      6  C   UNL     1     168.291 174.890 138.446  1.00  0.00    -0.077 C 
ATOM      7  C   UNL     1     169.169 174.767 139.464  1.00  0.00    -0.027 C 
ATOM      8  C   UNL     1     168.189 173.850 137.346  1.00  0.00     0.031 C 
ATOM      9  C   UNL     1     170.238 173.702 139.501  1.00  0.00     0.035 C 
ATOM     10  C   UNL     1     169.438 172.967 137.234  1.00  0.00     0.013 C 
ENDBRANCH   2   4
ENDBRANCH   1   2
BRANCH   1  11
ATOM     11  C   UNL     1     173.393 171.770 137.728  1.00  0.00     0.032 C 
BRANCH  11  12
ATOM     12  C   UNL     1     173.604 173.258 137.861  1.00  0.00    -0.028 C 
ATOM     13  C   UNL     1     173.846 173.893 139.028  1.00  0.00    -0.080 C 
ATOM     14  C   UNL     1     173.875 173.159 140.349  1.00  0.00     0.039 C 
ATOM     15  C   UNL     1     174.075 175.383 139.002  1.00  0.00     0.039 C 
ENDBRANCH  11  12
ENDBRANCH   1  11
TORSDOF 4
ENDMDL
MODEL 2
REMARK VINA RESULT:    -2.298     15.907     18.595
REMARK INTER + INTRA:          -4.130
REMARK INTER:                  -3.030
REMARK INTRA:                  -1.100
REMARK UNBOUND:                -1.295
REMARK SMILES C=C(CCC=C(C)C)[C@H]1CC=C(C)CC1
REMARK SMILES IDX 3 1 2 2 1 3 9 4 13 5 12 6 11 7 14 8 10 9 15 10 4 11 5 12
REMARK SMILES IDX 6 13 7 14 8 15
REMARK H PARENT
REMARK Flexibility Score: inf
ROOT
ATOM      1  C   UNL     1     160.404 159.772 136.958  1.00  0.00     0.035 C 
ENDROOT
BRANCH   1   2
ATOM      2  C   UNL     1     161.518 159.769 137.987  1.00  0.00    -0.074 C 
ATOM      3  C   UNL     1     161.654 160.829 138.800  1.00  0.00     0.008 C 
BRANCH   2   4
ATOM      4  C   UNL     1     162.521 158.624 138.061  1.00  0.00     0.018 C 
ATOM      5  C   UNL     1     165.752 155.877 139.128  1.00  0.00     0.039 C 
ATOM      6  C   UNL     1     164.672 156.897 138.895  1.00  0.00    -0.077 C 
ATOM      7  C   UNL     1     164.971 158.024 138.215  1.00  0.00    -0.027 C 
ATOM      8  C   UNL     1     163.251 156.568 139.316  1.00  0.00     0.031 C 
ATOM      9  C   UNL     1     163.971 159.130 137.979  1.00  0.00     0.035 C 
ATOM     10  C   UNL     1     162.331 157.795 139.339  1.00  0.00     0.013 C 
ENDBRANCH   2   4
ENDBRANCH   1   2
BRANCH   1  11
ATOM     11  C   UNL     1     159.029 159.872 137.631  1.00  0.00     0.032 C 
BRANCH  11  12
ATOM     12  C   UNL     1     158.471 158.499 137.910  1.00  0.00    -0.028 C 
ATOM     13  C   UNL     1     158.363 157.955 139.142  1.00  0.00    -0.080 C 
ATOM     14  C   UNL     1     158.854 158.670 140.379  1.00  0.00     0.039 C 
ATOM     15  C   UNL     1     157.748 156.584 139.271  1.00  0.00     0.039 C 
ENDBRANCH  11  12
ENDBRANCH   1  11
TORSDOF 4
ENDMDL
MODEL 3
REMARK VINA RESULT:    -2.248      1.150      4.607
REMARK INTER + INTRA:          -4.068
REMARK INTER:                  -2.898
REMARK INTRA:                  -1.170
REMARK UNBOUND:                -1.295
REMARK SMILES C=C(CCC=C(C)C)[C@H]1CC=C(C)CC1
REMARK SMILES IDX 3 1 2 2 1 3 9 4 13 5 12 6 11 7 14 8 10 9 15 10 4 11 5 12
REMARK SMILES IDX 6 13 7 14 8 15
REMARK H PARENT
REMARK Flexibility Score: inf
ROOT
ATOM      1  C   UNL     1     170.196 171.892 136.896  1.00  0.00     0.035 C 
ENDROOT
BRANCH   1   2
ATOM      2  C   UNL     1     171.343 171.904 137.888  1.00  0.00    -0.074 C 
ATOM      3  C   UNL     1     171.531 170.831 138.677  1.00  0.00     0.008 C 
BRANCH   2   4
ATOM      4  C   UNL     1     172.230 173.131 138.055  1.00  0.00     0.018 C 
ATOM      5  C   UNL     1     175.355 175.991 139.145  1.00  0.00     0.039 C 
ATOM      6  C   UNL     1     174.368 174.897 138.840  1.00  0.00    -0.077 C 
ATOM      7  C   UNL     1     173.376 174.646 139.722  1.00  0.00    -0.027 C 
ATOM      8  C   UNL     1     174.438 174.201 137.494  1.00  0.00     0.031 C 
ATOM      9  C   UNL     1     172.373 173.535 139.533  1.00  0.00     0.035 C 
ATOM     10  C   UNL     1     173.620 172.905 137.443  1.00  0.00     0.013 C 
ENDBRANCH   2   4
ENDBRANCH   1   2
BRANCH   1  11
ATOM     11  C   UNL     1     168.864 172.216 137.584  1.00  0.00     0.032 C 
BRANCH  11  12
ATOM     12  C   UNL     1     168.767 173.690 137.891  1.00  0.00    -0.028 C 
ATOM     13  C   UNL     1     168.752 174.210 139.138  1.00  0.00    -0.080 C 
ATOM     14  C   UNL     1     168.778 173.337 140.371  1.00  0.00     0.039 C 
ATOM     15  C   UNL     1     168.689 175.709 139.290  1.00  0.00     0.039 C 
ENDBRANCH  11  12
ENDBRANCH   1  11
TORSDOF 4
ENDMDL
MODEL 4
REMARK VINA RESULT:    -2.243     15.788     18.376
REMARK INTER + INTRA:          -4.063
REMARK INTER:                  -2.722
REMARK INTRA:                  -1.340
REMARK UNBOUND:                -1.295
REMARK SMILES C=C(CCC=C(C)C)[C@H]1CC=C(C)CC1
REMARK SMILES IDX 3 1 2 2 1 3 9 4 13 5 12 6 11 7 14 8 10 9 15 10 4 11 5 12
REMARK SMILES IDX 6 13 7 14 8 15
REMARK H PARENT
REMARK Flexibility Score: inf
ROOT
ATOM      1  C   UNL     1     159.807 161.024 139.759  1.00  0.00     0.035 C 
ENDROOT
BRANCH   1   2
ATOM      2  C   UNL     1     160.823 160.995 138.634  1.00  0.00    -0.074 C 
ATOM      3  C   UNL     1     160.675 161.846 137.603  1.00  0.00     0.008 C 
BRANCH   2   4
ATOM      4  C   UNL     1     161.955 159.976 138.618  1.00  0.00     0.018 C 
ATOM      5  C   UNL     1     164.415 156.373 138.323  1.00  0.00     0.039 C 
ATOM      6  C   UNL     1     163.451 157.525 138.369  1.00  0.00    -0.077 C 
ATOM      7  C   UNL     1     162.741 157.741 139.498  1.00  0.00    -0.027 C 
ATOM      8  C   UNL     1     163.402 158.487 137.197  1.00  0.00     0.031 C 
ATOM      9  C   UNL     1     161.709 158.836 139.621  1.00  0.00     0.035 C 
ATOM     10  C   UNL     1     162.167 159.395 137.213  1.00  0.00     0.013 C 
ENDBRANCH   2   4
ENDBRANCH   1   2
BRANCH   1  11
ATOM     11  C   UNL     1     158.396 160.716 139.240  1.00  0.00     0.032 C 
BRANCH  11  12
ATOM     12  C   UNL     1     158.091 159.244 139.365  1.00  0.00    -0.028 C 
ATOM     13  C   UNL     1     158.129 158.367 138.339  1.00  0.00    -0.080 C 
ATOM     14  C   UNL     1     158.435 158.801 136.924  1.00  0.00     0.039 C 
ATOM     15  C   UNL     1     157.836 156.915 138.622  1.00  0.00     0.039 C 
ENDBRANCH  11  12
ENDBRANCH   1  11
TORSDOF 4
ENDMDL
MODEL 5
REMARK VINA RESULT:    -2.195     16.534     18.600
REMARK INTER + INTRA:          -4.003
REMARK INTER:                  -2.759
REMARK INTRA:                  -1.244
REMARK UNBOUND:                -1.295
REMARK SMILES C=C(CCC=C(C)C)[C@H]1CC=C(C)CC1
REMARK SMILES IDX 3 1 2 2 1 3 9 4 13 5 12 6 11 7 14 8 10 9 15 10 4 11 5 12
REMARK SMILES IDX 6 13 7 14 8 15
REMARK H PARENT
REMARK Flexibility Score: inf
ROOT
ATOM      1  C   UNL     1     160.800 159.973 140.688  1.00  0.00     0.035 C 
ENDROOT
BRANCH   1   2
ATOM      2  C   UNL     1     159.730 160.322 139.672  1.00  0.00    -0.074 C 
ATOM      3  C   UNL     1     159.571 161.607 139.311  1.00  0.00     0.008 C 
BRANCH   2   4
ATOM      4  C   UNL     1     158.792 159.258 139.116  1.00  0.00     0.018 C 
ATOM      5  C   UNL     1     156.986 155.875 137.013  1.00  0.00     0.039 C 
ATOM      6  C   UNL     1     157.745 156.987 137.683  1.00  0.00    -0.077 C 
ATOM      7  C   UNL     1     157.940 158.144 137.014  1.00  0.00    -0.027 C 
ATOM      8  C   UNL     1     158.153 156.824 139.135  1.00  0.00     0.031 C 
ATOM      9  C   UNL     1     158.737 159.294 137.579  1.00  0.00     0.035 C 
ATOM     10  C   UNL     1     159.196 157.853 139.588  1.00  0.00     0.013 C 
ENDBRANCH   2   4
ENDBRANCH   1   2
BRANCH   1  11
ATOM     11  C   UNL     1     162.204 160.201 140.113  1.00  0.00     0.032 C 
BRANCH  11  12
ATOM     12  C   UNL     1     162.840 158.890 139.722  1.00  0.00    -0.028 C 
ATOM     13  C   UNL     1     162.977 158.457 138.450  1.00  0.00    -0.080 C 
ATOM     14  C   UNL     1     162.443 159.243 137.275  1.00  0.00     0.039 C 
ATOM     15  C   UNL     1     163.669 157.140 138.209  1.00  0.00     0.039 C 
ENDBRANCH  11  12
ENDBRANCH   1  11
TORSDOF 4
ENDMDL
MODEL 6
REMARK VINA RESULT:    -2.188     15.975     17.961
REMARK INTER + INTRA:          -3.994
REMARK INTER:                  -2.856
REMARK INTRA:                  -1.138
REMARK UNBOUND:                -1.295
REMARK SMILES C=C(CCC=C(C)C)[C@H]1CC=C(C)CC1
REMARK SMILES IDX 3 1 2 2 1 3 9 4 13 5 12 6 11 7 14 8 10 9 15 10 4 11 5 12
REMARK SMILES IDX 6 13 7 14 8 15
REMARK H PARENT
REMARK Flexibility Score: inf
ROOT
ATOM      1  C   UNL     1     162.849 159.852 136.894  1.00  0.00     0.035 C 
ENDROOT
BRANCH   1   2
ATOM      2  C   UNL     1     161.613 160.143 137.724  1.00  0.00    -0.074 C 
ATOM      3  C   UNL     1     161.547 161.298 138.409  1.00  0.00     0.008 C 
BRANCH   2   4
ATOM      4  C   UNL     1     160.489 159.123 137.850  1.00  0.00     0.018 C 
ATOM      5  C   UNL     1     156.782 156.984 138.753  1.00  0.00     0.039 C 
ATOM      6  C   UNL     1     157.988 157.847 138.502  1.00  0.00    -0.077 C 
ATOM      7  C   UNL     1     158.939 157.938 139.456  1.00  0.00    -0.027 C 
ATOM      8  C   UNL     1     158.162 158.483 137.135  1.00  0.00     0.031 C 
ATOM      9  C   UNL     1     160.155 158.821 139.321  1.00  0.00     0.035 C 
ATOM     10  C   UNL     1     159.224 159.589 137.116  1.00  0.00     0.013 C 
ENDBRANCH   2   4
ENDBRANCH   1   2
BRANCH   1  11
ATOM     11  C   UNL     1     163.472 158.505 137.282  1.00  0.00     0.032 C 
BRANCH  11  12
ATOM     12  C   UNL     1     164.037 158.560 138.679  1.00  0.00    -0.028 C 
ATOM     13  C   UNL     1     163.832 157.616 139.624  1.00  0.00    -0.080 C 
ATOM     14  C   UNL     1     162.951 156.414 139.377  1.00  0.00     0.039 C 
ATOM     15  C   UNL     1     164.494 157.788 140.967  1.00  0.00     0.039 C 
ENDBRANCH  11  12
ENDBRANCH   1  11
TORSDOF 4
ENDMDL
MODEL 7
REMARK VINA RESULT:    -2.153      0.906      2.008
REMARK INTER + INTRA:          -3.952
REMARK INTER:                  -2.912
REMARK INTRA:                  -1.040
REMARK UNBOUND:                -1.295
REMARK SMILES C=C(CCC=C(C)C)[C@H]1CC=C(C)CC1
REMARK SMILES IDX 3 1 2 2 1 3 9 4 13 5 12 6 11 7 14 8 10 9 15 10 4 11 5 12
REMARK SMILES IDX 6 13 7 14 8 15
REMARK H PARENT
REMARK Flexibility Score: inf
ROOT
ATOM      1  C   UNL     1     172.232 171.293 139.324  1.00  0.00     0.035 C 
ENDROOT
BRANCH   1   2
ATOM      2  C   UNL     1     171.331 171.617 138.148  1.00  0.00    -0.074 C 
ATOM      3  C   UNL     1     171.321 170.789 137.089  1.00  0.00     0.008 C 
BRANCH   2   4
ATOM      4  C   UNL     1     170.500 172.894 138.118  1.00  0.00     0.018 C 
ATOM      5  C   UNL     1     167.361 175.922 138.444  1.00  0.00     0.039 C 
ATOM      6  C   UNL     1     168.345 174.784 138.410  1.00  0.00    -0.077 C 
ATOM      7  C   UNL     1     168.321 173.929 137.366  1.00  0.00    -0.027 C 
ATOM      8  C   UNL     1     169.417 174.711 139.481  1.00  0.00     0.031 C 
ATOM      9  C   UNL     1     169.228 172.727 137.269  1.00  0.00     0.035 C 
ATOM     10  C   UNL     1     170.123 173.350 139.534  1.00  0.00     0.013 C 
ENDBRANCH   2   4
ENDBRANCH   1   2
BRANCH   1  11
ATOM     11  C   UNL     1     173.626 171.905 139.138  1.00  0.00     0.032 C 
BRANCH  11  12
ATOM     12  C   UNL     1     174.047 172.660 140.374  1.00  0.00    -0.028 C 
ATOM     13  C   UNL     1     173.965 174.001 140.514  1.00  0.00    -0.080 C 
ATOM     14  C   UNL     1     173.482 174.896 139.396  1.00  0.00     0.039 C 
ATOM     15  C   UNL     1     174.388 174.615 141.825  1.00  0.00     0.039 C 
ENDBRANCH  11  12
ENDBRANCH   1  11
TORSDOF 4
ENDMDL
MODEL 8
REMARK VINA RESULT:    -2.132      1.241      4.931
REMARK INTER + INTRA:          -3.925
REMARK INTER:                  -2.740
REMARK INTRA:                  -1.185
REMARK UNBOUND:                -1.295
REMARK SMILES C=C(CCC=C(C)C)[C@H]1CC=C(C)CC1
REMARK SMILES IDX 3 1 2 2 1 3 9 4 13 5 12 6 11 7 14 8 10 9 15 10 4 11 5 12
REMARK SMILES IDX 6 13 7 14 8 15
REMARK H PARENT
REMARK Flexibility Score: inf
ROOT
ATOM      1  C   UNL     1     170.460 171.540 140.071  1.00  0.00     0.035 C 
ENDROOT
BRANCH   1   2
ATOM      2  C   UNL     1     171.217 171.504 138.757  1.00  0.00    -0.074 C 
ATOM      3  C   UNL     1     170.782 170.691 137.779  1.00  0.00     0.008 C 
BRANCH   2   4
ATOM      4  C   UNL     1     172.493 172.311 138.558  1.00  0.00     0.018 C 
ATOM      5  C   UNL     1     175.489 175.324 137.521  1.00  0.00     0.039 C 
ATOM      6  C   UNL     1     174.351 174.391 137.830  1.00  0.00    -0.077 C 
ATOM      7  C   UNL     1     173.928 173.534 136.875  1.00  0.00    -0.027 C 
ATOM      8  C   UNL     1     173.801 174.349 139.243  1.00  0.00     0.031 C 
ATOM      9  C   UNL     1     172.759 172.600 137.070  1.00  0.00     0.035 C 
ATOM     10  C   UNL     1     172.450 173.630 139.343  1.00  0.00     0.013 C 
ENDBRANCH   2   4
ENDBRANCH   1   2
BRANCH   1  11
ATOM     11  C   UNL     1     169.003 171.970 139.859  1.00  0.00     0.032 C 
BRANCH  11  12
ATOM     12  C   UNL     1     168.857 173.462 140.020  1.00  0.00    -0.028 C 
ATOM     13  C   UNL     1     168.663 174.325 139.000  1.00  0.00    -0.080 C 
ATOM     14  C   UNL     1     168.625 173.868 137.560  1.00  0.00     0.039 C 
ATOM     15  C   UNL     1     168.496 175.789 139.319  1.00  0.00     0.039 C 
ENDBRANCH  11  12
ENDBRANCH   1  11
TORSDOF 4
ENDMDL
MODEL 9
REMARK VINA RESULT:    -2.082      1.983      3.893
REMARK INTER + INTRA:          -3.864
REMARK INTER:                  -2.495
REMARK INTRA:                  -1.369
REMARK UNBOUND:                -1.295
REMARK SMILES C=C(CCC=C(C)C)[C@H]1CC=C(C)CC1
REMARK SMILES IDX 3 1 2 2 1 3 9 4 13 5 12 6 11 7 14 8 10 9 15 10 4 11 5 12
REMARK SMILES IDX 6 13 7 14 8 15
REMARK H PARENT
REMARK Flexibility Score: inf
ROOT
ATOM      1  C   UNL     1     171.331 173.012 139.325  1.00  0.00     0.035 C 
ENDROOT
BRANCH   1   2
ATOM      2  C   UNL     1     170.232 172.896 138.286  1.00  0.00    -0.074 C 
ATOM      3  C   UNL     1     170.356 171.982 137.309  1.00  0.00     0.008 C 
BRANCH   2   4
ATOM      4  C   UNL     1     169.037 173.842 138.292  1.00  0.00     0.018 C 
ATOM      5  C   UNL     1     165.439 176.125 139.274  1.00  0.00     0.039 C 
ATOM      6  C   UNL     1     166.672 175.285 139.084  1.00  0.00    -0.077 C 
ATOM      7  C   UNL     1     166.539 174.019 138.632  1.00  0.00    -0.027 C 
ATOM      8  C   UNL     1     168.032 175.928 139.277  1.00  0.00     0.031 C 
ATOM      9  C   UNL     1     167.710 173.082 138.463  1.00  0.00     0.035 C 
ATOM     10  C   UNL     1     169.171 174.907 139.389  1.00  0.00     0.013 C 
ENDBRANCH   2   4
ENDBRANCH   1   2
BRANCH   1  11
ATOM     11  C   UNL     1     171.381 171.766 140.218  1.00  0.00     0.032 C 
BRANCH  11  12
ATOM     12  C   UNL     1     170.285 171.806 141.253  1.00  0.00    -0.028 C 
ATOM     13  C   UNL     1     169.198 171.004 141.245  1.00  0.00    -0.080 C 
ATOM     14  C   UNL     1     168.948 170.004 140.140  1.00  0.00     0.039 C 
ATOM     15  C   UNL     1     168.202 171.132 142.370  1.00  0.00     0.039 C 
ENDBRANCH  11  12
ENDBRANCH   1  11
TORSDOF 4
ENDMDL
