MODEL 1
REMARK VINA RESULT:   113.684      0.000      0.000
REMARK INTER + INTRA:         123.617
REMARK INTER:                 123.653
REMARK INTRA:                  -0.036
REMARK UNBOUND:                -0.036
REMARK SMILES CC1(C)CC[C@]2(C(=O)[O-])CC[C@]3(C)C(=CC[C@@H]4[C@@]5(C)CC[C@@H](O)C(C)(C)[C@H]5CC[C@]43C)[C@@H]2C1
REMARK SMILES IDX 6 1 5 2 10 3 32 4 4 5 11 6 14 7 33 8 2 9 12 10 15 11 1 12
REMARK SMILES IDX 3 13 13 14 30 15 16 16 17 17 29 18 31 19 18 20 28 21 27 22
REMARK SMILES IDX 20 23 19 24 24 25 21 26 22 27 25 28 26 29 7 30 8 31 9 32
REMARK SMILES IDX 23 33
REMARK H PARENT 23 34
REMARK Flexibility Score: inf
ROOT
ATOM      1  C   UNL     1      -8.709   6.154 -18.573  1.00  0.00     0.017 C 
ATOM      2  C   UNL     1      -7.281   5.837 -19.108  1.00  0.00     0.014 C 
ATOM      3  C   UNL     1      -8.912   7.707 -18.466  1.00  0.00     0.014 C 
ATOM      4  C   UNL     1      -8.965   5.423 -17.194  1.00  0.00     0.028 C 
ATOM      5  C   UNL     1      -6.992   4.324 -19.212  1.00  0.00     0.007 C 
ATOM      6  C   UNL     1      -8.408   8.449 -17.188  1.00  0.00     0.013 C 
ATOM      7  C   UNL     1      -9.341   6.439 -16.102  1.00  0.00    -0.064 C 
ATOM      8  C   UNL     1      -7.874   4.394 -16.791  1.00  0.00     0.015 C 
ATOM      9  C   UNL     1      -7.439   3.479 -17.969  1.00  0.00    -0.035 C 
ATOM     10  C   UNL     1      -8.419   7.653 -15.811  1.00  0.00    -0.006 C 
ATOM     11  C   UNL     1     -10.678   6.617 -15.939  1.00  0.00    -0.027 C 
ATOM     12  C   UNL     1      -6.256   2.605 -17.493  1.00  0.00     0.011 C 
ATOM     13  C   UNL     1      -8.591   2.521 -18.361  1.00  0.00     0.011 C 
ATOM     14  C   UNL     1      -6.938   7.234 -15.566  1.00  0.00     0.017 C 
ATOM     15  C   UNL     1      -8.920   8.530 -14.492  1.00  0.00    -0.020 C 
ATOM     16  C   UNL     1     -11.236   7.879 -15.354  1.00  0.00     0.032 C 
ATOM     17  C   UNL     1     -10.411   8.204 -14.109  1.00  0.00     0.006 C 
ATOM     18  C   UNL     1      -8.131   8.193 -13.163  1.00  0.00     0.008 C 
ATOM     19  C   UNL     1      -8.684  10.047 -14.784  1.00  0.00     0.012 C 
ATOM     20  C   UNL     1     -11.098   9.117 -12.996  1.00  0.00    -0.025 C 
ATOM     21  C   UNL     1      -8.883   8.421 -11.815  1.00  0.00     0.005 C 
ATOM     22  C   UNL     1     -10.032   9.473 -11.853  1.00  0.00     0.003 C 
ATOM     23  C   UNL     1     -12.299   8.289 -12.413  1.00  0.00     0.010 C 
ATOM     24  C   UNL     1     -11.669  10.420 -13.637  1.00  0.00     0.012 C 
ATOM     25  C   UNL     1     -10.634   9.826 -10.417  1.00  0.00    -0.006 C 
ATOM     26  C   UNL     1     -12.869   8.803 -11.093  1.00  0.00     0.033 C 
ATOM     27  C   UNL     1     -11.787   8.865 -10.015  1.00  0.00     0.120 C 
ATOM     28  C   UNL     1     -11.147  11.295 -10.398  1.00  0.00     0.014 C 
ATOM     29  C   UNL     1      -9.557   9.776  -9.296  1.00  0.00     0.014 C 
ENDROOT
BRANCH   1  30
ATOM     30  C   UNL     1      -9.730   5.685 -19.616  1.00  0.00     0.048 C 
ATOM     31  O   UNL     1      -9.733   6.184 -20.775  1.00  0.00    -0.550 OA
ATOM     32  O   UNL     1     -10.582   4.616 -19.357  1.00  0.00    -0.550 OA
ENDBRANCH   1  30
BRANCH  27  33
ATOM     33  O   UNL     1     -11.289   7.573  -9.769  1.00  0.00    -0.393 OA
ATOM     34  H   UNL     1     -11.537   7.338  -8.836  1.00  0.00     0.210 HD
ENDBRANCH  27  33
TORSDOF 2
ENDMDL
MODEL 2
REMARK VINA RESULT:   114.456      1.884      3.603
REMARK INTER + INTRA:         124.456
REMARK INTER:                 124.375
REMARK INTRA:                   0.081
REMARK UNBOUND:                -0.036
REMARK SMILES CC1(C)CC[C@]2(C(=O)[O-])CC[C@]3(C)C(=CC[C@@H]4[C@@]5(C)CC[C@@H](O)C(C)(C)[C@H]5CC[C@]43C)[C@@H]2C1
REMARK SMILES IDX 6 1 5 2 10 3 32 4 4 5 11 6 14 7 33 8 2 9 12 10 15 11 1 12
REMARK SMILES IDX 3 13 13 14 30 15 16 16 17 17 29 18 31 19 18 20 28 21 27 22
REMARK SMILES IDX 20 23 19 24 24 25 21 26 22 27 25 28 26 29 7 30 8 31 9 32
REMARK SMILES IDX 23 33
REMARK H PARENT 23 34
REMARK Flexibility Score: inf
ROOT
ATOM      1  C   UNL     1      -8.271   4.809 -19.354  1.00  0.00     0.017 C 
ATOM      2  C   UNL     1      -8.741   3.413 -19.857  1.00  0.00     0.014 C 
ATOM      3  C   UNL     1      -7.477   4.657 -18.008  1.00  0.00     0.014 C 
ATOM      4  C   UNL     1      -9.499   5.796 -19.214  1.00  0.00     0.028 C 
ATOM      5  C   UNL     1      -9.559   3.481 -21.165  1.00  0.00     0.007 C 
ATOM      6  C   UNL     1      -8.272   4.584 -16.666  1.00  0.00     0.013 C 
ATOM      7  C   UNL     1      -9.594   6.345 -17.779  1.00  0.00    -0.064 C 
ATOM      8  C   UNL     1     -10.831   5.265 -19.808  1.00  0.00     0.015 C 
ATOM      9  C   UNL     1     -10.652   4.604 -21.203  1.00  0.00    -0.035 C 
ATOM     10  C   UNL     1      -9.651   5.372 -16.572  1.00  0.00    -0.006 C 
ATOM     11  C   UNL     1      -8.970   7.537 -17.593  1.00  0.00    -0.027 C 
ATOM     12  C   UNL     1     -12.005   3.985 -21.624  1.00  0.00     0.011 C 
ATOM     13  C   UNL     1     -10.284   5.672 -22.261  1.00  0.00     0.011 C 
ATOM     14  C   UNL     1     -10.757   4.287 -16.728  1.00  0.00     0.017 C 
ATOM     15  C   UNL     1      -9.917   6.160 -15.134  1.00  0.00    -0.020 C 
ATOM     16  C   UNL     1      -8.491   7.969 -16.240  1.00  0.00     0.032 C 
ATOM     17  C   UNL     1      -9.626   7.702 -15.252  1.00  0.00     0.006 C 
ATOM     18  C   UNL     1     -11.423   6.119 -14.652  1.00  0.00     0.008 C 
ATOM     19  C   UNL     1      -9.069   5.464 -14.021  1.00  0.00     0.012 C 
ATOM     20  C   UNL     1      -9.637   8.555 -13.904  1.00  0.00    -0.025 C 
ATOM     21  C   UNL     1     -11.911   7.294 -13.749  1.00  0.00     0.005 C 
ATOM     22  C   UNL     1     -10.800   8.027 -12.937  1.00  0.00     0.003 C 
ATOM     23  C   UNL     1      -9.880  10.051 -14.320  1.00  0.00     0.010 C 
ATOM     24  C   UNL     1      -8.251   8.466 -13.193  1.00  0.00     0.012 C 
ATOM     25  C   UNL     1     -11.362   9.079 -11.875  1.00  0.00    -0.006 C 
ATOM     26  C   UNL     1     -10.293  10.986 -13.187  1.00  0.00     0.033 C 
ATOM     27  C   UNL     1     -11.564  10.487 -12.499  1.00  0.00     0.120 C 
ATOM     28  C   UNL     1     -10.395   9.180 -10.660  1.00  0.00     0.014 C 
ATOM     29  C   UNL     1     -12.717   8.629 -11.258  1.00  0.00     0.014 C 
ENDROOT
BRANCH   1  30
ATOM     30  C   UNL     1      -7.256   5.368 -20.359  1.00  0.00     0.048 C 
ATOM     31  O   UNL     1      -6.692   6.477 -20.145  1.00  0.00    -0.550 OA
ATOM     32  O   UNL     1      -6.836   4.614 -21.450  1.00  0.00    -0.550 OA
ENDBRANCH   1  30
BRANCH  27  33
ATOM     33  O   UNL     1     -12.626  10.469 -13.423  1.00  0.00    -0.393 OA
ATOM     34  H   UNL     1     -13.468  10.439 -12.897  1.00  0.00     0.210 HD
ENDBRANCH  27  33
TORSDOF 2
ENDMDL
MODEL 3
REMARK VINA RESULT:   114.934      2.960      4.266
REMARK INTER + INTRA:         124.977
REMARK INTER:                 124.853
REMARK INTRA:                   0.124
REMARK UNBOUND:                -0.036
REMARK SMILES CC1(C)CC[C@]2(C(=O)[O-])CC[C@]3(C)C(=CC[C@@H]4[C@@]5(C)CC[C@@H](O)C(C)(C)[C@H]5CC[C@]43C)[C@@H]2C1
REMARK SMILES IDX 6 1 5 2 10 3 32 4 4 5 11 6 14 7 33 8 2 9 12 10 15 11 1 12
REMARK SMILES IDX 3 13 13 14 30 15 16 16 17 17 29 18 31 19 18 20 28 21 27 22
REMARK SMILES IDX 20 23 19 24 24 25 21 26 22 27 25 28 26 29 7 30 8 31 9 32
REMARK SMILES IDX 23 33
REMARK H PARENT 23 34
REMARK Flexibility Score: inf
ROOT
ATOM      1  C   UNL     1     -10.040   5.496 -18.726  1.00  0.00     0.017 C 
ATOM      2  C   UNL     1     -10.123   6.794 -19.581  1.00  0.00     0.014 C 
ATOM      3  C   UNL     1     -11.473   5.085 -18.232  1.00  0.00     0.014 C 
ATOM      4  C   UNL     1      -9.025   5.679 -17.527  1.00  0.00     0.028 C 
ATOM      5  C   UNL     1      -8.746   7.284 -20.080  1.00  0.00     0.007 C 
ATOM      6  C   UNL     1     -12.044   5.746 -16.938  1.00  0.00     0.013 C 
ATOM      7  C   UNL     1      -9.720   5.410 -16.181  1.00  0.00    -0.064 C 
ATOM      8  C   UNL     1      -8.179   6.979 -17.585  1.00  0.00     0.015 C 
ATOM      9  C   UNL     1      -7.609   7.269 -19.001  1.00  0.00    -0.035 C 
ATOM     10  C   UNL     1     -11.016   6.174 -15.802  1.00  0.00    -0.006 C 
ATOM     11  C   UNL     1      -9.593   4.134 -15.730  1.00  0.00    -0.027 C 
ATOM     12  C   UNL     1      -6.916   8.651 -18.971  1.00  0.00     0.011 C 
ATOM     13  C   UNL     1      -6.532   6.221 -19.373  1.00  0.00     0.011 C 
ATOM     14  C   UNL     1     -10.864   7.718 -15.946  1.00  0.00     0.017 C 
ATOM     15  C   UNL     1     -11.509   5.859 -14.248  1.00  0.00    -0.020 C 
ATOM     16  C   UNL     1     -10.584   3.536 -14.778  1.00  0.00     0.032 C 
ATOM     17  C   UNL     1     -10.825   4.563 -13.672  1.00  0.00     0.006 C 
ATOM     18  C   UNL     1     -11.092   6.973 -13.206  1.00  0.00     0.008 C 
ATOM     19  C   UNL     1     -13.070   5.783 -14.226  1.00  0.00     0.012 C 
ATOM     20  C   UNL     1     -11.354   4.017 -12.270  1.00  0.00    -0.025 C 
ATOM     21  C   UNL     1     -10.904   6.524 -11.723  1.00  0.00     0.005 C 
ATOM     22  C   UNL     1     -11.693   5.247 -11.301  1.00  0.00     0.003 C 
ATOM     23  C   UNL     1     -10.207   3.124 -11.673  1.00  0.00     0.010 C 
ATOM     24  C   UNL     1     -12.613   3.119 -12.476  1.00  0.00     0.012 C 
ATOM     25  C   UNL     1     -11.640   4.943  -9.734  1.00  0.00    -0.006 C 
ATOM     26  C   UNL     1     -10.337   2.798 -10.187  1.00  0.00     0.033 C 
ATOM     27  C   UNL     1     -10.410   4.075  -9.350  1.00  0.00     0.120 C 
ATOM     28  C   UNL     1     -12.946   4.226  -9.284  1.00  0.00     0.014 C 
ATOM     29  C   UNL     1     -11.595   6.242  -8.880  1.00  0.00     0.014 C 
ENDROOT
BRANCH   1  30
ATOM     30  C   UNL     1      -9.583   4.348 -19.634  1.00  0.00     0.048 C 
ATOM     31  O   UNL     1     -10.351   3.897 -20.527  1.00  0.00    -0.550 OA
ATOM     32  O   UNL     1      -8.276   3.871 -19.585  1.00  0.00    -0.550 OA
ENDBRANCH   1  30
BRANCH  27  33
ATOM     33  O   UNL     1      -9.220   4.810  -9.504  1.00  0.00    -0.393 OA
ATOM     34  H   UNL     1      -9.452   5.639 -10.002  1.00  0.00     0.210 HD
ENDBRANCH  27  33
TORSDOF 2
ENDMDL
MODEL 4
REMARK VINA RESULT:   116.190      4.651     10.528
REMARK INTER + INTRA:         126.343
REMARK INTER:                 125.610
REMARK INTRA:                   0.733
REMARK UNBOUND:                -0.036
REMARK SMILES CC1(C)CC[C@]2(C(=O)[O-])CC[C@]3(C)C(=CC[C@@H]4[C@@]5(C)CC[C@@H](O)C(C)(C)[C@H]5CC[C@]43C)[C@@H]2C1
REMARK SMILES IDX 6 1 5 2 10 3 32 4 4 5 11 6 14 7 33 8 2 9 12 10 15 11 1 12
REMARK SMILES IDX 3 13 13 14 30 15 16 16 17 17 29 18 31 19 18 20 28 21 27 22
REMARK SMILES IDX 20 23 19 24 24 25 21 26 22 27 25 28 26 29 7 30 8 31 9 32
REMARK SMILES IDX 23 33
REMARK H PARENT 23 34
REMARK Flexibility Score: inf
ROOT
ATOM      1  C   UNL     1      -9.587   6.217 -18.667  1.00  0.00     0.017 C 
ATOM      2  C   UNL     1      -9.941   6.144 -17.153  1.00  0.00     0.014 C 
ATOM      3  C   UNL     1     -10.888   6.447 -19.515  1.00  0.00     0.014 C 
ATOM      4  C   UNL     1      -8.801   4.921 -19.121  1.00  0.00     0.028 C 
ATOM      5  C   UNL     1      -8.714   5.887 -16.252  1.00  0.00     0.007 C 
ATOM      6  C   UNL     1     -11.760   5.214 -19.910  1.00  0.00     0.013 C 
ATOM      7  C   UNL     1      -9.532   4.219 -20.278  1.00  0.00    -0.064 C 
ATOM      8  C   UNL     1      -8.357   3.991 -17.960  1.00  0.00     0.015 C 
ATOM      9  C   UNL     1      -7.743   4.767 -16.762  1.00  0.00    -0.035 C 
ATOM     10  C   UNL     1     -11.024   3.821 -20.134  1.00  0.00    -0.006 C 
ATOM     11  C   UNL     1      -9.097   4.579 -21.515  1.00  0.00    -0.027 C 
ATOM     12  C   UNL     1      -7.478   3.762 -15.617  1.00  0.00     0.011 C 
ATOM     13  C   UNL     1      -6.380   5.382 -17.160  1.00  0.00     0.011 C 
ATOM     14  C   UNL     1     -11.302   2.996 -18.843  1.00  0.00     0.017 C 
ATOM     15  C   UNL     1     -11.573   2.933 -21.427  1.00  0.00    -0.020 C 
ATOM     16  C   UNL     1      -9.975   4.449 -22.723  1.00  0.00     0.032 C 
ATOM     17  C   UNL     1     -10.616   3.062 -22.670  1.00  0.00     0.006 C 
ATOM     18  C   UNL     1     -11.604   1.374 -21.164  1.00  0.00     0.008 C 
ATOM     19  C   UNL     1     -13.041   3.366 -21.742  1.00  0.00     0.012 C 
ATOM     20  C   UNL     1     -11.116   2.435 -24.048  1.00  0.00    -0.025 C 
ATOM     21  C   UNL     1     -11.458   0.442 -22.407  1.00  0.00     0.005 C 
ATOM     22  C   UNL     1     -11.893   1.062 -23.770  1.00  0.00     0.003 C 
ATOM     23  C   UNL     1      -9.834   2.195 -24.925  1.00  0.00     0.010 C 
ATOM     24  C   UNL     1     -12.039   3.443 -24.801  1.00  0.00     0.012 C 
ATOM     25  C   UNL     1     -11.925   0.016 -24.976  1.00  0.00    -0.006 C 
ATOM     26  C   UNL     1     -10.026   1.271 -26.125  1.00  0.00     0.033 C 
ATOM     27  C   UNL     1     -10.548  -0.097 -25.687  1.00  0.00     0.120 C 
ATOM     28  C   UNL     1     -13.015   0.424 -26.009  1.00  0.00     0.014 C 
ATOM     29  C   UNL     1     -12.343  -1.409 -24.512  1.00  0.00     0.014 C 
ENDROOT
BRANCH   1  30
ATOM     30  C   UNL     1      -8.727   7.465 -18.902  1.00  0.00     0.048 C 
ATOM     31  O   UNL     1      -7.875   7.823 -18.044  1.00  0.00    -0.550 OA
ATOM     32  O   UNL     1      -8.771   8.148 -20.114  1.00  0.00    -0.550 OA
ENDBRANCH   1  30
BRANCH  27  33
ATOM     33  O   UNL     1      -9.607  -0.714 -24.843  1.00  0.00    -0.393 OA
ATOM     34  H   UNL     1      -9.101  -1.365 -25.397  1.00  0.00     0.210 HD
ENDBRANCH  27  33
TORSDOF 2
ENDMDL
