MODEL 1
REMARK VINA RESULT:    -6.126      0.000      0.000
REMARK INTER + INTRA:          -7.750
REMARK INTER:                  -7.379
REMARK INTRA:                  -0.371
REMARK UNBOUND:                -0.371
REMARK SMILES O=c1ccn([C@H]2O[C@@H](CO)[C@@H](O)[C@H]2O)c(=O)[nH]1
REMARK SMILES IDX 6 1 13 2 11 3 8 4 7 5 5 6 3 7 4 8 2 9 17 10 1 11 15 12 16 14
REMARK SMILES IDX 14 15 12 17 9 19 10 20
REMARK H PARENT 17 13 14 16 12 18 10 21
REMARK Flexibility Score: inf
ROOT
ATOM      1  C   UNL     1      16.868  13.778  58.994  1.00  0.00     0.255 C 
ATOM      2  C   UNL     1      15.342  14.000  59.000  1.00  0.00     0.196 C 
ATOM      3  C   UNL     1      14.808  12.803  59.770  1.00  0.00     0.179 C 
ATOM      4  C   UNL     1      15.978  11.820  59.695  1.00  0.00     0.178 C 
ATOM      5  O   UNL     1      17.164  12.575  59.677  1.00  0.00    -0.347 OA
ENDROOT
BRANCH   1   6
ATOM      6  N   UNL     1      17.602  14.916  59.591  1.00  0.00    -0.271 N 
ATOM      7  C   UNL     1      18.355  16.123  61.524  1.00  0.00     0.090 A 
ATOM      8  C   UNL     1      17.694  15.040  60.952  1.00  0.00     0.099 A 
ATOM      9  C   UNL     1      18.909  17.084  60.688  1.00  0.00     0.253 A 
ATOM     10  N   UNL     1      18.794  16.954  59.340  1.00  0.00    -0.274 N 
ATOM     11  O   UNL     1      19.514  18.074  61.179  1.00  0.00    -0.269 OA
ATOM     12  C   UNL     1      18.143  15.893  58.789  1.00  0.00     0.330 A 
ATOM     13  H   UNL     1      19.207  17.686  58.717  1.00  0.00     0.175 HD
ATOM     14  O   UNL     1      18.041  15.821  57.533  1.00  0.00    -0.248 OA
ENDBRANCH   1   6
BRANCH   2  15
ATOM     15  O   UNL     1      14.979  15.220  59.595  1.00  0.00    -0.386 OA
ATOM     16  H   UNL     1      15.537  15.921  59.168  1.00  0.00     0.211 HD
ENDBRANCH   2  15
BRANCH   3  17
ATOM     17  O   UNL     1      14.462  13.136  61.095  1.00  0.00    -0.387 OA
ATOM     18  H   UNL     1      15.280  13.454  61.560  1.00  0.00     0.211 HD
ENDBRANCH   3  17
BRANCH   4  19
ATOM     19  C   UNL     1      16.021  10.792  60.835  1.00  0.00     0.191 C 
BRANCH  19  20
ATOM     20  O   UNL     1      16.567  11.363  61.994  1.00  0.00    -0.394 OA
ATOM     21  H   UNL     1      16.649  12.337  61.824  1.00  0.00     0.210 HD
ENDBRANCH  19  20
ENDBRANCH   4  19
TORSDOF 5
ENDMDL
MODEL 2
REMARK VINA RESULT:    -5.869      2.054      3.347
REMARK INTER + INTRA:          -7.441
REMARK INTER:                  -7.328
REMARK INTRA:                  -0.113
REMARK UNBOUND:                -0.371
REMARK SMILES O=c1ccn([C@H]2O[C@@H](CO)[C@@H](O)[C@H]2O)c(=O)[nH]1
REMARK SMILES IDX 6 1 13 2 11 3 8 4 7 5 5 6 3 7 4 8 2 9 17 10 1 11 15 12 16 14
REMARK SMILES IDX 14 15 12 17 9 19 10 20
REMARK H PARENT 17 13 14 16 12 18 10 21
REMARK Flexibility Score: inf
ROOT
ATOM      1  C   UNL     1      15.137  12.779  60.162  1.00  0.00     0.255 C 
ATOM      2  C   UNL     1      15.977  11.712  60.892  1.00  0.00     0.196 C 
ATOM      3  C   UNL     1      16.035  10.561  59.901  1.00  0.00     0.179 C 
ATOM      4  C   UNL     1      14.868  10.878  58.964  1.00  0.00     0.178 C 
ATOM      5  O   UNL     1      14.749  12.278  58.897  1.00  0.00    -0.347 OA
ENDROOT
BRANCH   1   6
ATOM      6  N   UNL     1      15.861  14.062  60.020  1.00  0.00    -0.271 N 
ATOM      7  C   UNL     1      17.262  15.530  58.738  1.00  0.00     0.090 A 
ATOM      8  C   UNL     1      16.552  14.340  58.870  1.00  0.00     0.099 A 
ATOM      9  C   UNL     1      17.268  16.425  59.800  1.00  0.00     0.253 A 
ATOM     10  N   UNL     1      16.591  16.125  60.940  1.00  0.00    -0.274 N 
ATOM     11  O   UNL     1      17.901  17.510  59.708  1.00  0.00    -0.269 OA
ATOM     12  C   UNL     1      15.901  14.958  61.062  1.00  0.00     0.330 A 
ATOM     13  H   UNL     1      16.607  16.800  61.739  1.00  0.00     0.175 HD
ATOM     14  O   UNL     1      15.303  14.708  62.145  1.00  0.00    -0.248 OA
ENDBRANCH   1   6
BRANCH   2  15
ATOM     15  O   UNL     1      17.257  12.179  61.238  1.00  0.00    -0.386 OA
ATOM     16  H   UNL     1      17.298  13.128  60.950  1.00  0.00     0.211 HD
ENDBRANCH   2  15
BRANCH   3  17
ATOM     17  O   UNL     1      17.272  10.502  59.227  1.00  0.00    -0.387 OA
ATOM     18  H   UNL     1      17.929  10.053  59.822  1.00  0.00     0.211 HD
ENDBRANCH   3  17
BRANCH   4  19
ATOM     19  C   UNL     1      15.003  10.289  57.553  1.00  0.00     0.191 C 
BRANCH  19  20
ATOM     20  O   UNL     1      13.887  10.617  56.772  1.00  0.00    -0.394 OA
ATOM     21  H   UNL     1      13.931  10.054  55.956  1.00  0.00     0.210 HD
ENDBRANCH  19  20
ENDBRANCH   4  19
TORSDOF 5
ENDMDL
MODEL 3
REMARK VINA RESULT:    -5.803      2.117      5.257
REMARK INTER + INTRA:          -7.361
REMARK INTER:                  -6.991
REMARK INTRA:                  -0.370
REMARK UNBOUND:                -0.371
REMARK SMILES O=c1ccn([C@H]2O[C@@H](CO)[C@@H](O)[C@H]2O)c(=O)[nH]1
REMARK SMILES IDX 6 1 13 2 11 3 8 4 7 5 5 6 3 7 4 8 2 9 17 10 1 11 15 12 16 14
REMARK SMILES IDX 14 15 12 17 9 19 10 20
REMARK H PARENT 17 13 14 16 12 18 10 21
REMARK Flexibility Score: inf
ROOT
ATOM      1  C   UNL     1      16.047  14.753  60.997  1.00  0.00     0.255 C 
ATOM      2  C   UNL     1      15.390  15.885  60.183  1.00  0.00     0.196 C 
ATOM      3  C   UNL     1      16.535  16.849  59.920  1.00  0.00     0.179 C 
ATOM      4  C   UNL     1      17.558  16.437  60.980  1.00  0.00     0.178 C 
ATOM      5  O   UNL     1      17.417  15.052  61.187  1.00  0.00    -0.347 OA
ENDROOT
BRANCH   1   6
ATOM      6  N   UNL     1      15.883  13.430  60.353  1.00  0.00    -0.271 N 
ATOM      7  C   UNL     1      16.525  11.839  58.674  1.00  0.00     0.090 A 
ATOM      8  C   UNL     1      16.691  13.067  59.309  1.00  0.00     0.099 A 
ATOM      9  C   UNL     1      15.514  10.993  59.114  1.00  0.00     0.253 A 
ATOM     10  N   UNL     1      14.711  11.377  60.140  1.00  0.00    -0.274 N 
ATOM     11  O   UNL     1      15.342   9.875  58.559  1.00  0.00    -0.269 OA
ATOM     12  C   UNL     1      14.878  12.581  60.753  1.00  0.00     0.330 A 
ATOM     13  H   UNL     1      13.946  10.738  60.460  1.00  0.00     0.175 HD
ATOM     14  O   UNL     1      14.098  12.908  61.689  1.00  0.00    -0.248 OA
ENDBRANCH   1   6
BRANCH   2  15
ATOM     15  O   UNL     1      14.804  15.420  58.992  1.00  0.00    -0.386 OA
ATOM     16  H   UNL     1      13.895  15.102  59.231  1.00  0.00     0.211 HD
ENDBRANCH   2  15
BRANCH   3  17
ATOM     17  O   UNL     1      17.036  16.734  58.608  1.00  0.00    -0.387 OA
ATOM     18  H   UNL     1      16.478  16.075  58.119  1.00  0.00     0.211 HD
ENDBRANCH   3  17
BRANCH   4  19
ATOM     19  C   UNL     1      19.014  16.773  60.628  1.00  0.00     0.191 C 
BRANCH  19  20
ATOM     20  O   UNL     1      19.535  15.831  59.730  1.00  0.00    -0.394 OA
ATOM     21  H   UNL     1      18.914  15.057  59.732  1.00  0.00     0.210 HD
ENDBRANCH  19  20
ENDBRANCH   4  19
TORSDOF 5
ENDMDL
MODEL 4
REMARK VINA RESULT:    -5.751      3.591      5.833
REMARK INTER + INTRA:          -7.298
REMARK INTER:                  -7.155
REMARK INTRA:                  -0.143
REMARK UNBOUND:                -0.371
REMARK SMILES O=c1ccn([C@H]2O[C@@H](CO)[C@@H](O)[C@H]2O)c(=O)[nH]1
REMARK SMILES IDX 6 1 13 2 11 3 8 4 7 5 5 6 3 7 4 8 2 9 17 10 1 11 15 12 16 14
REMARK SMILES IDX 14 15 12 17 9 19 10 20
REMARK H PARENT 17 13 14 16 12 18 10 21
REMARK Flexibility Score: inf
ROOT
ATOM      1  C   UNL     1      14.786  13.800  63.328  1.00  0.00     0.255 C 
ATOM      2  C   UNL     1      13.316  13.735  63.788  1.00  0.00     0.196 C 
ATOM      3  C   UNL     1      12.909  15.195  63.901  1.00  0.00     0.179 C 
ATOM      4  C   UNL     1      14.263  15.905  63.972  1.00  0.00     0.178 C 
ATOM      5  O   UNL     1      15.174  15.155  63.206  1.00  0.00    -0.347 OA
ENDROOT
BRANCH   1   6
ATOM      6  N   UNL     1      15.008  13.074  62.057  1.00  0.00    -0.271 N 
ATOM      7  C   UNL     1      14.925  13.002  59.659  1.00  0.00     0.090 A 
ATOM      8  C   UNL     1      14.750  13.685  60.859  1.00  0.00     0.099 A 
ATOM      9  C   UNL     1      15.356  11.682  59.701  1.00  0.00     0.253 A 
ATOM     10  N   UNL     1      15.592  11.086  60.899  1.00  0.00    -0.274 N 
ATOM     11  O   UNL     1      15.525  11.039  58.631  1.00  0.00    -0.269 OA
ATOM     12  C   UNL     1      15.415  11.761  62.068  1.00  0.00     0.330 A 
ATOM     13  H   UNL     1      15.908  10.089  60.923  1.00  0.00     0.175 HD
ATOM     14  O   UNL     1      15.625  11.164  63.160  1.00  0.00    -0.248 OA
ENDBRANCH   1   6
BRANCH   2  15
ATOM     15  O   UNL     1      12.502  13.025  62.888  1.00  0.00    -0.386 OA
ATOM     16  H   UNL     1      12.952  13.070  62.004  1.00  0.00     0.211 HD
ENDBRANCH   2  15
BRANCH   3  17
ATOM     17  O   UNL     1      12.132  15.616  62.803  1.00  0.00    -0.387 OA
ATOM     18  H   UNL     1      12.681  16.236  62.253  1.00  0.00     0.211 HD
ENDBRANCH   3  17
BRANCH   4  19
ATOM     19  C   UNL     1      14.244  17.364  63.495  1.00  0.00     0.191 C 
BRANCH  19  20
ATOM     20  O   UNL     1      15.519  17.760  63.066  1.00  0.00    -0.394 OA
ATOM     21  H   UNL     1      16.176  17.247  63.605  1.00  0.00     0.210 HD
ENDBRANCH  19  20
ENDBRANCH   4  19
TORSDOF 5
ENDMDL
MODEL 5
REMARK VINA RESULT:    -5.735      2.538      2.963
REMARK INTER + INTRA:          -7.279
REMARK INTER:                  -6.956
REMARK INTRA:                  -0.323
REMARK UNBOUND:                -0.371
REMARK SMILES O=c1ccn([C@H]2O[C@@H](CO)[C@@H](O)[C@H]2O)c(=O)[nH]1
REMARK SMILES IDX 6 1 13 2 11 3 8 4 7 5 5 6 3 7 4 8 2 9 17 10 1 11 15 12 16 14
REMARK SMILES IDX 14 15 12 17 9 19 10 20
REMARK H PARENT 17 13 14 16 12 18 10 21
REMARK Flexibility Score: inf
ROOT
ATOM      1  C   UNL     1      16.861  14.350  60.483  1.00  0.00     0.255 C 
ATOM      2  C   UNL     1      16.167  14.265  59.109  1.00  0.00     0.196 C 
ATOM      3  C   UNL     1      15.889  12.781  58.938  1.00  0.00     0.179 C 
ATOM      4  C   UNL     1      16.848  12.151  59.950  1.00  0.00     0.178 C 
ATOM      5  O   UNL     1      16.975  13.049  61.026  1.00  0.00    -0.347 OA
ENDROOT
BRANCH   1   6
ATOM      6  N   UNL     1      16.146  15.248  61.418  1.00  0.00    -0.271 N 
ATOM      7  C   UNL     1      14.290  15.683  62.876  1.00  0.00     0.090 A 
ATOM      8  C   UNL     1      14.987  14.836  62.020  1.00  0.00     0.099 A 
ATOM      9  C   UNL     1      14.785  16.962  63.098  1.00  0.00     0.253 A 
ATOM     10  N   UNL     1      15.927  17.361  62.478  1.00  0.00    -0.274 N 
ATOM     11  O   UNL     1      14.175  17.750  63.869  1.00  0.00    -0.269 OA
ATOM     12  C   UNL     1      16.601  16.526  61.640  1.00  0.00     0.330 A 
ATOM     13  H   UNL     1      16.289  18.328  62.643  1.00  0.00     0.175 HD
ATOM     14  O   UNL     1      17.646  16.943  61.069  1.00  0.00    -0.248 OA
ENDBRANCH   1   6
BRANCH   2  15
ATOM     15  O   UNL     1      14.992  15.036  59.051  1.00  0.00    -0.386 OA
ATOM     16  H   UNL     1      14.532  14.785  58.208  1.00  0.00     0.211 HD
ENDBRANCH   2  15
BRANCH   3  17
ATOM     17  O   UNL     1      14.541  12.460  59.195  1.00  0.00    -0.387 OA
ATOM     18  H   UNL     1      14.472  11.476  59.313  1.00  0.00     0.211 HD
ENDBRANCH   3  17
BRANCH   4  19
ATOM     19  C   UNL     1      16.418  10.769  60.461  1.00  0.00     0.191 C 
BRANCH  19  20
ATOM     20  O   UNL     1      15.380  10.889  61.396  1.00  0.00    -0.394 OA
ATOM     21  H   UNL     1      14.533  10.937  60.881  1.00  0.00     0.210 HD
ENDBRANCH  19  20
ENDBRANCH   4  19
TORSDOF 5
ENDMDL
MODEL 6
REMARK VINA RESULT:    -5.652      3.378      4.707
REMARK INTER + INTRA:          -7.179
REMARK INTER:                  -6.861
REMARK INTRA:                  -0.318
REMARK UNBOUND:                -0.371
REMARK SMILES O=c1ccn([C@H]2O[C@@H](CO)[C@@H](O)[C@H]2O)c(=O)[nH]1
REMARK SMILES IDX 6 1 13 2 11 3 8 4 7 5 5 6 3 7 4 8 2 9 17 10 1 11 15 12 16 14
REMARK SMILES IDX 14 15 12 17 9 19 10 20
REMARK H PARENT 17 13 14 16 12 18 10 21
REMARK Flexibility Score: inf
ROOT
ATOM      1  C   UNL     1      15.349  16.058  62.695  1.00  0.00     0.255 C 
ATOM      2  C   UNL     1      14.947  14.686  63.271  1.00  0.00     0.196 C 
ATOM      3  C   UNL     1      13.499  14.883  63.691  1.00  0.00     0.179 C 
ATOM      4  C   UNL     1      13.386  16.407  63.765  1.00  0.00     0.178 C 
ATOM      5  O   UNL     1      14.249  16.942  62.791  1.00  0.00    -0.347 OA
ENDROOT
BRANCH   1   6
ATOM      6  N   UNL     1      15.825  15.961  61.296  1.00  0.00    -0.271 N 
ATOM      7  C   UNL     1      15.360  15.808  58.946  1.00  0.00     0.090 A 
ATOM      8  C   UNL     1      14.926  15.931  60.263  1.00  0.00     0.099 A 
ATOM      9  C   UNL     1      16.724  15.703  58.701  1.00  0.00     0.253 A 
ATOM     10  N   UNL     1      17.600  15.718  59.739  1.00  0.00    -0.274 N 
ATOM     11  O   UNL     1      17.145  15.592  57.519  1.00  0.00    -0.269 OA
ATOM     12  C   UNL     1      17.166  15.835  61.025  1.00  0.00     0.330 A 
ATOM     13  H   UNL     1      18.625  15.630  59.547  1.00  0.00     0.175 HD
ATOM     14  O   UNL     1      18.011  15.824  61.961  1.00  0.00    -0.248 OA
ENDBRANCH   1   6
BRANCH   2  15
ATOM     15  O   UNL     1      15.091  13.646  62.336  1.00  0.00    -0.386 OA
ATOM     16  H   UNL     1      14.175  13.330  62.122  1.00  0.00     0.211 HD
ENDBRANCH   2  15
BRANCH   3  17
ATOM     17  O   UNL     1      12.597  14.316  62.769  1.00  0.00    -0.387 OA
ATOM     18  H   UNL     1      11.697  14.704  62.935  1.00  0.00     0.211 HD
ENDBRANCH   3  17
BRANCH   4  19
ATOM     19  C   UNL     1      11.964  16.952  63.570  1.00  0.00     0.191 C 
BRANCH  19  20
ATOM     20  O   UNL     1      11.022  16.095  64.157  1.00  0.00    -0.394 OA
ATOM     21  H   UNL     1      10.460  16.652  64.755  1.00  0.00     0.210 HD
ENDBRANCH  19  20
ENDBRANCH   4  19
TORSDOF 5
ENDMDL
MODEL 7
REMARK VINA RESULT:    -5.617      2.316      2.695
REMARK INTER + INTRA:          -7.137
REMARK INTER:                  -7.024
REMARK INTRA:                  -0.113
REMARK UNBOUND:                -0.371
REMARK SMILES O=c1ccn([C@H]2O[C@@H](CO)[C@@H](O)[C@H]2O)c(=O)[nH]1
REMARK SMILES IDX 6 1 13 2 11 3 8 4 7 5 5 6 3 7 4 8 2 9 17 10 1 11 15 12 16 14
REMARK SMILES IDX 14 15 12 17 9 19 10 20
REMARK H PARENT 17 13 14 16 12 18 10 21
REMARK Flexibility Score: inf
ROOT
ATOM      1  C   UNL     1      16.057  15.820  60.755  1.00  0.00     0.255 C 
ATOM      2  C   UNL     1      15.159  16.578  61.753  1.00  0.00     0.196 C 
ATOM      3  C   UNL     1      14.505  15.469  62.561  1.00  0.00     0.179 C 
ATOM      4  C   UNL     1      14.704  14.248  61.661  1.00  0.00     0.178 C 
ATOM      5  O   UNL     1      15.915  14.429  60.968  1.00  0.00    -0.347 OA
ENDROOT
BRANCH   1   6
ATOM      6  N   UNL     1      17.477  16.226  60.859  1.00  0.00    -0.271 N 
ATOM      7  C   UNL     1      19.532  16.308  62.096  1.00  0.00     0.090 A 
ATOM      8  C   UNL     1      18.206  15.905  61.973  1.00  0.00     0.099 A 
ATOM      9  C   UNL     1      20.099  17.054  61.070  1.00  0.00     0.253 A 
ATOM     10  N   UNL     1      19.356  17.378  59.980  1.00  0.00    -0.274 N 
ATOM     11  O   UNL     1      21.299  17.432  61.154  1.00  0.00    -0.269 OA
ATOM     12  C   UNL     1      18.059  16.982  59.870  1.00  0.00     0.330 A 
ATOM     13  H   UNL     1      19.788  17.948  59.216  1.00  0.00     0.175 HD
ATOM     14  O   UNL     1      17.398  17.322  58.850  1.00  0.00    -0.248 OA
ENDBRANCH   1   6
BRANCH   2  15
ATOM     15  O   UNL     1      15.886  17.467  62.563  1.00  0.00    -0.386 OA
ATOM     16  H   UNL     1      16.843  17.225  62.460  1.00  0.00     0.211 HD
ENDBRANCH   2  15
BRANCH   3  17
ATOM     17  O   UNL     1      15.102  15.312  63.829  1.00  0.00    -0.387 OA
ATOM     18  H   UNL     1      15.975  15.786  63.821  1.00  0.00     0.211 HD
ENDBRANCH   3  17
BRANCH   4  19
ATOM     19  C   UNL     1      14.713  12.904  62.401  1.00  0.00     0.191 C 
BRANCH  19  20
ATOM     20  O   UNL     1      13.487  12.688  63.048  1.00  0.00    -0.394 OA
ATOM     21  H   UNL     1      13.482  11.743  63.348  1.00  0.00     0.210 HD
ENDBRANCH  19  20
ENDBRANCH   4  19
TORSDOF 5
ENDMDL
MODEL 8
REMARK VINA RESULT:    -5.520      3.177      3.784
REMARK INTER + INTRA:          -7.021
REMARK INTER:                  -6.771
REMARK INTRA:                  -0.249
REMARK UNBOUND:                -0.371
REMARK SMILES O=c1ccn([C@H]2O[C@@H](CO)[C@@H](O)[C@H]2O)c(=O)[nH]1
REMARK SMILES IDX 6 1 13 2 11 3 8 4 7 5 5 6 3 7 4 8 2 9 17 10 1 11 15 12 16 14
REMARK SMILES IDX 14 15 12 17 9 19 10 20
REMARK H PARENT 17 13 14 16 12 18 10 21
REMARK Flexibility Score: inf
ROOT
ATOM      1  C   UNL     1      14.214  15.558  61.952  1.00  0.00     0.255 C 
ATOM      2  C   UNL     1      14.335  16.294  63.301  1.00  0.00     0.196 C 
ATOM      3  C   UNL     1      14.115  15.198  64.330  1.00  0.00     0.179 C 
ATOM      4  C   UNL     1      13.433  14.106  63.502  1.00  0.00     0.178 C 
ATOM      5  O   UNL     1      13.941  14.190  62.193  1.00  0.00    -0.347 OA
ENDROOT
BRANCH   1   6
ATOM      6  N   UNL     1      15.427  15.712  61.118  1.00  0.00    -0.271 N 
ATOM      7  C   UNL     1      17.458  14.808  60.211  1.00  0.00     0.090 A 
ATOM      8  C   UNL     1      16.298  14.665  60.966  1.00  0.00     0.099 A 
ATOM      9  C   UNL     1      17.723  16.039  59.623  1.00  0.00     0.253 A 
ATOM     10  N   UNL     1      16.857  17.072  59.798  1.00  0.00    -0.274 N 
ATOM     11  O   UNL     1      18.765  16.197  58.933  1.00  0.00    -0.269 OA
ATOM     12  C   UNL     1      15.726  16.924  60.541  1.00  0.00     0.330 A 
ATOM     13  H   UNL     1      17.068  17.998  59.360  1.00  0.00     0.175 HD
ATOM     14  O   UNL     1      14.959  17.913  60.696  1.00  0.00    -0.248 OA
ENDBRANCH   1   6
BRANCH   2  15
ATOM     15  O   UNL     1      15.580  16.928  63.458  1.00  0.00    -0.386 OA
ATOM     16  H   UNL     1      16.264  16.292  63.124  1.00  0.00     0.211 HD
ENDBRANCH   2  15
BRANCH   3  17
ATOM     17  O   UNL     1      15.324  14.764  64.911  1.00  0.00    -0.387 OA
ATOM     18  H   UNL     1      15.442  15.242  65.774  1.00  0.00     0.211 HD
ENDBRANCH   3  17
BRANCH   4  19
ATOM     19  C   UNL     1      13.615  12.684  64.050  1.00  0.00     0.191 C 
BRANCH  19  20
ATOM     20  O   UNL     1      14.902  12.205  63.767  1.00  0.00    -0.394 OA
ATOM     21  H   UNL     1      15.327  12.865  63.160  1.00  0.00     0.210 HD
ENDBRANCH  19  20
ENDBRANCH   4  19
TORSDOF 5
ENDMDL
MODEL 9
REMARK VINA RESULT:    -5.468      2.701      3.496
REMARK INTER + INTRA:          -6.958
REMARK INTER:                  -6.660
REMARK INTRA:                  -0.298
REMARK UNBOUND:                -0.371
REMARK SMILES O=c1ccn([C@H]2O[C@@H](CO)[C@@H](O)[C@H]2O)c(=O)[nH]1
REMARK SMILES IDX 6 1 13 2 11 3 8 4 7 5 5 6 3 7 4 8 2 9 17 10 1 11 15 12 16 14
REMARK SMILES IDX 14 15 12 17 9 19 10 20
REMARK H PARENT 17 13 14 16 12 18 10 21
REMARK Flexibility Score: inf
ROOT
ATOM      1  C   UNL     1      16.812  13.365  60.346  1.00  0.00     0.255 C 
ATOM      2  C   UNL     1      16.087  12.701  59.158  1.00  0.00     0.196 C 
ATOM      3  C   UNL     1      16.130  11.219  59.495  1.00  0.00     0.179 C 
ATOM      4  C   UNL     1      17.251  11.153  60.533  1.00  0.00     0.178 C 
ATOM      5  O   UNL     1      17.233  12.363  61.252  1.00  0.00    -0.347 OA
ENDROOT
BRANCH   1   6
ATOM      6  N   UNL     1      15.965  14.369  61.029  1.00  0.00    -0.271 N 
ATOM      7  C   UNL     1      15.418  16.659  61.494  1.00  0.00     0.090 A 
ATOM      8  C   UNL     1      16.187  15.706  60.832  1.00  0.00     0.099 A 
ATOM      9  C   UNL     1      14.429  16.227  62.368  1.00  0.00     0.253 A 
ATOM     10  N   UNL     1      14.234  14.897  62.565  1.00  0.00    -0.274 N 
ATOM     11  O   UNL     1      13.716  17.068  62.980  1.00  0.00    -0.269 OA
ATOM     12  C   UNL     1      14.993  13.971  61.915  1.00  0.00     0.330 A 
ATOM     13  H   UNL     1      13.493  14.580  63.231  1.00  0.00     0.175 HD
ATOM     14  O   UNL     1      14.793  12.746  62.141  1.00  0.00    -0.248 OA
ENDBRANCH   1   6
BRANCH   2  15
ATOM     15  O   UNL     1      14.771  13.171  59.000  1.00  0.00    -0.386 OA
ATOM     16  H   UNL     1      14.367  12.636  58.268  1.00  0.00     0.211 HD
ENDBRANCH   2  15
BRANCH   3  17
ATOM     17  O   UNL     1      14.898  10.751  59.995  1.00  0.00    -0.387 OA
ATOM     18  H   UNL     1      15.059   9.889  60.460  1.00  0.00     0.211 HD
ENDBRANCH   3  17
BRANCH   4  19
ATOM     19  C   UNL     1      17.158   9.963  61.498  1.00  0.00     0.191 C 
BRANCH  19  20
ATOM     20  O   UNL     1      16.451  10.319  62.655  1.00  0.00    -0.394 OA
ATOM     21  H   UNL     1      16.961  11.051  63.090  1.00  0.00     0.210 HD
ENDBRANCH  19  20
ENDBRANCH   4  19
TORSDOF 5
ENDMDL
