MODEL 1
REMARK VINA RESULT:    -4.337      0.000      0.000
REMARK INTER + INTRA:         -13.933
REMARK INTER:                  -9.915
REMARK INTRA:                  -4.018
REMARK UNBOUND:                -4.018
REMARK SMILES CCCCCCCCCCCCCCCCCCCCCCCC(=O)[O-]
REMARK SMILES IDX 13 1 14 2 15 3 16 4 17 5 18 6 19 7 20 8 21 9 22 10 23 11
REMARK SMILES IDX 24 12 25 13 26 14 12 15 11 16 10 17 9 18 8 19 7 20 6 21 5 22
REMARK SMILES IDX 4 23 3 24 2 25 1 26
REMARK H PARENT
REMARK Flexibility Score: inf
ROOT
ATOM      1  C   UNL     1      42.443  -0.735  21.068  1.00  0.00     0.000 C 
ENDROOT
BRANCH   1   2
ATOM      2  C   UNL     1      41.561   0.262  20.297  1.00  0.00     0.000 C 
BRANCH   2   3
ATOM      3  C   UNL     1      41.717   0.125  18.773  1.00  0.00     0.000 C 
BRANCH   3   4
ATOM      4  C   UNL     1      42.286   1.393  18.119  1.00  0.00     0.000 C 
BRANCH   4   5
ATOM      5  C   UNL     1      42.788   2.375  19.185  1.00  0.00     0.000 C 
BRANCH   5   6
ATOM      6  C   UNL     1      44.312   2.541  19.114  1.00  0.00     0.000 C 
BRANCH   6   7
ATOM      7  C   UNL     1      45.022   2.116  20.411  1.00  0.00     0.000 C 
BRANCH   7   8
ATOM      8  C   UNL     1      46.354   2.855  20.658  1.00  0.00     0.000 C 
BRANCH   8   9
ATOM      9  C   UNL     1      47.120   2.285  21.861  1.00  0.00     0.000 C 
BRANCH   9  10
ATOM     10  C   UNL     1      47.336   0.772  21.710  1.00  0.00     0.006 C 
BRANCH  10  11
ATOM     11  C   UNL     1      48.360   0.438  20.617  1.00  0.00     0.053 C 
BRANCH  11  12
ATOM     12  C   UNL     1      49.658  -0.032  21.198  1.00  0.00     0.041 C 
ATOM     13  O   UNL     1      49.677  -0.621  22.311  1.00  0.00    -0.550 OA
ATOM     14  O   UNL     1      50.840   0.133  20.488  1.00  0.00    -0.550 OA
ENDBRANCH  11  12
ENDBRANCH  10  11
ENDBRANCH   9  10
ENDBRANCH   8   9
ENDBRANCH   7   8
ENDBRANCH   6   7
ENDBRANCH   5   6
ENDBRANCH   4   5
ENDBRANCH   3   4
ENDBRANCH   2   3
ENDBRANCH   1   2
BRANCH   1  15
ATOM     15  C   UNL     1      42.681  -0.306  22.525  1.00  0.00     0.000 C 
BRANCH  15  16
ATOM     16  C   UNL     1      44.175  -0.285  22.901  1.00  0.00     0.000 C 
BRANCH  16  17
ATOM     17  C   UNL     1      44.396  -0.331  24.428  1.00  0.00     0.000 C 
BRANCH  17  18
ATOM     18  C   UNL     1      44.964   0.975  25.016  1.00  0.00    -0.000 C 
BRANCH  18  19
ATOM     19  C   UNL     1      43.984   1.782  25.885  1.00  0.00    -0.000 C 
BRANCH  19  20
ATOM     20  C   UNL     1      44.047   3.294  25.606  1.00  0.00    -0.000 C 
BRANCH  20  21
ATOM     21  C   UNL     1      45.004   3.651  24.453  1.00  0.00    -0.000 C 
BRANCH  21  22
ATOM     22  C   UNL     1      44.368   4.441  23.296  1.00  0.00    -0.000 C 
BRANCH  22  23
ATOM     23  C   UNL     1      42.836   4.515  23.390  1.00  0.00    -0.000 C 
BRANCH  23  24
ATOM     24  C   UNL     1      42.181   3.359  22.619  1.00  0.00    -0.000 C 
BRANCH  24  25
ATOM     25  C   UNL     1      40.921   2.824  23.318  1.00  0.00    -0.003 C 
ATOM     26  C   UNL     1      40.113   3.924  24.005  1.00  0.00     0.004 C 
ENDBRANCH  24  25
ENDBRANCH  23  24
ENDBRANCH  22  23
ENDBRANCH  21  22
ENDBRANCH  20  21
ENDBRANCH  19  20
ENDBRANCH  18  19
ENDBRANCH  17  18
ENDBRANCH  16  17
ENDBRANCH  15  16
ENDBRANCH   1  15
TORSDOF 22
ENDMDL
MODEL 2
REMARK VINA RESULT:    -4.288      1.418      3.805
REMARK INTER + INTRA:         -13.820
REMARK INTER:                 -10.857
REMARK INTRA:                  -2.963
REMARK UNBOUND:                -4.018
REMARK SMILES CCCCCCCCCCCCCCCCCCCCCCCC(=O)[O-]
REMARK SMILES IDX 13 1 14 2 15 3 16 4 17 5 18 6 19 7 20 8 21 9 22 10 23 11
REMARK SMILES IDX 24 12 25 13 26 14 12 15 11 16 10 17 9 18 8 19 7 20 6 21 5 22
REMARK SMILES IDX 4 23 3 24 2 25 1 26
REMARK H PARENT
REMARK Flexibility Score: inf
ROOT
ATOM      1  C   UNL     1      42.459   1.435  17.646  1.00  0.00     0.000 C 
ENDROOT
BRANCH   1   2
ATOM      2  C   UNL     1      43.591   2.427  17.968  1.00  0.00     0.000 C 
BRANCH   2   3
ATOM      3  C   UNL     1      43.824   2.578  19.481  1.00  0.00     0.000 C 
BRANCH   3   4
ATOM      4  C   UNL     1      45.293   2.367  19.878  1.00  0.00     0.000 C 
BRANCH   4   5
ATOM      5  C   UNL     1      45.435   2.271  21.402  1.00  0.00     0.000 C 
BRANCH   5   6
ATOM      6  C   UNL     1      46.616   1.373  21.795  1.00  0.00     0.000 C 
BRANCH   6   7
ATOM      7  C   UNL     1      47.536   1.040  20.607  1.00  0.00     0.000 C 
BRANCH   7   8
ATOM      8  C   UNL     1      48.448  -0.180  20.853  1.00  0.00     0.000 C 
BRANCH   8   9
ATOM      9  C   UNL     1      49.807   0.220  21.446  1.00  0.00     0.000 C 
BRANCH   9  10
ATOM     10  C   UNL     1      50.878  -0.835  21.129  1.00  0.00     0.006 C 
BRANCH  10  11
ATOM     11  C   UNL     1      50.865  -1.249  19.652  1.00  0.00     0.053 C 
BRANCH  11  12
ATOM     12  C   UNL     1      52.055  -0.713  18.915  1.00  0.00     0.041 C 
ATOM     13  O   UNL     1      52.073  -0.714  17.656  1.00  0.00    -0.550 OA
ATOM     14  O   UNL     1      53.121  -0.165  19.618  1.00  0.00    -0.550 OA
ENDBRANCH  11  12
ENDBRANCH  10  11
ENDBRANCH   9  10
ENDBRANCH   8   9
ENDBRANCH   7   8
ENDBRANCH   6   7
ENDBRANCH   5   6
ENDBRANCH   4   5
ENDBRANCH   3   4
ENDBRANCH   2   3
ENDBRANCH   1   2
BRANCH   1  15
ATOM     15  C   UNL     1      41.739   0.932  18.908  1.00  0.00     0.000 C 
BRANCH  15  16
ATOM     16  C   UNL     1      41.509  -0.591  18.893  1.00  0.00     0.000 C 
BRANCH  16  17
ATOM     17  C   UNL     1      41.859  -1.250  20.244  1.00  0.00     0.000 C 
BRANCH  17  18
ATOM     18  C   UNL     1      42.213  -0.246  21.357  1.00  0.00    -0.000 C 
BRANCH  18  19
ATOM     19  C   UNL     1      43.392  -0.654  22.256  1.00  0.00    -0.000 C 
BRANCH  19  20
ATOM     20  C   UNL     1      43.247  -0.139  23.699  1.00  0.00    -0.000 C 
BRANCH  20  21
ATOM     21  C   UNL     1      44.586  -0.111  24.461  1.00  0.00    -0.000 C 
BRANCH  21  22
ATOM     22  C   UNL     1      44.948   1.242  25.099  1.00  0.00    -0.000 C 
BRANCH  22  23
ATOM     23  C   UNL     1      43.878   1.749  26.078  1.00  0.00    -0.000 C 
BRANCH  23  24
ATOM     24  C   UNL     1      43.437   3.177  25.720  1.00  0.00    -0.000 C 
BRANCH  24  25
ATOM     25  C   UNL     1      43.761   3.546  24.265  1.00  0.00    -0.003 C 
ATOM     26  C   UNL     1      42.538   3.477  23.350  1.00  0.00     0.004 C 
ENDBRANCH  24  25
ENDBRANCH  23  24
ENDBRANCH  22  23
ENDBRANCH  21  22
ENDBRANCH  20  21
ENDBRANCH  19  20
ENDBRANCH  18  19
ENDBRANCH  17  18
ENDBRANCH  16  17
ENDBRANCH  15  16
ENDBRANCH   1  15
TORSDOF 22
ENDMDL
MODEL 3
REMARK VINA RESULT:    -4.257      2.872      7.233
REMARK INTER + INTRA:         -13.750
REMARK INTER:                 -10.328
REMARK INTRA:                  -3.422
REMARK UNBOUND:                -4.018
REMARK SMILES CCCCCCCCCCCCCCCCCCCCCCCC(=O)[O-]
REMARK SMILES IDX 13 1 14 2 15 3 16 4 17 5 18 6 19 7 20 8 21 9 22 10 23 11
REMARK SMILES IDX 24 12 25 13 26 14 12 15 11 16 10 17 9 18 8 19 7 20 6 21 5 22
REMARK SMILES IDX 4 23 3 24 2 25 1 26
REMARK H PARENT
REMARK Flexibility Score: inf
ROOT
ATOM      1  C   UNL     1      45.726   2.367  21.606  1.00  0.00     0.000 C 
ENDROOT
BRANCH   1   2
ATOM      2  C   UNL     1      44.500   2.777  20.771  1.00  0.00     0.000 C 
BRANCH   2   3
ATOM      3  C   UNL     1      44.759   2.668  19.259  1.00  0.00     0.000 C 
BRANCH   3   4
ATOM      4  C   UNL     1      43.513   2.231  18.475  1.00  0.00     0.000 C 
BRANCH   4   5
ATOM      5  C   UNL     1      42.386   1.819  19.431  1.00  0.00     0.000 C 
BRANCH   5   6
ATOM      6  C   UNL     1      41.718   0.515  18.973  1.00  0.00     0.000 C 
BRANCH   6   7
ATOM      7  C   UNL     1      41.834  -0.615  20.012  1.00  0.00     0.000 C 
BRANCH   7   8
ATOM      8  C   UNL     1      42.319  -0.136  21.396  1.00  0.00     0.000 C 
BRANCH   8   9
ATOM      9  C   UNL     1      43.631  -0.812  21.819  1.00  0.00     0.000 C 
BRANCH   9  10
ATOM     10  C   UNL     1      44.039  -0.386  23.237  1.00  0.00     0.006 C 
BRANCH  10  11
ATOM     11  C   UNL     1      43.026   0.579  23.866  1.00  0.00     0.053 C 
BRANCH  11  12
ATOM     12  C   UNL     1      43.692   1.572  24.769  1.00  0.00     0.041 C 
ATOM     13  O   UNL     1      43.115   2.654  25.055  1.00  0.00    -0.550 OA
ATOM     14  O   UNL     1      44.926   1.280  25.336  1.00  0.00    -0.550 OA
ENDBRANCH  11  12
ENDBRANCH  10  11
ENDBRANCH   9  10
ENDBRANCH   8   9
ENDBRANCH   7   8
ENDBRANCH   6   7
ENDBRANCH   5   6
ENDBRANCH   4   5
ENDBRANCH   3   4
ENDBRANCH   2   3
ENDBRANCH   1   2
BRANCH   1  15
ATOM     15  C   UNL     1      46.808   1.672  20.763  1.00  0.00     0.000 C 
BRANCH  15  16
ATOM     16  C   UNL     1      47.717   0.756  21.603  1.00  0.00     0.000 C 
BRANCH  16  17
ATOM     17  C   UNL     1      48.619  -0.139  20.727  1.00  0.00     0.000 C 
BRANCH  17  18
ATOM     18  C   UNL     1      50.058  -0.287  21.257  1.00  0.00    -0.000 C 
BRANCH  18  19
ATOM     19  C   UNL     1      50.986  -1.161  20.397  1.00  0.00    -0.000 C 
BRANCH  19  20
ATOM     20  C   UNL     1      52.441  -0.660  20.391  1.00  0.00    -0.000 C 
BRANCH  20  21
ATOM     21  C   UNL     1      52.956  -0.339  18.975  1.00  0.00    -0.000 C 
BRANCH  21  22
ATOM     22  C   UNL     1      51.916  -0.492  17.850  1.00  0.00    -0.000 C 
BRANCH  22  23
ATOM     23  C   UNL     1      51.521   0.848  17.212  1.00  0.00    -0.000 C 
BRANCH  23  24
ATOM     24  C   UNL     1      50.153   1.321  17.727  1.00  0.00    -0.000 C 
BRANCH  24  25
ATOM     25  C   UNL     1      50.207   2.733  18.330  1.00  0.00    -0.003 C 
ATOM     26  C   UNL     1      51.040   2.800  19.610  1.00  0.00     0.004 C 
ENDBRANCH  24  25
ENDBRANCH  23  24
ENDBRANCH  22  23
ENDBRANCH  21  22
ENDBRANCH  20  21
ENDBRANCH  19  20
ENDBRANCH  18  19
ENDBRANCH  17  18
ENDBRANCH  16  17
ENDBRANCH  15  16
ENDBRANCH   1  15
TORSDOF 22
ENDMDL
MODEL 4
REMARK VINA RESULT:    -4.257      3.772      8.252
REMARK INTER + INTRA:         -13.749
REMARK INTER:                 -10.616
REMARK INTRA:                  -3.133
REMARK UNBOUND:                -4.018
REMARK SMILES CCCCCCCCCCCCCCCCCCCCCCCC(=O)[O-]
REMARK SMILES IDX 13 1 14 2 15 3 16 4 17 5 18 6 19 7 20 8 21 9 22 10 23 11
REMARK SMILES IDX 24 12 25 13 26 14 12 15 11 16 10 17 9 18 8 19 7 20 6 21 5 22
REMARK SMILES IDX 4 23 3 24 2 25 1 26
REMARK H PARENT
REMARK Flexibility Score: inf
ROOT
ATOM      1  C   UNL     1      48.457   0.013  20.880  1.00  0.00     0.000 C 
ENDROOT
BRANCH   1   2
ATOM      2  C   UNL     1      47.763   1.155  21.643  1.00  0.00     0.000 C 
BRANCH   2   3
ATOM      3  C   UNL     1      46.361   0.762  22.138  1.00  0.00     0.000 C 
BRANCH   3   4
ATOM      4  C   UNL     1      45.470   1.980  22.423  1.00  0.00     0.000 C 
BRANCH   4   5
ATOM      5  C   UNL     1      45.177   2.099  23.924  1.00  0.00     0.000 C 
BRANCH   5   6
ATOM      6  C   UNL     1      45.228   0.726  24.610  1.00  0.00     0.000 C 
BRANCH   6   7
ATOM      7  C   UNL     1      43.836   0.196  24.994  1.00  0.00     0.000 C 
BRANCH   7   8
ATOM      8  C   UNL     1      43.239  -0.782  23.960  1.00  0.00     0.000 C 
BRANCH   8   9
ATOM      9  C   UNL     1      42.439  -0.057  22.867  1.00  0.00     0.000 C 
BRANCH   9  10
ATOM     10  C   UNL     1      42.867  -0.526  21.469  1.00  0.00     0.006 C 
BRANCH  10  11
ATOM     11  C   UNL     1      42.495   0.487  20.378  1.00  0.00     0.053 C 
BRANCH  11  12
ATOM     12  C   UNL     1      41.570  -0.109  19.360  1.00  0.00     0.041 C 
ATOM     13  O   UNL     1      41.101  -1.265  19.531  1.00  0.00    -0.550 OA
ATOM     14  O   UNL     1      41.185   0.633  18.250  1.00  0.00    -0.550 OA
ENDBRANCH  11  12
ENDBRANCH  10  11
ENDBRANCH   9  10
ENDBRANCH   8   9
ENDBRANCH   7   8
ENDBRANCH   6   7
ENDBRANCH   5   6
ENDBRANCH   4   5
ENDBRANCH   3   4
ENDBRANCH   2   3
ENDBRANCH   1   2
BRANCH   1  15
ATOM     15  C   UNL     1      49.923  -0.174  21.305  1.00  0.00     0.000 C 
BRANCH  15  16
ATOM     16  C   UNL     1      50.736  -0.990  20.284  1.00  0.00     0.000 C 
BRANCH  16  17
ATOM     17  C   UNL     1      52.257  -0.786  20.448  1.00  0.00     0.000 C 
BRANCH  17  18
ATOM     18  C   UNL     1      52.946  -0.189  19.206  1.00  0.00    -0.000 C 
BRANCH  18  19
ATOM     19  C   UNL     1      52.364  -0.638  17.855  1.00  0.00    -0.000 C 
BRANCH  19  20
ATOM     20  C   UNL     1      51.845   0.538  17.009  1.00  0.00    -0.000 C 
BRANCH  20  21
ATOM     21  C   UNL     1      51.657   1.828  17.830  1.00  0.00    -0.000 C 
BRANCH  21  22
ATOM     22  C   UNL     1      50.206   2.132  18.246  1.00  0.00    -0.000 C 
BRANCH  22  23
ATOM     23  C   UNL     1      50.114   3.096  19.439  1.00  0.00    -0.000 C 
BRANCH  23  24
ATOM     24  C   UNL     1      51.405   3.066  20.271  1.00  0.00    -0.000 C 
BRANCH  24  25
ATOM     25  C   UNL     1      51.739   4.432  20.889  1.00  0.00    -0.003 C 
ATOM     26  C   UNL     1      52.268   5.434  19.864  1.00  0.00     0.004 C 
ENDBRANCH  24  25
ENDBRANCH  23  24
ENDBRANCH  22  23
ENDBRANCH  21  22
ENDBRANCH  20  21
ENDBRANCH  19  20
ENDBRANCH  18  19
ENDBRANCH  17  18
ENDBRANCH  16  17
ENDBRANCH  15  16
ENDBRANCH   1  15
TORSDOF 22
ENDMDL
MODEL 5
REMARK VINA RESULT:    -4.206      2.608      7.265
REMARK INTER + INTRA:         -13.634
REMARK INTER:                 -10.942
REMARK INTRA:                  -2.692
REMARK UNBOUND:                -4.018
REMARK SMILES CCCCCCCCCCCCCCCCCCCCCCCC(=O)[O-]
REMARK SMILES IDX 13 1 14 2 15 3 16 4 17 5 18 6 19 7 20 8 21 9 22 10 23 11
REMARK SMILES IDX 24 12 25 13 26 14 12 15 11 16 10 17 9 18 8 19 7 20 6 21 5 22
REMARK SMILES IDX 4 23 3 24 2 25 1 26
REMARK H PARENT
REMARK Flexibility Score: inf
ROOT
ATOM      1  C   UNL     1      44.533   3.358  20.188  1.00  0.00     0.000 C 
ENDROOT
BRANCH   1   2
ATOM      2  C   UNL     1      43.301   2.788  19.463  1.00  0.00     0.000 C 
BRANCH   2   3
ATOM      3  C   UNL     1      43.648   2.222  18.076  1.00  0.00     0.000 C 
BRANCH   3   4
ATOM      4  C   UNL     1      42.605   1.214  17.570  1.00  0.00     0.000 C 
BRANCH   4   5
ATOM      5  C   UNL     1      41.612   0.856  18.683  1.00  0.00     0.000 C 
BRANCH   5   6
ATOM      6  C   UNL     1      41.663  -0.643  19.012  1.00  0.00     0.000 C 
BRANCH   6   7
ATOM      7  C   UNL     1      41.524  -0.931  20.517  1.00  0.00     0.000 C 
BRANCH   7   8
ATOM      8  C   UNL     1      42.691  -0.380  21.364  1.00  0.00     0.000 C 
BRANCH   8   9
ATOM      9  C   UNL     1      42.282   0.852  22.185  1.00  0.00     0.000 C 
BRANCH   9  10
ATOM     10  C   UNL     1      42.786   0.740  23.632  1.00  0.00     0.006 C 
BRANCH  10  11
ATOM     11  C   UNL     1      43.317  -0.662  23.955  1.00  0.00     0.053 C 
BRANCH  11  12
ATOM     12  C   UNL     1      44.672  -0.610  24.593  1.00  0.00     0.041 C 
ATOM     13  O   UNL     1      45.384   0.422  24.479  1.00  0.00    -0.550 OA
ATOM     14  O   UNL     1      45.125  -1.678  25.356  1.00  0.00    -0.550 OA
ENDBRANCH  11  12
ENDBRANCH  10  11
ENDBRANCH   9  10
ENDBRANCH   8   9
ENDBRANCH   7   8
ENDBRANCH   6   7
ENDBRANCH   5   6
ENDBRANCH   4   5
ENDBRANCH   3   4
ENDBRANCH   2   3
ENDBRANCH   1   2
BRANCH   1  15
ATOM     15  C   UNL     1      45.778   2.471  20.021  1.00  0.00     0.000 C 
BRANCH  15  16
ATOM     16  C   UNL     1      46.029   1.566  21.242  1.00  0.00     0.000 C 
BRANCH  16  17
ATOM     17  C   UNL     1      47.381   0.826  21.154  1.00  0.00     0.000 C 
BRANCH  17  18
ATOM     18  C   UNL     1      48.497   1.640  20.473  1.00  0.00    -0.000 C 
BRANCH  18  19
ATOM     19  C   UNL     1      49.850   0.921  20.349  1.00  0.00    -0.000 C 
BRANCH  19  20
ATOM     20  C   UNL     1      49.732  -0.605  20.515  1.00  0.00    -0.000 C 
BRANCH  20  21
ATOM     21  C   UNL     1      51.047  -1.344  20.205  1.00  0.00    -0.000 C 
BRANCH  21  22
ATOM     22  C   UNL     1      52.330  -0.533  20.462  1.00  0.00    -0.000 C 
BRANCH  22  23
ATOM     23  C   UNL     1      53.125  -0.244  19.180  1.00  0.00    -0.000 C 
BRANCH  23  24
ATOM     24  C   UNL     1      52.340  -0.686  17.935  1.00  0.00    -0.000 C 
BRANCH  24  25
ATOM     25  C   UNL     1      51.785   0.503  17.137  1.00  0.00    -0.003 C 
ATOM     26  C   UNL     1      52.574   1.792  17.367  1.00  0.00     0.004 C 
ENDBRANCH  24  25
ENDBRANCH  23  24
ENDBRANCH  22  23
ENDBRANCH  21  22
ENDBRANCH  20  21
ENDBRANCH  19  20
ENDBRANCH  18  19
ENDBRANCH  17  18
ENDBRANCH  16  17
ENDBRANCH  15  16
ENDBRANCH   1  15
TORSDOF 22
ENDMDL
MODEL 6
REMARK VINA RESULT:    -4.191      1.619      4.238
REMARK INTER + INTRA:         -13.600
REMARK INTER:                 -10.200
REMARK INTRA:                  -3.400
REMARK UNBOUND:                -4.018
REMARK SMILES CCCCCCCCCCCCCCCCCCCCCCCC(=O)[O-]
REMARK SMILES IDX 13 1 14 2 15 3 16 4 17 5 18 6 19 7 20 8 21 9 22 10 23 11
REMARK SMILES IDX 24 12 25 13 26 14 12 15 11 16 10 17 9 18 8 19 7 20 6 21 5 22
REMARK SMILES IDX 4 23 3 24 2 25 1 26
REMARK H PARENT
REMARK Flexibility Score: inf
ROOT
ATOM      1  C   UNL     1      42.221   3.314  21.898  1.00  0.00     0.000 C 
ENDROOT
BRANCH   1   2
ATOM      2  C   UNL     1      43.211   4.489  21.983  1.00  0.00     0.000 C 
BRANCH   2   3
ATOM      3  C   UNL     1      44.572   4.155  21.350  1.00  0.00     0.000 C 
BRANCH   3   4
ATOM      4  C   UNL     1      44.440   3.353  20.047  1.00  0.00     0.000 C 
BRANCH   4   5
ATOM      5  C   UNL     1      45.179   2.014  20.156  1.00  0.00     0.000 C 
BRANCH   5   6
ATOM      6  C   UNL     1      46.698   2.222  20.233  1.00  0.00     0.000 C 
BRANCH   6   7
ATOM      7  C   UNL     1      47.335   1.541  21.457  1.00  0.00     0.000 C 
BRANCH   7   8
ATOM      8  C   UNL     1      48.878   1.542  21.433  1.00  0.00     0.000 C 
BRANCH   8   9
ATOM      9  C   UNL     1      49.442   0.625  20.336  1.00  0.00     0.000 C 
BRANCH   9  10
ATOM     10  C   UNL     1      50.786   0.018  20.764  1.00  0.00     0.006 C 
BRANCH  10  11
ATOM     11  C   UNL     1      51.120  -1.259  19.982  1.00  0.00     0.053 C 
BRANCH  11  12
ATOM     12  C   UNL     1      51.882  -0.959  18.728  1.00  0.00     0.041 C 
ATOM     13  O   UNL     1      51.388  -1.241  17.604  1.00  0.00    -0.550 OA
ATOM     14  O   UNL     1      53.114  -0.320  18.796  1.00  0.00    -0.550 OA
ENDBRANCH  11  12
ENDBRANCH  10  11
ENDBRANCH   9  10
ENDBRANCH   8   9
ENDBRANCH   7   8
ENDBRANCH   6   7
ENDBRANCH   5   6
ENDBRANCH   4   5
ENDBRANCH   3   4
ENDBRANCH   2   3
ENDBRANCH   1   2
BRANCH   1  15
ATOM     15  C   UNL     1      41.671   2.906  23.275  1.00  0.00     0.000 C 
BRANCH  15  16
ATOM     16  C   UNL     1      42.687   3.131  24.410  1.00  0.00     0.000 C 
BRANCH  16  17
ATOM     17  C   UNL     1      43.357   1.817  24.866  1.00  0.00     0.000 C 
BRANCH  17  18
ATOM     18  C   UNL     1      44.700   1.525  24.170  1.00  0.00    -0.000 C 
BRANCH  18  19
ATOM     19  C   UNL     1      44.818   0.129  23.537  1.00  0.00    -0.000 C 
BRANCH  19  20
ATOM     20  C   UNL     1      43.452  -0.480  23.176  1.00  0.00    -0.000 C 
BRANCH  20  21
ATOM     21  C   UNL     1      43.248  -0.632  21.657  1.00  0.00    -0.000 C 
BRANCH  21  22
ATOM     22  C   UNL     1      41.866  -0.198  21.136  1.00  0.00    -0.000 C 
BRANCH  22  23
ATOM     23  C   UNL     1      41.379  -1.045  19.950  1.00  0.00    -0.000 C 
BRANCH  23  24
ATOM     24  C   UNL     1      41.589  -0.303  18.621  1.00  0.00    -0.000 C 
BRANCH  24  25
ATOM     25  C   UNL     1      41.536   1.224  18.785  1.00  0.00    -0.003 C 
ATOM     26  C   UNL     1      41.874   1.970  17.495  1.00  0.00     0.004 C 
ENDBRANCH  24  25
ENDBRANCH  23  24
ENDBRANCH  22  23
ENDBRANCH  21  22
ENDBRANCH  20  21
ENDBRANCH  19  20
ENDBRANCH  18  19
ENDBRANCH  17  18
ENDBRANCH  16  17
ENDBRANCH  15  16
ENDBRANCH   1  15
TORSDOF 22
ENDMDL
MODEL 7
REMARK VINA RESULT:    -4.175      2.651      6.811
REMARK INTER + INTRA:         -13.562
REMARK INTER:                 -10.811
REMARK INTRA:                  -2.752
REMARK UNBOUND:                -4.018
REMARK SMILES CCCCCCCCCCCCCCCCCCCCCCCC(=O)[O-]
REMARK SMILES IDX 13 1 14 2 15 3 16 4 17 5 18 6 19 7 20 8 21 9 22 10 23 11
REMARK SMILES IDX 24 12 25 13 26 14 12 15 11 16 10 17 9 18 8 19 7 20 6 21 5 22
REMARK SMILES IDX 4 23 3 24 2 25 1 26
REMARK H PARENT
REMARK Flexibility Score: inf
ROOT
ATOM      1  C   UNL     1      42.803   2.799  20.495  1.00  0.00     0.000 C 
ENDROOT
BRANCH   1   2
ATOM      2  C   UNL     1      42.957   2.407  19.015  1.00  0.00     0.000 C 
BRANCH   2   3
ATOM      3  C   UNL     1      41.694   1.735  18.452  1.00  0.00     0.000 C 
BRANCH   3   4
ATOM      4  C   UNL     1      41.899   0.243  18.152  1.00  0.00     0.000 C 
BRANCH   4   5
ATOM      5  C   UNL     1      41.240  -0.624  19.231  1.00  0.00     0.000 C 
BRANCH   5   6
ATOM      6  C   UNL     1      42.274  -1.127  20.248  1.00  0.00     0.000 C 
BRANCH   6   7
ATOM      7  C   UNL     1      42.235  -0.352  21.576  1.00  0.00     0.000 C 
BRANCH   7   8
ATOM      8  C   UNL     1      43.465  -0.600  22.474  1.00  0.00     0.000 C 
BRANCH   8   9
ATOM      9  C   UNL     1      43.115  -0.543  23.969  1.00  0.00     0.000 C 
BRANCH   9  10
ATOM     10  C   UNL     1      44.364  -0.758  24.836  1.00  0.00     0.006 C 
BRANCH  10  11
ATOM     11  C   UNL     1      45.247   0.496  24.903  1.00  0.00     0.053 C 
BRANCH  11  12
ATOM     12  C   UNL     1      44.486   1.684  25.408  1.00  0.00     0.041 C 
ATOM     13  O   UNL     1      43.954   1.656  26.549  1.00  0.00    -0.550 OA
ATOM     14  O   UNL     1      44.410   2.840  24.642  1.00  0.00    -0.550 OA
ENDBRANCH  11  12
ENDBRANCH  10  11
ENDBRANCH   9  10
ENDBRANCH   8   9
ENDBRANCH   7   8
ENDBRANCH   6   7
ENDBRANCH   5   6
ENDBRANCH   4   5
ENDBRANCH   3   4
ENDBRANCH   2   3
ENDBRANCH   1   2
BRANCH   1  15
ATOM     15  C   UNL     1      44.157   3.022  21.189  1.00  0.00     0.000 C 
BRANCH  15  16
ATOM     16  C   UNL     1      45.255   2.079  20.663  1.00  0.00     0.000 C 
BRANCH  16  17
ATOM     17  C   UNL     1      46.403   1.891  21.678  1.00  0.00     0.000 C 
BRANCH  17  18
ATOM     18  C   UNL     1      47.106   0.524  21.581  1.00  0.00    -0.000 C 
BRANCH  18  19
ATOM     19  C   UNL     1      48.378   0.502  20.716  1.00  0.00    -0.000 C 
BRANCH  19  20
ATOM     20  C   UNL     1      49.578  -0.138  21.437  1.00  0.00    -0.000 C 
BRANCH  20  21
ATOM     21  C   UNL     1      50.450  -0.995  20.500  1.00  0.00    -0.000 C 
BRANCH  21  22
ATOM     22  C   UNL     1      51.954  -0.663  20.522  1.00  0.00    -0.000 C 
BRANCH  22  23
ATOM     23  C   UNL     1      52.400   0.178  19.316  1.00  0.00    -0.000 C 
BRANCH  23  24
ATOM     24  C   UNL     1      52.853   1.577  19.759  1.00  0.00    -0.000 C 
BRANCH  24  25
ATOM     25  C   UNL     1      51.939   2.689  19.221  1.00  0.00    -0.003 C 
ATOM     26  C   UNL     1      50.800   2.153  18.354  1.00  0.00     0.004 C 
ENDBRANCH  24  25
ENDBRANCH  23  24
ENDBRANCH  22  23
ENDBRANCH  21  22
ENDBRANCH  20  21
ENDBRANCH  19  20
ENDBRANCH  18  19
ENDBRANCH  17  18
ENDBRANCH  16  17
ENDBRANCH  15  16
ENDBRANCH   1  15
TORSDOF 22
ENDMDL
MODEL 8
REMARK VINA RESULT:    -4.164      2.838      7.085
REMARK INTER + INTRA:         -13.536
REMARK INTER:                 -10.208
REMARK INTRA:                  -3.329
REMARK UNBOUND:                -4.018
REMARK SMILES CCCCCCCCCCCCCCCCCCCCCCCC(=O)[O-]
REMARK SMILES IDX 13 1 14 2 15 3 16 4 17 5 18 6 19 7 20 8 21 9 22 10 23 11
REMARK SMILES IDX 24 12 25 13 26 14 12 15 11 16 10 17 9 18 8 19 7 20 6 21 5 22
REMARK SMILES IDX 4 23 3 24 2 25 1 26
REMARK H PARENT
REMARK Flexibility Score: inf
ROOT
ATOM      1  C   UNL     1      43.559   4.014  23.766  1.00  0.00     0.000 C 
ENDROOT
BRANCH   1   2
ATOM      2  C   UNL     1      44.102   3.235  24.976  1.00  0.00     0.000 C 
BRANCH   2   3
ATOM      3  C   UNL     1      43.684   1.755  24.957  1.00  0.00     0.000 C 
BRANCH   3   4
ATOM      4  C   UNL     1      44.881   0.799  25.061  1.00  0.00     0.000 C 
BRANCH   4   5
ATOM      5  C   UNL     1      44.521  -0.585  24.505  1.00  0.00     0.000 C 
BRANCH   5   6
ATOM      6  C   UNL     1      43.245  -0.526  23.653  1.00  0.00     0.000 C 
BRANCH   6   7
ATOM      7  C   UNL     1      43.528  -0.615  22.144  1.00  0.00     0.000 C 
BRANCH   7   8
ATOM      8  C   UNL     1      42.357  -0.128  21.264  1.00  0.00     0.000 C 
BRANCH   8   9
ATOM      9  C   UNL     1      41.939  -1.175  20.221  1.00  0.00     0.000 C 
BRANCH   9  10
ATOM     10  C   UNL     1      41.556  -0.506  18.893  1.00  0.00     0.006 C 
BRANCH  10  11
ATOM     11  C   UNL     1      42.099   0.925  18.786  1.00  0.00     0.053 C 
BRANCH  11  12
ATOM     12  C   UNL     1      42.417   1.294  17.369  1.00  0.00     0.041 C 
ATOM     13  O   UNL     1      43.305   0.664  16.736  1.00  0.00    -0.550 OA
ATOM     14  O   UNL     1      41.697   2.296  16.731  1.00  0.00    -0.550 OA
ENDBRANCH  11  12
ENDBRANCH  10  11
ENDBRANCH   9  10
ENDBRANCH   8   9
ENDBRANCH   7   8
ENDBRANCH   6   7
ENDBRANCH   5   6
ENDBRANCH   4   5
ENDBRANCH   3   4
ENDBRANCH   2   3
ENDBRANCH   1   2
BRANCH   1  15
ATOM     15  C   UNL     1      42.393   3.288  23.073  1.00  0.00     0.000 C 
BRANCH  15  16
ATOM     16  C   UNL     1      42.507   3.315  21.538  1.00  0.00     0.000 C 
BRANCH  16  17
ATOM     17  C   UNL     1      43.820   3.970  21.059  1.00  0.00     0.000 C 
BRANCH  17  18
ATOM     18  C   UNL     1      44.789   2.995  20.363  1.00  0.00    -0.000 C 
BRANCH  18  19
ATOM     19  C   UNL     1      46.205   2.941  20.958  1.00  0.00    -0.000 C 
BRANCH  19  20
ATOM     20  C   UNL     1      46.342   1.894  22.078  1.00  0.00    -0.000 C 
BRANCH  20  21
ATOM     21  C   UNL     1      47.034   0.602  21.607  1.00  0.00    -0.000 C 
BRANCH  21  22
ATOM     22  C   UNL     1      48.559   0.562  21.818  1.00  0.00    -0.000 C 
BRANCH  22  23
ATOM     23  C   UNL     1      49.346   0.524  20.499  1.00  0.00    -0.000 C 
BRANCH  23  24
ATOM     24  C   UNL     1      50.146  -0.781  20.373  1.00  0.00    -0.000 C 
BRANCH  24  25
ATOM     25  C   UNL     1      51.380  -0.631  19.471  1.00  0.00    -0.003 C 
ATOM     26  C   UNL     1      52.170   0.646  19.755  1.00  0.00     0.004 C 
ENDBRANCH  24  25
ENDBRANCH  23  24
ENDBRANCH  22  23
ENDBRANCH  21  22
ENDBRANCH  20  21
ENDBRANCH  19  20
ENDBRANCH  18  19
ENDBRANCH  17  18
ENDBRANCH  16  17
ENDBRANCH  15  16
ENDBRANCH   1  15
TORSDOF 22
ENDMDL
MODEL 9
REMARK VINA RESULT:    -4.133      1.107      4.572
REMARK INTER + INTRA:         -13.467
REMARK INTER:                  -9.886
REMARK INTRA:                  -3.581
REMARK UNBOUND:                -4.018
REMARK SMILES CCCCCCCCCCCCCCCCCCCCCCCC(=O)[O-]
REMARK SMILES IDX 13 1 14 2 15 3 16 4 17 5 18 6 19 7 20 8 21 9 22 10 23 11
REMARK SMILES IDX 24 12 25 13 26 14 12 15 11 16 10 17 9 18 8 19 7 20 6 21 5 22
REMARK SMILES IDX 4 23 3 24 2 25 1 26
REMARK H PARENT
REMARK Flexibility Score: inf
ROOT
ATOM      1  C   UNL     1      44.417   1.434  24.773  1.00  0.00     0.000 C 
ENDROOT
BRANCH   1   2
ATOM      2  C   UNL     1      44.206   2.360  25.983  1.00  0.00     0.000 C 
BRANCH   2   3
ATOM      3  C   UNL     1      44.507   3.832  25.654  1.00  0.00     0.000 C 
BRANCH   3   4
ATOM      4  C   UNL     1      44.443   4.128  24.148  1.00  0.00     0.000 C 
BRANCH   4   5
ATOM      5  C   UNL     1      45.461   5.209  23.764  1.00  0.00     0.000 C 
BRANCH   5   6
ATOM      6  C   UNL     1      46.671   4.601  23.041  1.00  0.00     0.000 C 
BRANCH   6   7
ATOM      7  C   UNL     1      46.308   3.360  22.206  1.00  0.00     0.000 C 
BRANCH   7   8
ATOM      8  C   UNL     1      47.519   2.464  21.870  1.00  0.00     0.000 C 
BRANCH   8   9
ATOM      9  C   UNL     1      47.179   0.969  21.961  1.00  0.00     0.000 C 
BRANCH   9  10
ATOM     10  C   UNL     1      47.866   0.179  20.837  1.00  0.00     0.006 C 
BRANCH  10  11
ATOM     11  C   UNL     1      49.040   0.949  20.220  1.00  0.00     0.053 C 
BRANCH  11  12
ATOM     12  C   UNL     1      50.358   0.336  20.584  1.00  0.00     0.041 C 
ATOM     13  O   UNL     1      51.413   0.718  20.012  1.00  0.00    -0.550 OA
ATOM     14  O   UNL     1      50.429  -0.617  21.592  1.00  0.00    -0.550 OA
ENDBRANCH  11  12
ENDBRANCH  10  11
ENDBRANCH   9  10
ENDBRANCH   8   9
ENDBRANCH   7   8
ENDBRANCH   6   7
ENDBRANCH   5   6
ENDBRANCH   4   5
ENDBRANCH   3   4
ENDBRANCH   2   3
ENDBRANCH   1   2
BRANCH   1  15
ATOM     15  C   UNL     1      43.868   0.018  25.012  1.00  0.00     0.000 C 
BRANCH  15  16
ATOM     16  C   UNL     1      43.110  -0.538  23.791  1.00  0.00     0.000 C 
BRANCH  16  17
ATOM     17  C   UNL     1      43.860  -0.277  22.468  1.00  0.00     0.000 C 
BRANCH  17  18
ATOM     18  C   UNL     1      43.236  -0.980  21.247  1.00  0.00    -0.000 C 
BRANCH  18  19
ATOM     19  C   UNL     1      41.771  -0.612  20.957  1.00  0.00    -0.000 C 
BRANCH  19  20
ATOM     20  C   UNL     1      41.337  -0.973  19.525  1.00  0.00    -0.000 C 
BRANCH  20  21
ATOM     21  C   UNL     1      41.824   0.047  18.479  1.00  0.00    -0.000 C 
BRANCH  21  22
ATOM     22  C   UNL     1      41.655   1.525  18.877  1.00  0.00    -0.000 C 
BRANCH  22  23
ATOM     23  C   UNL     1      42.986   2.290  18.921  1.00  0.00    -0.000 C 
BRANCH  23  24
ATOM     24  C   UNL     1      43.359   2.664  20.364  1.00  0.00    -0.000 C 
BRANCH  24  25
ATOM     25  C   UNL     1      42.238   3.433  21.081  1.00  0.00    -0.003 C 
ATOM     26  C   UNL     1      41.798   2.762  22.382  1.00  0.00     0.004 C 
ENDBRANCH  24  25
ENDBRANCH  23  24
ENDBRANCH  22  23
ENDBRANCH  21  22
ENDBRANCH  20  21
ENDBRANCH  19  20
ENDBRANCH  18  19
ENDBRANCH  17  18
ENDBRANCH  16  17
ENDBRANCH  15  16
ENDBRANCH   1  15
TORSDOF 22
ENDMDL
