MODEL 1
REMARK VINA RESULT:    -4.300      0.000      0.000
REMARK INTER + INTRA:          -4.951
REMARK INTER:                  -4.929
REMARK INTRA:                  -0.022
REMARK UNBOUND:                -0.022
REMARK SMILES CC(C)[C@@H]([NH3+])C(=O)[O-]
REMARK SMILES IDX 4 1 5 2 6 6 7 7 8 8 2 9 1 10 3 11
REMARK H PARENT 5 3 5 4 5 5
REMARK Flexibility Score: inf
ROOT
ATOM      1  C   UNL     1      19.458   0.195 -16.425  1.00  0.00     0.230 C 
ENDROOT
BRANCH   1   2
ATOM      2  N   UNL     1      18.686   0.458 -17.651  1.00  0.00    -0.350 N 
ATOM      3  H   UNL     1      17.742   0.834 -17.412  1.00  0.00     0.345 HD
ATOM      4  H   UNL     1      19.180   1.131 -18.278  1.00  0.00     0.345 HD
ATOM      5  H   UNL     1      18.546  -0.439 -18.171  1.00  0.00     0.345 HD
ENDBRANCH   1   2
BRANCH   1   6
ATOM      6  C   UNL     1      18.741   0.732 -15.210  1.00  0.00     0.099 C 
ATOM      7  O   UNL     1      17.485   0.836 -15.193  1.00  0.00    -0.544 OA
ATOM      8  O   UNL     1      19.469   1.074 -14.076  1.00  0.00    -0.544 OA
ENDBRANCH   1   6
BRANCH   1   9
ATOM      9  C   UNL     1      19.816  -1.310 -16.238  1.00  0.00     0.047 C 
ATOM     10  C   UNL     1      19.735  -2.130 -17.536  1.00  0.00     0.014 C 
ATOM     11  C   UNL     1      21.193  -1.494 -15.582  1.00  0.00     0.014 C 
ENDBRANCH   1   9
TORSDOF 3
ENDMDL
MODEL 2
REMARK VINA RESULT:    -4.298      1.079      1.291
REMARK INTER + INTRA:          -4.947
REMARK INTER:                  -4.903
REMARK INTRA:                  -0.044
REMARK UNBOUND:                -0.022
REMARK SMILES CC(C)[C@@H]([NH3+])C(=O)[O-]
REMARK SMILES IDX 4 1 5 2 6 6 7 7 8 8 2 9 1 10 3 11
REMARK H PARENT 5 3 5 4 5 5
REMARK Flexibility Score: inf
ROOT
ATOM      1  C   UNL     1      19.147   0.621 -16.846  1.00  0.00     0.230 C 
ENDROOT
BRANCH   1   2
ATOM      2  N   UNL     1      18.970   0.476 -18.301  1.00  0.00    -0.350 N 
ATOM      3  H   UNL     1      19.891   0.317 -18.764  1.00  0.00     0.345 HD
ATOM      4  H   UNL     1      18.324  -0.311 -18.532  1.00  0.00     0.345 HD
ATOM      5  H   UNL     1      18.568   1.360 -18.691  1.00  0.00     0.345 HD
ENDBRANCH   1   2
BRANCH   1   6
ATOM      6  C   UNL     1      17.901   1.183 -16.205  1.00  0.00     0.099 C 
ATOM      7  O   UNL     1      17.140   1.961 -16.842  1.00  0.00    -0.544 OA
ATOM      8  O   UNL     1      17.560   0.803 -14.913  1.00  0.00    -0.544 OA
ENDBRANCH   1   6
BRANCH   1   9
ATOM      9  C   UNL     1      19.580  -0.704 -16.148  1.00  0.00     0.047 C 
ATOM     10  C   UNL     1      19.839  -1.861 -17.126  1.00  0.00     0.014 C 
ATOM     11  C   UNL     1      20.801  -0.497 -15.239  1.00  0.00     0.014 C 
ENDBRANCH   1   9
TORSDOF 3
ENDMDL
MODEL 3
REMARK VINA RESULT:    -4.040     16.154     17.233
REMARK INTER + INTRA:          -4.652
REMARK INTER:                  -4.603
REMARK INTRA:                  -0.050
REMARK UNBOUND:                -0.022
REMARK SMILES CC(C)[C@@H]([NH3+])C(=O)[O-]
REMARK SMILES IDX 4 1 5 2 6 6 7 7 8 8 2 9 1 10 3 11
REMARK H PARENT 5 3 5 4 5 5
REMARK Flexibility Score: inf
ROOT
ATOM      1  C   UNL     1      26.337 -12.872 -24.863  1.00  0.00     0.230 C 
ENDROOT
BRANCH   1   2
ATOM      2  N   UNL     1      26.396 -12.242 -23.533  1.00  0.00    -0.350 N 
ATOM      3  H   UNL     1      25.541 -11.669 -23.364  1.00  0.00     0.345 HD
ATOM      4  H   UNL     1      26.494 -12.955 -22.775  1.00  0.00     0.345 HD
ATOM      5  H   UNL     1      27.221 -11.599 -23.490  1.00  0.00     0.345 HD
ENDBRANCH   1   2
BRANCH   1   6
ATOM      6  C   UNL     1      25.361 -14.024 -24.871  1.00  0.00     0.099 C 
ATOM      7  O   UNL     1      25.764 -15.215 -24.780  1.00  0.00    -0.544 OA
ATOM      8  O   UNL     1      23.996 -13.770 -24.931  1.00  0.00    -0.544 OA
ENDBRANCH   1   6
BRANCH   1   9
ATOM      9  C   UNL     1      26.013 -11.862 -26.004  1.00  0.00     0.047 C 
ATOM     10  C   UNL     1      26.105 -10.390 -25.570  1.00  0.00     0.014 C 
ATOM     11  C   UNL     1      26.885 -12.103 -27.245  1.00  0.00     0.014 C 
ENDBRANCH   1   9
TORSDOF 3
ENDMDL
MODEL 4
REMARK VINA RESULT:    -3.988      8.912      9.766
REMARK INTER + INTRA:          -4.592
REMARK INTER:                  -4.631
REMARK INTRA:                   0.038
REMARK UNBOUND:                -0.022
REMARK SMILES CC(C)[C@@H]([NH3+])C(=O)[O-]
REMARK SMILES IDX 4 1 5 2 6 6 7 7 8 8 2 9 1 10 3 11
REMARK H PARENT 5 3 5 4 5 5
REMARK Flexibility Score: inf
ROOT
ATOM      1  C   UNL     1      15.904   0.298 -24.827  1.00  0.00     0.230 C 
ENDROOT
BRANCH   1   2
ATOM      2  N   UNL     1      15.243   0.103 -26.129  1.00  0.00    -0.350 N 
ATOM      3  H   UNL     1      15.040  -0.909 -26.285  1.00  0.00     0.345 HD
ATOM      4  H   UNL     1      14.356   0.651 -26.194  1.00  0.00     0.345 HD
ATOM      5  H   UNL     1      15.884   0.418 -26.894  1.00  0.00     0.345 HD
ENDBRANCH   1   2
BRANCH   1   6
ATOM      6  C   UNL     1      17.022  -0.697 -24.635  1.00  0.00     0.099 C 
ATOM      7  O   UNL     1      17.140  -1.340 -23.557  1.00  0.00    -0.544 OA
ATOM      8  O   UNL     1      17.908  -0.947 -25.677  1.00  0.00    -0.544 OA
ENDBRANCH   1   6
BRANCH   1   9
ATOM      9  C   UNL     1      16.415   1.755 -24.613  1.00  0.00     0.047 C 
ATOM     10  C   UNL     1      17.410   1.894 -23.450  1.00  0.00     0.014 C 
ATOM     11  C   UNL     1      17.017   2.343 -25.897  1.00  0.00     0.014 C 
ENDBRANCH   1   9
TORSDOF 3
ENDMDL
MODEL 5
REMARK VINA RESULT:    -3.910      8.225      9.043
REMARK INTER + INTRA:          -4.504
REMARK INTER:                  -4.569
REMARK INTRA:                   0.065
REMARK UNBOUND:                -0.022
REMARK SMILES CC(C)[C@@H]([NH3+])C(=O)[O-]
REMARK SMILES IDX 4 1 5 2 6 6 7 7 8 8 2 9 1 10 3 11
REMARK H PARENT 5 3 5 4 5 5
REMARK Flexibility Score: inf
ROOT
ATOM      1  C   UNL     1      18.031  -0.415 -23.653  1.00  0.00     0.230 C 
ENDROOT
BRANCH   1   2
ATOM      2  N   UNL     1      18.440  -0.828 -22.300  1.00  0.00    -0.350 N 
ATOM      3  H   UNL     1      18.017  -1.751 -22.059  1.00  0.00     0.345 HD
ATOM      4  H   UNL     1      19.479  -0.888 -22.215  1.00  0.00     0.345 HD
ATOM      5  H   UNL     1      18.090  -0.130 -21.603  1.00  0.00     0.345 HD
ENDBRANCH   1   2
BRANCH   1   6
ATOM      6  C   UNL     1      17.892  -1.611 -24.563  1.00  0.00     0.099 C 
ATOM      7  O   UNL     1      18.543  -1.685 -25.640  1.00  0.00    -0.544 OA
ATOM      8  O   UNL     1      17.071  -2.669 -24.189  1.00  0.00    -0.544 OA
ENDBRANCH   1   6
BRANCH   1   9
ATOM      9  C   UNL     1      16.732   0.445 -23.664  1.00  0.00     0.047 C 
ATOM     10  C   UNL     1      16.957   1.910 -23.254  1.00  0.00     0.014 C 
ATOM     11  C   UNL     1      16.015   0.380 -25.020  1.00  0.00     0.014 C 
ENDBRANCH   1   9
TORSDOF 3
ENDMDL
MODEL 6
REMARK VINA RESULT:    -3.882      9.774     10.518
REMARK INTER + INTRA:          -4.472
REMARK INTER:                  -4.488
REMARK INTRA:                   0.016
REMARK UNBOUND:                -0.022
REMARK SMILES CC(C)[C@@H]([NH3+])C(=O)[O-]
REMARK SMILES IDX 4 1 5 2 6 6 7 7 8 8 2 9 1 10 3 11
REMARK H PARENT 5 3 5 4 5 5
REMARK Flexibility Score: inf
ROOT
ATOM      1  C   UNL     1      16.737   1.420 -26.335  1.00  0.00     0.230 C 
ENDROOT
BRANCH   1   2
ATOM      2  N   UNL     1      17.191   2.796 -26.595  1.00  0.00    -0.350 N 
ATOM      3  H   UNL     1      16.374   3.440 -26.670  1.00  0.00     0.345 HD
ATOM      4  H   UNL     1      17.834   3.135 -25.844  1.00  0.00     0.345 HD
ATOM      5  H   UNL     1      17.702   2.826 -27.507  1.00  0.00     0.345 HD
ENDBRANCH   1   2
BRANCH   1   6
ATOM      6  C   UNL     1      17.797   0.419 -26.727  1.00  0.00     0.099 C 
ATOM      7  O   UNL     1      17.513  -0.575 -27.449  1.00  0.00    -0.544 OA
ATOM      8  O   UNL     1      19.113   0.618 -26.329  1.00  0.00    -0.544 OA
ENDBRANCH   1   6
BRANCH   1   9
ATOM      9  C   UNL     1      16.279   1.194 -24.862  1.00  0.00     0.047 C 
ATOM     10  C   UNL     1      16.220  -0.287 -24.454  1.00  0.00     0.014 C 
ATOM     11  C   UNL     1      17.145   1.983 -23.868  1.00  0.00     0.014 C 
ENDBRANCH   1   9
TORSDOF 3
ENDMDL
MODEL 7
REMARK VINA RESULT:    -3.816      1.997      2.606
REMARK INTER + INTRA:          -4.395
REMARK INTER:                  -4.337
REMARK INTRA:                  -0.059
REMARK UNBOUND:                -0.022
REMARK SMILES CC(C)[C@@H]([NH3+])C(=O)[O-]
REMARK SMILES IDX 4 1 5 2 6 6 7 7 8 8 2 9 1 10 3 11
REMARK H PARENT 5 3 5 4 5 5
REMARK Flexibility Score: inf
ROOT
ATOM      1  C   UNL     1      18.756   0.279 -16.098  1.00  0.00     0.230 C 
ENDROOT
BRANCH   1   2
ATOM      2  N   UNL     1      18.877   0.886 -14.762  1.00  0.00    -0.350 N 
ATOM      3  H   UNL     1      19.816   1.327 -14.647  1.00  0.00     0.345 HD
ATOM      4  H   UNL     1      18.133   1.601 -14.597  1.00  0.00     0.345 HD
ATOM      5  H   UNL     1      18.787   0.141 -14.033  1.00  0.00     0.345 HD
ENDBRANCH   1   2
BRANCH   1   6
ATOM      6  C   UNL     1      18.333   1.306 -17.121  1.00  0.00     0.099 C 
ATOM      7  O   UNL     1      19.104   1.639 -18.061  1.00  0.00    -0.544 OA
ATOM      8  O   UNL     1      17.060   1.859 -17.056  1.00  0.00    -0.544 OA
ENDBRANCH   1   6
BRANCH   1   9
ATOM      9  C   UNL     1      20.051  -0.459 -16.555  1.00  0.00     0.047 C 
ATOM     10  C   UNL     1      21.058  -0.696 -15.418  1.00  0.00     0.014 C 
ATOM     11  C   UNL     1      19.733  -1.783 -17.265  1.00  0.00     0.014 C 
ENDBRANCH   1   9
TORSDOF 3
ENDMDL
MODEL 8
REMARK VINA RESULT:    -3.792     12.224     12.566
REMARK INTER + INTRA:          -4.368
REMARK INTER:                  -4.392
REMARK INTRA:                   0.024
REMARK UNBOUND:                -0.022
REMARK SMILES CC(C)[C@@H]([NH3+])C(=O)[O-]
REMARK SMILES IDX 4 1 5 2 6 6 7 7 8 8 2 9 1 10 3 11
REMARK H PARENT 5 3 5 4 5 5
REMARK Flexibility Score: inf
ROOT
ATOM      1  C   UNL     1      14.461 -10.071 -11.583  1.00  0.00     0.230 C 
ENDROOT
BRANCH   1   2
ATOM      2  N   UNL     1      15.852  -9.591 -11.514  1.00  0.00    -0.350 N 
ATOM      3  H   UNL     1      16.501 -10.385 -11.321  1.00  0.00     0.345 HD
ATOM      4  H   UNL     1      16.137  -9.115 -12.400  1.00  0.00     0.345 HD
ATOM      5  H   UNL     1      15.945  -8.908 -10.727  1.00  0.00     0.345 HD
ENDBRANCH   1   2
BRANCH   1   6
ATOM      6  C   UNL     1      14.137 -10.955 -10.403  1.00  0.00     0.099 C 
ATOM      7  O   UNL     1      13.221 -11.818 -10.472  1.00  0.00    -0.544 OA
ATOM      8  O   UNL     1      14.889 -10.852  -9.238  1.00  0.00    -0.544 OA
ENDBRANCH   1   6
BRANCH   1   9
ATOM      9  C   UNL     1      13.422  -8.918 -11.714  1.00  0.00     0.047 C 
ATOM     10  C   UNL     1      12.204  -9.280 -12.580  1.00  0.00     0.014 C 
ATOM     11  C   UNL     1      12.961  -8.406 -10.341  1.00  0.00     0.014 C 
ENDBRANCH   1   9
TORSDOF 3
ENDMDL
MODEL 9
REMARK VINA RESULT:    -3.781      7.920      9.176
REMARK INTER + INTRA:          -4.355
REMARK INTER:                  -4.295
REMARK INTRA:                  -0.060
REMARK UNBOUND:                -0.022
REMARK SMILES CC(C)[C@@H]([NH3+])C(=O)[O-]
REMARK SMILES IDX 4 1 5 2 6 6 7 7 8 8 2 9 1 10 3 11
REMARK H PARENT 5 3 5 4 5 5
REMARK Flexibility Score: inf
ROOT
ATOM      1  C   UNL     1      26.805  -0.377 -11.886  1.00  0.00     0.230 C 
ENDROOT
BRANCH   1   2
ATOM      2  N   UNL     1      27.978   0.343 -12.409  1.00  0.00    -0.350 N 
ATOM      3  H   UNL     1      28.785   0.248 -11.754  1.00  0.00     0.345 HD
ATOM      4  H   UNL     1      28.253  -0.008 -13.354  1.00  0.00     0.345 HD
ATOM      5  H   UNL     1      27.753   1.362 -12.486  1.00  0.00     0.345 HD
ENDBRANCH   1   2
BRANCH   1   6
ATOM      6  C   UNL     1      26.324  -1.412 -12.874  1.00  0.00     0.099 C 
ATOM      7  O   UNL     1      26.835  -2.564 -12.906  1.00  0.00    -0.544 OA
ATOM      8  O   UNL     1      25.271  -1.111 -13.729  1.00  0.00    -0.544 OA
ENDBRANCH   1   6
BRANCH   1   9
ATOM      9  C   UNL     1      27.055  -1.019 -10.488  1.00  0.00     0.047 C 
ATOM     10  C   UNL     1      27.930  -0.159  -9.562  1.00  0.00     0.014 C 
ATOM     11  C   UNL     1      25.739  -1.383  -9.783  1.00  0.00     0.014 C 
ENDBRANCH   1   9
TORSDOF 3
ENDMDL
