MODEL 1
REMARK VINA RESULT:    -4.807      0.000      0.000
REMARK INTER + INTRA:          -4.947
REMARK INTER:                  -4.947
REMARK INTRA:                   0.000
REMARK UNBOUND:                 0.000
REMARK SMILES C=C1CCC[C@]2(C)C[C@]3(O)OC(=O)C(C)=C3C[C@H]12
REMARK SMILES IDX 15 1 14 2 16 3 17 4 18 5 2 6 1 7 3 8 4 9 5 10 6 11 8 12 9 13
REMARK SMILES IDX 11 14 12 15 13 16 7 17 10 18
REMARK H PARENT 10 19
REMARK Flexibility Score: inf
ROOT
ATOM      1  C   UNL     1      26.335  -0.069  18.974  1.00  0.00     0.052 C 
ATOM      2  C   UNL     1      24.931   0.314  19.332  1.00  0.00     0.040 C 
ATOM      3  C   UNL     1      23.975  -0.457  19.853  1.00  0.00     0.012 C 
ATOM      4  C   UNL     1      24.020  -1.941  20.095  1.00  0.00     0.047 C 
ATOM      5  C   UNL     1      22.792  -2.636  19.432  1.00  0.00     0.025 C 
ATOM      6  C   UNL     1      22.899  -2.832  17.911  1.00  0.00    -0.073 C 
ATOM      7  C   UNL     1      23.982  -2.521  17.175  1.00  0.00     0.008 C 
ATOM      8  C   UNL     1      21.728  -3.496  17.230  1.00  0.00     0.031 C 
ATOM      9  C   UNL     1      20.449  -2.723  17.530  1.00  0.00     0.005 C 
ATOM     10  C   UNL     1      20.239  -2.579  19.042  1.00  0.00     0.008 C 
ATOM     11  C   UNL     1      21.437  -1.916  19.797  1.00  0.00    -0.019 C 
ATOM     12  C   UNL     1      21.509  -0.393  19.432  1.00  0.00     0.092 C 
ATOM     13  C   UNL     1      22.708   0.336  20.064  1.00  0.00     0.235 C 
ATOM     14  O   UNL     1      22.978   1.571  19.403  1.00  0.00    -0.426 OA
ATOM     15  C   UNL     1      24.307   1.584  19.022  1.00  0.00     0.336 C 
ATOM     16  O   UNL     1      24.867   2.559  18.458  1.00  0.00    -0.246 OA
ATOM     17  C   UNL     1      21.129  -2.091  21.309  1.00  0.00     0.012 C 
ENDROOT
BRANCH  13  18
ATOM     18  O   UNL     1      22.479   0.575  21.430  1.00  0.00    -0.353 OA
ATOM     19  H   UNL     1      21.926   1.397  21.502  1.00  0.00     0.215 HD
ENDBRANCH  13  18
TORSDOF 1
ENDMDL
MODEL 2
REMARK VINA RESULT:    -4.475      6.727      9.227
REMARK INTER + INTRA:          -4.606
REMARK INTER:                  -4.606
REMARK INTRA:                   0.000
REMARK UNBOUND:                 0.000
REMARK SMILES C=C1CCC[C@]2(C)C[C@]3(O)OC(=O)C(C)=C3C[C@H]12
REMARK SMILES IDX 15 1 14 2 16 3 17 4 18 5 2 6 1 7 3 8 4 9 5 10 6 11 8 12 9 13
REMARK SMILES IDX 11 14 12 15 13 16 7 17 10 18
REMARK H PARENT 10 19
REMARK Flexibility Score: inf
ROOT
ATOM      1  C   UNL     1      17.817  -7.111  12.445  1.00  0.00     0.052 C 
ATOM      2  C   UNL     1      19.303  -7.204  12.617  1.00  0.00     0.040 C 
ATOM      3  C   UNL     1      19.982  -7.795  13.603  1.00  0.00     0.012 C 
ATOM      4  C   UNL     1      19.431  -8.407  14.861  1.00  0.00     0.047 C 
ATOM      5  C   UNL     1      20.144  -7.811  16.113  1.00  0.00     0.025 C 
ATOM      6  C   UNL     1      19.666  -6.411  16.527  1.00  0.00    -0.073 C 
ATOM      7  C   UNL     1      18.655  -5.744  15.940  1.00  0.00     0.008 C 
ATOM      8  C   UNL     1      20.335  -5.796  17.730  1.00  0.00     0.031 C 
ATOM      9  C   UNL     1      21.843  -5.746  17.515  1.00  0.00     0.005 C 
ATOM     10  C   UNL     1      22.394  -7.141  17.190  1.00  0.00     0.008 C 
ATOM     11  C   UNL     1      21.715  -7.830  15.963  1.00  0.00    -0.019 C 
ATOM     12  C   UNL     1      22.150  -7.102  14.645  1.00  0.00     0.092 C 
ATOM     13  C   UNL     1      21.469  -7.657  13.381  1.00  0.00     0.235 C 
ATOM     14  O   UNL     1      21.556  -6.738  12.293  1.00  0.00    -0.426 OA
ATOM     15  C   UNL     1      20.283  -6.516  11.803  1.00  0.00     0.336 C 
ATOM     16  O   UNL     1      20.029  -5.788  10.808  1.00  0.00    -0.246 OA
ATOM     17  C   UNL     1      22.233  -9.294  15.963  1.00  0.00     0.012 C 
ENDROOT
BRANCH  13  18
ATOM     18  O   UNL     1      22.043  -8.884  13.007  1.00  0.00    -0.353 OA
ATOM     19  H   UNL     1      21.515  -9.242  12.245  1.00  0.00     0.215 HD
ENDBRANCH  13  18
TORSDOF 1
ENDMDL
MODEL 3
REMARK VINA RESULT:    -4.432      2.273      3.574
REMARK INTER + INTRA:          -4.561
REMARK INTER:                  -4.561
REMARK INTRA:                   0.000
REMARK UNBOUND:                 0.000
REMARK SMILES C=C1CCC[C@]2(C)C[C@]3(O)OC(=O)C(C)=C3C[C@H]12
REMARK SMILES IDX 15 1 14 2 16 3 17 4 18 5 2 6 1 7 3 8 4 9 5 10 6 11 8 12 9 13
REMARK SMILES IDX 11 14 12 15 13 16 7 17 10 18
REMARK H PARENT 10 19
REMARK Flexibility Score: inf
ROOT
ATOM      1  C   UNL     1      24.723   0.122  20.386  1.00  0.00     0.052 C 
ATOM      2  C   UNL     1      24.320  -0.907  19.373  1.00  0.00     0.040 C 
ATOM      3  C   UNL     1      23.107  -1.127  18.860  1.00  0.00     0.012 C 
ATOM      4  C   UNL     1      21.808  -0.484  19.262  1.00  0.00     0.047 C 
ATOM      5  C   UNL     1      20.742  -1.573  19.588  1.00  0.00     0.025 C 
ATOM      6  C   UNL     1      20.894  -2.239  20.964  1.00  0.00    -0.073 C 
ATOM      7  C   UNL     1      21.808  -1.887  21.887  1.00  0.00     0.008 C 
ATOM      8  C   UNL     1      19.885  -3.304  21.316  1.00  0.00     0.031 C 
ATOM      9  C   UNL     1      19.887  -4.392  20.249  1.00  0.00     0.005 C 
ATOM     10  C   UNL     1      19.644  -3.794  18.857  1.00  0.00     0.008 C 
ATOM     11  C   UNL     1      20.652  -2.669  18.456  1.00  0.00    -0.019 C 
ATOM     12  C   UNL     1      22.062  -3.299  18.189  1.00  0.00     0.092 C 
ATOM     13  C   UNL     1      23.149  -2.259  17.864  1.00  0.00     0.235 C 
ATOM     14  O   UNL     1      24.458  -2.800  18.033  1.00  0.00    -0.426 OA
ATOM     15  C   UNL     1      25.170  -1.969  18.879  1.00  0.00     0.336 C 
ATOM     16  O   UNL     1      26.377  -2.148  19.188  1.00  0.00    -0.246 OA
ATOM     17  C   UNL     1      20.087  -2.044  17.152  1.00  0.00     0.012 C 
ENDROOT
BRANCH  13  18
ATOM     18  O   UNL     1      23.004  -1.785  16.548  1.00  0.00    -0.353 OA
ATOM     19  H   UNL     1      23.823  -1.268  16.324  1.00  0.00     0.215 HD
ENDBRANCH  13  18
TORSDOF 1
ENDMDL
MODEL 4
REMARK VINA RESULT:    -4.388      5.584      7.784
REMARK INTER + INTRA:          -4.516
REMARK INTER:                  -4.516
REMARK INTRA:                   0.000
REMARK UNBOUND:                 0.000
REMARK SMILES C=C1CCC[C@]2(C)C[C@]3(O)OC(=O)C(C)=C3C[C@H]12
REMARK SMILES IDX 15 1 14 2 16 3 17 4 18 5 2 6 1 7 3 8 4 9 5 10 6 11 8 12 9 13
REMARK SMILES IDX 11 14 12 15 13 16 7 17 10 18
REMARK H PARENT 10 19
REMARK Flexibility Score: inf
ROOT
ATOM      1  C   UNL     1      20.612  -3.902  17.129  1.00  0.00     0.052 C 
ATOM      2  C   UNL     1      20.423  -5.300  17.635  1.00  0.00     0.040 C 
ATOM      3  C   UNL     1      21.273  -6.327  17.556  1.00  0.00     0.012 C 
ATOM      4  C   UNL     1      22.585  -6.379  16.822  1.00  0.00     0.047 C 
ATOM      5  C   UNL     1      22.620  -7.605  15.860  1.00  0.00     0.025 C 
ATOM      6  C   UNL     1      21.840  -7.424  14.549  1.00  0.00    -0.073 C 
ATOM      7  C   UNL     1      21.228  -6.286  14.175  1.00  0.00     0.008 C 
ATOM      8  C   UNL     1      21.845  -8.590  13.592  1.00  0.00     0.031 C 
ATOM      9  C   UNL     1      21.324  -9.839  14.296  1.00  0.00     0.005 C 
ATOM     10  C   UNL     1      22.132 -10.125  15.569  1.00  0.00     0.008 C 
ATOM     11  C   UNL     1      22.176  -8.936  16.582  1.00  0.00    -0.019 C 
ATOM     12  C   UNL     1      20.766  -8.757  17.243  1.00  0.00     0.092 C 
ATOM     13  C   UNL     1      20.683  -7.556  18.202  1.00  0.00     0.235 C 
ATOM     14  O   UNL     1      19.330  -7.180  18.454  1.00  0.00    -0.426 OA
ATOM     15  C   UNL     1      19.190  -5.833  18.176  1.00  0.00     0.336 C 
ATOM     16  O   UNL     1      18.123  -5.188  18.345  1.00  0.00    -0.246 OA
ATOM     17  C   UNL     1      23.225  -9.337  17.655  1.00  0.00     0.012 C 
ENDROOT
BRANCH  13  18
ATOM     18  O   UNL     1      21.324  -7.848  19.419  1.00  0.00    -0.353 OA
ATOM     19  H   UNL     1      22.294  -7.950  19.229  1.00  0.00     0.215 HD
ENDBRANCH  13  18
TORSDOF 1
ENDMDL
MODEL 5
REMARK VINA RESULT:    -4.377      6.359      8.617
REMARK INTER + INTRA:          -4.505
REMARK INTER:                  -4.505
REMARK INTRA:                   0.000
REMARK UNBOUND:                 0.000
REMARK SMILES C=C1CCC[C@]2(C)C[C@]3(O)OC(=O)C(C)=C3C[C@H]12
REMARK SMILES IDX 15 1 14 2 16 3 17 4 18 5 2 6 1 7 3 8 4 9 5 10 6 11 8 12 9 13
REMARK SMILES IDX 11 14 12 15 13 16 7 17 10 18
REMARK H PARENT 10 19
REMARK Flexibility Score: inf
ROOT
ATOM      1  C   UNL     1      21.875  -9.381  13.001  1.00  0.00     0.052 C 
ATOM      2  C   UNL     1      20.984  -8.355  13.633  1.00  0.00     0.040 C 
ATOM      3  C   UNL     1      21.311  -7.420  14.529  1.00  0.00     0.012 C 
ATOM      4  C   UNL     1      22.629  -7.241  15.231  1.00  0.00     0.047 C 
ATOM      5  C   UNL     1      22.418  -7.185  16.775  1.00  0.00     0.025 C 
ATOM      6  C   UNL     1      22.190  -8.548  17.448  1.00  0.00    -0.073 C 
ATOM      7  C   UNL     1      22.243  -9.733  16.812  1.00  0.00     0.008 C 
ATOM      8  C   UNL     1      21.976  -8.538  18.941  1.00  0.00     0.031 C 
ATOM      9  C   UNL     1      20.806  -7.624  19.289  1.00  0.00     0.005 C 
ATOM     10  C   UNL     1      21.024  -6.216  18.722  1.00  0.00     0.008 C 
ATOM     11  C   UNL     1      21.274  -6.177  17.179  1.00  0.00    -0.019 C 
ATOM     12  C   UNL     1      19.945  -6.523  16.424  1.00  0.00     0.092 C 
ATOM     13  C   UNL     1      20.105  -6.590  14.895  1.00  0.00     0.235 C 
ATOM     14  O   UNL     1      19.023  -7.292  14.285  1.00  0.00    -0.426 OA
ATOM     15  C   UNL     1      19.544  -8.298  13.492  1.00  0.00     0.336 C 
ATOM     16  O   UNL     1      18.845  -9.067  12.782  1.00  0.00    -0.246 OA
ATOM     17  C   UNL     1      21.709  -4.720  16.861  1.00  0.00     0.012 C 
ENDROOT
BRANCH  13  18
ATOM     18  O   UNL     1      20.193  -5.297  14.348  1.00  0.00    -0.353 OA
ATOM     19  H   UNL     1      20.516  -5.389  13.413  1.00  0.00     0.215 HD
ENDBRANCH  13  18
TORSDOF 1
ENDMDL
MODEL 6
REMARK VINA RESULT:    -4.374      5.156      7.429
REMARK INTER + INTRA:          -4.502
REMARK INTER:                  -4.502
REMARK INTRA:                   0.000
REMARK UNBOUND:                 0.000
REMARK SMILES C=C1CCC[C@]2(C)C[C@]3(O)OC(=O)C(C)=C3C[C@H]12
REMARK SMILES IDX 15 1 14 2 16 3 17 4 18 5 2 6 1 7 3 8 4 9 5 10 6 11 8 12 9 13
REMARK SMILES IDX 11 14 12 15 13 16 7 17 10 18
REMARK H PARENT 10 19
REMARK Flexibility Score: inf
ROOT
ATOM      1  C   UNL     1      19.264  -4.269  17.740  1.00  0.00     0.052 C 
ATOM      2  C   UNL     1      20.467  -4.785  17.012  1.00  0.00     0.040 C 
ATOM      3  C   UNL     1      20.694  -6.024  16.569  1.00  0.00     0.012 C 
ATOM      4  C   UNL     1      19.855  -7.251  16.802  1.00  0.00     0.047 C 
ATOM      5  C   UNL     1      20.730  -8.402  17.386  1.00  0.00     0.025 C 
ATOM      6  C   UNL     1      21.050  -8.278  18.884  1.00  0.00    -0.073 C 
ATOM      7  C   UNL     1      20.568  -7.316  19.691  1.00  0.00     0.008 C 
ATOM      8  C   UNL     1      21.898  -9.370  19.487  1.00  0.00     0.031 C 
ATOM      9  C   UNL     1      23.210  -9.488  18.721  1.00  0.00     0.005 C 
ATOM     10  C   UNL     1      22.951  -9.710  17.225  1.00  0.00     0.008 C 
ATOM     11  C   UNL     1      22.056  -8.615  16.559  1.00  0.00    -0.019 C 
ATOM     12  C   UNL     1      22.859  -7.274  16.453  1.00  0.00     0.092 C 
ATOM     13  C   UNL     1      22.035  -6.106  15.882  1.00  0.00     0.235 C 
ATOM     14  O   UNL     1      22.636  -4.847  16.179  1.00  0.00    -0.426 OA
ATOM     15  C   UNL     1      21.692  -4.044  16.793  1.00  0.00     0.336 C 
ATOM     16  O   UNL     1      21.900  -2.851  17.136  1.00  0.00    -0.246 OA
ATOM     17  C   UNL     1      21.720  -9.153  15.141  1.00  0.00     0.012 C 
ENDROOT
BRANCH  13  18
ATOM     18  O   UNL     1      21.886  -6.239  14.490  1.00  0.00    -0.353 OA
ATOM     19  H   UNL     1      22.676  -6.736  14.151  1.00  0.00     0.215 HD
ENDBRANCH  13  18
TORSDOF 1
ENDMDL
MODEL 7
REMARK VINA RESULT:    -4.371      4.366      6.351
REMARK INTER + INTRA:          -4.499
REMARK INTER:                  -4.499
REMARK INTRA:                   0.000
REMARK UNBOUND:                 0.000
REMARK SMILES C=C1CCC[C@]2(C)C[C@]3(O)OC(=O)C(C)=C3C[C@H]12
REMARK SMILES IDX 15 1 14 2 16 3 17 4 18 5 2 6 1 7 3 8 4 9 5 10 6 11 8 12 9 13
REMARK SMILES IDX 11 14 12 15 13 16 7 17 10 18
REMARK H PARENT 10 19
REMARK Flexibility Score: inf
ROOT
ATOM      1  C   UNL     1      22.618  -6.728  15.184  1.00  0.00     0.052 C 
ATOM      2  C   UNL     1      21.897  -6.774  16.497  1.00  0.00     0.040 C 
ATOM      3  C   UNL     1      21.008  -5.903  16.979  1.00  0.00     0.012 C 
ATOM      4  C   UNL     1      20.599  -4.583  16.386  1.00  0.00     0.047 C 
ATOM      5  C   UNL     1      20.751  -3.444  17.440  1.00  0.00     0.025 C 
ATOM      6  C   UNL     1      22.190  -2.953  17.662  1.00  0.00    -0.073 C 
ATOM      7  C   UNL     1      23.259  -3.381  16.967  1.00  0.00     0.008 C 
ATOM      8  C   UNL     1      22.381  -1.855  18.679  1.00  0.00     0.031 C 
ATOM      9  C   UNL     1      21.804  -2.288  20.022  1.00  0.00     0.005 C 
ATOM     10  C   UNL     1      20.334  -2.701  19.879  1.00  0.00     0.008 C 
ATOM     11  C   UNL     1      20.082  -3.821  18.818  1.00  0.00    -0.019 C 
ATOM     12  C   UNL     1      20.649  -5.183  19.349  1.00  0.00     0.092 C 
ATOM     13  C   UNL     1      20.522  -6.338  18.340  1.00  0.00     0.235 C 
ATOM     14  O   UNL     1      21.391  -7.420  18.671  1.00  0.00    -0.426 OA
ATOM     15  C   UNL     1      22.162  -7.718  17.563  1.00  0.00     0.336 C 
ATOM     16  O   UNL     1      22.996  -8.659  17.519  1.00  0.00    -0.246 OA
ATOM     17  C   UNL     1      18.540  -3.908  18.657  1.00  0.00     0.012 C 
ENDROOT
BRANCH  13  18
ATOM     18  O   UNL     1      19.196  -6.802  18.282  1.00  0.00    -0.353 OA
ATOM     19  H   UNL     1      18.914  -6.786  17.330  1.00  0.00     0.215 HD
ENDBRANCH  13  18
TORSDOF 1
ENDMDL
MODEL 8
REMARK VINA RESULT:    -4.201      5.684      7.947
REMARK INTER + INTRA:          -4.324
REMARK INTER:                  -4.324
REMARK INTRA:                   0.000
REMARK UNBOUND:                 0.000
REMARK SMILES C=C1CCC[C@]2(C)C[C@]3(O)OC(=O)C(C)=C3C[C@H]12
REMARK SMILES IDX 15 1 14 2 16 3 17 4 18 5 2 6 1 7 3 8 4 9 5 10 6 11 8 12 9 13
REMARK SMILES IDX 11 14 12 15 13 16 7 17 10 18
REMARK H PARENT 10 19
REMARK Flexibility Score: inf
ROOT
ATOM      1  C   UNL     1      21.202 -10.124  16.854  1.00  0.00     0.052 C 
ATOM      2  C   UNL     1      21.489  -8.892  16.051  1.00  0.00     0.040 C 
ATOM      3  C   UNL     1      21.756  -7.662  16.496  1.00  0.00     0.012 C 
ATOM      4  C   UNL     1      21.709  -7.168  17.916  1.00  0.00     0.047 C 
ATOM      5  C   UNL     1      20.809  -5.899  18.019  1.00  0.00     0.025 C 
ATOM      6  C   UNL     1      19.297  -6.174  18.014  1.00  0.00    -0.073 C 
ATOM      7  C   UNL     1      18.743  -7.401  18.008  1.00  0.00     0.008 C 
ATOM      8  C   UNL     1      18.390  -4.973  18.107  1.00  0.00     0.031 C 
ATOM      9  C   UNL     1      18.707  -3.997  16.980  1.00  0.00     0.005 C 
ATOM     10  C   UNL     1      20.192  -3.610  16.993  1.00  0.00     0.008 C 
ATOM     11  C   UNL     1      21.173  -4.825  16.923  1.00  0.00    -0.019 C 
ATOM     12  C   UNL     1      21.118  -5.461  15.491  1.00  0.00     0.092 C 
ATOM     13  C   UNL     1      21.992  -6.718  15.342  1.00  0.00     0.235 C 
ATOM     14  O   UNL     1      21.611  -7.489  14.203  1.00  0.00    -0.426 OA
ATOM     15  C   UNL     1      21.371  -8.787  14.611  1.00  0.00     0.336 C 
ATOM     16  O   UNL     1      21.063  -9.725  13.830  1.00  0.00    -0.246 OA
ATOM     17  C   UNL     1      22.586  -4.240  17.197  1.00  0.00     0.012 C 
ENDROOT
BRANCH  13  18
ATOM     18  O   UNL     1      23.350  -6.369  15.240  1.00  0.00    -0.353 OA
ATOM     19  H   UNL     1      23.689  -6.732  14.379  1.00  0.00     0.215 HD
ENDBRANCH  13  18
TORSDOF 1
ENDMDL
