MODEL 1
REMARK VINA RESULT:    -4.384      0.000      0.000
REMARK INTER + INTRA:          -6.478
REMARK INTER:                  -5.922
REMARK INTRA:                  -0.556
REMARK UNBOUND:                -0.556
REMARK SMILES CCCCCCC=CC(=O)[O-]
REMARK SMILES IDX 5 1 6 2 7 3 8 4 9 5 10 6 11 7 4 8 3 9 2 10 1 11
REMARK H PARENT
REMARK Flexibility Score: inf
ROOT
ATOM      1  C   UNL     1      11.513   1.632  -0.468  1.00  0.00     0.004 C 
ENDROOT
BRANCH   1   2
ATOM      2  C   UNL     1      10.142   2.320  -0.423  1.00  0.00     0.027 C 
BRANCH   2   3
ATOM      3  C   UNL     1       9.950   3.072   0.866  1.00  0.00    -0.025 C 
ATOM      4  C   UNL     1       9.632   4.372   0.981  1.00  0.00     0.020 C 
BRANCH   4   5
ATOM      5  C   UNL     1       9.446   5.336  -0.124  1.00  0.00     0.064 C 
ATOM      6  O   UNL     1       8.284   5.541  -0.563  1.00  0.00    -0.545 OA
ATOM      7  O   UNL     1      10.504   6.045  -0.678  1.00  0.00    -0.545 OA
ENDBRANCH   4   5
ENDBRANCH   2   3
ENDBRANCH   1   2
BRANCH   1   8
ATOM      8  C   UNL     1      12.261   1.985  -1.763  1.00  0.00     0.000 C 
BRANCH   8   9
ATOM      9  C   UNL     1      11.475   2.960  -2.653  1.00  0.00    -0.000 C 
BRANCH   9  10
ATOM     10  C   UNL     1      11.399   2.499  -4.115  1.00  0.00    -0.003 C 
ATOM     11  C   UNL     1      11.399   0.976  -4.211  1.00  0.00     0.004 C 
ENDBRANCH   9  10
ENDBRANCH   8   9
ENDBRANCH   1   8
TORSDOF 6
ENDMDL
MODEL 2
REMARK VINA RESULT:    -4.339      1.308      1.544
REMARK INTER + INTRA:          -6.418
REMARK INTER:                  -6.094
REMARK INTRA:                  -0.324
REMARK UNBOUND:                -0.556
REMARK SMILES CCCCCCC=CC(=O)[O-]
REMARK SMILES IDX 5 1 6 2 7 3 8 4 9 5 10 6 11 7 4 8 3 9 2 10 1 11
REMARK H PARENT
REMARK Flexibility Score: inf
ROOT
ATOM      1  C   UNL     1      10.333   2.003  -0.780  1.00  0.00     0.004 C 
ENDROOT
BRANCH   1   2
ATOM      2  C   UNL     1      10.282   2.722   0.576  1.00  0.00     0.027 C 
BRANCH   2   3
ATOM      3  C   UNL     1       8.961   3.413   0.779  1.00  0.00    -0.025 C 
ATOM      4  C   UNL     1       8.787   4.700   1.121  1.00  0.00     0.020 C 
BRANCH   4   5
ATOM      5  C   UNL     1       9.849   5.687   1.407  1.00  0.00     0.064 C 
ATOM      6  O   UNL     1      10.180   6.502   0.508  1.00  0.00    -0.545 OA
ATOM      7  O   UNL     1      10.477   5.765   2.644  1.00  0.00    -0.545 OA
ENDBRANCH   4   5
ENDBRANCH   2   3
ENDBRANCH   1   2
BRANCH   1   8
ATOM      8  C   UNL     1      11.779   1.651  -1.158  1.00  0.00     0.000 C 
BRANCH   8   9
ATOM      9  C   UNL     1      12.257   2.388  -2.419  1.00  0.00    -0.000 C 
BRANCH   9  10
ATOM     10  C   UNL     1      11.272   2.260  -3.590  1.00  0.00    -0.003 C 
ATOM     11  C   UNL     1      11.476   0.946  -4.338  1.00  0.00     0.004 C 
ENDBRANCH   9  10
ENDBRANCH   8   9
ENDBRANCH   1   8
TORSDOF 6
ENDMDL
MODEL 3
REMARK VINA RESULT:    -4.334      1.985      3.198
REMARK INTER + INTRA:          -6.410
REMARK INTER:                  -5.996
REMARK INTRA:                  -0.415
REMARK UNBOUND:                -0.556
REMARK SMILES CCCCCCC=CC(=O)[O-]
REMARK SMILES IDX 5 1 6 2 7 3 8 4 9 5 10 6 11 7 4 8 3 9 2 10 1 11
REMARK H PARENT
REMARK Flexibility Score: inf
ROOT
ATOM      1  C   UNL     1      11.279   1.602  -2.722  1.00  0.00     0.004 C 
ENDROOT
BRANCH   1   2
ATOM      2  C   UNL     1       9.978   2.134  -2.105  1.00  0.00     0.027 C 
BRANCH   2   3
ATOM      3  C   UNL     1       9.996   3.634  -2.000  1.00  0.00    -0.025 C 
ATOM      4  C   UNL     1       9.709   4.353  -0.902  1.00  0.00     0.020 C 
BRANCH   4   5
ATOM      5  C   UNL     1       9.280   3.824   0.410  1.00  0.00     0.064 C 
ATOM      6  O   UNL     1       8.068   3.915   0.736  1.00  0.00    -0.545 OA
ATOM      7  O   UNL     1      10.162   3.205   1.286  1.00  0.00    -0.545 OA
ENDBRANCH   4   5
ENDBRANCH   2   3
ENDBRANCH   1   2
BRANCH   1   8
ATOM      8  C   UNL     1      12.436   1.688  -1.716  1.00  0.00     0.000 C 
BRANCH   8   9
ATOM      9  C   UNL     1      12.102   1.024  -0.371  1.00  0.00    -0.000 C 
BRANCH   9  10
ATOM     10  C   UNL     1      13.209   0.076   0.113  1.00  0.00    -0.003 C 
ATOM     11  C   UNL     1      12.883  -0.492   1.491  1.00  0.00     0.004 C 
ENDBRANCH   9  10
ENDBRANCH   8   9
ENDBRANCH   1   8
TORSDOF 6
ENDMDL
MODEL 4
REMARK VINA RESULT:    -4.186      2.655      4.304
REMARK INTER + INTRA:          -6.211
REMARK INTER:                  -5.377
REMARK INTRA:                  -0.834
REMARK UNBOUND:                -0.556
REMARK SMILES CCCCCCC=CC(=O)[O-]
REMARK SMILES IDX 5 1 6 2 7 3 8 4 9 5 10 6 11 7 4 8 3 9 2 10 1 11
REMARK H PARENT
REMARK Flexibility Score: inf
ROOT
ATOM      1  C   UNL     1      10.057   2.896   0.511  1.00  0.00     0.004 C 
ENDROOT
BRANCH   1   2
ATOM      2  C   UNL     1      10.304   1.987  -0.701  1.00  0.00     0.027 C 
BRANCH   2   3
ATOM      3  C   UNL     1      11.763   1.953  -1.069  1.00  0.00    -0.025 C 
ATOM      4  C   UNL     1      12.262   1.943  -2.315  1.00  0.00     0.020 C 
BRANCH   4   5
ATOM      5  C   UNL     1      11.489   1.923  -3.575  1.00  0.00     0.064 C 
ATOM      6  O   UNL     1      11.214   3.015  -4.137  1.00  0.00    -0.545 OA
ATOM      7  O   UNL     1      11.078   0.741  -4.176  1.00  0.00    -0.545 OA
ENDBRANCH   4   5
ENDBRANCH   2   3
ENDBRANCH   1   2
BRANCH   1   8
ATOM      8  C   UNL     1       9.367   4.201   0.085  1.00  0.00     0.000 C 
BRANCH   8   9
ATOM      9  C   UNL     1       8.902   4.173  -1.379  1.00  0.00    -0.000 C 
BRANCH   9  10
ATOM     10  C   UNL     1       9.423   5.368  -2.190  1.00  0.00    -0.003 C 
ATOM     11  C   UNL     1      10.858   5.711  -1.802  1.00  0.00     0.004 C 
ENDBRANCH   9  10
ENDBRANCH   8   9
ENDBRANCH   1   8
TORSDOF 6
ENDMDL
MODEL 5
REMARK VINA RESULT:    -4.182      1.344      3.806
REMARK INTER + INTRA:          -6.205
REMARK INTER:                  -5.535
REMARK INTRA:                  -0.670
REMARK UNBOUND:                -0.556
REMARK SMILES CCCCCCC=CC(=O)[O-]
REMARK SMILES IDX 5 1 6 2 7 3 8 4 9 5 10 6 11 7 4 8 3 9 2 10 1 11
REMARK H PARENT
REMARK Flexibility Score: inf
ROOT
ATOM      1  C   UNL     1      12.211   1.914  -1.900  1.00  0.00     0.004 C 
ENDROOT
BRANCH   1   2
ATOM      2  C   UNL     1      11.150   1.629  -2.973  1.00  0.00     0.027 C 
BRANCH   2   3
ATOM      3  C   UNL     1      11.234   2.622  -4.100  1.00  0.00    -0.025 C 
ATOM      4  C   UNL     1      10.746   3.874  -4.088  1.00  0.00     0.020 C 
BRANCH   4   5
ATOM      5  C   UNL     1       9.997   4.517  -2.989  1.00  0.00     0.064 C 
ATOM      6  O   UNL     1       8.759   4.309  -2.893  1.00  0.00    -0.545 OA
ATOM      7  O   UNL     1      10.614   5.320  -2.039  1.00  0.00    -0.545 OA
ENDBRANCH   4   5
ENDBRANCH   2   3
ENDBRANCH   1   2
BRANCH   1   8
ATOM      8  C   UNL     1      11.660   1.624  -0.496  1.00  0.00     0.000 C 
BRANCH   8   9
ATOM      9  C   UNL     1      10.202   2.078  -0.327  1.00  0.00    -0.000 C 
BRANCH   9  10
ATOM     10  C   UNL     1      10.014   3.040   0.855  1.00  0.00    -0.003 C 
ATOM     11  C   UNL     1       8.749   3.877   0.687  1.00  0.00     0.004 C 
ENDBRANCH   9  10
ENDBRANCH   8   9
ENDBRANCH   1   8
TORSDOF 6
ENDMDL
MODEL 6
REMARK VINA RESULT:    -4.176      0.956      1.063
REMARK INTER + INTRA:          -6.197
REMARK INTER:                  -5.681
REMARK INTRA:                  -0.516
REMARK UNBOUND:                -0.556
REMARK SMILES CCCCCCC=CC(=O)[O-]
REMARK SMILES IDX 5 1 6 2 7 3 8 4 9 5 10 6 11 7 4 8 3 9 2 10 1 11
REMARK H PARENT
REMARK Flexibility Score: inf
ROOT
ATOM      1  C   UNL     1      10.479   1.818  -0.659  1.00  0.00     0.004 C 
ENDROOT
BRANCH   1   2
ATOM      2  C   UNL     1      10.353   2.688   0.599  1.00  0.00     0.027 C 
BRANCH   2   3
ATOM      3  C   UNL     1       9.018   3.379   0.654  1.00  0.00    -0.025 C 
ATOM      4  C   UNL     1       8.686   4.507   0.005  1.00  0.00     0.020 C 
BRANCH   4   5
ATOM      5  C   UNL     1       9.567   5.319  -0.860  1.00  0.00     0.064 C 
ATOM      6  O   UNL     1       9.600   5.075  -2.094  1.00  0.00    -0.545 OA
ATOM      7  O   UNL     1      10.341   6.360  -0.364  1.00  0.00    -0.545 OA
ENDBRANCH   4   5
ENDBRANCH   2   3
ENDBRANCH   1   2
BRANCH   1   8
ATOM      8  C   UNL     1      11.946   1.694  -1.095  1.00  0.00     0.000 C 
BRANCH   8   9
ATOM      9  C   UNL     1      12.240   2.445  -2.403  1.00  0.00    -0.000 C 
BRANCH   9  10
ATOM     10  C   UNL     1      11.158   2.224  -3.470  1.00  0.00    -0.003 C 
ATOM     11  C   UNL     1      11.489   1.020  -4.347  1.00  0.00     0.004 C 
ENDBRANCH   9  10
ENDBRANCH   8   9
ENDBRANCH   1   8
TORSDOF 6
ENDMDL
MODEL 7
REMARK VINA RESULT:    -4.142      2.562      5.259
REMARK INTER + INTRA:          -6.151
REMARK INTER:                  -5.852
REMARK INTRA:                  -0.298
REMARK UNBOUND:                -0.556
REMARK SMILES CCCCCCC=CC(=O)[O-]
REMARK SMILES IDX 5 1 6 2 7 3 8 4 9 5 10 6 11 7 4 8 3 9 2 10 1 11
REMARK H PARENT
REMARK Flexibility Score: inf
ROOT
ATOM      1  C   UNL     1       9.983   3.086   0.893  1.00  0.00     0.004 C 
ENDROOT
BRANCH   1   2
ATOM      2  C   UNL     1      10.092   2.309  -0.427  1.00  0.00     0.027 C 
BRANCH   2   3
ATOM      3  C   UNL     1      11.460   1.705  -0.594  1.00  0.00    -0.025 C 
ATOM      4  C   UNL     1      12.106   1.523  -1.758  1.00  0.00     0.020 C 
BRANCH   4   5
ATOM      5  C   UNL     1      11.595   1.840  -3.108  1.00  0.00     0.064 C 
ATOM      6  O   UNL     1      11.541   3.044  -3.471  1.00  0.00    -0.545 OA
ATOM      7  O   UNL     1      11.199   0.854  -4.003  1.00  0.00    -0.545 OA
ENDBRANCH   4   5
ENDBRANCH   2   3
ENDBRANCH   1   2
BRANCH   1   8
ATOM      8  C   UNL     1       8.643   3.830   0.980  1.00  0.00     0.000 C 
BRANCH   8   9
ATOM      9  C   UNL     1       8.817   5.355   1.070  1.00  0.00    -0.000 C 
BRANCH   9  10
ATOM     10  C   UNL     1      10.170   5.762   1.671  1.00  0.00    -0.003 C 
ATOM     11  C   UNL     1       9.991   6.386   3.052  1.00  0.00     0.004 C 
ENDBRANCH   9  10
ENDBRANCH   8   9
ENDBRANCH   1   8
TORSDOF 6
ENDMDL
MODEL 8
REMARK VINA RESULT:    -4.015      1.552      2.924
REMARK INTER + INTRA:          -5.980
REMARK INTER:                  -5.602
REMARK INTRA:                  -0.378
REMARK UNBOUND:                -0.556
REMARK SMILES CCCCCCC=CC(=O)[O-]
REMARK SMILES IDX 5 1 6 2 7 3 8 4 9 5 10 6 11 7 4 8 3 9 2 10 1 11
REMARK H PARENT
REMARK Flexibility Score: inf
ROOT
ATOM      1  C   UNL     1      10.635   1.871  -1.365  1.00  0.00     0.004 C 
ENDROOT
BRANCH   1   2
ATOM      2  C   UNL     1       9.451   2.637  -0.758  1.00  0.00     0.027 C 
BRANCH   2   3
ATOM      3  C   UNL     1       9.757   3.094   0.642  1.00  0.00    -0.025 C 
ATOM      4  C   UNL     1       9.688   4.357   1.094  1.00  0.00     0.020 C 
BRANCH   4   5
ATOM      5  C   UNL     1       9.338   5.557   0.305  1.00  0.00     0.064 C 
ATOM      6  O   UNL     1      10.238   6.400   0.048  1.00  0.00    -0.545 OA
ATOM      7  O   UNL     1       8.058   5.776  -0.188  1.00  0.00    -0.545 OA
ENDBRANCH   4   5
ENDBRANCH   2   3
ENDBRANCH   1   2
BRANCH   1   8
ATOM      8  C   UNL     1      11.601   1.398  -0.269  1.00  0.00     0.000 C 
BRANCH   8   9
ATOM      9  C   UNL     1      12.818   0.650  -0.835  1.00  0.00    -0.000 C 
BRANCH   9  10
ATOM     10  C   UNL     1      13.566  -0.159   0.235  1.00  0.00    -0.003 C 
ATOM     11  C   UNL     1      12.721  -0.316   1.496  1.00  0.00     0.004 C 
ENDBRANCH   9  10
ENDBRANCH   8   9
ENDBRANCH   1   8
TORSDOF 6
ENDMDL
MODEL 9
REMARK VINA RESULT:    -3.870      1.936      3.129
REMARK INTER + INTRA:          -5.783
REMARK INTER:                  -5.335
REMARK INTRA:                  -0.448
REMARK UNBOUND:                -0.556
REMARK SMILES CCCCCCC=CC(=O)[O-]
REMARK SMILES IDX 5 1 6 2 7 3 8 4 9 5 10 6 11 7 4 8 3 9 2 10 1 11
REMARK H PARENT
REMARK Flexibility Score: inf
ROOT
ATOM      1  C   UNL     1      11.595   1.359  -3.639  1.00  0.00     0.004 C 
ENDROOT
BRANCH   1   2
ATOM      2  C   UNL     1      12.266   2.188  -2.535  1.00  0.00     0.027 C 
BRANCH   2   3
ATOM      3  C   UNL     1      11.879   1.690  -1.168  1.00  0.00    -0.025 C 
ATOM      4  C   UNL     1      10.779   2.041  -0.482  1.00  0.00     0.020 C 
BRANCH   4   5
ATOM      5  C   UNL     1       9.749   3.012  -0.906  1.00  0.00     0.064 C 
ATOM      6  O   UNL     1       8.871   2.647  -1.731  1.00  0.00    -0.545 OA
ATOM      7  O   UNL     1       9.697   4.307  -0.405  1.00  0.00    -0.545 OA
ENDBRANCH   4   5
ENDBRANCH   2   3
ENDBRANCH   1   2
BRANCH   1   8
ATOM      8  C   UNL     1      11.437   2.186  -4.924  1.00  0.00     0.000 C 
BRANCH   8   9
ATOM      9  C   UNL     1      10.853   3.583  -4.661  1.00  0.00    -0.000 C 
BRANCH   9  10
ATOM     10  C   UNL     1      10.798   4.451  -5.926  1.00  0.00    -0.003 C 
ATOM     11  C   UNL     1      10.575   5.919  -5.577  1.00  0.00     0.004 C 
ENDBRANCH   9  10
ENDBRANCH   8   9
ENDBRANCH   1   8
TORSDOF 6
ENDMDL
