MODEL 1
REMARK VINA RESULT:    24.067      0.000      0.000
REMARK INTER + INTRA:          31.785
REMARK INTER:                  31.805
REMARK INTRA:                  -0.021
REMARK UNBOUND:                -0.021
REMARK SMILES CC(C)=CCC[C@H](C(=O)[O-])[C@H]1CC[C@@]2(C)C3=C(CC[C@]12C)[C@@]1(C)CC[C@@H](O)C(C)(C)[C@H]1CC3
REMARK SMILES IDX 6 1 7 2 8 3 9 4 10 5 11 6 12 7 20 8 13 9 14 10 19 11 21 12
REMARK SMILES IDX 15 13 16 14 18 15 17 16 33 17 22 18 32 19 31 20 24 21 23 22
REMARK SMILES IDX 28 23 25 24 26 25 29 26 30 27 27 28 5 30 4 31 2 32 1 33 3 34
REMARK H PARENT 27 29
REMARK Flexibility Score: inf
ROOT
ATOM      1  C   UNL     1      25.539  43.961  25.040  1.00  0.00     0.014 C 
ENDROOT
BRANCH   1   2
ATOM      2  C   UNL     1      26.831  43.151  24.721  1.00  0.00     0.039 C 
BRANCH   2   3
ATOM      3  C   UNL     1      27.970  43.571  25.643  1.00  0.00     0.045 C 
ATOM      4  O   UNL     1      27.874  43.509  26.894  1.00  0.00    -0.550 OA
ATOM      5  O   UNL     1      29.125  44.123  25.099  1.00  0.00    -0.550 OA
ENDBRANCH   2   3
BRANCH   2   6
ATOM      6  C   UNL     1      27.120  43.047  23.171  1.00  0.00     0.004 C 
ATOM      7  C   UNL     1      28.538  43.418  22.656  1.00  0.00     0.006 C 
ATOM      8  C   UNL     1      26.803  41.694  22.469  1.00  0.00    -0.020 C 
ATOM      9  C   UNL     1      28.840  42.487  21.461  1.00  0.00     0.012 C 
ATOM     10  C   UNL     1      27.476  41.879  21.077  1.00  0.00    -0.006 C 
ATOM     11  C   UNL     1      25.313  41.384  22.237  1.00  0.00     0.012 C 
ATOM     12  C   UNL     1      27.417  40.500  23.282  1.00  0.00     0.012 C 
ATOM     13  C   UNL     1      26.770  42.889  20.110  1.00  0.00     0.017 C 
ATOM     14  C   UNL     1      27.464  40.544  20.351  1.00  0.00    -0.064 C 
ATOM     15  C   UNL     1      25.118  40.189  21.254  1.00  0.00     0.032 C 
ATOM     16  C   UNL     1      26.321  39.790  20.361  1.00  0.00    -0.064 C 
ATOM     17  C   UNL     1      28.617  40.153  19.459  1.00  0.00     0.032 C 
ATOM     18  C   UNL     1      26.297  38.441  19.600  1.00  0.00    -0.008 C 
ATOM     19  C   UNL     1      28.079  39.720  18.107  1.00  0.00     0.009 C 
ATOM     20  C   UNL     1      27.086  38.520  18.208  1.00  0.00     0.007 C 
ATOM     21  C   UNL     1      24.827  37.947  19.391  1.00  0.00     0.014 C 
ATOM     22  C   UNL     1      26.990  37.405  20.532  1.00  0.00     0.016 C 
ATOM     23  C   UNL     1      26.180  38.398  16.919  1.00  0.00    -0.006 C 
ATOM     24  C   UNL     1      24.720  36.785  18.411  1.00  0.00     0.033 C 
ATOM     25  C   UNL     1      25.313  37.085  17.018  1.00  0.00     0.120 C 
ATOM     26  C   UNL     1      25.306  39.676  16.710  1.00  0.00     0.014 C 
ATOM     27  C   UNL     1      27.078  38.249  15.658  1.00  0.00     0.014 C 
BRANCH  25  28
ATOM     28  O   UNL     1      24.272  37.084  16.067  1.00  0.00    -0.393 OA
ATOM     29  H   UNL     1      24.468  36.366  15.412  1.00  0.00     0.210 HD
ENDBRANCH  25  28
ENDBRANCH   2   6
ENDBRANCH   1   2
BRANCH   1  30
ATOM     30  C   UNL     1      24.310  43.120  25.447  1.00  0.00     0.028 C 
BRANCH  30  31
ATOM     31  C   UNL     1      23.354  43.876  26.339  1.00  0.00    -0.028 C 
ATOM     32  C   UNL     1      22.639  43.298  27.333  1.00  0.00    -0.080 C 
ATOM     33  C   UNL     1      21.690  44.124  28.163  1.00  0.00     0.039 C 
ATOM     34  C   UNL     1      22.778  41.832  27.665  1.00  0.00     0.039 C 
ENDBRANCH  30  31
ENDBRANCH   1  30
TORSDOF 6
ENDMDL
