MODEL 1
REMARK VINA RESULT:    -2.927      0.000      0.000
REMARK INTER + INTRA:          -4.331
REMARK INTER:                  -3.953
REMARK INTRA:                  -0.378
REMARK UNBOUND:                -0.378
REMARK SMILES CCCCCCCC(=O)[O-]
REMARK SMILES IDX 5 1 6 2 7 3 8 4 9 5 10 6 4 7 3 8 2 9 1 10
REMARK H PARENT
REMARK Flexibility Score: inf
ROOT
ATOM      1  C   UNL     1      17.392  -7.220   4.666  1.00  0.00     0.000 C 
ENDROOT
BRANCH   1   2
ATOM      2  C   UNL     1      18.242  -8.141   5.555  1.00  0.00     0.006 C 
BRANCH   2   3
ATOM      3  C   UNL     1      19.394  -7.398   6.242  1.00  0.00     0.053 C 
BRANCH   3   4
ATOM      4  C   UNL     1      19.405  -7.694   7.709  1.00  0.00     0.041 C 
ATOM      5  O   UNL     1      19.766  -8.825   8.124  1.00  0.00    -0.550 OA
ATOM      6  O   UNL     1      18.969  -6.734   8.614  1.00  0.00    -0.550 OA
ENDBRANCH   3   4
ENDBRANCH   2   3
ENDBRANCH   1   2
BRANCH   1   7
ATOM      7  C   UNL     1      16.040  -6.860   5.309  1.00  0.00     0.000 C 
BRANCH   7   8
ATOM      8  C   UNL     1      15.852  -7.511   6.688  1.00  0.00    -0.000 C 
BRANCH   8   9
ATOM      9  C   UNL     1      14.618  -8.422   6.748  1.00  0.00    -0.003 C 
ATOM     10  C   UNL     1      14.941  -9.821   6.231  1.00  0.00     0.004 C 
ENDBRANCH   8   9
ENDBRANCH   7   8
ENDBRANCH   1   7
TORSDOF 6
ENDMDL
MODEL 2
REMARK VINA RESULT:    -2.926      2.781      4.475
REMARK INTER + INTRA:          -4.330
REMARK INTER:                  -3.871
REMARK INTRA:                  -0.459
REMARK UNBOUND:                -0.378
REMARK SMILES CCCCCCCC(=O)[O-]
REMARK SMILES IDX 5 1 6 2 7 3 8 4 9 5 10 6 4 7 3 8 2 9 1 10
REMARK H PARENT
REMARK Flexibility Score: inf
ROOT
ATOM      1  C   UNL     1      17.288  -7.111   4.652  1.00  0.00     0.000 C 
ENDROOT
BRANCH   1   2
ATOM      2  C   UNL     1      16.030  -7.012   5.528  1.00  0.00     0.006 C 
BRANCH   2   3
ATOM      3  C   UNL     1      15.637  -8.359   6.149  1.00  0.00     0.053 C 
BRANCH   3   4
ATOM      4  C   UNL     1      14.197  -8.345   6.556  1.00  0.00     0.041 C 
ATOM      5  O   UNL     1      13.868  -8.647   7.732  1.00  0.00    -0.550 OA
ATOM      6  O   UNL     1      13.214  -8.046   5.620  1.00  0.00    -0.550 OA
ENDBRANCH   3   4
ENDBRANCH   2   3
ENDBRANCH   1   2
BRANCH   1   7
ATOM      7  C   UNL     1      18.289  -8.159   5.173  1.00  0.00     0.000 C 
BRANCH   7   8
ATOM      8  C   UNL     1      19.444  -7.528   5.966  1.00  0.00    -0.000 C 
BRANCH   8   9
ATOM      9  C   UNL     1      19.490  -8.007   7.424  1.00  0.00    -0.003 C 
ATOM     10  C   UNL     1      18.758  -7.035   8.346  1.00  0.00     0.004 C 
ENDBRANCH   8   9
ENDBRANCH   7   8
ENDBRANCH   1   7
TORSDOF 6
ENDMDL
MODEL 3
REMARK VINA RESULT:    -2.898      1.295      2.052
REMARK INTER + INTRA:          -4.292
REMARK INTER:                  -4.009
REMARK INTRA:                  -0.283
REMARK UNBOUND:                -0.378
REMARK SMILES CCCCCCCC(=O)[O-]
REMARK SMILES IDX 5 1 6 2 7 3 8 4 9 5 10 6 4 7 3 8 2 9 1 10
REMARK H PARENT
REMARK Flexibility Score: inf
ROOT
ATOM      1  C   UNL     1      15.999  -6.830   5.429  1.00  0.00     0.000 C 
ENDROOT
BRANCH   1   2
ATOM      2  C   UNL     1      16.707  -7.243   6.729  1.00  0.00     0.006 C 
BRANCH   2   3
ATOM      3  C   UNL     1      18.082  -7.875   6.476  1.00  0.00     0.053 C 
BRANCH   3   4
ATOM      4  C   UNL     1      18.932  -7.783   7.704  1.00  0.00     0.041 C 
ATOM      5  O   UNL     1      18.799  -6.815   8.496  1.00  0.00    -0.550 OA
ATOM      6  O   UNL     1      19.907  -8.743   7.946  1.00  0.00    -0.550 OA
ENDBRANCH   3   4
ENDBRANCH   2   3
ENDBRANCH   1   2
BRANCH   1   7
ATOM      7  C   UNL     1      14.788  -7.725   5.107  1.00  0.00     0.000 C 
BRANCH   7   8
ATOM      8  C   UNL     1      14.312  -8.533   6.324  1.00  0.00    -0.000 C 
BRANCH   8   9
ATOM      9  C   UNL     1      12.798  -8.421   6.552  1.00  0.00    -0.003 C 
ATOM     10  C   UNL     1      12.104  -7.796   5.345  1.00  0.00     0.004 C 
ENDBRANCH   8   9
ENDBRANCH   7   8
ENDBRANCH   1   7
TORSDOF 6
ENDMDL
MODEL 4
REMARK VINA RESULT:    -2.889      7.384      9.225
REMARK INTER + INTRA:          -4.280
REMARK INTER:                  -3.779
REMARK INTRA:                  -0.502
REMARK UNBOUND:                -0.378
REMARK SMILES CCCCCCCC(=O)[O-]
REMARK SMILES IDX 5 1 6 2 7 3 8 4 9 5 10 6 4 7 3 8 2 9 1 10
REMARK H PARENT
REMARK Flexibility Score: inf
ROOT
ATOM      1  C   UNL     1       8.778  -9.605   7.274  1.00  0.00     0.000 C 
ENDROOT
BRANCH   1   2
ATOM      2  C   UNL     1       9.446  -9.361   5.912  1.00  0.00     0.006 C 
BRANCH   2   3
ATOM      3  C   UNL     1      10.648  -8.412   6.005  1.00  0.00     0.053 C 
BRANCH   3   4
ATOM      4  C   UNL     1      10.575  -7.372   4.933  1.00  0.00     0.041 C 
ATOM      5  O   UNL     1      11.612  -7.039   4.302  1.00  0.00    -0.550 OA
ATOM      6  O   UNL     1       9.370  -6.734   4.664  1.00  0.00    -0.550 OA
ENDBRANCH   3   4
ENDBRANCH   2   3
ENDBRANCH   1   2
BRANCH   1   7
ATOM      7  C   UNL     1       7.399  -8.930   7.385  1.00  0.00     0.000 C 
BRANCH   7   8
ATOM      8  C   UNL     1       6.635  -8.929   6.051  1.00  0.00    -0.000 C 
BRANCH   8   9
ATOM      9  C   UNL     1       6.063  -7.549   5.699  1.00  0.00    -0.003 C 
ATOM     10  C   UNL     1       6.398  -6.523   6.778  1.00  0.00     0.004 C 
ENDBRANCH   8   9
ENDBRANCH   7   8
ENDBRANCH   1   7
TORSDOF 6
ENDMDL
MODEL 5
REMARK VINA RESULT:    -2.844      1.186      2.101
REMARK INTER + INTRA:          -4.220
REMARK INTER:                  -3.726
REMARK INTRA:                  -0.493
REMARK UNBOUND:                -0.378
REMARK SMILES CCCCCCCC(=O)[O-]
REMARK SMILES IDX 5 1 6 2 7 3 8 4 9 5 10 6 4 7 3 8 2 9 1 10
REMARK H PARENT
REMARK Flexibility Score: inf
ROOT
ATOM      1  C   UNL     1      19.225  -6.898   4.670  1.00  0.00     0.000 C 
ENDROOT
BRANCH   1   2
ATOM      2  C   UNL     1      20.169  -7.360   5.791  1.00  0.00     0.006 C 
BRANCH   2   3
ATOM      3  C   UNL     1      19.565  -8.483   6.645  1.00  0.00     0.053 C 
BRANCH   3   4
ATOM      4  C   UNL     1      19.402  -8.031   8.061  1.00  0.00     0.041 C 
ATOM      5  O   UNL     1      19.028  -6.856   8.313  1.00  0.00    -0.550 OA
ATOM      6  O   UNL     1      19.711  -8.894   9.106  1.00  0.00    -0.550 OA
ENDBRANCH   3   4
ENDBRANCH   2   3
ENDBRANCH   1   2
BRANCH   1   7
ATOM      7  C   UNL     1      17.961  -7.771   4.565  1.00  0.00     0.000 C 
BRANCH   7   8
ATOM      8  C   UNL     1      16.728  -6.971   4.119  1.00  0.00    -0.000 C 
BRANCH   8   9
ATOM      9  C   UNL     1      15.535  -7.146   5.069  1.00  0.00    -0.003 C 
ATOM     10  C   UNL     1      16.002  -7.463   6.487  1.00  0.00     0.004 C 
ENDBRANCH   8   9
ENDBRANCH   7   8
ENDBRANCH   1   7
TORSDOF 6
ENDMDL
MODEL 6
REMARK VINA RESULT:    -2.832      8.391     10.260
REMARK INTER + INTRA:          -4.204
REMARK INTER:                  -3.742
REMARK INTRA:                  -0.462
REMARK UNBOUND:                -0.378
REMARK SMILES CCCCCCCC(=O)[O-]
REMARK SMILES IDX 5 1 6 2 7 3 8 4 9 5 10 6 4 7 3 8 2 9 1 10
REMARK H PARENT
REMARK Flexibility Score: inf
ROOT
ATOM      1  C   UNL     1       8.928  -9.494   7.140  1.00  0.00     0.000 C 
ENDROOT
BRANCH   1   2
ATOM      2  C   UNL     1       7.646  -8.698   7.429  1.00  0.00     0.006 C 
BRANCH   2   3
ATOM      3  C   UNL     1       6.726  -8.598   6.207  1.00  0.00     0.053 C 
BRANCH   3   4
ATOM      4  C   UNL     1       6.307  -7.180   5.983  1.00  0.00     0.041 C 
ATOM      5  O   UNL     1       6.327  -6.355   6.934  1.00  0.00    -0.550 OA
ATOM      6  O   UNL     1       5.846  -6.780   4.734  1.00  0.00    -0.550 OA
ENDBRANCH   3   4
ENDBRANCH   2   3
ENDBRANCH   1   2
BRANCH   1   7
ATOM      7  C   UNL     1       9.504  -9.198   5.743  1.00  0.00     0.000 C 
BRANCH   7   8
ATOM      8  C   UNL     1      10.668  -8.195   5.786  1.00  0.00    -0.000 C 
BRANCH   8   9
ATOM      9  C   UNL     1      10.765  -7.347   4.509  1.00  0.00    -0.003 C 
ATOM     10  C   UNL     1       9.548  -6.438   4.358  1.00  0.00     0.004 C 
ENDBRANCH   8   9
ENDBRANCH   7   8
ENDBRANCH   1   7
TORSDOF 6
ENDMDL
MODEL 7
REMARK VINA RESULT:    -2.777      6.096      7.732
REMARK INTER + INTRA:          -4.129
REMARK INTER:                  -3.787
REMARK INTRA:                  -0.342
REMARK UNBOUND:                -0.378
REMARK SMILES CCCCCCCC(=O)[O-]
REMARK SMILES IDX 5 1 6 2 7 3 8 4 9 5 10 6 4 7 3 8 2 9 1 10
REMARK H PARENT
REMARK Flexibility Score: inf
ROOT
ATOM      1  C   UNL     1       9.114  -8.367   4.987  1.00  0.00     0.000 C 
ENDROOT
BRANCH   1   2
ATOM      2  C   UNL     1      10.378  -7.496   5.054  1.00  0.00     0.006 C 
BRANCH   2   3
ATOM      3  C   UNL     1      11.380  -7.991   6.104  1.00  0.00     0.053 C 
BRANCH   3   4
ATOM      4  C   UNL     1      12.762  -8.024   5.532  1.00  0.00     0.041 C 
ATOM      5  O   UNL     1      12.981  -7.573   4.378  1.00  0.00    -0.550 OA
ATOM      6  O   UNL     1      13.800  -8.597   6.256  1.00  0.00    -0.550 OA
ENDBRANCH   3   4
ENDBRANCH   2   3
ENDBRANCH   1   2
BRANCH   1   7
ATOM      7  C   UNL     1       7.841  -7.592   5.374  1.00  0.00     0.000 C 
BRANCH   7   8
ATOM      8  C   UNL     1       7.028  -8.302   6.468  1.00  0.00    -0.000 C 
BRANCH   8   9
ATOM      9  C   UNL     1       7.889  -8.710   7.672  1.00  0.00    -0.003 C 
ATOM     10  C   UNL     1       7.360  -9.988   8.318  1.00  0.00     0.004 C 
ENDBRANCH   8   9
ENDBRANCH   7   8
ENDBRANCH   1   7
TORSDOF 6
ENDMDL
MODEL 8
REMARK VINA RESULT:    -2.745      7.964     10.063
REMARK INTER + INTRA:          -4.086
REMARK INTER:                  -3.767
REMARK INTRA:                  -0.319
REMARK UNBOUND:                -0.378
REMARK SMILES CCCCCCCC(=O)[O-]
REMARK SMILES IDX 5 1 6 2 7 3 8 4 9 5 10 6 4 7 3 8 2 9 1 10
REMARK H PARENT
REMARK Flexibility Score: inf
ROOT
ATOM      1  C   UNL     1       9.071  -9.126   6.989  1.00  0.00     0.000 C 
ENDROOT
BRANCH   1   2
ATOM      2  C   UNL     1       7.659  -8.647   7.362  1.00  0.00     0.006 C 
BRANCH   2   3
ATOM      3  C   UNL     1       6.735  -8.531   6.143  1.00  0.00     0.053 C 
BRANCH   3   4
ATOM      4  C   UNL     1       6.223  -7.132   6.008  1.00  0.00     0.041 C 
ATOM      5  O   UNL     1       6.310  -6.329   6.973  1.00  0.00    -0.550 OA
ATOM      6  O   UNL     1       5.606  -6.729   4.830  1.00  0.00    -0.550 OA
ENDBRANCH   3   4
ENDBRANCH   2   3
ENDBRANCH   1   2
BRANCH   1   7
ATOM      7  C   UNL     1       9.281  -9.214   5.466  1.00  0.00     0.000 C 
BRANCH   7   8
ATOM      8  C   UNL     1      10.692  -8.781   5.039  1.00  0.00    -0.000 C 
BRANCH   8   9
ATOM      9  C   UNL     1      11.457  -8.071   6.165  1.00  0.00    -0.003 C 
ATOM     10  C   UNL     1      12.955  -8.347   6.071  1.00  0.00     0.004 C 
ENDBRANCH   8   9
ENDBRANCH   7   8
ENDBRANCH   1   7
TORSDOF 6
ENDMDL
MODEL 9
REMARK VINA RESULT:    -2.687      3.676      5.471
REMARK INTER + INTRA:          -4.007
REMARK INTER:                  -3.821
REMARK INTRA:                  -0.187
REMARK UNBOUND:                -0.378
REMARK SMILES CCCCCCCC(=O)[O-]
REMARK SMILES IDX 5 1 6 2 7 3 8 4 9 5 10 6 4 7 3 8 2 9 1 10
REMARK H PARENT
REMARK Flexibility Score: inf
ROOT
ATOM      1  C   UNL     1      15.977  -7.483   6.438  1.00  0.00     0.000 C 
ENDROOT
BRANCH   1   2
ATOM      2  C   UNL     1      14.676  -8.273   6.651  1.00  0.00     0.006 C 
BRANCH   2   3
ATOM      3  C   UNL     1      13.931  -8.547   5.339  1.00  0.00     0.053 C 
BRANCH   3   4
ATOM      4  C   UNL     1      12.556  -7.959   5.387  1.00  0.00     0.041 C 
ATOM      5  O   UNL     1      12.103  -7.322   4.401  1.00  0.00    -0.550 OA
ATOM      6  O   UNL     1      11.792  -8.075   6.543  1.00  0.00    -0.550 OA
ENDBRANCH   3   4
ENDBRANCH   2   3
ENDBRANCH   1   2
BRANCH   1   7
ATOM      7  C   UNL     1      17.150  -8.382   6.007  1.00  0.00     0.000 C 
BRANCH   7   8
ATOM      8  C   UNL     1      18.497  -7.644   6.028  1.00  0.00    -0.000 C 
BRANCH   8   9
ATOM      9  C   UNL     1      19.335  -7.979   7.270  1.00  0.00    -0.003 C 
ATOM     10  C   UNL     1      19.019  -7.026   8.420  1.00  0.00     0.004 C 
ENDBRANCH   8   9
ENDBRANCH   7   8
ENDBRANCH   1   7
TORSDOF 6
ENDMDL
