MODEL 1
REMARK VINA RESULT:    -3.908      0.000      0.000
REMARK INTER + INTRA:          -9.508
REMARK INTER:                  -7.107
REMARK INTRA:                  -2.400
REMARK UNBOUND:                -2.400
REMARK SMILES CCCCCCCCCCCCCCCC(=O)[O-]
REMARK SMILES IDX 9 1 10 2 11 3 12 4 13 5 14 6 15 7 16 8 17 9 18 10 8 11 7 12
REMARK SMILES IDX 6 13 5 14 4 15 3 16 2 17 1 18
REMARK H PARENT
REMARK Flexibility Score: inf
ROOT
ATOM      1  C   UNL     1      26.331  -2.066   0.890  1.00  0.00     0.000 C 
ENDROOT
BRANCH   1   2
ATOM      2  C   UNL     1      25.042  -1.825   1.695  1.00  0.00     0.000 C 
BRANCH   2   3
ATOM      3  C   UNL     1      23.881  -1.316   0.822  1.00  0.00     0.000 C 
BRANCH   3   4
ATOM      4  C   UNL     1      24.297  -0.713  -0.536  1.00  0.00     0.000 C 
BRANCH   4   5
ATOM      5  C   UNL     1      23.419   0.454  -1.029  1.00  0.00     0.000 C 
BRANCH   5   6
ATOM      6  C   UNL     1      21.948   0.403  -0.572  1.00  0.00     0.006 C 
BRANCH   6   7
ATOM      7  C   UNL     1      21.370   1.760  -0.141  1.00  0.00     0.053 C 
BRANCH   7   8
ATOM      8  C   UNL     1      20.523   1.643   1.089  1.00  0.00     0.041 C 
ATOM      9  O   UNL     1      19.540   2.412   1.258  1.00  0.00    -0.550 OA
ATOM     10  O   UNL     1      20.840   0.708   2.066  1.00  0.00    -0.550 OA
ENDBRANCH   7   8
ENDBRANCH   6   7
ENDBRANCH   5   6
ENDBRANCH   4   5
ENDBRANCH   3   4
ENDBRANCH   2   3
ENDBRANCH   1   2
BRANCH   1  11
ATOM     11  C   UNL     1      27.592  -1.632   1.656  1.00  0.00     0.000 C 
BRANCH  11  12
ATOM     12  C   UNL     1      27.574  -0.141   2.033  1.00  0.00    -0.000 C 
BRANCH  12  13
ATOM     13  C   UNL     1      27.394   0.774   0.811  1.00  0.00    -0.000 C 
BRANCH  13  14
ATOM     14  C   UNL     1      26.322   1.855   1.034  1.00  0.00    -0.000 C 
BRANCH  14  15
ATOM     15  C   UNL     1      25.698   1.776   2.446  1.00  0.00    -0.000 C 
BRANCH  15  16
ATOM     16  C   UNL     1      24.165   1.930   2.452  1.00  0.00    -0.000 C 
BRANCH  16  17
ATOM     17  C   UNL     1      23.664   3.363   2.208  1.00  0.00    -0.003 C 
ATOM     18  C   UNL     1      23.258   4.078   3.496  1.00  0.00     0.004 C 
ENDBRANCH  16  17
ENDBRANCH  15  16
ENDBRANCH  14  15
ENDBRANCH  13  14
ENDBRANCH  12  13
ENDBRANCH  11  12
ENDBRANCH   1  11
TORSDOF 14
ENDMDL
MODEL 2
REMARK VINA RESULT:    -3.758      3.608      5.012
REMARK INTER + INTRA:          -9.233
REMARK INTER:                  -7.397
REMARK INTRA:                  -1.837
REMARK UNBOUND:                -2.400
REMARK SMILES CCCCCCCCCCCCCCCC(=O)[O-]
REMARK SMILES IDX 9 1 10 2 11 3 12 4 13 5 14 6 15 7 16 8 17 9 18 10 8 11 7 12
REMARK SMILES IDX 6 13 5 14 4 15 3 16 2 17 1 18
REMARK H PARENT
REMARK Flexibility Score: inf
ROOT
ATOM      1  C   UNL     1      27.662   2.260  -2.628  1.00  0.00     0.000 C 
ENDROOT
BRANCH   1   2
ATOM      2  C   UNL     1      27.239   1.711  -4.001  1.00  0.00     0.000 C 
BRANCH   2   3
ATOM      3  C   UNL     1      26.473   2.745  -4.846  1.00  0.00     0.000 C 
BRANCH   3   4
ATOM      4  C   UNL     1      24.976   2.440  -5.056  1.00  0.00     0.000 C 
BRANCH   4   5
ATOM      5  C   UNL     1      24.556   0.986  -4.763  1.00  0.00     0.000 C 
BRANCH   5   6
ATOM      6  C   UNL     1      23.266   0.835  -3.932  1.00  0.00     0.006 C 
BRANCH   6   7
ATOM      7  C   UNL     1      23.034  -0.577  -3.372  1.00  0.00     0.053 C 
BRANCH   7   8
ATOM      8  C   UNL     1      21.646  -1.068  -3.647  1.00  0.00     0.041 C 
ATOM      9  O   UNL     1      21.220  -2.113  -3.088  1.00  0.00    -0.550 OA
ATOM     10  O   UNL     1      20.834  -0.390  -4.548  1.00  0.00    -0.550 OA
ENDBRANCH   7   8
ENDBRANCH   6   7
ENDBRANCH   5   6
ENDBRANCH   4   5
ENDBRANCH   3   4
ENDBRANCH   2   3
ENDBRANCH   1   2
BRANCH   1  11
ATOM     11  C   UNL     1      26.996   1.506  -1.463  1.00  0.00     0.000 C 
BRANCH  11  12
ATOM     12  C   UNL     1      26.678   0.042  -1.809  1.00  0.00    -0.000 C 
BRANCH  12  13
ATOM     13  C   UNL     1      25.773  -0.628  -0.763  1.00  0.00    -0.000 C 
BRANCH  13  14
ATOM     14  C   UNL     1      26.535  -1.623   0.128  1.00  0.00    -0.000 C 
BRANCH  14  15
ATOM     15  C   UNL     1      26.597  -1.160   1.601  1.00  0.00    -0.000 C 
BRANCH  15  16
ATOM     16  C   UNL     1      25.741   0.088   1.892  1.00  0.00    -0.000 C 
BRANCH  16  17
ATOM     17  C   UNL     1      26.542   1.335   2.299  1.00  0.00    -0.003 C 
ATOM     18  C   UNL     1      28.051   1.148   2.141  1.00  0.00     0.004 C 
ENDBRANCH  16  17
ENDBRANCH  15  16
ENDBRANCH  14  15
ENDBRANCH  13  14
ENDBRANCH  12  13
ENDBRANCH  11  12
ENDBRANCH   1  11
TORSDOF 14
ENDMDL
MODEL 3
REMARK VINA RESULT:    -3.749      2.634      6.090
REMARK INTER + INTRA:          -9.217
REMARK INTER:                  -7.099
REMARK INTRA:                  -2.118
REMARK UNBOUND:                -2.400
REMARK SMILES CCCCCCCCCCCCCCCC(=O)[O-]
REMARK SMILES IDX 9 1 10 2 11 3 12 4 13 5 14 6 15 7 16 8 17 9 18 10 8 11 7 12
REMARK SMILES IDX 6 13 5 14 4 15 3 16 2 17 1 18
REMARK H PARENT
REMARK Flexibility Score: inf
ROOT
ATOM      1  C   UNL     1      21.411   0.502   1.566  1.00  0.00     0.000 C 
ENDROOT
BRANCH   1   2
ATOM      2  C   UNL     1      20.070   1.254   1.583  1.00  0.00     0.000 C 
BRANCH   2   3
ATOM      3  C   UNL     1      20.233   2.769   1.362  1.00  0.00     0.000 C 
BRANCH   3   4
ATOM      4  C   UNL     1      21.686   3.253   1.182  1.00  0.00     0.000 C 
BRANCH   4   5
ATOM      5  C   UNL     1      22.327   3.879   2.436  1.00  0.00     0.000 C 
BRANCH   5   6
ATOM      6  C   UNL     1      23.658   3.237   2.878  1.00  0.00     0.006 C 
BRANCH   6   7
ATOM      7  C   UNL     1      24.448   2.569   1.741  1.00  0.00     0.053 C 
BRANCH   7   8
ATOM      8  C   UNL     1      25.361   1.496   2.248  1.00  0.00     0.041 C 
ATOM      9  O   UNL     1      26.593   1.721   2.379  1.00  0.00    -0.550 OA
ATOM     10  O   UNL     1      24.857   0.236   2.545  1.00  0.00    -0.550 OA
ENDBRANCH   7   8
ENDBRANCH   6   7
ENDBRANCH   5   6
ENDBRANCH   4   5
ENDBRANCH   3   4
ENDBRANCH   2   3
ENDBRANCH   1   2
BRANCH   1  11
ATOM     11  C   UNL     1      21.521  -0.478   0.386  1.00  0.00     0.000 C 
BRANCH  11  12
ATOM     12  C   UNL     1      22.865  -0.367  -0.354  1.00  0.00    -0.000 C 
BRANCH  12  13
ATOM     13  C   UNL     1      22.935   0.865  -1.270  1.00  0.00    -0.000 C 
BRANCH  13  14
ATOM     14  C   UNL     1      21.681   1.024  -2.146  1.00  0.00    -0.000 C 
BRANCH  14  15
ATOM     15  C   UNL     1      21.938   0.616  -3.613  1.00  0.00    -0.000 C 
BRANCH  15  16
ATOM     16  C   UNL     1      20.960  -0.454  -4.137  1.00  0.00    -0.000 C 
BRANCH  16  17
ATOM     17  C   UNL     1      21.179  -1.861  -3.556  1.00  0.00    -0.003 C 
ATOM     18  C   UNL     1      22.654  -2.258  -3.504  1.00  0.00     0.004 C 
ENDBRANCH  16  17
ENDBRANCH  15  16
ENDBRANCH  14  15
ENDBRANCH  13  14
ENDBRANCH  12  13
ENDBRANCH  11  12
ENDBRANCH   1  11
TORSDOF 14
ENDMDL
MODEL 4
REMARK VINA RESULT:    -3.730      2.953      6.315
REMARK INTER + INTRA:          -9.183
REMARK INTER:                  -7.450
REMARK INTRA:                  -1.733
REMARK UNBOUND:                -2.400
REMARK SMILES CCCCCCCCCCCCCCCC(=O)[O-]
REMARK SMILES IDX 9 1 10 2 11 3 12 4 13 5 14 6 15 7 16 8 17 9 18 10 8 11 7 12
REMARK SMILES IDX 6 13 5 14 4 15 3 16 2 17 1 18
REMARK H PARENT
REMARK Flexibility Score: inf
ROOT
ATOM      1  C   UNL     1      21.689   1.303   1.853  1.00  0.00     0.000 C 
ENDROOT
BRANCH   1   2
ATOM      2  C   UNL     1      22.882   2.171   2.287  1.00  0.00     0.000 C 
BRANCH   2   3
ATOM      3  C   UNL     1      24.205   1.385   2.339  1.00  0.00     0.000 C 
BRANCH   3   4
ATOM      4  C   UNL     1      24.311   0.213   1.342  1.00  0.00     0.000 C 
BRANCH   4   5
ATOM      5  C   UNL     1      25.021  -1.044   1.883  1.00  0.00     0.000 C 
BRANCH   5   6
ATOM      6  C   UNL     1      26.242  -1.507   1.063  1.00  0.00     0.006 C 
BRANCH   6   7
ATOM      7  C   UNL     1      27.594  -1.023   1.609  1.00  0.00     0.053 C 
BRANCH   7   8
ATOM      8  C   UNL     1      27.796   0.444   1.386  1.00  0.00     0.041 C 
ATOM      9  O   UNL     1      27.713   0.926   0.225  1.00  0.00    -0.550 OA
ATOM     10  O   UNL     1      28.111   1.274   2.454  1.00  0.00    -0.550 OA
ENDBRANCH   7   8
ENDBRANCH   6   7
ENDBRANCH   5   6
ENDBRANCH   4   5
ENDBRANCH   3   4
ENDBRANCH   2   3
ENDBRANCH   1   2
BRANCH   1  11
ATOM     11  C   UNL     1      20.746   2.038   0.887  1.00  0.00     0.000 C 
BRANCH  11  12
ATOM     12  C   UNL     1      20.955   1.621  -0.579  1.00  0.00    -0.000 C 
BRANCH  12  13
ATOM     13  C   UNL     1      22.078   2.415  -1.264  1.00  0.00    -0.000 C 
BRANCH  13  14
ATOM     14  C   UNL     1      23.176   1.506  -1.844  1.00  0.00    -0.000 C 
BRANCH  14  15
ATOM     15  C   UNL     1      22.696   0.048  -2.017  1.00  0.00    -0.000 C 
BRANCH  15  16
ATOM     16  C   UNL     1      22.621  -0.407  -3.488  1.00  0.00    -0.000 C 
BRANCH  16  17
ATOM     17  C   UNL     1      21.196  -0.496  -4.059  1.00  0.00    -0.003 C 
ATOM     18  C   UNL     1      20.615   0.871  -4.420  1.00  0.00     0.004 C 
ENDBRANCH  16  17
ENDBRANCH  15  16
ENDBRANCH  14  15
ENDBRANCH  13  14
ENDBRANCH  12  13
ENDBRANCH  11  12
ENDBRANCH   1  11
TORSDOF 14
ENDMDL
MODEL 5
REMARK VINA RESULT:    -3.725      4.293      5.982
REMARK INTER + INTRA:          -9.174
REMARK INTER:                  -7.101
REMARK INTRA:                  -2.073
REMARK UNBOUND:                -2.400
REMARK SMILES CCCCCCCCCCCCCCCC(=O)[O-]
REMARK SMILES IDX 9 1 10 2 11 3 12 4 13 5 14 6 15 7 16 8 17 9 18 10 8 11 7 12
REMARK SMILES IDX 6 13 5 14 4 15 3 16 2 17 1 18
REMARK H PARENT
REMARK Flexibility Score: inf
ROOT
ATOM      1  C   UNL     1      24.872   0.995  -1.197  1.00  0.00     0.000 C 
ENDROOT
BRANCH   1   2
ATOM      2  C   UNL     1      25.359   2.449  -1.076  1.00  0.00     0.000 C 
BRANCH   2   3
ATOM      3  C   UNL     1      26.894   2.567  -1.082  1.00  0.00     0.000 C 
BRANCH   3   4
ATOM      4  C   UNL     1      27.626   1.542  -1.973  1.00  0.00     0.000 C 
BRANCH   4   5
ATOM      5  C   UNL     1      28.046   2.064  -3.361  1.00  0.00     0.000 C 
BRANCH   5   6
ATOM      6  C   UNL     1      26.918   2.102  -4.412  1.00  0.00     0.006 C 
BRANCH   6   7
ATOM      7  C   UNL     1      26.789   3.441  -5.156  1.00  0.00     0.053 C 
BRANCH   7   8
ATOM      8  C   UNL     1      26.925   4.611  -4.231  1.00  0.00     0.041 C 
ATOM      9  O   UNL     1      25.934   5.009  -3.562  1.00  0.00    -0.550 OA
ATOM     10  O   UNL     1      28.136   5.284  -4.133  1.00  0.00    -0.550 OA
ENDBRANCH   7   8
ENDBRANCH   6   7
ENDBRANCH   5   6
ENDBRANCH   4   5
ENDBRANCH   3   4
ENDBRANCH   2   3
ENDBRANCH   1   2
BRANCH   1  11
ATOM     11  C   UNL     1      23.368   0.853  -0.908  1.00  0.00     0.000 C 
BRANCH  11  12
ATOM     12  C   UNL     1      22.889   1.783   0.219  1.00  0.00    -0.000 C 
BRANCH  12  13
ATOM     13  C   UNL     1      23.047   1.153   1.612  1.00  0.00    -0.000 C 
BRANCH  13  14
ATOM     14  C   UNL     1      24.231   1.742   2.398  1.00  0.00    -0.000 C 
BRANCH  14  15
ATOM     15  C   UNL     1      25.442   0.785   2.434  1.00  0.00    -0.000 C 
BRANCH  15  16
ATOM     16  C   UNL     1      26.802   1.509   2.428  1.00  0.00    -0.000 C 
BRANCH  16  17
ATOM     17  C   UNL     1      27.980   0.655   1.931  1.00  0.00    -0.003 C 
ATOM     18  C   UNL     1      27.562  -0.761   1.536  1.00  0.00     0.004 C 
ENDBRANCH  16  17
ENDBRANCH  15  16
ENDBRANCH  14  15
ENDBRANCH  13  14
ENDBRANCH  12  13
ENDBRANCH  11  12
ENDBRANCH   1  11
TORSDOF 14
ENDMDL
MODEL 6
REMARK VINA RESULT:    -3.682      3.918      5.734
REMARK INTER + INTRA:          -9.097
REMARK INTER:                  -6.641
REMARK INTRA:                  -2.456
REMARK UNBOUND:                -2.400
REMARK SMILES CCCCCCCCCCCCCCCC(=O)[O-]
REMARK SMILES IDX 9 1 10 2 11 3 12 4 13 5 14 6 15 7 16 8 17 9 18 10 8 11 7 12
REMARK SMILES IDX 6 13 5 14 4 15 3 16 2 17 1 18
REMARK H PARENT
REMARK Flexibility Score: inf
ROOT
ATOM      1  C   UNL     1      24.570   1.827  -0.034  1.00  0.00     0.000 C 
ENDROOT
BRANCH   1   2
ATOM      2  C   UNL     1      23.515   0.930  -0.703  1.00  0.00     0.000 C 
BRANCH   2   3
ATOM      3  C   UNL     1      24.130  -0.075  -1.694  1.00  0.00     0.000 C 
BRANCH   3   4
ATOM      4  C   UNL     1      24.128   0.374  -3.169  1.00  0.00     0.000 C 
BRANCH   4   5
ATOM      5  C   UNL     1      25.507   0.765  -3.736  1.00  0.00     0.000 C 
BRANCH   5   6
ATOM      6  C   UNL     1      26.715   0.194  -2.965  1.00  0.00     0.006 C 
BRANCH   6   7
ATOM      7  C   UNL     1      27.617   1.258  -2.322  1.00  0.00     0.053 C 
BRANCH   7   8
ATOM      8  C   UNL     1      28.581   1.846  -3.306  1.00  0.00     0.041 C 
ATOM      9  O   UNL     1      29.581   1.182  -3.688  1.00  0.00    -0.550 OA
ATOM     10  O   UNL     1      28.394   3.140  -3.775  1.00  0.00    -0.550 OA
ENDBRANCH   7   8
ENDBRANCH   6   7
ENDBRANCH   5   6
ENDBRANCH   4   5
ENDBRANCH   3   4
ENDBRANCH   2   3
ENDBRANCH   1   2
BRANCH   1  11
ATOM     11  C   UNL     1      24.315   2.012   1.472  1.00  0.00     0.000 C 
BRANCH  11  12
ATOM     12  C   UNL     1      25.600   1.894   2.310  1.00  0.00    -0.000 C 
BRANCH  12  13
ATOM     13  C   UNL     1      26.834   1.567   1.455  1.00  0.00    -0.000 C 
BRANCH  13  14
ATOM     14  C   UNL     1      27.876   0.728   2.215  1.00  0.00    -0.000 C 
BRANCH  14  15
ATOM     15  C   UNL     1      27.774  -0.776   1.878  1.00  0.00    -0.000 C 
BRANCH  15  16
ATOM     16  C   UNL     1      26.976  -1.067   0.592  1.00  0.00    -0.000 C 
BRANCH  16  17
ATOM     17  C   UNL     1      25.930  -2.186   0.727  1.00  0.00    -0.003 C 
ATOM     18  C   UNL     1      24.759  -1.798   1.629  1.00  0.00     0.004 C 
ENDBRANCH  16  17
ENDBRANCH  15  16
ENDBRANCH  14  15
ENDBRANCH  13  14
ENDBRANCH  12  13
ENDBRANCH  11  12
ENDBRANCH   1  11
TORSDOF 14
ENDMDL
MODEL 7
REMARK VINA RESULT:    -3.666      3.820      6.573
REMARK INTER + INTRA:          -9.067
REMARK INTER:                  -7.211
REMARK INTRA:                  -1.855
REMARK UNBOUND:                -2.400
REMARK SMILES CCCCCCCCCCCCCCCC(=O)[O-]
REMARK SMILES IDX 9 1 10 2 11 3 12 4 13 5 14 6 15 7 16 8 17 9 18 10 8 11 7 12
REMARK SMILES IDX 6 13 5 14 4 15 3 16 2 17 1 18
REMARK H PARENT
REMARK Flexibility Score: inf
ROOT
ATOM      1  C   UNL     1      24.929   0.407   2.491  1.00  0.00     0.000 C 
ENDROOT
BRANCH   1   2
ATOM      2  C   UNL     1      25.907   1.591   2.403  1.00  0.00     0.000 C 
BRANCH   2   3
ATOM      3  C   UNL     1      27.381   1.150   2.431  1.00  0.00     0.000 C 
BRANCH   3   4
ATOM      4  C   UNL     1      28.099   1.173   1.066  1.00  0.00     0.000 C 
BRANCH   4   5
ATOM      5  C   UNL     1      27.283   1.780  -0.092  1.00  0.00     0.000 C 
BRANCH   5   6
ATOM      6  C   UNL     1      27.279   0.949  -1.391  1.00  0.00     0.006 C 
BRANCH   6   7
ATOM      7  C   UNL     1      27.590   1.757  -2.661  1.00  0.00     0.053 C 
BRANCH   7   8
ATOM      8  C   UNL     1      27.334   0.965  -3.906  1.00  0.00     0.041 C 
ATOM      9  O   UNL     1      26.309   1.191  -4.602  1.00  0.00    -0.550 OA
ATOM     10  O   UNL     1      28.211  -0.047  -4.279  1.00  0.00    -0.550 OA
ENDBRANCH   7   8
ENDBRANCH   6   7
ENDBRANCH   5   6
ENDBRANCH   4   5
ENDBRANCH   3   4
ENDBRANCH   2   3
ENDBRANCH   1   2
BRANCH   1  11
ATOM     11  C   UNL     1      24.237   0.115   1.148  1.00  0.00     0.000 C 
BRANCH  11  12
ATOM     12  C   UNL     1      24.746  -1.177   0.487  1.00  0.00    -0.000 C 
BRANCH  12  13
ATOM     13  C   UNL     1      25.614  -2.022   1.433  1.00  0.00    -0.000 C 
BRANCH  13  14
ATOM     14  C   UNL     1      27.019  -2.288   0.868  1.00  0.00    -0.000 C 
BRANCH  14  15
ATOM     15  C   UNL     1      28.049  -2.589   1.980  1.00  0.00    -0.000 C 
BRANCH  15  16
ATOM     16  C   UNL     1      28.648  -4.006   1.899  1.00  0.00    -0.000 C 
BRANCH  16  17
ATOM     17  C   UNL     1      29.958  -4.103   1.100  1.00  0.00    -0.003 C 
ATOM     18  C   UNL     1      31.130  -4.611   1.939  1.00  0.00     0.004 C 
ENDBRANCH  16  17
ENDBRANCH  15  16
ENDBRANCH  14  15
ENDBRANCH  13  14
ENDBRANCH  12  13
ENDBRANCH  11  12
ENDBRANCH   1  11
TORSDOF 14
ENDMDL
MODEL 8
REMARK VINA RESULT:    -3.657      1.622      3.932
REMARK INTER + INTRA:          -9.051
REMARK INTER:                  -6.643
REMARK INTRA:                  -2.408
REMARK UNBOUND:                -2.400
REMARK SMILES CCCCCCCCCCCCCCCC(=O)[O-]
REMARK SMILES IDX 9 1 10 2 11 3 12 4 13 5 14 6 15 7 16 8 17 9 18 10 8 11 7 12
REMARK SMILES IDX 6 13 5 14 4 15 3 16 2 17 1 18
REMARK H PARENT
REMARK Flexibility Score: inf
ROOT
ATOM      1  C   UNL     1      24.331   2.647   2.665  1.00  0.00     0.000 C 
ENDROOT
BRANCH   1   2
ATOM      2  C   UNL     1      23.006   3.426   2.627  1.00  0.00     0.000 C 
BRANCH   2   3
ATOM      3  C   UNL     1      22.939   4.433   1.465  1.00  0.00     0.000 C 
BRANCH   3   4
ATOM      4  C   UNL     1      23.619   3.974   0.159  1.00  0.00     0.000 C 
BRANCH   4   5
ATOM      5  C   UNL     1      22.672   3.360  -0.891  1.00  0.00     0.000 C 
BRANCH   5   6
ATOM      6  C   UNL     1      22.406   1.851  -0.727  1.00  0.00     0.006 C 
BRANCH   6   7
ATOM      7  C   UNL     1      20.922   1.482  -0.572  1.00  0.00     0.053 C 
BRANCH   7   8
ATOM      8  C   UNL     1      20.467   1.575   0.852  1.00  0.00     0.041 C 
ATOM      9  O   UNL     1      20.669   0.619   1.646  1.00  0.00    -0.550 OA
ATOM     10  O   UNL     1      19.789   2.705   1.293  1.00  0.00    -0.550 OA
ENDBRANCH   7   8
ENDBRANCH   6   7
ENDBRANCH   5   6
ENDBRANCH   4   5
ENDBRANCH   3   4
ENDBRANCH   2   3
ENDBRANCH   1   2
BRANCH   1  11
ATOM     11  C   UNL     1      24.139   1.144   2.401  1.00  0.00     0.000 C 
BRANCH  11  12
ATOM     12  C   UNL     1      25.471   0.397   2.224  1.00  0.00    -0.000 C 
BRANCH  12  13
ATOM     13  C   UNL     1      26.691   1.305   2.444  1.00  0.00    -0.000 C 
BRANCH  13  14
ATOM     14  C   UNL     1      27.592   1.398   1.201  1.00  0.00    -0.000 C 
BRANCH  14  15
ATOM     15  C   UNL     1      26.922   2.181   0.050  1.00  0.00    -0.000 C 
BRANCH  15  16
ATOM     16  C   UNL     1      27.149   1.552  -1.338  1.00  0.00    -0.000 C 
BRANCH  16  17
ATOM     17  C   UNL     1      25.877   1.016  -2.014  1.00  0.00    -0.003 C 
ATOM     18  C   UNL     1      25.383  -0.292  -1.396  1.00  0.00     0.004 C 
ENDBRANCH  16  17
ENDBRANCH  15  16
ENDBRANCH  14  15
ENDBRANCH  13  14
ENDBRANCH  12  13
ENDBRANCH  11  12
ENDBRANCH   1  11
TORSDOF 14
ENDMDL
MODEL 9
REMARK VINA RESULT:    -3.654      2.835      4.238
REMARK INTER + INTRA:          -9.045
REMARK INTER:                  -6.891
REMARK INTRA:                  -2.154
REMARK UNBOUND:                -2.400
REMARK SMILES CCCCCCCCCCCCCCCC(=O)[O-]
REMARK SMILES IDX 9 1 10 2 11 3 12 4 13 5 14 6 15 7 16 8 17 9 18 10 8 11 7 12
REMARK SMILES IDX 6 13 5 14 4 15 3 16 2 17 1 18
REMARK H PARENT
REMARK Flexibility Score: inf
ROOT
ATOM      1  C   UNL     1      27.725   1.587  -2.731  1.00  0.00     0.000 C 
ENDROOT
BRANCH   1   2
ATOM      2  C   UNL     1      27.011   1.146  -4.020  1.00  0.00     0.000 C 
BRANCH   2   3
ATOM      3  C   UNL     1      26.244   2.294  -4.700  1.00  0.00     0.000 C 
BRANCH   3   4
ATOM      4  C   UNL     1      24.746   2.023  -4.952  1.00  0.00     0.000 C 
BRANCH   4   5
ATOM      5  C   UNL     1      24.231   0.664  -4.439  1.00  0.00     0.000 C 
BRANCH   5   6
ATOM      6  C   UNL     1      23.190   0.748  -3.304  1.00  0.00     0.006 C 
BRANCH   6   7
ATOM      7  C   UNL     1      23.478   1.837  -2.259  1.00  0.00     0.053 C 
BRANCH   7   8
ATOM      8  C   UNL     1      22.509   1.788  -1.118  1.00  0.00     0.041 C 
ATOM      9  O   UNL     1      21.293   1.535  -1.329  1.00  0.00    -0.550 OA
ATOM     10  O   UNL     1      22.941   2.056   0.175  1.00  0.00    -0.550 OA
ENDBRANCH   7   8
ENDBRANCH   6   7
ENDBRANCH   5   6
ENDBRANCH   4   5
ENDBRANCH   3   4
ENDBRANCH   2   3
ENDBRANCH   1   2
BRANCH   1  11
ATOM     11  C   UNL     1      27.061   1.016  -1.467  1.00  0.00     0.000 C 
BRANCH  11  12
ATOM     12  C   UNL     1      26.608  -0.444  -1.642  1.00  0.00    -0.000 C 
BRANCH  12  13
ATOM     13  C   UNL     1      25.447  -0.817  -0.707  1.00  0.00    -0.000 C 
BRANCH  13  14
ATOM     14  C   UNL     1      25.871  -1.793   0.404  1.00  0.00    -0.000 C 
BRANCH  14  15
ATOM     15  C   UNL     1      26.455  -1.061   1.633  1.00  0.00    -0.000 C 
BRANCH  15  16
ATOM     16  C   UNL     1      25.660   0.196   2.037  1.00  0.00    -0.000 C 
BRANCH  16  17
ATOM     17  C   UNL     1      26.526   1.424   2.362  1.00  0.00    -0.003 C 
ATOM     18  C   UNL     1      28.019   1.170   2.152  1.00  0.00     0.004 C 
ENDBRANCH  16  17
ENDBRANCH  15  16
ENDBRANCH  14  15
ENDBRANCH  13  14
ENDBRANCH  12  13
ENDBRANCH  11  12
ENDBRANCH   1  11
TORSDOF 14
ENDMDL
