MODEL 1
REMARK VINA RESULT:    -3.195      0.000      0.000
REMARK INTER + INTRA:          -4.110
REMARK INTER:                  -3.942
REMARK INTRA:                  -0.169
REMARK UNBOUND:                -0.169
REMARK SMILES COc1cc(-c2oc3cc(O)cc(O)c3c(=O)c2O)ccc1O
REMARK SMILES IDX 6 1 18 2 16 3 17 4 15 5 13 6 12 7 10 8 9 9 8 10 7 11 5 12
REMARK SMILES IDX 3 13 22 14 4 15 21 16 20 17 2 18 1 19 23 20 19 22 14 24
REMARK SMILES IDX 11 26
REMARK H PARENT 23 21 19 23 14 25 11 27
REMARK Flexibility Score: inf
ROOT
ATOM      1  C   UNL     1      20.466 -15.161   2.959  1.00  0.00     0.180 A 
ATOM      2  C   UNL     1      20.370 -14.538   1.757  1.00  0.00     0.208 A 
ATOM      3  C   UNL     1      20.203 -15.303   0.582  1.00  0.00     0.238 A 
ATOM      4  O   UNL     1      20.114 -14.735  -0.535  1.00  0.00    -0.285 OA
ATOM      5  C   UNL     1      20.136 -16.675   0.627  1.00  0.00     0.111 A 
ATOM      6  C   UNL     1      19.976 -17.483  -0.476  1.00  0.00     0.134 A 
ATOM      7  C   UNL     1      19.914 -18.856  -0.379  1.00  0.00     0.093 A 
ATOM      8  C   UNL     1      20.022 -19.396   0.895  1.00  0.00     0.123 A 
ATOM      9  C   UNL     1      20.184 -18.596   2.006  1.00  0.00     0.094 A 
ATOM     10  C   UNL     1      20.244 -17.225   1.898  1.00  0.00     0.146 A 
ATOM     11  O   UNL     1      20.395 -16.495   2.949  1.00  0.00    -0.452 OA
ENDROOT
BRANCH   1  12
ATOM     12  C   UNL     1      20.638 -14.533   4.257  1.00  0.00     0.025 A 
ATOM     13  C   UNL     1      21.832 -14.501   6.396  1.00  0.00     0.161 A 
ATOM     14  C   UNL     1      21.013 -13.401   6.745  1.00  0.00     0.157 A 
ATOM     15  C   UNL     1      21.587 -15.027   5.118  1.00  0.00     0.062 A 
ATOM     16  C   UNL     1      20.066 -12.875   5.937  1.00  0.00     0.051 A 
ATOM     17  C   UNL     1      19.884 -13.463   4.668  1.00  0.00     0.016 A 
BRANCH  13  18
ATOM     18  O   UNL     1      22.740 -14.986   7.198  1.00  0.00    -0.493 OA
ATOM     19  C   UNL     1      23.618 -15.455   7.973  1.00  0.00     0.278 C 
ENDBRANCH  13  18
BRANCH  14  20
ATOM     20  O   UNL     1      21.248 -12.876   8.003  1.00  0.00    -0.504 OA
ATOM     21  H   UNL     1      21.924 -13.256   8.654  1.00  0.00     0.293 HD
ENDBRANCH  14  20
ENDBRANCH   1  12
BRANCH   2  22
ATOM     22  O   UNL     1      20.430 -13.174   1.646  1.00  0.00    -0.502 OA
ATOM     23  H   UNL     1      20.004 -12.660   0.879  1.00  0.00     0.293 HD
ENDBRANCH   2  22
BRANCH   6  24
ATOM     24  O   UNL     1      19.875 -16.844  -1.721  1.00  0.00    -0.507 OA
ATOM     25  H   UNL     1      20.716 -16.443  -2.110  1.00  0.00     0.293 HD
ENDBRANCH   6  24
BRANCH   8  26
ATOM     26  O   UNL     1      19.965 -20.789   1.037  1.00  0.00    -0.508 OA
ATOM     27  H   UNL     1      20.609 -21.176   1.715  1.00  0.00     0.293 HD
ENDBRANCH   8  26
TORSDOF 6
ENDMDL
MODEL 2
REMARK VINA RESULT:    -2.745      1.789      6.779
REMARK INTER + INTRA:          -3.556
REMARK INTER:                  -3.614
REMARK INTRA:                   0.058
REMARK UNBOUND:                -0.169
REMARK SMILES COc1cc(-c2oc3cc(O)cc(O)c3c(=O)c2O)ccc1O
REMARK SMILES IDX 6 1 18 2 16 3 17 4 15 5 13 6 12 7 10 8 9 9 8 10 7 11 5 12
REMARK SMILES IDX 3 13 22 14 4 15 21 16 20 17 2 18 1 19 23 20 19 22 14 24
REMARK SMILES IDX 11 26
REMARK H PARENT 23 21 19 23 14 25 11 27
REMARK Flexibility Score: inf
ROOT
ATOM      1  C   UNL     1      20.168 -17.433   1.480  1.00  0.00     0.180 A 
ATOM      2  C   UNL     1      20.132 -16.182   0.955  1.00  0.00     0.208 A 
ATOM      3  C   UNL     1      20.048 -15.064   1.813  1.00  0.00     0.238 A 
ATOM      4  O   UNL     1      20.013 -13.903   1.337  1.00  0.00    -0.285 OA
ATOM      5  C   UNL     1      20.001 -15.215   3.178  1.00  0.00     0.111 A 
ATOM      6  C   UNL     1      19.919 -14.172   4.074  1.00  0.00     0.134 A 
ATOM      7  C   UNL     1      19.875 -14.374   5.436  1.00  0.00     0.093 A 
ATOM      8  C   UNL     1      19.918 -15.691   5.872  1.00  0.00     0.123 A 
ATOM      9  C   UNL     1      20.000 -16.742   4.984  1.00  0.00     0.094 A 
ATOM     10  C   UNL     1      20.043 -16.529   3.625  1.00  0.00     0.146 A 
ATOM     11  O   UNL     1      20.120 -17.526   2.812  1.00  0.00    -0.452 OA
ENDROOT
BRANCH   1  12
ATOM     12  C   UNL     1      20.254 -18.686   0.749  1.00  0.00     0.025 A 
ATOM     13  C   UNL     1      20.861 -21.059   0.779  1.00  0.00     0.161 A 
ATOM     14  C   UNL     1      20.457 -21.097  -0.577  1.00  0.00     0.157 A 
ATOM     15  C   UNL     1      20.732 -19.802   1.390  1.00  0.00     0.062 A 
ATOM     16  C   UNL     1      19.979 -20.029  -1.255  1.00  0.00     0.051 A 
ATOM     17  C   UNL     1      19.880 -18.803  -0.566  1.00  0.00     0.016 A 
BRANCH  13  18
ATOM     18  O   UNL     1      21.318 -22.106   1.407  1.00  0.00    -0.493 OA
ATOM     19  C   UNL     1      21.761 -23.120   2.015  1.00  0.00     0.278 C 
ENDBRANCH  13  18
BRANCH  14  20
ATOM     20  O   UNL     1      20.582 -22.331  -1.188  1.00  0.00    -0.504 OA
ATOM     21  H   UNL     1      21.401 -22.622  -1.707  1.00  0.00     0.293 HD
ENDBRANCH  14  20
ENDBRANCH   1  12
BRANCH   2  22
ATOM     22  O   UNL     1      20.174 -15.967  -0.397  1.00  0.00    -0.502 OA
ATOM     23  H   UNL     1      19.594 -16.477  -1.059  1.00  0.00     0.293 HD
ENDBRANCH   2  22
BRANCH   6  24
ATOM     24  O   UNL     1      19.882 -12.876   3.537  1.00  0.00    -0.507 OA
ATOM     25  H   UNL     1      19.387 -12.168   4.058  1.00  0.00     0.293 HD
ENDBRANCH   6  24
BRANCH   8  26
ATOM     26  O   UNL     1      19.875 -15.939   7.251  1.00  0.00    -0.508 OA
ATOM     27  H   UNL     1      19.034 -15.621   7.716  1.00  0.00     0.293 HD
ENDBRANCH   8  26
TORSDOF 6
ENDMDL
MODEL 3
REMARK VINA RESULT:    -1.565      1.600      7.062
REMARK INTER + INTRA:          -2.100
REMARK INTER:                  -1.946
REMARK INTRA:                  -0.153
REMARK UNBOUND:                -0.169
REMARK SMILES COc1cc(-c2oc3cc(O)cc(O)c3c(=O)c2O)ccc1O
REMARK SMILES IDX 6 1 18 2 16 3 17 4 15 5 13 6 12 7 10 8 9 9 8 10 7 11 5 12
REMARK SMILES IDX 3 13 22 14 4 15 21 16 20 17 2 18 1 19 23 20 19 22 14 24
REMARK SMILES IDX 11 26
REMARK H PARENT 23 21 19 23 14 25 11 27
REMARK Flexibility Score: inf
ROOT
ATOM      1  C   UNL     1      21.085 -15.928   4.132  1.00  0.00     0.180 A 
ATOM      2  C   UNL     1      20.680 -14.664   4.419  1.00  0.00     0.208 A 
ATOM      3  C   UNL     1      21.090 -14.053   5.623  1.00  0.00     0.238 A 
ATOM      4  O   UNL     1      20.720 -12.885   5.898  1.00  0.00    -0.285 OA
ATOM      5  C   UNL     1      21.897 -14.713   6.519  1.00  0.00     0.111 A 
ATOM      6  C   UNL     1      22.335 -14.181   7.711  1.00  0.00     0.134 A 
ATOM      7  C   UNL     1      23.144 -14.883   8.578  1.00  0.00     0.093 A 
ATOM      8  C   UNL     1      23.503 -16.167   8.192  1.00  0.00     0.123 A 
ATOM      9  C   UNL     1      23.070 -16.710   7.001  1.00  0.00     0.094 A 
ATOM     10  C   UNL     1      22.262 -15.999   6.143  1.00  0.00     0.146 A 
ATOM     11  O   UNL     1      21.868 -16.525   5.034  1.00  0.00    -0.452 OA
ENDROOT
BRANCH   1  12
ATOM     12  C   UNL     1      20.760 -16.701   2.946  1.00  0.00     0.025 A 
ATOM     13  C   UNL     1      20.697 -16.806   0.499  1.00  0.00     0.161 A 
ATOM     14  C   UNL     1      20.157 -18.106   0.649  1.00  0.00     0.157 A 
ATOM     15  C   UNL     1      20.979 -16.150   1.707  1.00  0.00     0.062 A 
ATOM     16  C   UNL     1      19.923 -18.696   1.843  1.00  0.00     0.051 A 
ATOM     17  C   UNL     1      20.235 -17.968   3.009  1.00  0.00     0.016 A 
BRANCH  13  18
ATOM     18  O   UNL     1      20.913 -16.263  -0.667  1.00  0.00    -0.493 OA
ATOM     19  C   UNL     1      21.122 -15.738  -1.795  1.00  0.00     0.278 C 
ENDBRANCH  13  18
BRANCH  14  20
ATOM     20  O   UNL     1      19.876 -18.760  -0.537  1.00  0.00    -0.504 OA
ATOM     21  H   UNL     1      19.719 -19.757  -0.606  1.00  0.00     0.293 HD
ENDBRANCH  14  20
ENDBRANCH   1  12
BRANCH   2  22
ATOM     22  O   UNL     1      19.875 -13.955   3.567  1.00  0.00    -0.502 OA
ATOM     23  H   UNL     1      19.588 -12.995   3.745  1.00  0.00     0.293 HD
ENDBRANCH   2  22
BRANCH   6  24
ATOM     24  O   UNL     1      21.920 -12.875   8.013  1.00  0.00    -0.507 OA
ATOM     25  H   UNL     1      22.633 -12.168   8.111  1.00  0.00     0.293 HD
ENDBRANCH   6  24
BRANCH   8  26
ATOM     26  O   UNL     1      24.325 -16.915   9.045  1.00  0.00    -0.508 OA
ATOM     27  H   UNL     1      24.326 -17.912   8.870  1.00  0.00     0.293 HD
ENDBRANCH   8  26
TORSDOF 6
ENDMDL
