MODEL 1
REMARK VINA RESULT:    -4.446      0.000      0.000
REMARK INTER + INTRA:          -6.131
REMARK INTER:                  -5.746
REMARK INTRA:                  -0.385
REMARK UNBOUND:                -0.385
REMARK SMILES CCO[C@@H]1O[C@H](CO)[C@@H](O)[C@H](O)[C@@H]1O
REMARK SMILES IDX 4 1 13 2 11 3 9 4 6 5 5 6 3 7 2 8 1 9 14 10 12 12 7 14 8 15
REMARK SMILES IDX 10 17
REMARK H PARENT 14 11 12 13 8 16 10 18
REMARK Flexibility Score: inf
ROOT
ATOM      1  C   UNL     1      29.519  -0.514  41.253  1.00  0.00     0.281 C 
ATOM      2  C   UNL     1      30.920   0.079  41.603  1.00  0.00     0.202 C 
ATOM      3  C   UNL     1      31.885  -0.029  40.403  1.00  0.00     0.179 C 
ATOM      4  C   UNL     1      31.266   0.673  39.168  1.00  0.00     0.177 C 
ATOM      5  C   UNL     1      29.716   0.559  39.177  1.00  0.00     0.178 C 
ATOM      6  O   UNL     1      29.319  -0.625  39.845  1.00  0.00    -0.341 OA
ENDROOT
BRANCH   1   7
ATOM      7  O   UNL     1      29.390  -1.800  41.831  1.00  0.00    -0.350 OA
BRANCH   7   8
ATOM      8  C   UNL     1      28.196  -1.912  42.587  1.00  0.00     0.160 C 
ATOM      9  C   UNL     1      28.489  -1.561  44.040  1.00  0.00     0.035 C 
ENDBRANCH   7   8
ENDBRANCH   1   7
BRANCH   2  10
ATOM     10  O   UNL     1      31.464  -0.478  42.776  1.00  0.00    -0.385 OA
ATOM     11  H   UNL     1      31.288   0.144  43.527  1.00  0.00     0.211 HD
ENDBRANCH   2  10
BRANCH   3  12
ATOM     12  O   UNL     1      32.120  -1.382  40.090  1.00  0.00    -0.387 OA
ATOM     13  H   UNL     1      32.779  -1.404  39.348  1.00  0.00     0.211 HD
ENDBRANCH   3  12
BRANCH   5  14
ATOM     14  C   UNL     1      29.146   0.532  37.752  1.00  0.00     0.191 C 
BRANCH  14  15
ATOM     15  O   UNL     1      29.989   1.211  36.859  1.00  0.00    -0.394 OA
ATOM     16  H   UNL     1      29.412   1.829  36.338  1.00  0.00     0.210 HD
ENDBRANCH  14  15
ENDBRANCH   5  14
BRANCH   4  17
ATOM     17  O   UNL     1      31.623   2.033  39.163  1.00  0.00    -0.387 OA
ATOM     18  H   UNL     1      32.086   2.215  40.023  1.00  0.00     0.211 HD
ENDBRANCH   4  17
TORSDOF 7
ENDMDL
MODEL 2
REMARK VINA RESULT:    -3.752      1.517      2.836
REMARK INTER + INTRA:          -5.233
REMARK INTER:                  -4.887
REMARK INTRA:                  -0.346
REMARK UNBOUND:                -0.385
REMARK SMILES CCO[C@@H]1O[C@H](CO)[C@@H](O)[C@H](O)[C@@H]1O
REMARK SMILES IDX 4 1 13 2 11 3 9 4 6 5 5 6 3 7 2 8 1 9 14 10 12 12 7 14 8 15
REMARK SMILES IDX 10 17
REMARK H PARENT 14 11 12 13 8 16 10 18
REMARK Flexibility Score: inf
ROOT
ATOM      1  C   UNL     1      29.643  -0.567  41.040  1.00  0.00     0.281 C 
ATOM      2  C   UNL     1      29.071  -1.072  39.678  1.00  0.00     0.202 C 
ATOM      3  C   UNL     1      28.947   0.087  38.665  1.00  0.00     0.179 C 
ATOM      4  C   UNL     1      30.324   0.772  38.480  1.00  0.00     0.177 C 
ATOM      5  C   UNL     1      31.156   0.718  39.793  1.00  0.00     0.178 C 
ATOM      6  O   UNL     1      30.293   0.695  40.915  1.00  0.00    -0.341 OA
ENDROOT
BRANCH   1   7
ATOM      7  O   UNL     1      28.592  -0.444  41.980  1.00  0.00    -0.350 OA
BRANCH   7   8
ATOM      8  C   UNL     1      28.771  -1.323  43.077  1.00  0.00     0.160 C 
ATOM      9  C   UNL     1      29.522  -0.596  44.185  1.00  0.00     0.035 C 
ENDBRANCH   7   8
ENDBRANCH   1   7
BRANCH   2  10
ATOM     10  O   UNL     1      27.863  -1.779  39.828  1.00  0.00    -0.385 OA
ATOM     11  H   UNL     1      27.181  -1.155  40.189  1.00  0.00     0.211 HD
ENDBRANCH   2  10
BRANCH   3  12
ATOM     12  O   UNL     1      28.020   1.040  39.129  1.00  0.00    -0.387 OA
ATOM     13  H   UNL     1      28.238   1.904  38.690  1.00  0.00     0.211 HD
ENDBRANCH   3  12
BRANCH   5  14
ATOM     14  C   UNL     1      32.090   1.931  39.916  1.00  0.00     0.191 C 
BRANCH  14  15
ATOM     15  O   UNL     1      32.125   2.664  38.720  1.00  0.00    -0.394 OA
ATOM     16  H   UNL     1      33.054   3.003  38.621  1.00  0.00     0.210 HD
ENDBRANCH  14  15
ENDBRANCH   5  14
BRANCH   4  17
ATOM     17  O   UNL     1      31.044   0.130  37.457  1.00  0.00    -0.387 OA
ATOM     18  H   UNL     1      31.114   0.774  36.704  1.00  0.00     0.211 HD
ENDBRANCH   4  17
TORSDOF 7
ENDMDL
MODEL 3
REMARK VINA RESULT:    -3.680      1.850      3.265
REMARK INTER + INTRA:          -5.141
REMARK INTER:                  -4.830
REMARK INTRA:                  -0.311
REMARK UNBOUND:                -0.385
REMARK SMILES CCO[C@@H]1O[C@H](CO)[C@@H](O)[C@H](O)[C@@H]1O
REMARK SMILES IDX 4 1 13 2 11 3 9 4 6 5 5 6 3 7 2 8 1 9 14 10 12 12 7 14 8 15
REMARK SMILES IDX 10 17
REMARK H PARENT 14 11 12 13 8 16 10 18
REMARK Flexibility Score: inf
ROOT
ATOM      1  C   UNL     1      30.207  -0.872  42.825  1.00  0.00     0.281 C 
ATOM      2  C   UNL     1      28.906  -1.653  42.458  1.00  0.00     0.202 C 
ATOM      3  C   UNL     1      27.997  -0.814  41.535  1.00  0.00     0.179 C 
ATOM      4  C   UNL     1      28.781  -0.395  40.267  1.00  0.00     0.177 C 
ATOM      5  C   UNL     1      30.290  -0.193  40.582  1.00  0.00     0.178 C 
ATOM      6  O   UNL     1      30.455   0.209  41.929  1.00  0.00    -0.341 OA
ENDROOT
BRANCH   1   7
ATOM      7  O   UNL     1      30.097  -0.356  44.139  1.00  0.00    -0.350 OA
BRANCH   7   8
ATOM      8  C   UNL     1      31.004  -0.991  45.023  1.00  0.00     0.160 C 
ATOM      9  C   UNL     1      30.264  -1.408  46.287  1.00  0.00     0.035 C 
ENDBRANCH   7   8
ENDBRANCH   1   7
BRANCH   2  10
ATOM     10  O   UNL     1      28.222  -2.125  43.594  1.00  0.00    -0.385 OA
ATOM     11  H   UNL     1      28.815  -2.759  44.073  1.00  0.00     0.211 HD
ENDBRANCH   2  10
BRANCH   3  12
ATOM     12  O   UNL     1      27.561   0.344  42.207  1.00  0.00    -0.387 OA
ATOM     13  H   UNL     1      27.488   0.118  43.171  1.00  0.00     0.211 HD
ENDBRANCH   3  12
BRANCH   5  14
ATOM     14  C   UNL     1      30.917   0.872  39.671  1.00  0.00     0.191 C 
BRANCH  14  15
ATOM     15  O   UNL     1      30.035   1.240  38.644  1.00  0.00    -0.394 OA
ATOM     16  H   UNL     1      29.437   1.938  39.020  1.00  0.00     0.210 HD
ENDBRANCH  14  15
ENDBRANCH   5  14
BRANCH   4  17
ATOM     17  O   UNL     1      28.651  -1.383  39.275  1.00  0.00    -0.387 OA
ATOM     18  H   UNL     1      28.046  -1.016  38.578  1.00  0.00     0.211 HD
ENDBRANCH   4  17
TORSDOF 7
ENDMDL
MODEL 4
REMARK VINA RESULT:    -3.237     16.367     17.619
REMARK INTER + INTRA:          -4.568
REMARK INTER:                  -4.106
REMARK INTRA:                  -0.462
REMARK UNBOUND:                -0.385
REMARK SMILES CCO[C@@H]1O[C@H](CO)[C@@H](O)[C@H](O)[C@@H]1O
REMARK SMILES IDX 4 1 13 2 11 3 9 4 6 5 5 6 3 7 2 8 1 9 14 10 12 12 7 14 8 15
REMARK SMILES IDX 10 17
REMARK H PARENT 14 11 12 13 8 16 10 18
REMARK Flexibility Score: inf
ROOT
ATOM      1  C   UNL     1      30.571  15.658  49.608  1.00  0.00     0.281 C 
ATOM      2  C   UNL     1      29.074  15.215  49.623  1.00  0.00     0.202 C 
ATOM      3  C   UNL     1      28.682  14.539  48.292  1.00  0.00     0.179 C 
ATOM      4  C   UNL     1      29.623  13.340  48.016  1.00  0.00     0.177 C 
ATOM      5  C   UNL     1      31.046  13.601  48.586  1.00  0.00     0.178 C 
ATOM      6  O   UNL     1      31.319  14.990  48.593  1.00  0.00    -0.341 OA
ENDROOT
BRANCH   1   7
ATOM      7  O   UNL     1      30.652  17.053  49.385  1.00  0.00    -0.350 OA
BRANCH   7   8
ATOM      8  C   UNL     1      31.707  17.377  48.496  1.00  0.00     0.160 C 
ATOM      9  C   UNL     1      31.141  18.125  47.297  1.00  0.00     0.035 C 
ENDBRANCH   7   8
ENDBRANCH   1   7
BRANCH   2  10
ATOM     10  O   UNL     1      28.204  16.268  49.962  1.00  0.00    -0.385 OA
ATOM     11  H   UNL     1      27.565  15.936  50.643  1.00  0.00     0.211 HD
ENDBRANCH   2  10
BRANCH   3  12
ATOM     12  O   UNL     1      28.789  15.458  47.231  1.00  0.00    -0.387 OA
ATOM     13  H   UNL     1      29.729  15.433  46.910  1.00  0.00     0.211 HD
ENDBRANCH   3  12
BRANCH   5  14
ATOM     14  C   UNL     1      32.125  12.893  47.754  1.00  0.00     0.191 C 
BRANCH  14  15
ATOM     15  O   UNL     1      31.597  11.773  47.094  1.00  0.00    -0.394 OA
ATOM     16  H   UNL     1      30.641  11.712  47.358  1.00  0.00     0.210 HD
ENDBRANCH  14  15
ENDBRANCH   5  14
BRANCH   4  17
ATOM     17  O   UNL     1      29.102  12.176  48.608  1.00  0.00    -0.387 OA
ATOM     18  H   UNL     1      28.198  12.405  48.951  1.00  0.00     0.211 HD
ENDBRANCH   4  17
TORSDOF 7
ENDMDL
MODEL 5
REMARK VINA RESULT:    -3.047     16.643     17.698
REMARK INTER + INTRA:          -4.322
REMARK INTER:                  -3.929
REMARK INTRA:                  -0.393
REMARK UNBOUND:                -0.385
REMARK SMILES CCO[C@@H]1O[C@H](CO)[C@@H](O)[C@H](O)[C@@H]1O
REMARK SMILES IDX 4 1 13 2 11 3 9 4 6 5 5 6 3 7 2 8 1 9 14 10 12 12 7 14 8 15
REMARK SMILES IDX 10 17
REMARK H PARENT 14 11 12 13 8 16 10 18
REMARK Flexibility Score: inf
ROOT
ATOM      1  C   UNL     1      28.821  15.132  47.614  1.00  0.00     0.281 C 
ATOM      2  C   UNL     1      28.666  13.579  47.674  1.00  0.00     0.202 C 
ATOM      3  C   UNL     1      27.864  13.149  48.921  1.00  0.00     0.179 C 
ATOM      4  C   UNL     1      26.485  13.855  48.926  1.00  0.00     0.177 C 
ATOM      5  C   UNL     1      26.574  15.262  48.269  1.00  0.00     0.178 C 
ATOM      6  O   UNL     1      27.872  15.799  48.443  1.00  0.00    -0.341 OA
ENDROOT
BRANCH   1   7
ATOM      7  O   UNL     1      30.123  15.496  48.034  1.00  0.00    -0.350 OA
BRANCH   7   8
ATOM      8  C   UNL     1      30.148  16.808  48.570  1.00  0.00     0.160 C 
ATOM      9  C   UNL     1      30.716  17.764  47.530  1.00  0.00     0.035 C 
ENDBRANCH   7   8
ENDBRANCH   1   7
BRANCH   2  10
ATOM     10  O   UNL     1      29.901  12.910  47.579  1.00  0.00    -0.385 OA
ATOM     11  H   UNL     1      30.609  13.515  47.919  1.00  0.00     0.211 HD
ENDBRANCH   2  10
BRANCH   3  12
ATOM     12  O   UNL     1      28.562  13.501  50.092  1.00  0.00    -0.387 OA
ATOM     13  H   UNL     1      28.257  14.408  50.358  1.00  0.00     0.211 HD
ENDBRANCH   3  12
BRANCH   5  14
ATOM     14  C   UNL     1      25.554  16.234  48.882  1.00  0.00     0.191 C 
BRANCH  14  15
ATOM     15  O   UNL     1      24.244  15.881  48.525  1.00  0.00    -0.394 OA
ATOM     16  H   UNL     1      24.286  14.954  48.170  1.00  0.00     0.210 HD
ENDBRANCH  14  15
ENDBRANCH   5  14
BRANCH   4  17
ATOM     17  O   UNL     1      25.548  13.080  48.218  1.00  0.00    -0.387 OA
ATOM     18  H   UNL     1      24.769  13.668  48.030  1.00  0.00     0.211 HD
ENDBRANCH   4  17
TORSDOF 7
ENDMDL
MODEL 6
REMARK VINA RESULT:    -2.932     16.358     17.119
REMARK INTER + INTRA:          -4.173
REMARK INTER:                  -3.741
REMARK INTRA:                  -0.433
REMARK UNBOUND:                -0.385
REMARK SMILES CCO[C@@H]1O[C@H](CO)[C@@H](O)[C@H](O)[C@@H]1O
REMARK SMILES IDX 4 1 13 2 11 3 9 4 6 5 5 6 3 7 2 8 1 9 14 10 12 12 7 14 8 15
REMARK SMILES IDX 10 17
REMARK H PARENT 14 11 12 13 8 16 10 18
REMARK Flexibility Score: inf
ROOT
ATOM      1  C   UNL     1      27.688  14.206  49.463  1.00  0.00     0.281 C 
ATOM      2  C   UNL     1      29.199  13.870  49.254  1.00  0.00     0.202 C 
ATOM      3  C   UNL     1      29.662  14.256  47.834  1.00  0.00     0.179 C 
ATOM      4  C   UNL     1      29.377  15.758  47.579  1.00  0.00     0.177 C 
ATOM      5  C   UNL     1      28.105  16.223  48.343  1.00  0.00     0.178 C 
ATOM      6  O   UNL     1      27.207  15.140  48.498  1.00  0.00    -0.341 OA
ENDROOT
BRANCH   1   7
ATOM      7  O   UNL     1      26.920  13.021  49.368  1.00  0.00    -0.350 OA
BRANCH   7   8
ATOM      8  C   UNL     1      25.698  13.248  48.687  1.00  0.00     0.160 C 
ATOM      9  C   UNL     1      24.567  12.565  49.446  1.00  0.00     0.035 C 
ENDBRANCH   7   8
ENDBRANCH   1   7
BRANCH   2  10
ATOM     10  O   UNL     1      29.502  12.532  49.568  1.00  0.00    -0.385 OA
ATOM     11  H   UNL     1      29.898  12.106  48.764  1.00  0.00     0.211 HD
ENDBRANCH   2  10
BRANCH   3  12
ATOM     12  O   UNL     1      28.972  13.491  46.873  1.00  0.00    -0.387 OA
ATOM     13  H   UNL     1      28.549  12.730  47.350  1.00  0.00     0.211 HD
ENDBRANCH   3  12
BRANCH   5  14
ATOM     14  C   UNL     1      27.383  17.355  47.596  1.00  0.00     0.191 C 
BRANCH  14  15
ATOM     15  O   UNL     1      28.100  17.741  46.453  1.00  0.00    -0.394 OA
ATOM     16  H   UNL     1      29.021  17.960  46.755  1.00  0.00     0.210 HD
ENDBRANCH  14  15
ENDBRANCH   5  14
BRANCH   4  17
ATOM     17  O   UNL     1      30.472  16.531  48.003  1.00  0.00    -0.387 OA
ATOM     18  H   UNL     1      30.674  16.260  48.937  1.00  0.00     0.211 HD
ENDBRANCH   4  17
TORSDOF 7
ENDMDL
MODEL 7
REMARK VINA RESULT:    -2.871     17.044     17.979
REMARK INTER + INTRA:          -4.095
REMARK INTER:                  -4.000
REMARK INTRA:                  -0.095
REMARK UNBOUND:                -0.385
REMARK SMILES CCO[C@@H]1O[C@H](CO)[C@@H](O)[C@H](O)[C@@H]1O
REMARK SMILES IDX 4 1 13 2 11 3 9 4 6 5 5 6 3 7 2 8 1 9 14 10 12 12 7 14 8 15
REMARK SMILES IDX 10 17
REMARK H PARENT 14 11 12 13 8 16 10 18
REMARK Flexibility Score: inf
ROOT
ATOM      1  C   UNL     1      28.795  14.816  47.773  1.00  0.00     0.281 C 
ATOM      2  C   UNL     1      27.787  15.054  48.941  1.00  0.00     0.202 C 
ATOM      3  C   UNL     1      27.934  16.478  49.520  1.00  0.00     0.179 C 
ATOM      4  C   UNL     1      27.750  17.524  48.392  1.00  0.00     0.177 C 
ATOM      5  C   UNL     1      28.261  16.975  47.030  1.00  0.00     0.178 C 
ATOM      6  O   UNL     1      29.301  16.039  47.242  1.00  0.00    -0.341 OA
ENDROOT
BRANCH   1   7
ATOM      7  O   UNL     1      29.884  14.038  48.235  1.00  0.00    -0.350 OA
BRANCH   7   8
ATOM      8  C   UNL     1      29.939  12.782  47.581  1.00  0.00     0.160 C 
ATOM      9  C   UNL     1      31.389  12.325  47.496  1.00  0.00     0.035 C 
ENDBRANCH   7   8
ENDBRANCH   1   7
BRANCH   2  10
ATOM     10  O   UNL     1      27.872  14.063  49.938  1.00  0.00    -0.385 OA
ATOM     11  H   UNL     1      27.603  13.197  49.538  1.00  0.00     0.211 HD
ENDBRANCH   2  10
BRANCH   3  12
ATOM     12  O   UNL     1      29.212  16.640  50.089  1.00  0.00    -0.387 OA
ATOM     13  H   UNL     1      29.626  15.739  50.150  1.00  0.00     0.211 HD
ENDBRANCH   3  12
BRANCH   5  14
ATOM     14  C   UNL     1      28.790  18.102  46.132  1.00  0.00     0.191 C 
BRANCH  14  15
ATOM     15  O   UNL     1      28.442  17.884  44.791  1.00  0.00    -0.394 OA
ATOM     16  H   UNL     1      27.546  18.294  44.659  1.00  0.00     0.210 HD
ENDBRANCH  14  15
ENDBRANCH   5  14
BRANCH   4  17
ATOM     17  O   UNL     1      26.390  17.858  48.268  1.00  0.00    -0.387 OA
ATOM     18  H   UNL     1      26.346  18.714  47.767  1.00  0.00     0.211 HD
ENDBRANCH   4  17
TORSDOF 7
ENDMDL
MODEL 8
REMARK VINA RESULT:    -2.774     17.095     18.091
REMARK INTER + INTRA:          -3.970
REMARK INTER:                  -3.533
REMARK INTRA:                  -0.437
REMARK UNBOUND:                -0.385
REMARK SMILES CCO[C@@H]1O[C@H](CO)[C@@H](O)[C@H](O)[C@@H]1O
REMARK SMILES IDX 4 1 13 2 11 3 9 4 6 5 5 6 3 7 2 8 1 9 14 10 12 12 7 14 8 15
REMARK SMILES IDX 10 17
REMARK H PARENT 14 11 12 13 8 16 10 18
REMARK Flexibility Score: inf
ROOT
ATOM      1  C   UNL     1      29.179  15.302  48.943  1.00  0.00     0.281 C 
ATOM      2  C   UNL     1      29.420  16.805  48.598  1.00  0.00     0.202 C 
ATOM      3  C   UNL     1      28.479  17.273  47.468  1.00  0.00     0.179 C 
ATOM      4  C   UNL     1      27.006  17.015  47.873  1.00  0.00     0.177 C 
ATOM      5  C   UNL     1      26.885  15.753  48.773  1.00  0.00     0.178 C 
ATOM      6  O   UNL     1      27.919  14.836  48.467  1.00  0.00    -0.341 OA
ENDROOT
BRANCH   1   7
ATOM      7  O   UNL     1      30.202  14.511  48.365  1.00  0.00    -0.350 OA
BRANCH   7   8
ATOM      8  C   UNL     1      29.686  13.301  47.837  1.00  0.00     0.160 C 
ATOM      9  C   UNL     1      30.842  12.369  47.498  1.00  0.00     0.035 C 
ENDBRANCH   7   8
ENDBRANCH   1   7
BRANCH   2  10
ATOM     10  O   UNL     1      30.771  17.084  48.315  1.00  0.00    -0.385 OA
ATOM     11  H   UNL     1      30.837  17.369  47.368  1.00  0.00     0.211 HD
ENDBRANCH   2  10
BRANCH   3  12
ATOM     12  O   UNL     1      28.757  16.567  46.281  1.00  0.00    -0.387 OA
ATOM     13  H   UNL     1      28.485  17.146  45.521  1.00  0.00     0.211 HD
ENDBRANCH   3  12
BRANCH   5  14
ATOM     14  C   UNL     1      25.533  15.052  48.580  1.00  0.00     0.191 C 
BRANCH  14  15
ATOM     15  O   UNL     1      24.633  15.874  47.884  1.00  0.00    -0.394 OA
ATOM     16  H   UNL     1      23.825  15.959  48.456  1.00  0.00     0.210 HD
ENDBRANCH  14  15
ENDBRANCH   5  14
BRANCH   4  17
ATOM     17  O   UNL     1      26.501  18.125  48.573  1.00  0.00    -0.387 OA
ATOM     18  H   UNL     1      26.937  18.128  49.465  1.00  0.00     0.211 HD
ENDBRANCH   4  17
TORSDOF 7
ENDMDL
MODEL 9
REMARK VINA RESULT:    -2.542     16.182     17.264
REMARK INTER + INTRA:          -3.670
REMARK INTER:                  -3.469
REMARK INTRA:                  -0.200
REMARK UNBOUND:                -0.385
REMARK SMILES CCO[C@@H]1O[C@H](CO)[C@@H](O)[C@H](O)[C@@H]1O
REMARK SMILES IDX 4 1 13 2 11 3 9 4 6 5 5 6 3 7 2 8 1 9 14 10 12 12 7 14 8 15
REMARK SMILES IDX 10 17
REMARK H PARENT 14 11 12 13 8 16 10 18
REMARK Flexibility Score: inf
ROOT
ATOM      1  C   UNL     1      28.312  14.012  49.895  1.00  0.00     0.281 C 
ATOM      2  C   UNL     1      28.046  13.142  48.627  1.00  0.00     0.202 C 
ATOM      3  C   UNL     1      28.981  13.550  47.468  1.00  0.00     0.179 C 
ATOM      4  C   UNL     1      30.457  13.447  47.924  1.00  0.00     0.177 C 
ATOM      5  C   UNL     1      30.599  13.765  49.440  1.00  0.00     0.178 C 
ATOM      6  O   UNL     1      29.581  14.661  49.845  1.00  0.00    -0.341 OA
ENDROOT
BRANCH   1   7
ATOM      7  O   UNL     1      27.304  14.998  50.016  1.00  0.00    -0.350 OA
BRANCH   7   8
ATOM      8  C   UNL     1      27.856  16.303  50.057  1.00  0.00     0.160 C 
ATOM      9  C   UNL     1      27.278  17.128  48.914  1.00  0.00     0.035 C 
ENDBRANCH   7   8
ENDBRANCH   1   7
BRANCH   2  10
ATOM     10  O   UNL     1      26.691  13.146  48.244  1.00  0.00    -0.385 OA
ATOM     11  H   UNL     1      26.324  12.237  48.393  1.00  0.00     0.211 HD
ENDBRANCH   2  10
BRANCH   3  12
ATOM     12  O   UNL     1      28.715  14.876  47.074  1.00  0.00    -0.387 OA
ATOM     13  H   UNL     1      29.529  15.411  47.268  1.00  0.00     0.211 HD
ENDBRANCH   3  12
BRANCH   5  14
ATOM     14  C   UNL     1      31.963  14.395  49.757  1.00  0.00     0.191 C 
BRANCH  14  15
ATOM     15  O   UNL     1      32.125  15.613  49.080  1.00  0.00    -0.394 OA
ATOM     16  H   UNL     1      31.747  16.318  49.669  1.00  0.00     0.210 HD
ENDBRANCH  14  15
ENDBRANCH   5  14
BRANCH   4  17
ATOM     17  O   UNL     1      30.943  12.150  47.683  1.00  0.00    -0.387 OA
ATOM     18  H   UNL     1      30.893  11.999  46.703  1.00  0.00     0.211 HD
ENDBRANCH   4  17
TORSDOF 7
ENDMDL
