MODEL 1
REMARK VINA RESULT:    -4.115      0.000      0.000
REMARK INTER + INTRA:         -11.282
REMARK INTER:                  -8.926
REMARK INTRA:                  -2.356
REMARK UNBOUND:                -2.356
REMARK SMILES CCCCCCCCCCCCCCCCCCCCCC(=O)[O-]
REMARK SMILES IDX 12 1 11 2 10 3 9 4 8 5 7 6 6 7 5 8 4 9 3 10 2 11 1 12 13 13
REMARK SMILES IDX 14 14 15 15 16 16 17 17 18 18 19 19 20 20 21 21 22 22 23 23
REMARK SMILES IDX 24 24
REMARK H PARENT
REMARK Flexibility Score: inf
ROOT
ATOM      1  C   UNL     1     -17.574 -18.598   1.739  1.00  0.00     0.000 C 
ENDROOT
BRANCH   1   2
ATOM      2  C   UNL     1     -16.823 -19.899   2.095  1.00  0.00     0.000 C 
BRANCH   2   3
ATOM      3  C   UNL     1     -17.211 -20.489   3.469  1.00  0.00     0.000 C 
BRANCH   3   4
ATOM      4  C   UNL     1     -18.255 -21.619   3.428  1.00  0.00    -0.000 C 
BRANCH   4   5
ATOM      5  C   UNL     1     -19.615 -21.279   4.070  1.00  0.00    -0.000 C 
BRANCH   5   6
ATOM      6  C   UNL     1     -20.804 -21.354   3.088  1.00  0.00    -0.000 C 
BRANCH   6   7
ATOM      7  C   UNL     1     -21.116 -19.991   2.444  1.00  0.00    -0.000 C 
BRANCH   7   8
ATOM      8  C   UNL     1     -20.867 -19.981   0.924  1.00  0.00    -0.000 C 
BRANCH   8   9
ATOM      9  C   UNL     1     -21.589 -21.106   0.155  1.00  0.00    -0.000 C 
BRANCH   9  10
ATOM     10  C   UNL     1     -21.868 -20.730  -1.312  1.00  0.00    -0.000 C 
BRANCH  10  11
ATOM     11  C   UNL     1     -22.452 -19.315  -1.456  1.00  0.00    -0.003 C 
ATOM     12  C   UNL     1     -23.957 -19.259  -1.178  1.00  0.00     0.004 C 
ENDBRANCH  10  11
ENDBRANCH   9  10
ENDBRANCH   8   9
ENDBRANCH   7   8
ENDBRANCH   6   7
ENDBRANCH   5   6
ENDBRANCH   4   5
ENDBRANCH   3   4
ENDBRANCH   2   3
ENDBRANCH   1   2
BRANCH   1  13
ATOM     13  C   UNL     1     -18.130 -17.844   2.972  1.00  0.00     0.000 C 
BRANCH  13  14
ATOM     14  C   UNL     1     -18.736 -16.465   2.629  1.00  0.00     0.000 C 
BRANCH  14  15
ATOM     15  C   UNL     1     -19.270 -16.353   1.189  1.00  0.00     0.000 C 
BRANCH  15  16
ATOM     16  C   UNL     1     -18.705 -15.153   0.401  1.00  0.00     0.000 C 
BRANCH  16  17
ATOM     17  C   UNL     1     -17.244 -14.822   0.751  1.00  0.00     0.000 C 
BRANCH  17  18
ATOM     18  C   UNL     1     -16.485 -14.215  -0.440  1.00  0.00     0.000 C 
BRANCH  18  19
ATOM     19  C   UNL     1     -17.061 -14.717  -1.774  1.00  0.00     0.000 C 
BRANCH  19  20
ATOM     20  C   UNL     1     -17.490 -13.571  -2.705  1.00  0.00     0.006 C 
BRANCH  20  21
ATOM     21  C   UNL     1     -18.786 -13.878  -3.469  1.00  0.00     0.053 C 
BRANCH  21  22
ATOM     22  C   UNL     1     -19.489 -12.610  -3.842  1.00  0.00     0.041 C 
ATOM     23  O   UNL     1     -19.677 -12.323  -5.055  1.00  0.00    -0.550 OA
ATOM     24  O   UNL     1     -19.865 -11.708  -2.854  1.00  0.00    -0.550 OA
ENDBRANCH  21  22
ENDBRANCH  20  21
ENDBRANCH  19  20
ENDBRANCH  18  19
ENDBRANCH  17  18
ENDBRANCH  16  17
ENDBRANCH  15  16
ENDBRANCH  14  15
ENDBRANCH  13  14
ENDBRANCH   1  13
TORSDOF 20
ENDMDL
MODEL 2
REMARK VINA RESULT:    -4.054      3.409      7.296
REMARK INTER + INTRA:         -11.150
REMARK INTER:                  -8.872
REMARK INTRA:                  -2.278
REMARK UNBOUND:                -2.356
REMARK SMILES CCCCCCCCCCCCCCCCCCCCCC(=O)[O-]
REMARK SMILES IDX 12 1 11 2 10 3 9 4 8 5 7 6 6 7 5 8 4 9 3 10 2 11 1 12 13 13
REMARK SMILES IDX 14 14 15 15 16 16 17 17 18 18 19 19 20 20 21 21 22 22 23 23
REMARK SMILES IDX 24 24
REMARK H PARENT
REMARK Flexibility Score: inf
ROOT
ATOM      1  C   UNL     1     -17.281 -20.730   2.835  1.00  0.00     0.000 C 
ENDROOT
BRANCH   1   2
ATOM      2  C   UNL     1     -16.888 -19.516   1.967  1.00  0.00     0.000 C 
BRANCH   2   3
ATOM      3  C   UNL     1     -17.471 -18.176   2.465  1.00  0.00     0.000 C 
BRANCH   3   4
ATOM      4  C   UNL     1     -18.107 -17.291   1.378  1.00  0.00    -0.000 C 
BRANCH   4   5
ATOM      5  C   UNL     1     -17.982 -15.772   1.611  1.00  0.00    -0.000 C 
BRANCH   5   6
ATOM      6  C   UNL     1     -18.286 -14.923   0.358  1.00  0.00    -0.000 C 
BRANCH   6   7
ATOM      7  C   UNL     1     -17.006 -14.478  -0.372  1.00  0.00    -0.000 C 
BRANCH   7   8
ATOM      8  C   UNL     1     -16.917 -15.033  -1.806  1.00  0.00    -0.000 C 
BRANCH   8   9
ATOM      9  C   UNL     1     -17.277 -14.013  -2.906  1.00  0.00    -0.000 C 
BRANCH   9  10
ATOM     10  C   UNL     1     -17.336 -12.570  -2.373  1.00  0.00    -0.000 C 
BRANCH  10  11
ATOM     11  C   UNL     1     -18.694 -11.900  -2.637  1.00  0.00    -0.003 C 
ATOM     12  C   UNL     1     -19.639 -12.771  -3.468  1.00  0.00     0.004 C 
ENDBRANCH  10  11
ENDBRANCH   9  10
ENDBRANCH   8   9
ENDBRANCH   7   8
ENDBRANCH   6   7
ENDBRANCH   5   6
ENDBRANCH   4   5
ENDBRANCH   3   4
ENDBRANCH   2   3
ENDBRANCH   1   2
BRANCH   1  13
ATOM     13  C   UNL     1     -17.792 -20.346   4.245  1.00  0.00     0.000 C 
BRANCH  13  14
ATOM     14  C   UNL     1     -19.255 -20.769   4.507  1.00  0.00     0.000 C 
BRANCH  14  15
ATOM     15  C   UNL     1     -19.753 -21.906   3.595  1.00  0.00     0.000 C 
BRANCH  15  16
ATOM     16  C   UNL     1     -20.948 -21.514   2.699  1.00  0.00     0.000 C 
BRANCH  16  17
ATOM     17  C   UNL     1     -21.008 -20.010   2.382  1.00  0.00     0.000 C 
BRANCH  17  18
ATOM     18  C   UNL     1     -20.556 -19.701   0.946  1.00  0.00     0.000 C 
BRANCH  18  19
ATOM     19  C   UNL     1     -21.551 -18.763   0.244  1.00  0.00     0.000 C 
BRANCH  19  20
ATOM     20  C   UNL     1     -22.287 -19.440  -0.923  1.00  0.00     0.006 C 
BRANCH  20  21
ATOM     21  C   UNL     1     -21.769 -20.856  -1.212  1.00  0.00     0.053 C 
BRANCH  21  22
ATOM     22  C   UNL     1     -22.697 -21.882  -0.642  1.00  0.00     0.041 C 
ATOM     23  O   UNL     1     -22.503 -23.107  -0.868  1.00  0.00    -0.550 OA
ATOM     24  O   UNL     1     -23.820 -21.483   0.072  1.00  0.00    -0.550 OA
ENDBRANCH  21  22
ENDBRANCH  20  21
ENDBRANCH  19  20
ENDBRANCH  18  19
ENDBRANCH  17  18
ENDBRANCH  16  17
ENDBRANCH  15  16
ENDBRANCH  14  15
ENDBRANCH  13  14
ENDBRANCH   1  13
TORSDOF 20
ENDMDL
MODEL 3
REMARK VINA RESULT:    -3.959      3.536      7.748
REMARK INTER + INTRA:         -10.945
REMARK INTER:                  -8.098
REMARK INTRA:                  -2.847
REMARK UNBOUND:                -2.356
REMARK SMILES CCCCCCCCCCCCCCCCCCCCCC(=O)[O-]
REMARK SMILES IDX 12 1 11 2 10 3 9 4 8 5 7 6 6 7 5 8 4 9 3 10 2 11 1 12 13 13
REMARK SMILES IDX 14 14 15 15 16 16 17 17 18 18 19 19 20 20 21 21 22 22 23 23
REMARK SMILES IDX 24 24
REMARK H PARENT
REMARK Flexibility Score: inf
ROOT
ATOM      1  C   UNL     1     -22.386 -21.429  -0.254  1.00  0.00     0.000 C 
ENDROOT
BRANCH   1   2
ATOM      2  C   UNL     1     -21.379 -20.413  -0.833  1.00  0.00     0.000 C 
BRANCH   2   3
ATOM      3  C   UNL     1     -20.745 -19.487   0.227  1.00  0.00     0.000 C 
BRANCH   3   4
ATOM      4  C   UNL     1     -21.517 -18.185   0.508  1.00  0.00    -0.000 C 
BRANCH   4   5
ATOM      5  C   UNL     1     -20.716 -17.092   1.245  1.00  0.00    -0.000 C 
BRANCH   5   6
ATOM      6  C   UNL     1     -19.218 -17.427   1.417  1.00  0.00    -0.000 C 
BRANCH   6   7
ATOM      7  C   UNL     1     -18.306 -16.285   0.933  1.00  0.00    -0.000 C 
BRANCH   7   8
ATOM      8  C   UNL     1     -19.089 -15.006   0.583  1.00  0.00    -0.000 C 
BRANCH   8   9
ATOM      9  C   UNL     1     -18.441 -14.145  -0.520  1.00  0.00    -0.000 C 
BRANCH   9  10
ATOM     10  C   UNL     1     -17.229 -14.836  -1.170  1.00  0.00    -0.000 C 
BRANCH  10  11
ATOM     11  C   UNL     1     -17.023 -14.411  -2.633  1.00  0.00    -0.003 C 
ATOM     12  C   UNL     1     -18.328 -14.016  -3.330  1.00  0.00     0.004 C 
ENDBRANCH  10  11
ENDBRANCH   9  10
ENDBRANCH   8   9
ENDBRANCH   7   8
ENDBRANCH   6   7
ENDBRANCH   5   6
ENDBRANCH   4   5
ENDBRANCH   3   4
ENDBRANCH   2   3
ENDBRANCH   1   2
BRANCH   1  13
ATOM     13  C   UNL     1     -23.824 -20.872  -0.119  1.00  0.00     0.000 C 
BRANCH  13  14
ATOM     14  C   UNL     1     -24.337 -20.836   1.338  1.00  0.00     0.000 C 
BRANCH  14  15
ATOM     15  C   UNL     1     -23.315 -21.335   2.377  1.00  0.00     0.000 C 
BRANCH  15  16
ATOM     16  C   UNL     1     -22.765 -20.227   3.300  1.00  0.00     0.000 C 
BRANCH  16  17
ATOM     17  C   UNL     1     -21.286 -20.420   3.676  1.00  0.00     0.000 C 
BRANCH  17  18
ATOM     18  C   UNL     1     -20.704 -21.718   3.093  1.00  0.00     0.000 C 
BRANCH  18  19
ATOM     19  C   UNL     1     -19.214 -21.861   3.442  1.00  0.00     0.000 C 
BRANCH  19  20
ATOM     20  C   UNL     1     -18.433 -20.549   3.263  1.00  0.00     0.006 C 
BRANCH  20  21
ATOM     21  C   UNL     1     -17.014 -20.771   2.720  1.00  0.00     0.053 C 
BRANCH  21  22
ATOM     22  C   UNL     1     -16.027 -19.935   3.475  1.00  0.00     0.041 C 
ATOM     23  O   UNL     1     -14.790 -20.091   3.287  1.00  0.00    -0.550 OA
ATOM     24  O   UNL     1     -16.469 -19.040   4.441  1.00  0.00    -0.550 OA
ENDBRANCH  21  22
ENDBRANCH  20  21
ENDBRANCH  19  20
ENDBRANCH  18  19
ENDBRANCH  17  18
ENDBRANCH  16  17
ENDBRANCH  15  16
ENDBRANCH  14  15
ENDBRANCH  13  14
ENDBRANCH   1  13
TORSDOF 20
ENDMDL
MODEL 4
REMARK VINA RESULT:    -3.953      5.330      7.795
REMARK INTER + INTRA:         -10.931
REMARK INTER:                  -7.658
REMARK INTRA:                  -3.272
REMARK UNBOUND:                -2.356
REMARK SMILES CCCCCCCCCCCCCCCCCCCCCC(=O)[O-]
REMARK SMILES IDX 12 1 11 2 10 3 9 4 8 5 7 6 6 7 5 8 4 9 3 10 2 11 1 12 13 13
REMARK SMILES IDX 14 14 15 15 16 16 17 17 18 18 19 19 20 20 21 21 22 22 23 23
REMARK SMILES IDX 24 24
REMARK H PARENT
REMARK Flexibility Score: inf
ROOT
ATOM      1  C   UNL     1     -22.928 -17.717   1.212  1.00  0.00     0.000 C 
ENDROOT
BRANCH   1   2
ATOM      2  C   UNL     1     -22.760 -17.662  -0.322  1.00  0.00     0.000 C 
BRANCH   2   3
ATOM      3  C   UNL     1     -23.252 -18.932  -1.050  1.00  0.00     0.000 C 
BRANCH   3   4
ATOM      4  C   UNL     1     -22.146 -19.798  -1.680  1.00  0.00    -0.000 C 
BRANCH   4   5
ATOM      5  C   UNL     1     -21.338 -20.656  -0.685  1.00  0.00    -0.000 C 
BRANCH   5   6
ATOM      6  C   UNL     1     -22.181 -21.721   0.048  1.00  0.00    -0.000 C 
BRANCH   6   7
ATOM      7  C   UNL     1     -22.379 -21.386   1.537  1.00  0.00    -0.000 C 
BRANCH   7   8
ATOM      8  C   UNL     1     -21.048 -21.135   2.271  1.00  0.00    -0.000 C 
BRANCH   8   9
ATOM      9  C   UNL     1     -21.206 -20.591   3.706  1.00  0.00    -0.000 C 
BRANCH   9  10
ATOM     10  C   UNL     1     -20.089 -21.080   4.646  1.00  0.00    -0.000 C 
BRANCH  10  11
ATOM     11  C   UNL     1     -19.451 -22.395   4.169  1.00  0.00    -0.003 C 
ATOM     12  C   UNL     1     -19.492 -23.498   5.229  1.00  0.00     0.004 C 
ENDBRANCH  10  11
ENDBRANCH   9  10
ENDBRANCH   8   9
ENDBRANCH   7   8
ENDBRANCH   6   7
ENDBRANCH   5   6
ENDBRANCH   4   5
ENDBRANCH   3   4
ENDBRANCH   2   3
ENDBRANCH   1   2
BRANCH   1  13
ATOM     13  C   UNL     1     -21.672 -17.256   1.991  1.00  0.00     0.000 C 
BRANCH  13  14
ATOM     14  C   UNL     1     -20.344 -17.709   1.344  1.00  0.00     0.000 C 
BRANCH  14  15
ATOM     15  C   UNL     1     -19.122 -17.601   2.276  1.00  0.00     0.000 C 
BRANCH  15  16
ATOM     16  C   UNL     1     -17.853 -18.289   1.729  1.00  0.00     0.000 C 
BRANCH  16  17
ATOM     17  C   UNL     1     -17.661 -19.723   2.251  1.00  0.00     0.000 C 
BRANCH  17  18
ATOM     18  C   UNL     1     -16.194 -20.178   2.170  1.00  0.00     0.000 C 
BRANCH  18  19
ATOM     19  C   UNL     1     -15.484 -19.991   3.521  1.00  0.00     0.000 C 
BRANCH  19  20
ATOM     20  C   UNL     1     -16.465 -19.838   4.694  1.00  0.00     0.006 C 
BRANCH  20  21
ATOM     21  C   UNL     1     -15.772 -19.899   6.062  1.00  0.00     0.053 C 
BRANCH  21  22
ATOM     22  C   UNL     1     -15.467 -21.317   6.433  1.00  0.00     0.041 C 
ATOM     23  O   UNL     1     -14.279 -21.739   6.401  1.00  0.00    -0.550 OA
ATOM     24  O   UNL     1     -16.501 -22.193   6.739  1.00  0.00    -0.550 OA
ENDBRANCH  21  22
ENDBRANCH  20  21
ENDBRANCH  19  20
ENDBRANCH  18  19
ENDBRANCH  17  18
ENDBRANCH  16  17
ENDBRANCH  15  16
ENDBRANCH  14  15
ENDBRANCH  13  14
ENDBRANCH   1  13
TORSDOF 20
ENDMDL
MODEL 5
REMARK VINA RESULT:    -3.928      4.863      8.308
REMARK INTER + INTRA:         -10.877
REMARK INTER:                  -8.552
REMARK INTRA:                  -2.326
REMARK UNBOUND:                -2.356
REMARK SMILES CCCCCCCCCCCCCCCCCCCCCC(=O)[O-]
REMARK SMILES IDX 12 1 11 2 10 3 9 4 8 5 7 6 6 7 5 8 4 9 3 10 2 11 1 12 13 13
REMARK SMILES IDX 14 14 15 15 16 16 17 17 18 18 19 19 20 20 21 21 22 22 23 23
REMARK SMILES IDX 24 24
REMARK H PARENT
REMARK Flexibility Score: inf
ROOT
ATOM      1  C   UNL     1     -16.934 -11.165  -1.157  1.00  0.00     0.000 C 
ENDROOT
BRANCH   1   2
ATOM      2  C   UNL     1     -17.221 -11.710  -2.572  1.00  0.00     0.000 C 
BRANCH   2   3
ATOM      3  C   UNL     1     -18.057 -13.009  -2.583  1.00  0.00     0.000 C 
BRANCH   3   4
ATOM      4  C   UNL     1     -17.244 -14.312  -2.679  1.00  0.00    -0.000 C 
BRANCH   4   5
ATOM      5  C   UNL     1     -16.880 -14.961  -1.328  1.00  0.00    -0.000 C 
BRANCH   5   6
ATOM      6  C   UNL     1     -17.886 -14.654  -0.198  1.00  0.00    -0.000 C 
BRANCH   6   7
ATOM      7  C   UNL     1     -17.507 -15.344   1.124  1.00  0.00    -0.000 C 
BRANCH   7   8
ATOM      8  C   UNL     1     -18.292 -16.648   1.360  1.00  0.00    -0.000 C 
BRANCH   8   9
ATOM      9  C   UNL     1     -17.601 -17.643   2.315  1.00  0.00    -0.000 C 
BRANCH   9  10
ATOM     10  C   UNL     1     -17.505 -19.059   1.721  1.00  0.00    -0.000 C 
BRANCH  10  11
ATOM     11  C   UNL     1     -16.520 -19.955   2.489  1.00  0.00    -0.003 C 
ATOM     12  C   UNL     1     -17.101 -20.499   3.797  1.00  0.00     0.004 C 
ENDBRANCH  10  11
ENDBRANCH   9  10
ENDBRANCH   8   9
ENDBRANCH   7   8
ENDBRANCH   6   7
ENDBRANCH   5   6
ENDBRANCH   4   5
ENDBRANCH   3   4
ENDBRANCH   2   3
ENDBRANCH   1   2
BRANCH   1  13
ATOM     13  C   UNL     1     -15.527 -11.529  -0.624  1.00  0.00     0.000 C 
BRANCH  13  14
ATOM     14  C   UNL     1     -15.403 -11.424   0.913  1.00  0.00     0.000 C 
BRANCH  14  15
ATOM     15  C   UNL     1     -14.855 -12.695   1.588  1.00  0.00     0.000 C 
BRANCH  15  16
ATOM     16  C   UNL     1     -14.030 -13.599   0.649  1.00  0.00     0.000 C 
BRANCH  16  17
ATOM     17  C   UNL     1     -12.568 -13.773   1.094  1.00  0.00     0.000 C 
BRANCH  17  18
ATOM     18  C   UNL     1     -12.071 -12.583   1.931  1.00  0.00     0.000 C 
BRANCH  18  19
ATOM     19  C   UNL     1     -11.655 -13.035   3.340  1.00  0.00     0.000 C 
BRANCH  19  20
ATOM     20  C   UNL     1     -11.699 -14.562   3.513  1.00  0.00     0.006 C 
BRANCH  20  21
ATOM     21  C   UNL     1     -12.585 -15.004   4.685  1.00  0.00     0.053 C 
BRANCH  21  22
ATOM     22  C   UNL     1     -12.219 -16.386   5.129  1.00  0.00     0.041 C 
ATOM     23  O   UNL     1     -11.010 -16.742   5.161  1.00  0.00    -0.550 OA
ATOM     24  O   UNL     1     -13.216 -17.305   5.430  1.00  0.00    -0.550 OA
ENDBRANCH  21  22
ENDBRANCH  20  21
ENDBRANCH  19  20
ENDBRANCH  18  19
ENDBRANCH  17  18
ENDBRANCH  16  17
ENDBRANCH  15  16
ENDBRANCH  14  15
ENDBRANCH  13  14
ENDBRANCH   1  13
TORSDOF 20
ENDMDL
MODEL 6
REMARK VINA RESULT:    -3.916      1.317      2.181
REMARK INTER + INTRA:         -10.851
REMARK INTER:                  -8.485
REMARK INTRA:                  -2.365
REMARK UNBOUND:                -2.356
REMARK SMILES CCCCCCCCCCCCCCCCCCCCCC(=O)[O-]
REMARK SMILES IDX 12 1 11 2 10 3 9 4 8 5 7 6 6 7 5 8 4 9 3 10 2 11 1 12 13 13
REMARK SMILES IDX 14 14 15 15 16 16 17 17 18 18 19 19 20 20 21 21 22 22 23 23
REMARK SMILES IDX 24 24
REMARK H PARENT
REMARK Flexibility Score: inf
ROOT
ATOM      1  C   UNL     1     -16.377 -17.655   4.662  1.00  0.00     0.000 C 
ENDROOT
BRANCH   1   2
ATOM      2  C   UNL     1     -16.167 -18.915   5.529  1.00  0.00     0.000 C 
BRANCH   2   3
ATOM      3  C   UNL     1     -15.825 -20.183   4.717  1.00  0.00     0.000 C 
BRANCH   3   4
ATOM      4  C   UNL     1     -15.620 -19.961   3.208  1.00  0.00    -0.000 C 
BRANCH   4   5
ATOM      5  C   UNL     1     -16.753 -20.491   2.306  1.00  0.00    -0.000 C 
BRANCH   5   6
ATOM      6  C   UNL     1     -17.871 -21.225   3.076  1.00  0.00    -0.000 C 
BRANCH   6   7
ATOM      7  C   UNL     1     -19.128 -20.355   3.251  1.00  0.00    -0.000 C 
BRANCH   7   8
ATOM      8  C   UNL     1     -20.433 -21.156   3.079  1.00  0.00    -0.000 C 
BRANCH   8   9
ATOM      9  C   UNL     1     -21.111 -20.979   1.704  1.00  0.00    -0.000 C 
BRANCH   9  10
ATOM     10  C   UNL     1     -20.851 -19.590   1.094  1.00  0.00    -0.000 C 
BRANCH  10  11
ATOM     11  C   UNL     1     -21.533 -19.410  -0.272  1.00  0.00    -0.003 C 
ATOM     12  C   UNL     1     -21.438 -20.656  -1.157  1.00  0.00     0.004 C 
ENDBRANCH  10  11
ENDBRANCH   9  10
ENDBRANCH   8   9
ENDBRANCH   7   8
ENDBRANCH   6   7
ENDBRANCH   5   6
ENDBRANCH   4   5
ENDBRANCH   3   4
ENDBRANCH   2   3
ENDBRANCH   1   2
BRANCH   1  13
ATOM     13  C   UNL     1     -17.794 -17.044   4.787  1.00  0.00     0.000 C 
BRANCH  13  14
ATOM     14  C   UNL     1     -18.245 -16.270   3.528  1.00  0.00     0.000 C 
BRANCH  14  15
ATOM     15  C   UNL     1     -17.989 -17.017   2.205  1.00  0.00     0.000 C 
BRANCH  15  16
ATOM     16  C   UNL     1     -18.056 -16.118   0.952  1.00  0.00     0.000 C 
BRANCH  16  17
ATOM     17  C   UNL     1     -17.400 -14.741   1.151  1.00  0.00     0.000 C 
BRANCH  17  18
ATOM     18  C   UNL     1     -17.172 -14.009  -0.182  1.00  0.00     0.000 C 
BRANCH  18  19
ATOM     19  C   UNL     1     -17.007 -15.009  -1.338  1.00  0.00     0.000 C 
BRANCH  19  20
ATOM     20  C   UNL     1     -17.194 -14.359  -2.718  1.00  0.00     0.006 C 
BRANCH  20  21
ATOM     21  C   UNL     1     -17.659 -12.899  -2.631  1.00  0.00     0.053 C 
BRANCH  21  22
ATOM     22  C   UNL     1     -18.964 -12.720  -3.343  1.00  0.00     0.041 C 
ATOM     23  O   UNL     1     -19.493 -11.578  -3.419  1.00  0.00    -0.550 OA
ATOM     24  O   UNL     1     -19.633 -13.824  -3.854  1.00  0.00    -0.550 OA
ENDBRANCH  21  22
ENDBRANCH  20  21
ENDBRANCH  19  20
ENDBRANCH  18  19
ENDBRANCH  17  18
ENDBRANCH  16  17
ENDBRANCH  15  16
ENDBRANCH  14  15
ENDBRANCH  13  14
ENDBRANCH   1  13
TORSDOF 20
ENDMDL
MODEL 7
REMARK VINA RESULT:    -3.854      3.135      4.830
REMARK INTER + INTRA:         -10.716
REMARK INTER:                  -8.195
REMARK INTRA:                  -2.520
REMARK UNBOUND:                -2.356
REMARK SMILES CCCCCCCCCCCCCCCCCCCCCC(=O)[O-]
REMARK SMILES IDX 12 1 11 2 10 3 9 4 8 5 7 6 6 7 5 8 4 9 3 10 2 11 1 12 13 13
REMARK SMILES IDX 14 14 15 15 16 16 17 17 18 18 19 19 20 20 21 21 22 22 23 23
REMARK SMILES IDX 24 24
REMARK H PARENT
REMARK Flexibility Score: inf
ROOT
ATOM      1  C   UNL     1     -18.803 -15.643   0.921  1.00  0.00     0.000 C 
ENDROOT
BRANCH   1   2
ATOM      2  C   UNL     1     -19.043 -17.056   1.494  1.00  0.00     0.000 C 
BRANCH   2   3
ATOM      3  C   UNL     1     -17.766 -17.738   2.031  1.00  0.00     0.000 C 
BRANCH   3   4
ATOM      4  C   UNL     1     -17.470 -19.131   1.447  1.00  0.00    -0.000 C 
BRANCH   4   5
ATOM      5  C   UNL     1     -16.647 -20.064   2.357  1.00  0.00    -0.000 C 
BRANCH   5   6
ATOM      6  C   UNL     1     -17.119 -20.076   3.827  1.00  0.00    -0.000 C 
BRANCH   6   7
ATOM      7  C   UNL     1     -17.971 -21.316   4.156  1.00  0.00    -0.000 C 
BRANCH   7   8
ATOM      8  C   UNL     1     -19.303 -21.342   3.384  1.00  0.00    -0.000 C 
BRANCH   8   9
ATOM      9  C   UNL     1     -20.311 -20.257   3.816  1.00  0.00    -0.000 C 
BRANCH   9  10
ATOM     10  C   UNL     1     -21.206 -19.790   2.654  1.00  0.00    -0.000 C 
BRANCH  10  11
ATOM     11  C   UNL     1     -21.066 -20.680   1.408  1.00  0.00    -0.003 C 
ATOM     12  C   UNL     1     -21.019 -19.879   0.104  1.00  0.00     0.004 C 
ENDBRANCH  10  11
ENDBRANCH   9  10
ENDBRANCH   8   9
ENDBRANCH   7   8
ENDBRANCH   6   7
ENDBRANCH   5   6
ENDBRANCH   4   5
ENDBRANCH   3   4
ENDBRANCH   2   3
ENDBRANCH   1   2
BRANCH   1  13
ATOM     13  C   UNL     1     -17.411 -15.060   1.267  1.00  0.00     0.000 C 
BRANCH  13  14
ATOM     14  C   UNL     1     -16.614 -14.590   0.030  1.00  0.00     0.000 C 
BRANCH  14  15
ATOM     15  C   UNL     1     -17.296 -14.905  -1.314  1.00  0.00     0.000 C 
BRANCH  15  16
ATOM     16  C   UNL     1     -17.053 -13.842  -2.407  1.00  0.00     0.000 C 
BRANCH  16  17
ATOM     17  C   UNL     1     -17.510 -12.430  -2.000  1.00  0.00     0.000 C 
BRANCH  17  18
ATOM     18  C   UNL     1     -16.357 -11.414  -2.040  1.00  0.00     0.000 C 
BRANCH  18  19
ATOM     19  C   UNL     1     -15.939 -10.999  -0.620  1.00  0.00     0.000 C 
BRANCH  19  20
ATOM     20  C   UNL     1     -14.418 -11.065  -0.405  1.00  0.00     0.006 C 
BRANCH  20  21
ATOM     21  C   UNL     1     -14.015 -12.071   0.682  1.00  0.00     0.053 C 
BRANCH  21  22
ATOM     22  C   UNL     1     -12.533 -12.051   0.893  1.00  0.00     0.041 C 
ATOM     23  O   UNL     1     -11.954 -13.038   1.421  1.00  0.00    -0.550 OA
ATOM     24  O   UNL     1     -11.802 -10.912   0.578  1.00  0.00    -0.550 OA
ENDBRANCH  21  22
ENDBRANCH  20  21
ENDBRANCH  19  20
ENDBRANCH  18  19
ENDBRANCH  17  18
ENDBRANCH  16  17
ENDBRANCH  15  16
ENDBRANCH  14  15
ENDBRANCH  13  14
ENDBRANCH   1  13
TORSDOF 20
ENDMDL
MODEL 8
REMARK VINA RESULT:    -3.851      3.580      6.138
REMARK INTER + INTRA:         -10.709
REMARK INTER:                  -8.154
REMARK INTRA:                  -2.555
REMARK UNBOUND:                -2.356
REMARK SMILES CCCCCCCCCCCCCCCCCCCCCC(=O)[O-]
REMARK SMILES IDX 12 1 11 2 10 3 9 4 8 5 7 6 6 7 5 8 4 9 3 10 2 11 1 12 13 13
REMARK SMILES IDX 14 14 15 15 16 16 17 17 18 18 19 19 20 20 21 21 22 22 23 23
REMARK SMILES IDX 24 24
REMARK H PARENT
REMARK Flexibility Score: inf
ROOT
ATOM      1  C   UNL     1     -17.751 -13.711   1.442  1.00  0.00     0.000 C 
ENDROOT
BRANCH   1   2
ATOM      2  C   UNL     1     -19.109 -13.274   0.854  1.00  0.00     0.000 C 
BRANCH   2   3
ATOM      3  C   UNL     1     -20.321 -14.013   1.463  1.00  0.00     0.000 C 
BRANCH   3   4
ATOM      4  C   UNL     1     -20.756 -15.287   0.717  1.00  0.00    -0.000 C 
BRANCH   4   5
ATOM      5  C   UNL     1     -20.935 -16.537   1.603  1.00  0.00    -0.000 C 
BRANCH   5   6
ATOM      6  C   UNL     1     -19.897 -17.647   1.330  1.00  0.00    -0.000 C 
BRANCH   6   7
ATOM      7  C   UNL     1     -18.488 -17.261   1.816  1.00  0.00    -0.000 C 
BRANCH   7   8
ATOM      8  C   UNL     1     -17.805 -18.389   2.612  1.00  0.00    -0.000 C 
BRANCH   8   9
ATOM      9  C   UNL     1     -17.116 -19.457   1.737  1.00  0.00    -0.000 C 
BRANCH   9  10
ATOM     10  C   UNL     1     -16.056 -20.258   2.514  1.00  0.00    -0.000 C 
BRANCH  10  11
ATOM     11  C   UNL     1     -15.720 -19.627   3.875  1.00  0.00    -0.003 C 
ATOM     12  C   UNL     1     -15.987 -20.568   5.052  1.00  0.00     0.004 C 
ENDBRANCH  10  11
ENDBRANCH   9  10
ENDBRANCH   8   9
ENDBRANCH   7   8
ENDBRANCH   6   7
ENDBRANCH   5   6
ENDBRANCH   4   5
ENDBRANCH   3   4
ENDBRANCH   2   3
ENDBRANCH   1   2
BRANCH   1  13
ATOM     13  C   UNL     1     -16.807 -14.369   0.406  1.00  0.00     0.000 C 
BRANCH  13  14
ATOM     14  C   UNL     1     -17.551 -14.998  -0.793  1.00  0.00     0.000 C 
BRANCH  14  15
ATOM     15  C   UNL     1     -16.892 -14.721  -2.157  1.00  0.00     0.000 C 
BRANCH  15  16
ATOM     16  C   UNL     1     -17.722 -13.802  -3.080  1.00  0.00     0.000 C 
BRANCH  16  17
ATOM     17  C   UNL     1     -17.929 -12.388  -2.511  1.00  0.00     0.000 C 
BRANCH  17  18
ATOM     18  C   UNL     1     -16.618 -11.588  -2.453  1.00  0.00     0.000 C 
BRANCH  18  19
ATOM     19  C   UNL     1     -16.378 -11.023  -1.044  1.00  0.00     0.000 C 
BRANCH  19  20
ATOM     20  C   UNL     1     -14.886 -10.859  -0.714  1.00  0.00     0.006 C 
BRANCH  20  21
ATOM     21  C   UNL     1     -14.422 -11.784   0.420  1.00  0.00     0.053 C 
BRANCH  21  22
ATOM     22  C   UNL     1     -12.928 -11.787   0.517  1.00  0.00     0.041 C 
ATOM     23  O   UNL     1     -12.312 -12.856   0.778  1.00  0.00    -0.550 OA
ATOM     24  O   UNL     1     -12.221 -10.597   0.396  1.00  0.00    -0.550 OA
ENDBRANCH  21  22
ENDBRANCH  20  21
ENDBRANCH  19  20
ENDBRANCH  18  19
ENDBRANCH  17  18
ENDBRANCH  16  17
ENDBRANCH  15  16
ENDBRANCH  14  15
ENDBRANCH  13  14
ENDBRANCH   1  13
TORSDOF 20
ENDMDL
MODEL 9
REMARK VINA RESULT:    -3.816      4.063      9.211
REMARK INTER + INTRA:         -10.632
REMARK INTER:                  -8.156
REMARK INTRA:                  -2.476
REMARK UNBOUND:                -2.356
REMARK SMILES CCCCCCCCCCCCCCCCCCCCCC(=O)[O-]
REMARK SMILES IDX 12 1 11 2 10 3 9 4 8 5 7 6 6 7 5 8 4 9 3 10 2 11 1 12 13 13
REMARK SMILES IDX 14 14 15 15 16 16 17 17 18 18 19 19 20 20 21 21 22 22 23 23
REMARK SMILES IDX 24 24
REMARK H PARENT
REMARK Flexibility Score: inf
ROOT
ATOM      1  C   UNL     1     -18.096 -14.846  -0.141  1.00  0.00     0.000 C 
ENDROOT
BRANCH   1   2
ATOM      2  C   UNL     1     -17.052 -14.775  -1.275  1.00  0.00     0.000 C 
BRANCH   2   3
ATOM      3  C   UNL     1     -17.610 -14.220  -2.605  1.00  0.00     0.000 C 
BRANCH   3   4
ATOM      4  C   UNL     1     -17.667 -12.686  -2.704  1.00  0.00    -0.000 C 
BRANCH   4   5
ATOM      5  C   UNL     1     -16.475 -11.941  -2.069  1.00  0.00    -0.000 C 
BRANCH   5   6
ATOM      6  C   UNL     1     -16.864 -11.050  -0.870  1.00  0.00    -0.000 C 
BRANCH   6   7
ATOM      7  C   UNL     1     -16.275 -11.566   0.455  1.00  0.00    -0.000 C 
BRANCH   7   8
ATOM      8  C   UNL     1     -14.806 -12.011   0.319  1.00  0.00    -0.000 C 
BRANCH   8   9
ATOM      9  C   UNL     1     -14.507 -13.405   0.906  1.00  0.00    -0.000 C 
BRANCH   9  10
ATOM     10  C   UNL     1     -14.660 -13.443   2.437  1.00  0.00    -0.000 C 
BRANCH  10  11
ATOM     11  C   UNL     1     -13.305 -13.477   3.164  1.00  0.00    -0.003 C 
ATOM     12  C   UNL     1     -12.148 -13.893   2.253  1.00  0.00     0.004 C 
ENDBRANCH  10  11
ENDBRANCH   9  10
ENDBRANCH   8   9
ENDBRANCH   7   8
ENDBRANCH   6   7
ENDBRANCH   5   6
ENDBRANCH   4   5
ENDBRANCH   3   4
ENDBRANCH   2   3
ENDBRANCH   1   2
BRANCH   1  13
ATOM     13  C   UNL     1     -17.579 -15.550   1.137  1.00  0.00     0.000 C 
BRANCH  13  14
ATOM     14  C   UNL     1     -18.333 -16.857   1.469  1.00  0.00     0.000 C 
BRANCH  14  15
ATOM     15  C   UNL     1     -19.865 -16.742   1.367  1.00  0.00     0.000 C 
BRANCH  15  16
ATOM     16  C   UNL     1     -20.577 -18.079   1.070  1.00  0.00     0.000 C 
BRANCH  16  17
ATOM     17  C   UNL     1     -19.667 -19.308   1.236  1.00  0.00     0.000 C 
BRANCH  17  18
ATOM     18  C   UNL     1     -19.989 -20.100   2.514  1.00  0.00     0.000 C 
BRANCH  18  19
ATOM     19  C   UNL     1     -18.810 -20.056   3.500  1.00  0.00     0.000 C 
BRANCH  19  20
ATOM     20  C   UNL     1     -17.558 -20.769   2.964  1.00  0.00     0.006 C 
BRANCH  20  21
ATOM     21  C   UNL     1     -16.329 -19.851   2.909  1.00  0.00     0.053 C 
BRANCH  21  22
ATOM     22  C   UNL     1     -15.840 -19.544   4.290  1.00  0.00     0.041 C 
ATOM     23  O   UNL     1     -15.821 -18.354   4.706  1.00  0.00    -0.550 OA
ATOM     24  O   UNL     1     -15.333 -20.561   5.089  1.00  0.00    -0.550 OA
ENDBRANCH  21  22
ENDBRANCH  20  21
ENDBRANCH  19  20
ENDBRANCH  18  19
ENDBRANCH  17  18
ENDBRANCH  16  17
ENDBRANCH  15  16
ENDBRANCH  14  15
ENDBRANCH  13  14
ENDBRANCH   1  13
TORSDOF 20
ENDMDL
