MODEL 1
REMARK VINA RESULT:    -4.445      0.000      0.000
REMARK INTER + INTRA:          -5.176
REMARK INTER:                  -4.965
REMARK INTRA:                  -0.211
REMARK UNBOUND:                -0.211
REMARK SMILES O=C([O-])c1ccccc1C(=O)[O-]
REMARK SMILES IDX 4 1 9 2 5 3 8 4 6 5 7 6 2 7 1 8 3 9 10 10 11 11 12 12
REMARK H PARENT
REMARK Flexibility Score: inf
ROOT
ATOM      1  C   UNL     1      19.706  32.083  45.063  1.00  0.00     0.006 A 
ATOM      2  C   UNL     1      19.568  31.363  46.283  1.00  0.00     0.006 A 
ATOM      3  C   UNL     1      19.207  31.518  43.875  1.00  0.00     0.010 A 
ATOM      4  C   UNL     1      18.997  30.077  46.257  1.00  0.00     0.010 A 
ATOM      5  C   UNL     1      18.625  30.250  43.877  1.00  0.00     0.001 A 
ATOM      6  C   UNL     1      18.530  29.527  45.064  1.00  0.00     0.001 A 
ENDROOT
BRANCH   1   7
ATOM      7  C   UNL     1      20.412  33.382  44.966  1.00  0.00     0.072 C 
ATOM      8  O   UNL     1      21.598  33.440  44.543  1.00  0.00    -0.545 OA
ATOM      9  O   UNL     1      19.748  34.562  45.279  1.00  0.00    -0.545 OA
ENDBRANCH   1   7
BRANCH   2  10
ATOM     10  C   UNL     1      19.936  31.930  47.602  1.00  0.00     0.072 C 
ATOM     11  O   UNL     1      21.103  31.801  48.056  1.00  0.00    -0.545 OA
ATOM     12  O   UNL     1      19.009  32.672  48.324  1.00  0.00    -0.545 OA
ENDBRANCH   2  10
TORSDOF 2
ENDMDL
MODEL 2
REMARK VINA RESULT:    -4.444      0.086      2.877
REMARK INTER + INTRA:          -5.175
REMARK INTER:                  -4.951
REMARK INTRA:                  -0.224
REMARK UNBOUND:                -0.211
REMARK SMILES O=C([O-])c1ccccc1C(=O)[O-]
REMARK SMILES IDX 4 1 9 2 5 3 8 4 6 5 7 6 2 7 1 8 3 9 10 10 11 11 12 12
REMARK H PARENT
REMARK Flexibility Score: inf
ROOT
ATOM      1  C   UNL     1      19.577  31.395  46.284  1.00  0.00     0.006 A 
ATOM      2  C   UNL     1      19.712  32.100  45.054  1.00  0.00     0.006 A 
ATOM      3  C   UNL     1      19.005  30.110  46.276  1.00  0.00     0.010 A 
ATOM      4  C   UNL     1      19.210  31.519  43.875  1.00  0.00     0.010 A 
ATOM      5  C   UNL     1      18.534  29.545  45.091  1.00  0.00     0.001 A 
ATOM      6  C   UNL     1      18.626  30.253  43.895  1.00  0.00     0.001 A 
ENDROOT
BRANCH   1   7
ATOM      7  C   UNL     1      19.950  31.978  47.594  1.00  0.00     0.072 C 
ATOM      8  O   UNL     1      21.078  31.743  48.105  1.00  0.00    -0.545 OA
ATOM      9  O   UNL     1      19.083  32.849  48.243  1.00  0.00    -0.545 OA
ENDBRANCH   1   7
BRANCH   2  10
ATOM     10  C   UNL     1      20.422  33.395  44.939  1.00  0.00     0.072 C 
ATOM     11  O   UNL     1      21.638  33.437  44.615  1.00  0.00    -0.545 OA
ATOM     12  O   UNL     1      19.731  34.587  45.123  1.00  0.00    -0.545 OA
ENDBRANCH   2  10
TORSDOF 2
ENDMDL
MODEL 3
REMARK VINA RESULT:    -4.413     12.711     13.741
REMARK INTER + INTRA:          -5.140
REMARK INTER:                  -4.922
REMARK INTRA:                  -0.218
REMARK UNBOUND:                -0.211
REMARK SMILES O=C([O-])c1ccccc1C(=O)[O-]
REMARK SMILES IDX 4 1 9 2 5 3 8 4 6 5 7 6 2 7 1 8 3 9 10 10 11 11 12 12
REMARK H PARENT
REMARK Flexibility Score: inf
ROOT
ATOM      1  C   UNL     1      29.158  41.667  46.675  1.00  0.00     0.006 A 
ATOM      2  C   UNL     1      28.292  41.789  45.552  1.00  0.00     0.006 A 
ATOM      3  C   UNL     1      30.128  40.648  46.682  1.00  0.00     0.010 A 
ATOM      4  C   UNL     1      28.386  40.848  44.510  1.00  0.00     0.010 A 
ATOM      5  C   UNL     1      30.218  39.739  45.627  1.00  0.00     0.001 A 
ATOM      6  C   UNL     1      29.341  39.832  44.549  1.00  0.00     0.001 A 
ENDROOT
BRANCH   1   7
ATOM      7  C   UNL     1      29.046  42.523  47.879  1.00  0.00     0.072 C 
ATOM      8  O   UNL     1      29.791  43.529  48.025  1.00  0.00    -0.545 OA
ATOM      9  O   UNL     1      28.067  42.264  48.831  1.00  0.00    -0.545 OA
ENDBRANCH   1   7
BRANCH   2  10
ATOM     10  C   UNL     1      27.333  42.907  45.390  1.00  0.00     0.072 C 
ATOM     11  O   UNL     1      27.617  43.901  44.670  1.00  0.00    -0.545 OA
ATOM     12  O   UNL     1      26.076  42.838  45.979  1.00  0.00    -0.545 OA
ENDBRANCH   2  10
TORSDOF 2
ENDMDL
MODEL 4
REMARK VINA RESULT:    -4.378     11.062     12.855
REMARK INTER + INTRA:          -5.101
REMARK INTER:                  -4.887
REMARK INTRA:                  -0.214
REMARK UNBOUND:                -0.211
REMARK SMILES O=C([O-])c1ccccc1C(=O)[O-]
REMARK SMILES IDX 4 1 9 2 5 3 8 4 6 5 7 6 2 7 1 8 3 9 10 10 11 11 12 12
REMARK H PARENT
REMARK Flexibility Score: inf
ROOT
ATOM      1  C   UNL     1      26.860  41.463  46.888  1.00  0.00     0.006 A 
ATOM      2  C   UNL     1      27.576  41.712  45.683  1.00  0.00     0.006 A 
ATOM      3  C   UNL     1      26.048  42.480  47.422  1.00  0.00     0.010 A 
ATOM      4  C   UNL     1      27.504  42.989  45.096  1.00  0.00     0.010 A 
ATOM      5  C   UNL     1      25.975  43.732  46.811  1.00  0.00     0.001 A 
ATOM      6  C   UNL     1      26.710  43.989  45.656  1.00  0.00     0.001 A 
ENDROOT
BRANCH   1   7
ATOM      7  C   UNL     1      26.978  40.200  47.652  1.00  0.00     0.072 C 
ATOM      8  O   UNL     1      27.792  40.099  48.609  1.00  0.00    -0.545 OA
ATOM      9  O   UNL     1      26.139  39.129  47.364  1.00  0.00    -0.545 OA
ENDBRANCH   1   7
BRANCH   2  10
ATOM     10  C   UNL     1      28.346  40.665  44.970  1.00  0.00     0.072 C 
ATOM     11  O   UNL     1      27.839  40.036  44.005  1.00  0.00    -0.545 OA
ATOM     12  O   UNL     1      29.668  40.414  45.320  1.00  0.00    -0.545 OA
ENDBRANCH   2  10
TORSDOF 2
ENDMDL
MODEL 5
REMARK VINA RESULT:    -4.376     11.017     12.534
REMARK INTER + INTRA:          -5.098
REMARK INTER:                  -4.884
REMARK INTRA:                  -0.213
REMARK UNBOUND:                -0.211
REMARK SMILES O=C([O-])c1ccccc1C(=O)[O-]
REMARK SMILES IDX 4 1 9 2 5 3 8 4 6 5 7 6 2 7 1 8 3 9 10 10 11 11 12 12
REMARK H PARENT
REMARK Flexibility Score: inf
ROOT
ATOM      1  C   UNL     1      27.574  41.695  45.674  1.00  0.00     0.006 A 
ATOM      2  C   UNL     1      26.840  41.442  46.866  1.00  0.00     0.006 A 
ATOM      3  C   UNL     1      27.514  42.974  45.092  1.00  0.00     0.010 A 
ATOM      4  C   UNL     1      26.021  42.458  47.393  1.00  0.00     0.010 A 
ATOM      5  C   UNL     1      26.712  43.973  45.645  1.00  0.00     0.001 A 
ATOM      6  C   UNL     1      25.959  43.712  46.786  1.00  0.00     0.001 A 
ENDROOT
BRANCH   1   7
ATOM      7  C   UNL     1      28.355  40.651  44.969  1.00  0.00     0.072 C 
ATOM      8  O   UNL     1      27.867  40.037  43.983  1.00  0.00    -0.545 OA
ATOM      9  O   UNL     1      29.666  40.387  45.347  1.00  0.00    -0.545 OA
ENDBRANCH   1   7
BRANCH   2  10
ATOM     10  C   UNL     1      26.945  40.175  47.627  1.00  0.00     0.072 C 
ATOM     11  O   UNL     1      27.776  40.054  48.565  1.00  0.00    -0.545 OA
ATOM     12  O   UNL     1      26.077  39.124  47.355  1.00  0.00    -0.545 OA
ENDBRANCH   2  10
TORSDOF 2
ENDMDL
MODEL 6
REMARK VINA RESULT:    -4.373     12.668     13.520
REMARK INTER + INTRA:          -5.095
REMARK INTER:                  -4.880
REMARK INTRA:                  -0.215
REMARK UNBOUND:                -0.211
REMARK SMILES O=C([O-])c1ccccc1C(=O)[O-]
REMARK SMILES IDX 4 1 9 2 5 3 8 4 6 5 7 6 2 7 1 8 3 9 10 10 11 11 12 12
REMARK H PARENT
REMARK Flexibility Score: inf
ROOT
ATOM      1  C   UNL     1      28.320  41.721  45.590  1.00  0.00     0.006 A 
ATOM      2  C   UNL     1      29.196  41.624  46.708  1.00  0.00     0.006 A 
ATOM      3  C   UNL     1      28.403  40.754  44.571  1.00  0.00     0.010 A 
ATOM      4  C   UNL     1      30.165  40.604  46.731  1.00  0.00     0.010 A 
ATOM      5  C   UNL     1      29.358  39.738  44.626  1.00  0.00     0.001 A 
ATOM      6  C   UNL     1      30.244  39.670  45.699  1.00  0.00     0.001 A 
ENDROOT
BRANCH   1   7
ATOM      7  C   UNL     1      27.360  42.834  45.409  1.00  0.00     0.072 C 
ATOM      8  O   UNL     1      27.625  43.794  44.636  1.00  0.00    -0.545 OA
ATOM      9  O   UNL     1      26.122  42.798  46.040  1.00  0.00    -0.545 OA
ENDBRANCH   1   7
BRANCH   2  10
ATOM     10  C   UNL     1      29.095  42.510  47.892  1.00  0.00     0.072 C 
ATOM     11  O   UNL     1      29.836  43.521  48.005  1.00  0.00    -0.545 OA
ATOM     12  O   UNL     1      28.129  42.268  48.862  1.00  0.00    -0.545 OA
ENDBRANCH   2  10
TORSDOF 2
ENDMDL
MODEL 7
REMARK VINA RESULT:    -4.189     11.037     12.304
REMARK INTER + INTRA:          -4.889
REMARK INTER:                  -4.660
REMARK INTRA:                  -0.229
REMARK UNBOUND:                -0.211
REMARK SMILES O=C([O-])c1ccccc1C(=O)[O-]
REMARK SMILES IDX 4 1 9 2 5 3 8 4 6 5 7 6 2 7 1 8 3 9 10 10 11 11 12 12
REMARK H PARENT
REMARK Flexibility Score: inf
ROOT
ATOM      1  C   UNL     1      27.653  40.830  46.532  1.00  0.00     0.006 A 
ATOM      2  C   UNL     1      28.452  39.697  46.214  1.00  0.00     0.006 A 
ATOM      3  C   UNL     1      26.456  40.643  47.247  1.00  0.00     0.010 A 
ATOM      4  C   UNL     1      27.991  38.414  46.564  1.00  0.00     0.010 A 
ATOM      5  C   UNL     1      26.029  39.364  47.603  1.00  0.00     0.001 A 
ATOM      6  C   UNL     1      26.789  38.251  47.253  1.00  0.00     0.001 A 
ENDROOT
BRANCH   1   7
ATOM      7  C   UNL     1      27.985  42.204  46.089  1.00  0.00     0.072 C 
ATOM      8  O   UNL     1      28.579  43.004  46.860  1.00  0.00    -0.545 OA
ATOM      9  O   UNL     1      27.706  42.604  44.787  1.00  0.00    -0.545 OA
ENDBRANCH   1   7
BRANCH   2  10
ATOM     10  C   UNL     1      29.791  39.803  45.587  1.00  0.00     0.072 C 
ATOM     11  O   UNL     1      29.921  39.762  44.335  1.00  0.00    -0.545 OA
ATOM     12  O   UNL     1      30.915  40.016  46.376  1.00  0.00    -0.545 OA
ENDBRANCH   2  10
TORSDOF 2
ENDMDL
MODEL 8
REMARK VINA RESULT:    -4.166     11.027     12.337
REMARK INTER + INTRA:          -4.864
REMARK INTER:                  -4.645
REMARK INTRA:                  -0.219
REMARK UNBOUND:                -0.211
REMARK SMILES O=C([O-])c1ccccc1C(=O)[O-]
REMARK SMILES IDX 4 1 9 2 5 3 8 4 6 5 7 6 2 7 1 8 3 9 10 10 11 11 12 12
REMARK H PARENT
REMARK Flexibility Score: inf
ROOT
ATOM      1  C   UNL     1      28.545  39.599  46.189  1.00  0.00     0.006 A 
ATOM      2  C   UNL     1      27.716  40.722  46.466  1.00  0.00     0.006 A 
ATOM      3  C   UNL     1      28.104  38.316  46.558  1.00  0.00     0.010 A 
ATOM      4  C   UNL     1      26.508  40.526  47.161  1.00  0.00     0.010 A 
ATOM      5  C   UNL     1      26.892  38.142  47.227  1.00  0.00     0.001 A 
ATOM      6  C   UNL     1      26.101  39.246  47.538  1.00  0.00     0.001 A 
ENDROOT
BRANCH   1   7
ATOM      7  C   UNL     1      29.893  39.719  45.585  1.00  0.00     0.072 C 
ATOM      8  O   UNL     1      30.049  39.634  44.337  1.00  0.00    -0.545 OA
ATOM      9  O   UNL     1      30.994  39.996  46.386  1.00  0.00    -0.545 OA
ENDBRANCH   1   7
BRANCH   2  10
ATOM     10  C   UNL     1      28.029  42.093  45.996  1.00  0.00     0.072 C 
ATOM     11  O   UNL     1      27.736  42.456  44.827  1.00  0.00    -0.545 OA
ATOM     12  O   UNL     1      28.590  43.017  46.869  1.00  0.00    -0.545 OA
ENDBRANCH   2  10
TORSDOF 2
ENDMDL
