MODEL 1
REMARK VINA RESULT:     2.503      0.000      0.000
REMARK INTER + INTRA:           3.987
REMARK INTER:                   4.551
REMARK INTRA:                  -0.564
REMARK UNBOUND:                -0.564
REMARK SMILES CCCCCC=CCC=CCCCCCCCC(=O)[O-]
REMARK SMILES IDX 11 1 12 2 13 3 14 4 15 5 16 6 17 7 18 8 19 9 20 10 10 11
REMARK SMILES IDX 9 12 8 13 7 14 6 15 5 16 4 17 3 18 2 19 1 20
REMARK H PARENT
REMARK Flexibility Score: inf
ROOT
ATOM      1  C   UNL     1       5.649 132.981 151.597  1.00  0.00     0.027 C 
ENDROOT
BRANCH   1   2
ATOM      2  C   UNL     1       5.075 131.786 150.823  1.00  0.00     0.004 C 
BRANCH   2   3
ATOM      3  C   UNL     1       3.793 132.150 150.060  1.00  0.00     0.000 C 
BRANCH   3   4
ATOM      4  C   UNL     1       3.062 133.316 150.741  1.00  0.00     0.000 C 
BRANCH   4   5
ATOM      5  C   UNL     1       1.628 132.956 151.172  1.00  0.00     0.000 C 
BRANCH   5   6
ATOM      6  C   UNL     1       1.417 132.817 152.693  1.00  0.00     0.006 C 
BRANCH   6   7
ATOM      7  C   UNL     1       2.277 131.730 153.359  1.00  0.00     0.053 C 
BRANCH   7   8
ATOM      8  C   UNL     1       2.516 132.016 154.810  1.00  0.00     0.041 C 
ATOM      9  O   UNL     1       3.468 131.456 155.416  1.00  0.00    -0.550 OA
ATOM     10  O   UNL     1       1.670 132.873 155.501  1.00  0.00    -0.550 OA
ENDBRANCH   7   8
ENDBRANCH   6   7
ENDBRANCH   5   6
ENDBRANCH   4   5
ENDBRANCH   3   4
ENDBRANCH   2   3
ENDBRANCH   1   2
BRANCH   1  11
ATOM     11  C   UNL     1       5.396 132.868 153.081  1.00  0.00    -0.031 C 
ATOM     12  C   UNL     1       4.805 133.818 153.829  1.00  0.00    -0.027 C 
BRANCH  12  13
ATOM     13  C   UNL     1       4.247 135.106 153.281  1.00  0.00     0.054 C 
BRANCH  13  14
ATOM     14  C   UNL     1       4.031 136.113 154.377  1.00  0.00    -0.027 C 
ATOM     15  C   UNL     1       3.636 135.722 155.596  1.00  0.00    -0.031 C 
BRANCH  15  16
ATOM     16  C   UNL     1       3.423 136.709 156.714  1.00  0.00     0.027 C 
BRANCH  16  17
ATOM     17  C   UNL     1       1.979 136.699 157.245  1.00  0.00     0.004 C 
BRANCH  17  18
ATOM     18  C   UNL     1       1.649 137.863 158.197  1.00  0.00     0.000 C 
BRANCH  18  19
ATOM     19  C   UNL     1       1.779 137.476 159.677  1.00  0.00    -0.003 C 
ATOM     20  C   UNL     1       1.645 135.967 159.864  1.00  0.00     0.004 C 
ENDBRANCH  18  19
ENDBRANCH  17  18
ENDBRANCH  16  17
ENDBRANCH  15  16
ENDBRANCH  13  14
ENDBRANCH  12  13
ENDBRANCH   1  11
TORSDOF 14
ENDMDL
MODEL 2
REMARK VINA RESULT:     2.579      1.925      3.468
REMARK INTER + INTRA:           4.127
REMARK INTER:                   4.032
REMARK INTRA:                   0.095
REMARK UNBOUND:                -0.564
REMARK SMILES CCCCCC=CCC=CCCCCCCCC(=O)[O-]
REMARK SMILES IDX 11 1 12 2 13 3 14 4 15 5 16 6 17 7 18 8 19 9 20 10 10 11
REMARK SMILES IDX 9 12 8 13 7 14 6 15 5 16 4 17 3 18 2 19 1 20
REMARK H PARENT
REMARK Flexibility Score: inf
ROOT
ATOM      1  C   UNL     1       4.164 134.409 153.488  1.00  0.00     0.027 C 
ENDROOT
BRANCH   1   2
ATOM      2  C   UNL     1       4.889 133.235 154.162  1.00  0.00     0.004 C 
BRANCH   2   3
ATOM      3  C   UNL     1       3.924 132.107 154.557  1.00  0.00     0.000 C 
BRANCH   3   4
ATOM      4  C   UNL     1       2.499 132.410 154.073  1.00  0.00     0.000 C 
BRANCH   4   5
ATOM      5  C   UNL     1       2.159 131.720 152.739  1.00  0.00     0.000 C 
BRANCH   5   6
ATOM      6  C   UNL     1       1.975 132.672 151.539  1.00  0.00     0.006 C 
BRANCH   6   7
ATOM      7  C   UNL     1       3.279 133.285 151.005  1.00  0.00     0.053 C 
BRANCH   7   8
ATOM      8  C   UNL     1       4.254 132.237 150.567  1.00  0.00     0.041 C 
ATOM      9  O   UNL     1       5.082 131.759 151.387  1.00  0.00    -0.550 OA
ATOM     10  O   UNL     1       4.271 131.811 149.245  1.00  0.00    -0.550 OA
ENDBRANCH   7   8
ENDBRANCH   6   7
ENDBRANCH   5   6
ENDBRANCH   4   5
ENDBRANCH   3   4
ENDBRANCH   2   3
ENDBRANCH   1   2
BRANCH   1  11
ATOM     11  C   UNL     1       4.418 135.714 154.203  1.00  0.00    -0.031 C 
ATOM     12  C   UNL     1       3.682 136.177 155.231  1.00  0.00    -0.027 C 
BRANCH  12  13
ATOM     13  C   UNL     1       2.539 135.426 155.864  1.00  0.00     0.054 C 
BRANCH  13  14
ATOM     14  C   UNL     1       1.803 136.290 156.850  1.00  0.00    -0.027 C 
ATOM     15  C   UNL     1       2.471 137.116 157.667  1.00  0.00    -0.031 C 
BRANCH  15  16
ATOM     16  C   UNL     1       1.757 137.999 158.656  1.00  0.00     0.027 C 
BRANCH  16  17
ATOM     17  C   UNL     1       1.726 137.396 160.072  1.00  0.00     0.004 C 
BRANCH  17  18
ATOM     18  C   UNL     1       2.085 135.900 160.129  1.00  0.00     0.000 C 
BRANCH  18  19
ATOM     19  C   UNL     1       0.919 134.993 159.708  1.00  0.00    -0.003 C 
ATOM     20  C   UNL     1       1.312 133.521 159.788  1.00  0.00     0.004 C 
ENDBRANCH  18  19
ENDBRANCH  17  18
ENDBRANCH  16  17
ENDBRANCH  15  16
ENDBRANCH  13  14
ENDBRANCH  12  13
ENDBRANCH   1  11
TORSDOF 14
ENDMDL
MODEL 3
REMARK VINA RESULT:     2.653      1.711      2.937
REMARK INTER + INTRA:           4.261
REMARK INTER:                   4.492
REMARK INTRA:                  -0.232
REMARK UNBOUND:                -0.564
REMARK SMILES CCCCCC=CCC=CCCCCCCCC(=O)[O-]
REMARK SMILES IDX 11 1 12 2 13 3 14 4 15 5 16 6 17 7 18 8 19 9 20 10 10 11
REMARK SMILES IDX 9 12 8 13 7 14 6 15 5 16 4 17 3 18 2 19 1 20
REMARK H PARENT
REMARK Flexibility Score: inf
ROOT
ATOM      1  C   UNL     1       3.149 132.958 155.275  1.00  0.00     0.027 C 
ENDROOT
BRANCH   1   2
ATOM      2  C   UNL     1       1.987 132.352 154.474  1.00  0.00     0.004 C 
BRANCH   2   3
ATOM      3  C   UNL     1       2.479 131.453 153.330  1.00  0.00     0.000 C 
BRANCH   3   4
ATOM      4  C   UNL     1       1.721 131.756 152.030  1.00  0.00     0.000 C 
BRANCH   4   5
ATOM      5  C   UNL     1       1.835 133.230 151.598  1.00  0.00     0.000 C 
BRANCH   5   6
ATOM      6  C   UNL     1       3.091 133.573 150.771  1.00  0.00     0.006 C 
BRANCH   6   7
ATOM      7  C   UNL     1       3.881 132.352 150.274  1.00  0.00     0.053 C 
BRANCH   7   8
ATOM      8  C   UNL     1       5.133 132.134 151.066  1.00  0.00     0.041 C 
ATOM      9  O   UNL     1       6.046 133.002 151.059  1.00  0.00    -0.550 OA
ATOM     10  O   UNL     1       5.307 130.958 151.784  1.00  0.00    -0.550 OA
ENDBRANCH   7   8
ENDBRANCH   6   7
ENDBRANCH   5   6
ENDBRANCH   4   5
ENDBRANCH   3   4
ENDBRANCH   2   3
ENDBRANCH   1   2
BRANCH   1  11
ATOM     11  C   UNL     1       4.403 133.081 154.445  1.00  0.00    -0.031 C 
ATOM     12  C   UNL     1       4.786 134.199 153.801  1.00  0.00    -0.027 C 
BRANCH  12  13
ATOM     13  C   UNL     1       4.053 135.514 153.872  1.00  0.00     0.054 C 
BRANCH  13  14
ATOM     14  C   UNL     1       3.586 135.800 155.272  1.00  0.00    -0.027 C 
ATOM     15  C   UNL     1       2.278 135.856 155.558  1.00  0.00    -0.031 C 
BRANCH  15  16
ATOM     16  C   UNL     1       1.785 136.131 156.954  1.00  0.00     0.027 C 
BRANCH  16  17
ATOM     17  C   UNL     1       2.738 137.039 157.751  1.00  0.00     0.004 C 
BRANCH  17  18
ATOM     18  C   UNL     1       2.033 138.165 158.529  1.00  0.00     0.000 C 
BRANCH  18  19
ATOM     19  C   UNL     1       1.767 137.798 159.996  1.00  0.00    -0.003 C 
ATOM     20  C   UNL     1       1.590 136.292 160.162  1.00  0.00     0.004 C 
ENDBRANCH  18  19
ENDBRANCH  17  18
ENDBRANCH  16  17
ENDBRANCH  15  16
ENDBRANCH  13  14
ENDBRANCH  12  13
ENDBRANCH   1  11
TORSDOF 14
ENDMDL
MODEL 4
REMARK VINA RESULT:     2.976      0.804      1.556
REMARK INTER + INTRA:           4.848
REMARK INTER:                   4.585
REMARK INTRA:                   0.263
REMARK UNBOUND:                -0.564
REMARK SMILES CCCCCC=CCC=CCCCCCCCC(=O)[O-]
REMARK SMILES IDX 11 1 12 2 13 3 14 4 15 5 16 6 17 7 18 8 19 9 20 10 10 11
REMARK SMILES IDX 9 12 8 13 7 14 6 15 5 16 4 17 3 18 2 19 1 20
REMARK H PARENT
REMARK Flexibility Score: inf
ROOT
ATOM      1  C   UNL     1       5.187 133.420 152.803  1.00  0.00     0.027 C 
ENDROOT
BRANCH   1   2
ATOM      2  C   UNL     1       5.734 132.882 151.473  1.00  0.00     0.004 C 
BRANCH   2   3
ATOM      3  C   UNL     1       4.834 131.788 150.876  1.00  0.00     0.000 C 
BRANCH   3   4
ATOM      4  C   UNL     1       3.640 132.405 150.134  1.00  0.00     0.000 C 
BRANCH   4   5
ATOM      5  C   UNL     1       2.683 133.170 151.068  1.00  0.00     0.000 C 
BRANCH   5   6
ATOM      6  C   UNL     1       1.855 132.285 152.022  1.00  0.00     0.006 C 
BRANCH   6   7
ATOM      7  C   UNL     1       1.727 132.835 153.452  1.00  0.00     0.053 C 
BRANCH   7   8
ATOM      8  C   UNL     1       2.489 132.009 154.441  1.00  0.00     0.041 C 
ATOM      9  O   UNL     1       2.038 131.839 155.605  1.00  0.00    -0.550 OA
ATOM     10  O   UNL     1       3.712 131.453 154.090  1.00  0.00    -0.550 OA
ENDBRANCH   7   8
ENDBRANCH   6   7
ENDBRANCH   5   6
ENDBRANCH   4   5
ENDBRANCH   3   4
ENDBRANCH   2   3
ENDBRANCH   1   2
BRANCH   1  11
ATOM     11  C   UNL     1       4.735 134.856 152.688  1.00  0.00    -0.031 C 
ATOM     12  C   UNL     1       4.139 135.550 153.675  1.00  0.00    -0.027 C 
BRANCH  12  13
ATOM     13  C   UNL     1       3.897 135.016 155.063  1.00  0.00     0.054 C 
BRANCH  13  14
ATOM     14  C   UNL     1       3.270 136.061 155.944  1.00  0.00    -0.027 C 
ATOM     15  C   UNL     1       2.003 135.932 156.361  1.00  0.00    -0.031 C 
BRANCH  15  16
ATOM     16  C   UNL     1       1.355 136.959 157.252  1.00  0.00     0.027 C 
BRANCH  16  17
ATOM     17  C   UNL     1       2.383 137.816 158.013  1.00  0.00     0.004 C 
BRANCH  17  18
ATOM     18  C   UNL     1       1.956 138.190 159.444  1.00  0.00     0.000 C 
BRANCH  18  19
ATOM     19  C   UNL     1       1.190 137.061 160.150  1.00  0.00    -0.003 C 
ATOM     20  C   UNL     1       1.929 135.732 160.021  1.00  0.00     0.004 C 
ENDBRANCH  18  19
ENDBRANCH  17  18
ENDBRANCH  16  17
ENDBRANCH  15  16
ENDBRANCH  13  14
ENDBRANCH  12  13
ENDBRANCH   1  11
TORSDOF 14
ENDMDL
MODEL 5
REMARK VINA RESULT:     3.215      2.286      6.810
REMARK INTER + INTRA:           5.282
REMARK INTER:                   4.568
REMARK INTRA:                   0.715
REMARK UNBOUND:                -0.564
REMARK SMILES CCCCCC=CCC=CCCCCCCCC(=O)[O-]
REMARK SMILES IDX 11 1 12 2 13 3 14 4 15 5 16 6 17 7 18 8 19 9 20 10 10 11
REMARK SMILES IDX 9 12 8 13 7 14 6 15 5 16 4 17 3 18 2 19 1 20
REMARK H PARENT
REMARK Flexibility Score: inf
ROOT
ATOM      1  C   UNL     1       4.202 134.083 153.405  1.00  0.00     0.027 C 
ENDROOT
BRANCH   1   2
ATOM      2  C   UNL     1       4.280 135.565 153.798  1.00  0.00     0.004 C 
BRANCH   2   3
ATOM      3  C   UNL     1       3.866 135.800 155.258  1.00  0.00     0.000 C 
BRANCH   3   4
ATOM      4  C   UNL     1       2.433 135.307 155.509  1.00  0.00     0.000 C 
BRANCH   4   5
ATOM      5  C   UNL     1       1.751 136.020 156.691  1.00  0.00     0.000 C 
BRANCH   5   6
ATOM      6  C   UNL     1       2.667 136.954 157.508  1.00  0.00     0.006 C 
BRANCH   6   7
ATOM      7  C   UNL     1       1.932 138.090 158.238  1.00  0.00     0.053 C 
BRANCH   7   8
ATOM      8  C   UNL     1       1.841 137.842 159.712  1.00  0.00     0.041 C 
ATOM      9  O   UNL     1       2.114 138.763 160.527  1.00  0.00    -0.550 OA
ATOM     10  O   UNL     1       1.487 136.586 160.187  1.00  0.00    -0.550 OA
ENDBRANCH   7   8
ENDBRANCH   6   7
ENDBRANCH   5   6
ENDBRANCH   4   5
ENDBRANCH   3   4
ENDBRANCH   2   3
ENDBRANCH   1   2
BRANCH   1  11
ATOM     11  C   UNL     1       4.627 133.176 154.535  1.00  0.00    -0.031 C 
ATOM     12  C   UNL     1       3.867 132.192 155.050  1.00  0.00    -0.027 C 
BRANCH  12  13
ATOM     13  C   UNL     1       2.508 131.805 154.528  1.00  0.00     0.054 C 
BRANCH  13  14
ATOM     14  C   UNL     1       2.463 131.877 153.027  1.00  0.00    -0.027 C 
ATOM     15  C   UNL     1       1.837 132.889 152.410  1.00  0.00    -0.031 C 
BRANCH  15  16
ATOM     16  C   UNL     1       1.786 132.990 150.908  1.00  0.00     0.027 C 
BRANCH  16  17
ATOM     17  C   UNL     1       3.149 133.354 150.293  1.00  0.00     0.004 C 
BRANCH  17  18
ATOM     18  C   UNL     1       3.986 132.140 149.849  1.00  0.00     0.000 C 
BRANCH  18  19
ATOM     19  C   UNL     1       5.032 131.725 150.894  1.00  0.00    -0.003 C 
ATOM     20  C   UNL     1       5.918 132.905 151.283  1.00  0.00     0.004 C 
ENDBRANCH  18  19
ENDBRANCH  17  18
ENDBRANCH  16  17
ENDBRANCH  15  16
ENDBRANCH  13  14
ENDBRANCH  12  13
ENDBRANCH   1  11
TORSDOF 14
ENDMDL
MODEL 6
REMARK VINA RESULT:     3.245      2.299      5.855
REMARK INTER + INTRA:           5.337
REMARK INTER:                   5.032
REMARK INTRA:                   0.305
REMARK UNBOUND:                -0.564
REMARK SMILES CCCCCC=CCC=CCCCCCCCC(=O)[O-]
REMARK SMILES IDX 11 1 12 2 13 3 14 4 15 5 16 6 17 7 18 8 19 9 20 10 10 11
REMARK SMILES IDX 9 12 8 13 7 14 6 15 5 16 4 17 3 18 2 19 1 20
REMARK H PARENT
REMARK Flexibility Score: inf
ROOT
ATOM      1  C   UNL     1       4.546 134.137 152.546  1.00  0.00     0.027 C 
ENDROOT
BRANCH   1   2
ATOM      2  C   UNL     1       4.606 134.510 154.035  1.00  0.00     0.004 C 
BRANCH   2   3
ATOM      3  C   UNL     1       4.076 135.928 154.299  1.00  0.00     0.000 C 
BRANCH   3   4
ATOM      4  C   UNL     1       3.612 136.077 155.755  1.00  0.00     0.000 C 
BRANCH   4   5
ATOM      5  C   UNL     1       2.108 135.796 155.937  1.00  0.00     0.000 C 
BRANCH   5   6
ATOM      6  C   UNL     1       1.493 136.350 157.238  1.00  0.00     0.006 C 
BRANCH   6   7
ATOM      7  C   UNL     1       2.370 137.377 157.972  1.00  0.00     0.053 C 
BRANCH   7   8
ATOM      8  C   UNL     1       1.919 137.592 159.383  1.00  0.00     0.041 C 
ATOM      9  O   UNL     1       1.367 136.657 160.021  1.00  0.00    -0.550 OA
ATOM     10  O   UNL     1       2.078 138.834 159.984  1.00  0.00    -0.550 OA
ENDBRANCH   7   8
ENDBRANCH   6   7
ENDBRANCH   5   6
ENDBRANCH   4   5
ENDBRANCH   3   4
ENDBRANCH   2   3
ENDBRANCH   1   2
BRANCH   1  11
ATOM     11  C   UNL     1       5.721 133.284 152.131  1.00  0.00    -0.031 C 
ATOM     12  C   UNL     1       5.703 132.406 151.111  1.00  0.00    -0.027 C 
BRANCH  12  13
ATOM     13  C   UNL     1       4.529 132.195 150.191  1.00  0.00     0.054 C 
BRANCH  13  14
ATOM     14  C   UNL     1       3.251 132.042 150.968  1.00  0.00    -0.027 C 
ATOM     15  C   UNL     1       2.438 133.090 151.161  1.00  0.00    -0.031 C 
BRANCH  15  16
ATOM     16  C   UNL     1       1.148 132.961 151.927  1.00  0.00     0.027 C 
BRANCH  16  17
ATOM     17  C   UNL     1       1.282 132.055 153.163  1.00  0.00     0.004 C 
BRANCH  17  18
ATOM     18  C   UNL     1       1.841 132.766 154.409  1.00  0.00     0.000 C 
BRANCH  18  19
ATOM     19  C   UNL     1       2.930 131.950 155.121  1.00  0.00    -0.003 C 
ATOM     20  C   UNL     1       3.771 131.164 154.120  1.00  0.00     0.004 C 
ENDBRANCH  18  19
ENDBRANCH  17  18
ENDBRANCH  16  17
ENDBRANCH  15  16
ENDBRANCH  13  14
ENDBRANCH  12  13
ENDBRANCH   1  11
TORSDOF 14
ENDMDL
MODEL 7
REMARK VINA RESULT:     3.376      1.904      3.188
REMARK INTER + INTRA:           5.575
REMARK INTER:                   4.190
REMARK INTRA:                   1.385
REMARK UNBOUND:                -0.564
REMARK SMILES CCCCCC=CCC=CCCCCCCCC(=O)[O-]
REMARK SMILES IDX 11 1 12 2 13 3 14 4 15 5 16 6 17 7 18 8 19 9 20 10 10 11
REMARK SMILES IDX 9 12 8 13 7 14 6 15 5 16 4 17 3 18 2 19 1 20
REMARK H PARENT
REMARK Flexibility Score: inf
ROOT
ATOM      1  C   UNL     1       2.427 131.205 152.641  1.00  0.00     0.027 C 
ENDROOT
BRANCH   1   2
ATOM      2  C   UNL     1       2.210 132.558 151.947  1.00  0.00     0.004 C 
BRANCH   2   3
ATOM      3  C   UNL     1       3.187 132.775 150.782  1.00  0.00     0.000 C 
BRANCH   3   4
ATOM      4  C   UNL     1       4.538 132.102 151.067  1.00  0.00     0.000 C 
BRANCH   4   5
ATOM      5  C   UNL     1       5.571 133.065 151.682  1.00  0.00     0.000 C 
BRANCH   5   6
ATOM      6  C   UNL     1       5.101 133.802 152.953  1.00  0.00     0.006 C 
BRANCH   6   7
ATOM      7  C   UNL     1       4.103 134.942 152.697  1.00  0.00     0.053 C 
BRANCH   7   8
ATOM      8  C   UNL     1       4.427 136.162 153.502  1.00  0.00     0.041 C 
ATOM      9  O   UNL     1       4.774 137.227 152.926  1.00  0.00    -0.550 OA
ATOM     10  O   UNL     1       4.380 136.116 154.889  1.00  0.00    -0.550 OA
ENDBRANCH   7   8
ENDBRANCH   6   7
ENDBRANCH   5   6
ENDBRANCH   4   5
ENDBRANCH   3   4
ENDBRANCH   2   3
ENDBRANCH   1   2
BRANCH   1  11
ATOM     11  C   UNL     1       3.492 131.283 153.708  1.00  0.00    -0.031 C 
ATOM     12  C   UNL     1       3.338 131.895 154.896  1.00  0.00    -0.027 C 
BRANCH  12  13
ATOM     13  C   UNL     1       2.056 132.533 155.364  1.00  0.00     0.054 C 
BRANCH  13  14
ATOM     14  C   UNL     1       2.158 134.033 155.345  1.00  0.00    -0.027 C 
ATOM     15  C   UNL     1       1.718 134.762 156.381  1.00  0.00    -0.031 C 
BRANCH  15  16
ATOM     16  C   UNL     1       1.818 136.264 156.391  1.00  0.00     0.027 C 
BRANCH  16  17
ATOM     17  C   UNL     1       2.662 136.793 157.564  1.00  0.00     0.004 C 
BRANCH  17  18
ATOM     18  C   UNL     1       2.056 138.017 158.275  1.00  0.00     0.000 C 
BRANCH  18  19
ATOM     19  C   UNL     1       1.618 137.712 159.715  1.00  0.00    -0.003 C 
ATOM     20  C   UNL     1       1.623 136.209 159.983  1.00  0.00     0.004 C 
ENDBRANCH  18  19
ENDBRANCH  17  18
ENDBRANCH  16  17
ENDBRANCH  15  16
ENDBRANCH  13  14
ENDBRANCH  12  13
ENDBRANCH   1  11
TORSDOF 14
ENDMDL
MODEL 8
REMARK VINA RESULT:     3.517      2.347      6.645
REMARK INTER + INTRA:           5.832
REMARK INTER:                   4.815
REMARK INTRA:                   1.017
REMARK UNBOUND:                -0.564
REMARK SMILES CCCCCC=CCC=CCCCCCCCC(=O)[O-]
REMARK SMILES IDX 11 1 12 2 13 3 14 4 15 5 16 6 17 7 18 8 19 9 20 10 10 11
REMARK SMILES IDX 9 12 8 13 7 14 6 15 5 16 4 17 3 18 2 19 1 20
REMARK H PARENT
REMARK Flexibility Score: inf
ROOT
ATOM      1  C   UNL     1       4.170 133.774 154.641  1.00  0.00     0.027 C 
ENDROOT
BRANCH   1   2
ATOM      2  C   UNL     1       4.106 134.883 153.581  1.00  0.00     0.004 C 
BRANCH   2   3
ATOM      3  C   UNL     1       4.057 136.284 154.209  1.00  0.00     0.000 C 
BRANCH   3   4
ATOM      4  C   UNL     1       3.695 136.204 155.699  1.00  0.00     0.000 C 
BRANCH   4   5
ATOM      5  C   UNL     1       2.176 136.239 155.951  1.00  0.00     0.000 C 
BRANCH   5   6
ATOM      6  C   UNL     1       1.761 136.323 157.433  1.00  0.00     0.006 C 
BRANCH   6   7
ATOM      7  C   UNL     1       1.961 137.705 158.075  1.00  0.00     0.053 C 
BRANCH   7   8
ATOM      8  C   UNL     1       1.835 137.655 159.566  1.00  0.00     0.041 C 
ATOM      9  O   UNL     1       1.421 136.608 160.132  1.00  0.00    -0.550 OA
ATOM     10  O   UNL     1       2.142 138.773 160.330  1.00  0.00    -0.550 OA
ENDBRANCH   7   8
ENDBRANCH   6   7
ENDBRANCH   5   6
ENDBRANCH   4   5
ENDBRANCH   3   4
ENDBRANCH   2   3
ENDBRANCH   1   2
BRANCH   1  11
ATOM     11  C   UNL     1       2.839 133.084 154.816  1.00  0.00    -0.031 C 
ATOM     12  C   UNL     1       2.614 131.783 154.553  1.00  0.00    -0.027 C 
BRANCH  12  13
ATOM     13  C   UNL     1       3.675 130.808 154.112  1.00  0.00     0.054 C 
BRANCH  13  14
ATOM     14  C   UNL     1       4.111 131.084 152.700  1.00  0.00    -0.027 C 
ATOM     15  C   UNL     1       4.949 132.094 152.428  1.00  0.00    -0.031 C 
BRANCH  15  16
ATOM     16  C   UNL     1       5.409 132.385 151.024  1.00  0.00     0.027 C 
BRANCH  16  17
ATOM     17  C   UNL     1       4.360 131.999 149.966  1.00  0.00     0.004 C 
BRANCH  17  18
ATOM     18  C   UNL     1       3.204 133.006 149.827  1.00  0.00     0.000 C 
BRANCH  18  19
ATOM     19  C   UNL     1       2.673 133.492 151.184  1.00  0.00    -0.003 C 
ATOM     20  C   UNL     1       1.296 132.903 151.477  1.00  0.00     0.004 C 
ENDBRANCH  18  19
ENDBRANCH  17  18
ENDBRANCH  16  17
ENDBRANCH  15  16
ENDBRANCH  13  14
ENDBRANCH  12  13
ENDBRANCH   1  11
TORSDOF 14
ENDMDL
MODEL 9
REMARK VINA RESULT:     3.630      2.245      3.777
REMARK INTER + INTRA:           6.038
REMARK INTER:                   6.981
REMARK INTRA:                  -0.944
REMARK UNBOUND:                -0.564
REMARK SMILES CCCCCC=CCC=CCCCCCCCC(=O)[O-]
REMARK SMILES IDX 11 1 12 2 13 3 14 4 15 5 16 6 17 7 18 8 19 9 20 10 10 11
REMARK SMILES IDX 9 12 8 13 7 14 6 15 5 16 4 17 3 18 2 19 1 20
REMARK H PARENT
REMARK Flexibility Score: inf
ROOT
ATOM      1  C   UNL     1       3.214 131.752 151.052  1.00  0.00     0.027 C 
ENDROOT
BRANCH   1   2
ATOM      2  C   UNL     1       4.388 132.501 150.405  1.00  0.00     0.004 C 
BRANCH   2   3
ATOM      3  C   UNL     1       5.549 132.719 151.387  1.00  0.00     0.000 C 
BRANCH   3   4
ATOM      4  C   UNL     1       5.175 132.232 152.795  1.00  0.00     0.000 C 
BRANCH   4   5
ATOM      5  C   UNL     1       4.984 133.385 153.798  1.00  0.00     0.000 C 
BRANCH   5   6
ATOM      6  C   UNL     1       4.246 134.620 153.242  1.00  0.00     0.006 C 
BRANCH   6   7
ATOM      7  C   UNL     1       4.560 135.934 153.975  1.00  0.00     0.053 C 
BRANCH   7   8
ATOM      8  C   UNL     1       4.565 137.108 153.044  1.00  0.00     0.041 C 
ATOM      9  O   UNL     1       3.674 137.219 152.161  1.00  0.00    -0.550 OA
ATOM     10  O   UNL     1       5.572 138.061 153.130  1.00  0.00    -0.550 OA
ENDBRANCH   7   8
ENDBRANCH   6   7
ENDBRANCH   5   6
ENDBRANCH   4   5
ENDBRANCH   3   4
ENDBRANCH   2   3
ENDBRANCH   1   2
BRANCH   1  11
ATOM     11  C   UNL     1       2.129 132.694 151.515  1.00  0.00    -0.031 C 
ATOM     12  C   UNL     1       1.566 132.667 152.736  1.00  0.00    -0.027 C 
BRANCH  12  13
ATOM     13  C   UNL     1       1.984 131.736 153.846  1.00  0.00     0.054 C 
BRANCH  13  14
ATOM     14  C   UNL     1       2.093 132.467 155.155  1.00  0.00    -0.027 C 
ATOM     15  C   UNL     1       1.829 133.779 155.229  1.00  0.00    -0.031 C 
BRANCH  15  16
ATOM     16  C   UNL     1       1.921 134.532 156.530  1.00  0.00     0.027 C 
BRANCH  16  17
ATOM     17  C   UNL     1       1.917 136.058 156.332  1.00  0.00     0.004 C 
BRANCH  17  18
ATOM     18  C   UNL     1       2.738 136.832 157.379  1.00  0.00     0.000 C 
BRANCH  18  19
ATOM     19  C   UNL     1       1.888 137.826 158.185  1.00  0.00    -0.003 C 
ATOM     20  C   UNL     1       1.688 137.342 159.618  1.00  0.00     0.004 C 
ENDBRANCH  18  19
ENDBRANCH  17  18
ENDBRANCH  16  17
ENDBRANCH  15  16
ENDBRANCH  13  14
ENDBRANCH  12  13
ENDBRANCH   1  11
TORSDOF 14
ENDMDL
