MODEL 1
REMARK VINA RESULT:    -3.592      0.000      0.000
REMARK INTER + INTRA:          -5.265
REMARK INTER:                  -4.852
REMARK INTRA:                  -0.413
REMARK UNBOUND:                -0.413
REMARK SMILES C=C1C(=O)O[C@H]2[C@H]1CCC(C)=CCC[C@@]1(C)O[C@@H]21
REMARK SMILES IDX 6 1 7 2 2 3 1 4 3 5 4 6 5 7 8 8 9 9 10 10 11 11 12 12 18 14
REMARK SMILES IDX 15 15 17 16 16 17 14 18 13 19
REMARK H PARENT
REMARK Flexibility Score: 70.00
ROOT
ATOM      1  C   UNL     1      -3.905  -9.976  39.741  1.00  0.00     0.216 C 
ATOM      2  C   UNL     1      -4.449  -8.501  39.661  1.00  0.00     0.070 C 
ATOM      3  C   UNL     1      -5.938  -8.679  39.633  1.00  0.00     0.037 C 
ATOM      4  C   UNL     1      -6.847  -7.705  39.688  1.00  0.00     0.021 C 
ATOM      5  C   UNL     1      -6.221 -10.089  39.622  1.00  0.00     0.334 C 
ATOM      6  O   UNL     1      -7.368 -10.608  39.579  1.00  0.00    -0.247 OA
ATOM      7  O   UNL     1      -5.057 -10.818  39.679  1.00  0.00    -0.455 OA
ENDROOT
BRANCH   2   8
ATOM      8  C   UNL     1      -3.974  -7.747  38.391  1.00  0.00     0.017 C 
BRANCH   8   9
ATOM      9  C   UNL     1      -2.486  -7.329  38.383  1.00  0.00     0.031 C 
BRANCH   9  10
ATOM     10  C   UNL     1      -1.629  -8.142  37.428  1.00  0.00    -0.077 C 
ATOM     11  C   UNL     1      -1.915  -8.055  35.949  1.00  0.00     0.039 C 
ATOM     12  C   UNL     1      -0.645  -8.982  37.830  1.00  0.00    -0.028 CG0
ATOM     13  G   UNL     1      -0.275  -9.333  39.256  1.00  0.00     0.000 G0
ENDBRANCH   9  10
ENDBRANCH   8   9
ENDBRANCH   2   8
BRANCH   1  14
ATOM     14  C   UNL     1      -3.149 -10.305  41.056  1.00  0.00     0.192 C 
ATOM     15  C   UNL     1      -1.677 -10.615  41.083  1.00  0.00     0.096 C 
ATOM     16  O   UNL     1      -2.174  -9.331  41.360  1.00  0.00    -0.362 OA
ATOM     17  C   UNL     1      -1.119 -11.274  42.344  1.00  0.00     0.045 C 
BRANCH  15  18
ATOM     18  C   UNL     1      -0.825 -10.693  39.790  1.00  0.00     0.042 C 
BRANCH  18  19
ATOM     19  C   UNL     1      -0.262  -9.360  39.250  1.00  0.00     0.030 CG0
ATOM     20  G   UNL     1      -0.645  -8.971  37.837  1.00  0.00     0.000 G0
ENDBRANCH  18  19
ENDBRANCH  15  18
ENDBRANCH   1  14
TORSDOF 0
ENDMDL
MODEL 2
REMARK VINA RESULT:    -3.533      2.001      3.073
REMARK INTER + INTRA:          -5.185
REMARK INTER:                  -4.874
REMARK INTRA:                  -0.311
REMARK UNBOUND:                -0.413
REMARK SMILES C=C1C(=O)O[C@H]2[C@H]1CCC(C)=CCC[C@@]1(C)O[C@@H]21
REMARK SMILES IDX 6 1 7 2 2 3 1 4 3 5 4 6 5 7 8 8 9 9 10 10 11 11 12 12 18 14
REMARK SMILES IDX 15 15 17 16 16 17 14 18 13 19
REMARK H PARENT
REMARK Flexibility Score: 70.00
ROOT
ATOM      1  C   UNL     1      -4.478  -9.911  39.716  1.00  0.00     0.216 C 
ATOM      2  C   UNL     1      -4.030  -8.445  39.360  1.00  0.00     0.070 C 
ATOM      3  C   UNL     1      -4.800  -8.139  38.110  1.00  0.00     0.037 C 
ATOM      4  C   UNL     1      -4.850  -6.962  37.486  1.00  0.00     0.021 C 
ATOM      5  C   UNL     1      -5.546  -9.313  37.744  1.00  0.00     0.334 C 
ATOM      6  O   UNL     1      -6.291  -9.426  36.735  1.00  0.00    -0.247 OA
ATOM      7  O   UNL     1      -5.352 -10.317  38.663  1.00  0.00    -0.455 OA
ENDROOT
BRANCH   2   8
ATOM      8  C   UNL     1      -2.506  -8.323  39.096  1.00  0.00     0.017 C 
BRANCH   8   9
ATOM      9  C   UNL     1      -1.592  -8.681  40.290  1.00  0.00     0.031 C 
BRANCH   9  10
ATOM     10  C   UNL     1      -0.972 -10.063  40.190  1.00  0.00    -0.077 C 
ATOM     11  C   UNL     1      -0.097 -10.378  39.002  1.00  0.00     0.039 C 
ATOM     12  C   UNL     1      -1.194 -11.054  41.089  1.00  0.00    -0.028 CG0
ATOM     13  G   UNL     1      -2.135 -11.013  42.274  1.00  0.00     0.000 G0
ENDBRANCH   9  10
ENDBRANCH   8   9
ENDBRANCH   2   8
BRANCH   1  14
ATOM     14  C   UNL     1      -5.259 -10.031  41.052  1.00  0.00     0.192 C 
ATOM     15  C   UNL     1      -4.779 -10.888  42.192  1.00  0.00     0.096 C 
ATOM     16  O   UNL     1      -4.527  -9.507  42.139  1.00  0.00    -0.362 OA
ATOM     17  C   UNL     1      -5.786 -11.222  43.293  1.00  0.00     0.045 C 
BRANCH  15  18
ATOM     18  C   UNL     1      -3.505 -11.763  42.089  1.00  0.00     0.042 C 
BRANCH  18  19
ATOM     19  C   UNL     1      -2.151 -11.041  42.267  1.00  0.00     0.030 CG0
ATOM     20  G   UNL     1      -1.197 -11.063  41.091  1.00  0.00     0.000 G0
ENDBRANCH  18  19
ENDBRANCH  15  18
ENDBRANCH   1  14
TORSDOF 0
ENDMDL
MODEL 3
REMARK VINA RESULT:    -3.395      3.823      6.720
REMARK INTER + INTRA:          -5.000
REMARK INTER:                  -4.590
REMARK INTRA:                  -0.409
REMARK UNBOUND:                -0.413
REMARK SMILES C=C1C(=O)O[C@H]2[C@H]1CCC(C)=CCC[C@@]1(C)O[C@@H]21
REMARK SMILES IDX 6 1 7 2 2 3 1 4 3 5 4 6 5 7 8 8 9 9 10 10 11 11 12 12 18 14
REMARK SMILES IDX 15 15 17 16 16 17 14 18 13 19
REMARK H PARENT
REMARK Flexibility Score: 70.00
ROOT
ATOM      1  C   UNL     1      -3.906 -10.945  40.969  1.00  0.00     0.216 C 
ATOM      2  C   UNL     1      -3.247 -11.686  42.192  1.00  0.00     0.070 C 
ATOM      3  C   UNL     1      -1.776 -11.566  41.920  1.00  0.00     0.037 C 
ATOM      4  C   UNL     1      -0.793 -11.938  42.740  1.00  0.00     0.021 C 
ATOM      5  C   UNL     1      -1.606 -10.903  40.655  1.00  0.00     0.334 C 
ATOM      6  O   UNL     1      -0.504 -10.650  40.100  1.00  0.00    -0.247 OA
ATOM      7  O   UNL     1      -2.824 -10.558  40.121  1.00  0.00    -0.455 OA
ENDROOT
BRANCH   2   8
ATOM      8  C   UNL     1      -3.656 -13.179  42.288  1.00  0.00     0.017 C 
BRANCH   8   9
ATOM      9  C   UNL     1      -4.861 -13.481  43.208  1.00  0.00     0.031 C 
BRANCH   9  10
ATOM     10  C   UNL     1      -6.064 -14.043  42.471  1.00  0.00    -0.077 C 
ATOM     11  C   UNL     1      -6.027 -15.483  42.022  1.00  0.00     0.039 C 
ATOM     12  C   UNL     1      -7.159 -13.311  42.150  1.00  0.00    -0.028 CG0
ATOM     13  G   UNL     1      -7.359 -11.827  42.374  1.00  0.00     0.000 G0
ENDBRANCH   9  10
ENDBRANCH   8   9
ENDBRANCH   2   8
BRANCH   1  14
ATOM     14  C   UNL     1      -4.690  -9.661  41.351  1.00  0.00     0.192 C 
ATOM     15  C   UNL     1      -6.190  -9.642  41.480  1.00  0.00     0.096 C 
ATOM     16  O   UNL     1      -5.348  -9.796  42.594  1.00  0.00    -0.362 OA
ATOM     17  C   UNL     1      -6.877  -8.277  41.494  1.00  0.00     0.045 C 
BRANCH  15  18
ATOM     18  C   UNL     1      -7.062 -10.886  41.175  1.00  0.00     0.042 C 
BRANCH  18  19
ATOM     19  C   UNL     1      -7.373 -11.823  42.364  1.00  0.00     0.030 CG0
ATOM     20  G   UNL     1      -7.149 -13.305  42.152  1.00  0.00     0.000 G0
ENDBRANCH  18  19
ENDBRANCH  15  18
ENDBRANCH   1  14
TORSDOF 0
ENDMDL
MODEL 4
REMARK VINA RESULT:    -3.368      3.353      5.591
REMARK INTER + INTRA:          -4.963
REMARK INTER:                  -4.577
REMARK INTRA:                  -0.386
REMARK UNBOUND:                -0.413
REMARK SMILES C=C1C(=O)O[C@H]2[C@H]1CCC(C)=CCC[C@@]1(C)O[C@@H]21
REMARK SMILES IDX 6 1 7 2 2 3 1 4 3 5 4 6 5 7 8 8 9 9 10 10 11 11 12 12 18 14
REMARK SMILES IDX 15 15 17 16 16 17 14 18 13 19
REMARK H PARENT
REMARK Flexibility Score: 70.00
ROOT
ATOM      1  C   UNL     1      -3.181 -10.464  41.682  1.00  0.00     0.216 C 
ATOM      2  C   UNL     1      -4.036 -10.014  40.439  1.00  0.00     0.070 C 
ATOM      3  C   UNL     1      -3.181  -8.969  39.788  1.00  0.00     0.037 C 
ATOM      4  C   UNL     1      -3.423  -8.370  38.621  1.00  0.00     0.021 C 
ATOM      5  C   UNL     1      -2.006  -8.782  40.597  1.00  0.00     0.334 C 
ATOM      6  O   UNL     1      -1.075  -7.966  40.364  1.00  0.00    -0.247 OA
ATOM      7  O   UNL     1      -2.019  -9.635  41.675  1.00  0.00    -0.455 OA
ENDROOT
BRANCH   2   8
ATOM      8  C   UNL     1      -5.411  -9.414  40.834  1.00  0.00     0.017 C 
BRANCH   8   9
ATOM      9  C   UNL     1      -6.638 -10.306  40.536  1.00  0.00     0.031 C 
BRANCH   9  10
ATOM     10  C   UNL     1      -7.412 -10.712  41.778  1.00  0.00    -0.077 C 
ATOM     11  C   UNL     1      -8.449  -9.762  42.324  1.00  0.00     0.039 C 
ATOM     12  C   UNL     1      -7.196 -11.866  42.455  1.00  0.00    -0.028 CG0
ATOM     13  G   UNL     1      -6.123 -12.898  42.175  1.00  0.00     0.000 G0
ENDBRANCH   9  10
ENDBRANCH   8   9
ENDBRANCH   2   8
BRANCH   1  14
ATOM     14  C   UNL     1      -2.709 -11.942  41.627  1.00  0.00     0.192 C 
ATOM     15  C   UNL     1      -3.510 -13.066  42.226  1.00  0.00     0.096 C 
ATOM     16  O   UNL     1      -3.581 -12.746  40.861  1.00  0.00    -0.362 OA
ATOM     17  C   UNL     1      -2.797 -14.401  42.442  1.00  0.00     0.045 C 
BRANCH  15  18
ATOM     18  C   UNL     1      -4.831 -12.821  42.999  1.00  0.00     0.042 C 
BRANCH  18  19
ATOM     19  C   UNL     1      -6.139 -12.912  42.181  1.00  0.00     0.030 CG0
ATOM     20  G   UNL     1      -7.198 -11.865  42.455  1.00  0.00     0.000 G0
ENDBRANCH  18  19
ENDBRANCH  15  18
ENDBRANCH   1  14
TORSDOF 0
ENDMDL
MODEL 5
REMARK VINA RESULT:    -3.353      1.850      2.547
REMARK INTER + INTRA:          -4.943
REMARK INTER:                  -4.539
REMARK INTRA:                  -0.405
REMARK UNBOUND:                -0.413
REMARK SMILES C=C1C(=O)O[C@H]2[C@H]1CCC(C)=CCC[C@@]1(C)O[C@@H]21
REMARK SMILES IDX 6 1 7 2 2 3 1 4 3 5 4 6 5 7 8 8 9 9 10 10 11 11 12 12 18 14
REMARK SMILES IDX 15 15 17 16 16 17 14 18 13 19
REMARK H PARENT
REMARK Flexibility Score: 70.00
ROOT
ATOM      1  C   UNL     1      -3.581  -8.706  38.384  1.00  0.00     0.216 C 
ATOM      2  C   UNL     1      -2.947  -7.466  37.651  1.00  0.00     0.070 C 
ATOM      3  C   UNL     1      -4.141  -6.651  37.249  1.00  0.00     0.037 C 
ATOM      4  C   UNL     1      -4.115  -5.437  36.700  1.00  0.00     0.021 C 
ATOM      5  C   UNL     1      -5.325  -7.370  37.636  1.00  0.00     0.334 C 
ATOM      6  O   UNL     1      -6.511  -6.994  37.438  1.00  0.00    -0.247 OA
ATOM      7  O   UNL     1      -4.995  -8.540  38.277  1.00  0.00    -0.455 OA
ENDROOT
BRANCH   2   8
ATOM      8  C   UNL     1      -2.119  -7.858  36.399  1.00  0.00     0.017 C 
BRANCH   8   9
ATOM      9  C   UNL     1      -0.620  -8.137  36.653  1.00  0.00     0.031 C 
BRANCH   9  10
ATOM     10  C   UNL     1      -0.216  -9.578  36.394  1.00  0.00    -0.077 C 
ATOM     11  C   UNL     1      -0.135 -10.060  34.967  1.00  0.00     0.039 C 
ATOM     12  C   UNL     1       0.037 -10.476  37.377  1.00  0.00    -0.028 CG0
ATOM     13  G   UNL     1      -0.114 -10.259  38.868  1.00  0.00     0.000 G0
ENDBRANCH   9  10
ENDBRANCH   8   9
ENDBRANCH   2   8
BRANCH   1  14
ATOM     14  C   UNL     1      -3.228  -8.802  39.892  1.00  0.00     0.192 C 
ATOM     15  C   UNL     1      -2.190  -9.757  40.417  1.00  0.00     0.096 C 
ATOM     16  O   UNL     1      -1.896  -8.410  40.148  1.00  0.00    -0.362 OA
ATOM     17  C   UNL     1      -2.183 -10.031  41.921  1.00  0.00     0.045 C 
BRANCH  15  18
ATOM     18  C   UNL     1      -1.447 -10.759  39.498  1.00  0.00     0.042 C 
BRANCH  18  19
ATOM     19  C   UNL     1      -0.123 -10.272  38.869  1.00  0.00     0.030 CG0
ATOM     20  G   UNL     1       0.051 -10.478  37.379  1.00  0.00     0.000 G0
ENDBRANCH  18  19
ENDBRANCH  15  18
ENDBRANCH   1  14
TORSDOF 0
ENDMDL
MODEL 6
REMARK VINA RESULT:    -3.304      2.875      4.467
REMARK INTER + INTRA:          -4.877
REMARK INTER:                  -4.455
REMARK INTRA:                  -0.422
REMARK UNBOUND:                -0.413
REMARK SMILES C=C1C(=O)O[C@H]2[C@H]1CCC(C)=CCC[C@@]1(C)O[C@@H]21
REMARK SMILES IDX 6 1 7 2 2 3 1 4 3 5 4 6 5 7 8 8 9 9 10 10 11 11 12 12 18 14
REMARK SMILES IDX 15 15 17 16 16 17 14 18 13 19
REMARK H PARENT
REMARK Flexibility Score: 70.00
ROOT
ATOM      1  C   UNL     1      -3.338  -7.268  38.051  1.00  0.00     0.216 C 
ATOM      2  C   UNL     1      -4.618  -8.025  37.534  1.00  0.00     0.070 C 
ATOM      3  C   UNL     1      -5.107  -7.156  36.414  1.00  0.00     0.037 C 
ATOM      4  C   UNL     1      -6.107  -7.440  35.578  1.00  0.00     0.021 C 
ATOM      5  C   UNL     1      -4.257  -5.998  36.340  1.00  0.00     0.334 C 
ATOM      6  O   UNL     1      -4.384  -5.044  35.527  1.00  0.00    -0.247 OA
ATOM      7  O   UNL     1      -3.257  -6.070  37.279  1.00  0.00    -0.455 OA
ENDROOT
BRANCH   2   8
ATOM      8  C   UNL     1      -5.716  -8.170  38.620  1.00  0.00     0.017 C 
BRANCH   8   9
ATOM      9  C   UNL     1      -5.719  -9.511  39.389  1.00  0.00     0.031 C 
BRANCH   9  10
ATOM     10  C   UNL     1      -5.426  -9.364  40.871  1.00  0.00    -0.077 C 
ATOM     11  C   UNL     1      -6.519  -8.851  41.776  1.00  0.00     0.039 C 
ATOM     12  C   UNL     1      -4.219  -9.627  41.429  1.00  0.00    -0.028 CG0
ATOM     13  G   UNL     1      -2.948 -10.017  40.705  1.00  0.00     0.000 G0
ENDBRANCH   9  10
ENDBRANCH   8   9
ENDBRANCH   2   8
BRANCH   1  14
ATOM     14  C   UNL     1      -2.013  -8.051  37.852  1.00  0.00     0.192 C 
ATOM     15  C   UNL     1      -1.368  -8.838  38.960  1.00  0.00     0.096 C 
ATOM     16  O   UNL     1      -2.196  -9.443  38.001  1.00  0.00    -0.362 OA
ATOM     17  C   UNL     1       0.091  -9.255  38.770  1.00  0.00     0.045 C 
BRANCH  15  18
ATOM     18  C   UNL     1      -1.945  -8.868  40.398  1.00  0.00     0.042 C 
BRANCH  18  19
ATOM     19  C   UNL     1      -2.928 -10.014  40.726  1.00  0.00     0.030 CG0
ATOM     20  G   UNL     1      -4.217  -9.638  41.427  1.00  0.00     0.000 G0
ENDBRANCH  18  19
ENDBRANCH  15  18
ENDBRANCH   1  14
TORSDOF 0
ENDMDL
MODEL 7
REMARK VINA RESULT:    -3.257      4.814      7.532
REMARK INTER + INTRA:          -4.813
REMARK INTER:                  -4.402
REMARK INTRA:                  -0.411
REMARK UNBOUND:                -0.413
REMARK SMILES C=C1C(=O)O[C@H]2[C@H]1CCC(C)=CCC[C@@]1(C)O[C@@H]21
REMARK SMILES IDX 6 1 7 2 2 3 1 4 3 5 4 6 5 7 8 8 9 9 10 10 11 11 12 12 18 14
REMARK SMILES IDX 15 15 17 16 16 17 14 18 13 19
REMARK H PARENT
REMARK Flexibility Score: 70.00
ROOT
ATOM      1  C   UNL     1      -3.214  -7.630  34.375  1.00  0.00     0.216 C 
ATOM      2  C   UNL     1      -2.584  -6.880  35.608  1.00  0.00     0.070 C 
ATOM      3  C   UNL     1      -1.748  -7.935  36.268  1.00  0.00     0.037 C 
ATOM      4  C   UNL     1      -0.918  -7.752  37.295  1.00  0.00     0.021 C 
ATOM      5  C   UNL     1      -1.930  -9.167  35.548  1.00  0.00     0.334 C 
ATOM      6  O   UNL     1      -1.395 -10.271  35.834  1.00  0.00    -0.247 OA
ATOM      7  O   UNL     1      -2.770  -8.983  34.476  1.00  0.00    -0.455 OA
ENDROOT
BRANCH   2   8
ATOM      8  C   UNL     1      -3.649  -6.341  36.599  1.00  0.00     0.017 C 
BRANCH   8   9
ATOM      9  C   UNL     1      -4.400  -5.068  36.143  1.00  0.00     0.031 C 
BRANCH   9  10
ATOM     10  C   UNL     1      -5.854  -5.314  35.783  1.00  0.00    -0.077 C 
ATOM     11  C   UNL     1      -6.807  -5.736  36.874  1.00  0.00     0.039 C 
ATOM     12  C   UNL     1      -6.343  -5.219  34.522  1.00  0.00    -0.028 CG0
ATOM     13  G   UNL     1      -5.553  -4.948  33.259  1.00  0.00     0.000 G0
ENDBRANCH   9  10
ENDBRANCH   8   9
ENDBRANCH   2   8
BRANCH   1  14
ATOM     14  C   UNL     1      -2.757  -7.083  32.997  1.00  0.00     0.192 C 
ATOM     15  C   UNL     1      -3.694  -6.363  32.064  1.00  0.00     0.096 C 
ATOM     16  O   UNL     1      -2.835  -5.674  32.936  1.00  0.00    -0.362 OA
ATOM     17  C   UNL     1      -3.251  -6.198  30.611  1.00  0.00     0.045 C 
BRANCH  15  18
ATOM     18  C   UNL     1      -5.198  -6.177  32.386  1.00  0.00     0.042 C 
BRANCH  18  19
ATOM     19  C   UNL     1      -5.576  -4.953  33.250  1.00  0.00     0.030 CG0
ATOM     20  G   UNL     1      -6.341  -5.220  34.529  1.00  0.00     0.000 G0
ENDBRANCH  18  19
ENDBRANCH  15  18
ENDBRANCH   1  14
TORSDOF 0
ENDMDL
MODEL 8
REMARK VINA RESULT:    -3.231      4.363      6.795
REMARK INTER + INTRA:          -4.778
REMARK INTER:                  -4.400
REMARK INTRA:                  -0.378
REMARK UNBOUND:                -0.413
REMARK SMILES C=C1C(=O)O[C@H]2[C@H]1CCC(C)=CCC[C@@]1(C)O[C@@H]21
REMARK SMILES IDX 6 1 7 2 2 3 1 4 3 5 4 6 5 7 8 8 9 9 10 10 11 11 12 12 18 14
REMARK SMILES IDX 15 15 17 16 16 17 14 18 13 19
REMARK H PARENT
REMARK Flexibility Score: 70.00
ROOT
ATOM      1  C   UNL     1      -4.560 -11.039  41.582  1.00  0.00     0.216 C 
ATOM      2  C   UNL     1      -3.437 -11.968  42.178  1.00  0.00     0.070 C 
ATOM      3  C   UNL     1      -2.198 -11.129  42.071  1.00  0.00     0.037 C 
ATOM      4  C   UNL     1      -0.996 -11.437  42.560  1.00  0.00     0.021 C 
ATOM      5  C   UNL     1      -2.547  -9.894  41.423  1.00  0.00     0.334 C 
ATOM      6  O   UNL     1      -1.750  -8.957  41.149  1.00  0.00    -0.247 OA
ATOM      7  O   UNL     1      -3.892  -9.855  41.145  1.00  0.00    -0.455 OA
ENDROOT
BRANCH   2   8
ATOM      8  C   UNL     1      -3.261 -13.290  41.387  1.00  0.00     0.017 C 
BRANCH   8   9
ATOM      9  C   UNL     1      -3.712 -14.572  42.123  1.00  0.00     0.031 C 
BRANCH   9  10
ATOM     10  C   UNL     1      -4.851 -15.302  41.434  1.00  0.00    -0.077 C 
ATOM     11  C   UNL     1      -4.520 -16.293  40.346  1.00  0.00     0.039 C 
ATOM     12  C   UNL     1      -6.160 -15.083  41.710  1.00  0.00    -0.028 CG0
ATOM     13  G   UNL     1      -6.730 -14.047  42.656  1.00  0.00     0.000 G0
ENDBRANCH   9  10
ENDBRANCH   8   9
ENDBRANCH   2   8
BRANCH   1  14
ATOM     14  C   UNL     1      -5.647 -10.619  42.607  1.00  0.00     0.192 C 
ATOM     15  C   UNL     1      -6.888 -11.436  42.846  1.00  0.00     0.096 C 
ATOM     16  O   UNL     1      -5.755 -11.542  43.669  1.00  0.00    -0.362 OA
ATOM     17  C   UNL     1      -8.044 -10.761  43.584  1.00  0.00     0.045 C 
BRANCH  15  18
ATOM     18  C   UNL     1      -7.200 -12.721  42.037  1.00  0.00     0.042 C 
BRANCH  18  19
ATOM     19  C   UNL     1      -6.743 -14.059  42.659  1.00  0.00     0.030 CG0
ATOM     20  G   UNL     1      -6.152 -15.090  41.721  1.00  0.00     0.000 G0
ENDBRANCH  18  19
ENDBRANCH  15  18
ENDBRANCH   1  14
TORSDOF 0
ENDMDL
MODEL 9
REMARK VINA RESULT:    -3.176      3.330      4.685
REMARK INTER + INTRA:          -4.703
REMARK INTER:                  -4.300
REMARK INTRA:                  -0.403
REMARK UNBOUND:                -0.413
REMARK SMILES C=C1C(=O)O[C@H]2[C@H]1CCC(C)=CCC[C@@]1(C)O[C@@H]21
REMARK SMILES IDX 6 1 7 2 2 3 1 4 3 5 4 6 5 7 8 8 9 9 10 10 11 11 12 12 18 14
REMARK SMILES IDX 15 15 17 16 16 17 14 18 13 19
REMARK H PARENT
REMARK Flexibility Score: 70.00
ROOT
ATOM      1  C   UNL     1      -3.876  -7.021  36.408  1.00  0.00     0.216 C 
ATOM      2  C   UNL     1      -3.309  -6.089  35.273  1.00  0.00     0.070 C 
ATOM      3  C   UNL     1      -4.381  -5.053  35.105  1.00  0.00     0.037 C 
ATOM      4  C   UNL     1      -4.310  -3.967  34.336  1.00  0.00     0.021 C 
ATOM      5  C   UNL     1      -5.470  -5.389  35.983  1.00  0.00     0.334 C 
ATOM      6  O   UNL     1      -6.550  -4.749  36.092  1.00  0.00    -0.247 OA
ATOM      7  O   UNL     1      -5.174  -6.513  36.716  1.00  0.00    -0.455 OA
ENDROOT
BRANCH   2   8
ATOM      8  C   UNL     1      -3.071  -6.837  33.935  1.00  0.00     0.017 C 
BRANCH   8   9
ATOM      9  C   UNL     1      -1.811  -7.733  33.888  1.00  0.00     0.031 C 
BRANCH   9  10
ATOM     10  C   UNL     1      -2.121  -9.219  33.859  1.00  0.00    -0.077 C 
ATOM     11  C   UNL     1      -2.820  -9.787  32.649  1.00  0.00     0.039 C 
ATOM     12  C   UNL     1      -1.843 -10.065  34.881  1.00  0.00    -0.028 CG0
ATOM     13  G   UNL     1      -1.274  -9.699  36.236  1.00  0.00     0.000 G0
ENDBRANCH   9  10
ENDBRANCH   8   9
ENDBRANCH   2   8
BRANCH   1  14
ATOM     14  C   UNL     1      -3.040  -7.010  37.715  1.00  0.00     0.192 C 
ATOM     15  C   UNL     1      -2.250  -8.206  38.176  1.00  0.00     0.096 C 
ATOM     16  O   UNL     1      -1.659  -7.152  37.460  1.00  0.00    -0.362 OA
ATOM     17  C   UNL     1      -1.775  -8.217  39.629  1.00  0.00     0.045 C 
BRANCH  15  18
ATOM     18  C   UNL     1      -2.267  -9.553  37.412  1.00  0.00     0.042 C 
BRANCH  18  19
ATOM     19  C   UNL     1      -1.266  -9.701  36.244  1.00  0.00     0.030 CG0
ATOM     20  G   UNL     1      -1.835 -10.062  34.888  1.00  0.00     0.000 G0
ENDBRANCH  18  19
ENDBRANCH  15  18
ENDBRANCH   1  14
TORSDOF 0
ENDMDL
