MODEL 1
REMARK VINA RESULT:    -3.369      0.000      0.000
REMARK INTER + INTRA:          -4.784
REMARK INTER:                  -4.551
REMARK INTRA:                  -0.233
REMARK UNBOUND:                -0.233
REMARK SMILES CCCCCCCC(=O)[O-]
REMARK SMILES IDX 5 1 6 2 7 3 8 4 9 5 10 6 4 7 3 8 2 9 1 10
REMARK H PARENT
REMARK Flexibility Score: inf
ROOT
ATOM      1  C   UNL     1      60.087  -0.638  95.676  1.00  0.00     0.000 C 
ENDROOT
BRANCH   1   2
ATOM      2  C   UNL     1      61.096  -1.078  94.594  1.00  0.00     0.006 C 
BRANCH   2   3
ATOM      3  C   UNL     1      60.696  -2.349  93.828  1.00  0.00     0.053 C 
BRANCH   3   4
ATOM      4  C   UNL     1      60.472  -2.078  92.372  1.00  0.00     0.041 C 
ATOM      5  O   UNL     1      59.840  -1.052  92.007  1.00  0.00    -0.550 OA
ATOM      6  O   UNL     1      60.935  -2.977  91.419  1.00  0.00    -0.550 OA
ENDBRANCH   3   4
ENDBRANCH   2   3
ENDBRANCH   1   2
BRANCH   1   7
ATOM      7  C   UNL     1      60.683   0.212  96.811  1.00  0.00     0.000 C 
BRANCH   7   8
ATOM      8  C   UNL     1      59.937   1.542  97.017  1.00  0.00    -0.000 C 
BRANCH   8   9
ATOM      9  C   UNL     1      58.546   1.542  96.366  1.00  0.00    -0.003 C 
ATOM     10  C   UNL     1      58.064   2.946  96.002  1.00  0.00     0.004 C 
ENDBRANCH   8   9
ENDBRANCH   7   8
ENDBRANCH   1   7
TORSDOF 6
ENDMDL
MODEL 2
REMARK VINA RESULT:    -3.346      0.104      1.029
REMARK INTER + INTRA:          -4.753
REMARK INTER:                  -4.515
REMARK INTRA:                  -0.238
REMARK UNBOUND:                -0.233
REMARK SMILES CCCCCCCC(=O)[O-]
REMARK SMILES IDX 5 1 6 2 7 3 8 4 9 5 10 6 4 7 3 8 2 9 1 10
REMARK H PARENT
REMARK Flexibility Score: inf
ROOT
ATOM      1  C   UNL     1      60.092  -0.614  95.642  1.00  0.00     0.000 C 
ENDROOT
BRANCH   1   2
ATOM      2  C   UNL     1      61.106  -1.031  94.556  1.00  0.00     0.006 C 
BRANCH   2   3
ATOM      3  C   UNL     1      60.760  -2.339  93.829  1.00  0.00     0.053 C 
BRANCH   3   4
ATOM      4  C   UNL     1      60.492  -2.116  92.372  1.00  0.00     0.041 C 
ATOM      5  O   UNL     1      60.916  -2.936  91.516  1.00  0.00    -0.550 OA
ATOM      6  O   UNL     1      59.801  -0.984  91.958  1.00  0.00    -0.550 OA
ENDBRANCH   3   4
ENDBRANCH   2   3
ENDBRANCH   1   2
BRANCH   1   7
ATOM      7  C   UNL     1      60.677   0.232  96.786  1.00  0.00     0.000 C 
BRANCH   7   8
ATOM      8  C   UNL     1      59.877   1.520  97.047  1.00  0.00    -0.000 C 
BRANCH   8   9
ATOM      9  C   UNL     1      58.622   1.620  96.167  1.00  0.00    -0.003 C 
ATOM     10  C   UNL     1      58.138   3.060  95.991  1.00  0.00     0.004 C 
ENDBRANCH   8   9
ENDBRANCH   7   8
ENDBRANCH   1   7
TORSDOF 6
ENDMDL
MODEL 3
REMARK VINA RESULT:    -3.336      3.598      5.300
REMARK INTER + INTRA:          -4.739
REMARK INTER:                  -4.393
REMARK INTRA:                  -0.346
REMARK UNBOUND:                -0.233
REMARK SMILES CCCCCCCC(=O)[O-]
REMARK SMILES IDX 5 1 6 2 7 3 8 4 9 5 10 6 4 7 3 8 2 9 1 10
REMARK H PARENT
REMARK Flexibility Score: inf
ROOT
ATOM      1  C   UNL     1      60.665   0.262  96.770  1.00  0.00     0.000 C 
ENDROOT
BRANCH   1   2
ATOM      2  C   UNL     1      59.909   1.588  96.994  1.00  0.00     0.006 C 
BRANCH   2   3
ATOM      3  C   UNL     1      58.574   1.697  96.241  1.00  0.00     0.053 C 
BRANCH   3   4
ATOM      4  C   UNL     1      57.939   3.041  96.418  1.00  0.00     0.041 C 
ATOM      5  O   UNL     1      56.716   3.133  96.706  1.00  0.00    -0.550 OA
ATOM      6  O   UNL     1      58.691   4.195  96.234  1.00  0.00    -0.550 OA
ENDBRANCH   3   4
ENDBRANCH   2   3
ENDBRANCH   1   2
BRANCH   1   7
ATOM      7  C   UNL     1      60.042  -0.669  95.715  1.00  0.00     0.000 C 
BRANCH   7   8
ATOM      8  C   UNL     1      61.079  -1.228  94.725  1.00  0.00    -0.000 C 
BRANCH   8   9
ATOM      9  C   UNL     1      60.532  -1.322  93.293  1.00  0.00    -0.003 C 
ATOM     10  C   UNL     1      59.459  -0.273  93.001  1.00  0.00     0.004 C 
ENDBRANCH   8   9
ENDBRANCH   7   8
ENDBRANCH   1   7
TORSDOF 6
ENDMDL
MODEL 4
REMARK VINA RESULT:    -3.334      1.685      2.872
REMARK INTER + INTRA:          -4.737
REMARK INTER:                  -4.437
REMARK INTRA:                  -0.300
REMARK UNBOUND:                -0.233
REMARK SMILES CCCCCCCC(=O)[O-]
REMARK SMILES IDX 5 1 6 2 7 3 8 4 9 5 10 6 4 7 3 8 2 9 1 10
REMARK H PARENT
REMARK Flexibility Score: inf
ROOT
ATOM      1  C   UNL     1      59.829   1.848  97.125  1.00  0.00     0.000 C 
ENDROOT
BRANCH   1   2
ATOM      2  C   UNL     1      60.471   0.501  96.733  1.00  0.00     0.006 C 
BRANCH   2   3
ATOM      3  C   UNL     1      59.554  -0.432  95.927  1.00  0.00     0.053 C 
BRANCH   3   4
ATOM      4  C   UNL     1      60.108  -0.723  94.567  1.00  0.00     0.041 C 
ATOM      5  O   UNL     1      59.647  -0.133  93.553  1.00  0.00    -0.550 OA
ATOM      6  O   UNL     1      61.113  -1.671  94.414  1.00  0.00    -0.550 OA
ENDBRANCH   3   4
ENDBRANCH   2   3
ENDBRANCH   1   2
BRANCH   1   7
ATOM      7  C   UNL     1      58.439   2.106  96.517  1.00  0.00     0.000 C 
BRANCH   7   8
ATOM      8  C   UNL     1      58.205   3.586  96.167  1.00  0.00    -0.000 C 
BRANCH   8   9
ATOM      9  C   UNL     1      58.984   4.538  97.086  1.00  0.00    -0.003 C 
ATOM     10  C   UNL     1      59.471   5.792  96.361  1.00  0.00     0.004 C 
ENDBRANCH   8   9
ENDBRANCH   7   8
ENDBRANCH   1   7
TORSDOF 6
ENDMDL
MODEL 5
REMARK VINA RESULT:    -3.284      1.445      2.170
REMARK INTER + INTRA:          -4.668
REMARK INTER:                  -4.330
REMARK INTRA:                  -0.338
REMARK UNBOUND:                -0.233
REMARK SMILES CCCCCCCC(=O)[O-]
REMARK SMILES IDX 5 1 6 2 7 3 8 4 9 5 10 6 4 7 3 8 2 9 1 10
REMARK H PARENT
REMARK Flexibility Score: inf
ROOT
ATOM      1  C   UNL     1      61.031  -1.025  94.616  1.00  0.00     0.000 C 
ENDROOT
BRANCH   1   2
ATOM      2  C   UNL     1      60.376  -1.323  93.251  1.00  0.00     0.006 C 
BRANCH   2   3
ATOM      3  C   UNL     1      59.522  -0.175  92.690  1.00  0.00     0.053 C 
BRANCH   3   4
ATOM      4  C   UNL     1      58.918  -0.524  91.364  1.00  0.00     0.041 C 
ATOM      5  O   UNL     1      58.745  -1.729  91.042  1.00  0.00    -0.550 OA
ATOM      6  O   UNL     1      58.576   0.483  90.470  1.00  0.00    -0.550 OA
ENDBRANCH   3   4
ENDBRANCH   2   3
ENDBRANCH   1   2
BRANCH   1   7
ATOM      7  C   UNL     1      60.052  -0.623  95.732  1.00  0.00     0.000 C 
BRANCH   7   8
ATOM      8  C   UNL     1      60.672   0.350  96.749  1.00  0.00    -0.000 C 
BRANCH   8   9
ATOM      9  C   UNL     1      59.815   1.608  96.958  1.00  0.00    -0.003 C 
ATOM     10  C   UNL     1      58.567   1.624  96.076  1.00  0.00     0.004 C 
ENDBRANCH   8   9
ENDBRANCH   7   8
ENDBRANCH   1   7
TORSDOF 6
ENDMDL
MODEL 6
REMARK VINA RESULT:    -3.227      4.021      6.159
REMARK INTER + INTRA:          -4.592
REMARK INTER:                  -4.324
REMARK INTRA:                  -0.268
REMARK UNBOUND:                -0.233
REMARK SMILES CCCCCCCC(=O)[O-]
REMARK SMILES IDX 5 1 6 2 7 3 8 4 9 5 10 6 4 7 3 8 2 9 1 10
REMARK H PARENT
REMARK Flexibility Score: inf
ROOT
ATOM      1  C   UNL     1      58.734   1.386  96.568  1.00  0.00     0.000 C 
ENDROOT
BRANCH   1   2
ATOM      2  C   UNL     1      58.067   2.714  96.983  1.00  0.00     0.006 C 
BRANCH   2   3
ATOM      3  C   UNL     1      58.176   3.835  95.937  1.00  0.00     0.053 C 
BRANCH   3   4
ATOM      4  C   UNL     1      58.833   5.059  96.496  1.00  0.00     0.041 C 
ATOM      5  O   UNL     1      60.064   5.055  96.760  1.00  0.00    -0.550 OA
ATOM      6  O   UNL     1      58.078   6.197  96.755  1.00  0.00    -0.550 OA
ENDBRANCH   3   4
ENDBRANCH   2   3
ENDBRANCH   1   2
BRANCH   1   7
ATOM      7  C   UNL     1      60.208   1.242  96.984  1.00  0.00     0.000 C 
BRANCH   7   8
ATOM      8  C   UNL     1      60.790  -0.144  96.655  1.00  0.00    -0.000 C 
BRANCH   8   9
ATOM      9  C   UNL     1      60.072  -0.818  95.476  1.00  0.00    -0.003 C 
ATOM     10  C   UNL     1      61.034  -1.261  94.374  1.00  0.00     0.004 C 
ENDBRANCH   8   9
ENDBRANCH   7   8
ENDBRANCH   1   7
TORSDOF 6
ENDMDL
MODEL 7
REMARK VINA RESULT:    -3.202      3.148      4.912
REMARK INTER + INTRA:          -4.558
REMARK INTER:                  -4.025
REMARK INTRA:                  -0.533
REMARK UNBOUND:                -0.233
REMARK SMILES CCCCCCCC(=O)[O-]
REMARK SMILES IDX 5 1 6 2 7 3 8 4 9 5 10 6 4 7 3 8 2 9 1 10
REMARK H PARENT
REMARK Flexibility Score: inf
ROOT
ATOM      1  C   UNL     1      60.437   0.208  96.626  1.00  0.00     0.000 C 
ENDROOT
BRANCH   1   2
ATOM      2  C   UNL     1      60.119   1.649  97.075  1.00  0.00     0.006 C 
BRANCH   2   3
ATOM      3  C   UNL     1      58.621   1.990  97.111  1.00  0.00     0.053 C 
BRANCH   3   4
ATOM      4  C   UNL     1      58.247   2.983  96.055  1.00  0.00     0.041 C 
ATOM      5  O   UNL     1      58.577   4.193  96.176  1.00  0.00    -0.550 OA
ATOM      6  O   UNL     1      57.505   2.580  94.951  1.00  0.00    -0.550 OA
ENDBRANCH   3   4
ENDBRANCH   2   3
ENDBRANCH   1   2
BRANCH   1   7
ATOM      7  C   UNL     1      60.173  -0.082  95.138  1.00  0.00     0.000 C 
BRANCH   7   8
ATOM      8  C   UNL     1      59.255  -1.297  94.919  1.00  0.00    -0.000 C 
BRANCH   8   9
ATOM      9  C   UNL     1      57.770  -0.953  95.106  1.00  0.00    -0.003 C 
ATOM     10  C   UNL     1      57.191  -1.521  96.402  1.00  0.00     0.004 C 
ENDBRANCH   8   9
ENDBRANCH   7   8
ENDBRANCH   1   7
TORSDOF 6
ENDMDL
MODEL 8
REMARK VINA RESULT:    -3.170      1.591      2.407
REMARK INTER + INTRA:          -4.515
REMARK INTER:                  -3.994
REMARK INTRA:                  -0.521
REMARK UNBOUND:                -0.233
REMARK SMILES CCCCCCCC(=O)[O-]
REMARK SMILES IDX 5 1 6 2 7 3 8 4 9 5 10 6 4 7 3 8 2 9 1 10
REMARK H PARENT
REMARK Flexibility Score: inf
ROOT
ATOM      1  C   UNL     1      60.207  -0.346  96.032  1.00  0.00     0.000 C 
ENDROOT
BRANCH   1   2
ATOM      2  C   UNL     1      61.125  -0.887  94.915  1.00  0.00     0.006 C 
BRANCH   2   3
ATOM      3  C   UNL     1      60.531  -2.056  94.113  1.00  0.00     0.053 C 
BRANCH   3   4
ATOM      4  C   UNL     1      60.405  -1.728  92.657  1.00  0.00     0.041 C 
ATOM      5  O   UNL     1      60.714  -2.582  91.785  1.00  0.00    -0.550 OA
ATOM      6  O   UNL     1      59.975  -0.466  92.263  1.00  0.00    -0.550 OA
ENDBRANCH   3   4
ENDBRANCH   2   3
ENDBRANCH   1   2
BRANCH   1   7
ATOM      7  C   UNL     1      59.056   0.552  95.548  1.00  0.00     0.000 C 
BRANCH   7   8
ATOM      8  C   UNL     1      57.721   0.241  96.247  1.00  0.00    -0.000 C 
BRANCH   8   9
ATOM      9  C   UNL     1      57.458  -1.267  96.368  1.00  0.00    -0.003 C 
ATOM     10  C   UNL     1      56.963  -1.887  95.061  1.00  0.00     0.004 C 
ENDBRANCH   8   9
ENDBRANCH   7   8
ENDBRANCH   1   7
TORSDOF 6
ENDMDL
MODEL 9
REMARK VINA RESULT:    -3.164      2.703      4.649
REMARK INTER + INTRA:          -4.507
REMARK INTER:                  -4.105
REMARK INTRA:                  -0.401
REMARK UNBOUND:                -0.233
REMARK SMILES CCCCCCCC(=O)[O-]
REMARK SMILES IDX 5 1 6 2 7 3 8 4 9 5 10 6 4 7 3 8 2 9 1 10
REMARK H PARENT
REMARK Flexibility Score: inf
ROOT
ATOM      1  C   UNL     1      61.035  -0.691  94.922  1.00  0.00     0.000 C 
ENDROOT
BRANCH   1   2
ATOM      2  C   UNL     1      60.492  -0.486  96.352  1.00  0.00     0.006 C 
BRANCH   2   3
ATOM      3  C   UNL     1      60.270   0.983  96.746  1.00  0.00     0.053 C 
BRANCH   3   4
ATOM      4  C   UNL     1      58.897   1.458  96.385  1.00  0.00     0.041 C 
ATOM      5  O   UNL     1      58.641   2.691  96.343  1.00  0.00    -0.550 OA
ATOM      6  O   UNL     1      57.888   0.537  96.125  1.00  0.00    -0.550 OA
ENDBRANCH   3   4
ENDBRANCH   2   3
ENDBRANCH   1   2
BRANCH   1   7
ATOM      7  C   UNL     1      60.475  -1.920  94.186  1.00  0.00     0.000 C 
BRANCH   7   8
ATOM      8  C   UNL     1      60.253  -1.667  92.685  1.00  0.00    -0.000 C 
BRANCH   8   9
ATOM      9  C   UNL     1      59.685  -0.268  92.402  1.00  0.00    -0.003 C 
ATOM     10  C   UNL     1      58.179  -0.181  92.651  1.00  0.00     0.004 C 
ENDBRANCH   8   9
ENDBRANCH   7   8
ENDBRANCH   1   7
TORSDOF 6
ENDMDL
