MODEL 1
REMARK VINA RESULT:    -4.188      0.000      0.000
REMARK INTER + INTRA:          -5.471
REMARK INTER:                  -5.902
REMARK INTRA:                   0.431
REMARK UNBOUND:                 0.431
REMARK SMILES CC1=CCC(=C(C)C)C(=O)CC(C)=CCC1
REMARK SMILES IDX 12 1 14 2 13 3 15 4 16 5 2 6 1 7 3 8 11 10 9 11 10 12 5 13
REMARK SMILES IDX 6 14 7 15 8 16 4 17
REMARK H PARENT
REMARK Flexibility Score: 60.00
ROOT
ATOM      1  C   UNL     1     100.265 135.251 125.464  1.00  0.00    -0.070 C 
ATOM      2  C   UNL     1     101.211 136.078 124.963  1.00  0.00    -0.027 C 
ATOM      3  C   UNL     1      98.818 135.610 125.243  1.00  0.00     0.039 C 
ENDROOT
BRANCH   2   4
ATOM      4  C   UNL     1     102.692 135.798 124.963  1.00  0.00     0.032 C 
BRANCH   4   5
ATOM      5  C   UNL     1     103.035 134.809 123.844  1.00  0.00     0.034 C 
BRANCH   5   6
ATOM      6  C   UNL     1     104.176 133.884 124.216  1.00  0.00    -0.077 C 
ATOM      7  C   UNL     1     105.551 134.475 124.407  1.00  0.00     0.039 C 
ATOM      8  C   UNL     1     104.049 132.538 124.319  1.00  0.00    -0.023 CG0
ATOM      9  G   UNL     1     102.771 131.723 124.228  1.00  0.00     0.000 G0
ENDBRANCH   5   6
ENDBRANCH   4   5
ENDBRANCH   2   4
BRANCH   1  10
ATOM     10  C   UNL     1     100.588 133.996 126.251  1.00  0.00     0.111 C 
BRANCH  10  11
ATOM     11  C   UNL     1     100.685 132.781 125.360  1.00  0.00     0.163 C 
ATOM     12  O   UNL     1      99.748 132.595 124.538  1.00  0.00    -0.294 OA
BRANCH  11  13
ATOM     13  C   UNL     1     101.813 131.792 125.420  1.00  0.00    -0.002 C 
ATOM     14  C   UNL     1     102.070 131.102 126.573  1.00  0.00    -0.069 C 
ATOM     15  C   UNL     1     101.086 131.084 127.721  1.00  0.00     0.039 C 
ATOM     16  C   UNL     1     103.326 130.276 126.750  1.00  0.00     0.039 C 
BRANCH  13  17
ATOM     17  C   UNL     1     102.761 131.719 124.228  1.00  0.00     0.066 CG0
ATOM     18  G   UNL     1     104.039 132.532 124.329  1.00  0.00     0.000 G0
ENDBRANCH  13  17
ENDBRANCH  11  13
ENDBRANCH  10  11
ENDBRANCH   1  10
TORSDOF 0
ENDMDL
MODEL 2
REMARK VINA RESULT:    -4.015      1.579      3.676
REMARK INTER + INTRA:          -5.227
REMARK INTER:                  -5.345
REMARK INTRA:                   0.119
REMARK UNBOUND:                 0.431
REMARK SMILES CC1=CCC(=C(C)C)C(=O)CC(C)=CCC1
REMARK SMILES IDX 12 1 14 2 13 3 15 4 16 5 2 6 1 7 3 8 11 10 9 11 10 12 5 13
REMARK SMILES IDX 6 14 7 15 8 16 4 17
REMARK H PARENT
REMARK Flexibility Score: 60.00
ROOT
ATOM      1  C   UNL     1     103.422 134.305 122.765  1.00  0.00    -0.070 C 
ATOM      2  C   UNL     1     103.135 135.552 123.203  1.00  0.00    -0.027 C 
ATOM      3  C   UNL     1     104.850 133.829 122.863  1.00  0.00     0.039 C 
ENDROOT
BRANCH   2   4
ATOM      4  C   UNL     1     101.747 136.129 123.316  1.00  0.00     0.032 C 
BRANCH   4   5
ATOM      5  C   UNL     1     101.370 136.295 124.792  1.00  0.00     0.034 C 
BRANCH   5   6
ATOM      6  C   UNL     1     100.300 135.315 125.232  1.00  0.00    -0.077 C 
ATOM      7  C   UNL     1      98.863 135.773 125.243  1.00  0.00     0.039 C 
ATOM      8  C   UNL     1     100.567 134.066 125.686  1.00  0.00    -0.023 CG0
ATOM      9  G   UNL     1     101.913 133.364 125.716  1.00  0.00     0.000 G0
ENDBRANCH   5   6
ENDBRANCH   4   5
ENDBRANCH   2   4
BRANCH   1  10
ATOM     10  C   UNL     1     102.388 133.373 122.166  1.00  0.00     0.111 C 
BRANCH  10  11
ATOM     11  C   UNL     1     101.619 132.625 123.229  1.00  0.00     0.163 C 
ATOM     12  O   UNL     1     100.453 132.248 122.936  1.00  0.00    -0.294 OA
BRANCH  11  13
ATOM     13  C   UNL     1     102.159 132.335 124.599  1.00  0.00    -0.002 C 
ATOM     14  C   UNL     1     102.719 131.119 124.881  1.00  0.00    -0.069 C 
ATOM     15  C   UNL     1     103.077 130.139 123.786  1.00  0.00     0.039 C 
ATOM     16  C   UNL     1     103.062 130.703 126.295  1.00  0.00     0.039 C 
BRANCH  13  17
ATOM     17  C   UNL     1     101.900 133.359 125.699  1.00  0.00     0.066 CG0
ATOM     18  G   UNL     1     100.555 134.063 125.664  1.00  0.00     0.000 G0
ENDBRANCH  13  17
ENDBRANCH  11  13
ENDBRANCH  10  11
ENDBRANCH   1  10
TORSDOF 0
ENDMDL
MODEL 3
REMARK VINA RESULT:    -3.791     13.459     15.397
REMARK INTER + INTRA:          -4.911
REMARK INTER:                  -5.066
REMARK INTRA:                   0.155
REMARK UNBOUND:                 0.431
REMARK SMILES CC1=CCC(=C(C)C)C(=O)CC(C)=CCC1
REMARK SMILES IDX 12 1 14 2 13 3 15 4 16 5 2 6 1 7 3 8 11 10 9 11 10 12 5 13
REMARK SMILES IDX 6 14 7 15 8 16 4 17
REMARK H PARENT
REMARK Flexibility Score: 60.00
ROOT
ATOM      1  C   UNL     1      97.376 142.817 134.594  1.00  0.00    -0.070 C 
ATOM      2  C   UNL     1      97.753 141.716 133.904  1.00  0.00    -0.027 C 
ATOM      3  C   UNL     1      96.566 143.865 133.873  1.00  0.00     0.039 C 
ENDROOT
BRANCH   2   4
ATOM      4  C   UNL     1      98.432 140.511 134.504  1.00  0.00     0.032 C 
BRANCH   4   5
ATOM      5  C   UNL     1      97.404 139.400 134.744  1.00  0.00     0.034 C 
BRANCH   5   6
ATOM      6  C   UNL     1      97.088 139.210 136.215  1.00  0.00    -0.077 C 
ATOM      7  C   UNL     1      97.979 138.310 137.034  1.00  0.00     0.039 C 
ATOM      8  C   UNL     1      96.003 139.748 136.825  1.00  0.00    -0.023 CG0
ATOM      9  G   UNL     1      95.002 140.723 136.233  1.00  0.00     0.000 G0
ENDBRANCH   5   6
ENDBRANCH   4   5
ENDBRANCH   2   4
BRANCH   1  10
ATOM     10  C   UNL     1      97.741 143.057 136.045  1.00  0.00     0.111 C 
BRANCH  10  11
ATOM     11  C   UNL     1      96.645 142.614 136.984  1.00  0.00     0.163 C 
ATOM     12  O   UNL     1      96.926 142.564 138.212  1.00  0.00    -0.294 OA
BRANCH  11  13
ATOM     13  C   UNL     1      95.270 142.217 136.532  1.00  0.00    -0.002 C 
ATOM     14  C   UNL     1      94.250 143.130 136.527  1.00  0.00    -0.069 C 
ATOM     15  C   UNL     1      94.512 144.609 136.694  1.00  0.00     0.039 C 
ATOM     16  C   UNL     1      92.811 142.721 136.303  1.00  0.00     0.039 C 
BRANCH  13  17
ATOM     17  C   UNL     1      95.009 140.740 136.258  1.00  0.00     0.066 CG0
ATOM     18  G   UNL     1      96.006 139.756 136.843  1.00  0.00     0.000 G0
ENDBRANCH  13  17
ENDBRANCH  11  13
ENDBRANCH  10  11
ENDBRANCH   1  10
TORSDOF 0
ENDMDL
MODEL 4
REMARK VINA RESULT:    -3.494     14.300     16.288
REMARK INTER + INTRA:          -4.492
REMARK INTER:                  -4.441
REMARK INTRA:                  -0.051
REMARK UNBOUND:                 0.431
REMARK SMILES CC1=CCC(=C(C)C)C(=O)CC(C)=CCC1
REMARK SMILES IDX 12 1 14 2 13 3 15 4 16 5 2 6 1 7 3 8 11 10 9 11 10 12 5 13
REMARK SMILES IDX 6 14 7 15 8 16 4 17
REMARK H PARENT
REMARK Flexibility Score: 60.00
ROOT
ATOM      1  C   UNL     1      97.425 141.358 134.915  1.00  0.00    -0.070 C 
ATOM      2  C   UNL     1      97.364 142.488 134.173  1.00  0.00    -0.027 C 
ATOM      3  C   UNL     1      97.954 140.107 134.261  1.00  0.00     0.039 C 
ENDROOT
BRANCH   2   4
ATOM      4  C   UNL     1      97.005 143.852 134.704  1.00  0.00     0.032 C 
BRANCH   4   5
ATOM      5  C   UNL     1      95.541 144.169 134.378  1.00  0.00     0.034 C 
BRANCH   5   6
ATOM      6  C   UNL     1      94.772 144.665 135.586  1.00  0.00    -0.077 C 
ATOM      7  C   UNL     1      94.896 146.116 135.975  1.00  0.00     0.039 C 
ATOM      8  C   UNL     1      94.029 143.859 136.385  1.00  0.00    -0.023 CG0
ATOM      9  G   UNL     1      93.708 142.391 136.171  1.00  0.00     0.000 G0
ENDBRANCH   5   6
ENDBRANCH   4   5
ENDBRANCH   2   4
BRANCH   1  10
ATOM     10  C   UNL     1      96.972 141.284 136.359  1.00  0.00     0.111 C 
BRANCH  10  11
ATOM     11  C   UNL     1      95.597 140.675 136.489  1.00  0.00     0.163 C 
ATOM     12  O   UNL     1      95.447 139.499 136.060  1.00  0.00    -0.294 OA
BRANCH  11  13
ATOM     13  C   UNL     1      94.417 141.396 137.073  1.00  0.00    -0.002 C 
ATOM     14  C   UNL     1      93.930 141.048 138.303  1.00  0.00    -0.069 C 
ATOM     15  C   UNL     1      94.706 140.145 139.235  1.00  0.00     0.039 C 
ATOM     16  C   UNL     1      92.615 141.584 138.825  1.00  0.00     0.039 C 
BRANCH  13  17
ATOM     17  C   UNL     1      93.679 142.390 136.184  1.00  0.00     0.066 CG0
ATOM     18  G   UNL     1      94.024 143.857 136.375  1.00  0.00     0.000 G0
ENDBRANCH  13  17
ENDBRANCH  11  13
ENDBRANCH  10  11
ENDBRANCH   1  10
TORSDOF 0
ENDMDL
MODEL 5
REMARK VINA RESULT:    -3.482     13.720     15.771
REMARK INTER + INTRA:          -4.476
REMARK INTER:                  -4.581
REMARK INTRA:                   0.105
REMARK UNBOUND:                 0.431
REMARK SMILES CC1=CCC(=C(C)C)C(=O)CC(C)=CCC1
REMARK SMILES IDX 12 1 14 2 13 3 15 4 16 5 2 6 1 7 3 8 11 10 9 11 10 12 5 13
REMARK SMILES IDX 6 14 7 15 8 16 4 17
REMARK H PARENT
REMARK Flexibility Score: 60.00
ROOT
ATOM      1  C   UNL     1      98.019 140.917 134.845  1.00  0.00    -0.070 C 
ATOM      2  C   UNL     1      97.473 139.687 134.710  1.00  0.00    -0.027 C 
ATOM      3  C   UNL     1      98.059 141.814 133.634  1.00  0.00     0.039 C 
ENDROOT
BRANCH   2   4
ATOM      4  C   UNL     1      97.219 138.725 135.842  1.00  0.00     0.032 C 
BRANCH   4   5
ATOM      5  C   UNL     1      95.717 138.651 136.135  1.00  0.00     0.034 C 
BRANCH   5   6
ATOM      6  C   UNL     1      95.352 139.289 137.461  1.00  0.00    -0.077 C 
ATOM      7  C   UNL     1      95.289 138.417 138.689  1.00  0.00     0.039 C 
ATOM      8  C   UNL     1      95.006 140.594 137.595  1.00  0.00    -0.023 CG0
ATOM      9  G   UNL     1      95.047 141.674 136.529  1.00  0.00     0.000 G0
ENDBRANCH   5   6
ENDBRANCH   4   5
ENDBRANCH   2   4
BRANCH   1  10
ATOM     10  C   UNL     1      98.608 141.429 136.145  1.00  0.00     0.111 C 
BRANCH  10  11
ATOM     11  C   UNL     1      97.559 142.060 137.029  1.00  0.00     0.163 C 
ATOM     12  O   UNL     1      97.805 142.112 138.265  1.00  0.00    -0.294 OA
BRANCH  11  13
ATOM     13  C   UNL     1      96.253 142.598 136.520  1.00  0.00    -0.002 C 
ATOM     14  C   UNL     1      96.119 143.927 136.223  1.00  0.00    -0.069 C 
ATOM     15  C   UNL     1      97.320 144.839 136.116  1.00  0.00     0.039 C 
ATOM     16  C   UNL     1      94.771 144.550 135.932  1.00  0.00     0.039 C 
BRANCH  13  17
ATOM     17  C   UNL     1      95.049 141.663 136.522  1.00  0.00     0.066 CG0
ATOM     18  G   UNL     1      95.010 140.610 137.615  1.00  0.00     0.000 G0
ENDBRANCH  13  17
ENDBRANCH  11  13
ENDBRANCH  10  11
ENDBRANCH   1  10
TORSDOF 0
ENDMDL
MODEL 6
REMARK VINA RESULT:    -3.479     14.395     16.367
REMARK INTER + INTRA:          -4.471
REMARK INTER:                  -4.406
REMARK INTRA:                  -0.066
REMARK UNBOUND:                 0.431
REMARK SMILES CC1=CCC(=C(C)C)C(=O)CC(C)=CCC1
REMARK SMILES IDX 12 1 14 2 13 3 15 4 16 5 2 6 1 7 3 8 11 10 9 11 10 12 5 13
REMARK SMILES IDX 6 14 7 15 8 16 4 17
REMARK H PARENT
REMARK Flexibility Score: 60.00
ROOT
ATOM      1  C   UNL     1      96.142 143.619 134.614  1.00  0.00    -0.070 C 
ATOM      2  C   UNL     1      97.244 142.836 134.562  1.00  0.00    -0.027 C 
ATOM      3  C   UNL     1      96.289 145.077 134.260  1.00  0.00     0.039 C 
ENDROOT
BRANCH   2   4
ATOM      4  C   UNL     1      97.249 141.339 134.738  1.00  0.00     0.032 C 
BRANCH   4   5
ATOM      5  C   UNL     1      97.311 140.990 136.229  1.00  0.00     0.034 C 
BRANCH   5   6
ATOM      6  C   UNL     1      96.361 139.869 136.602  1.00  0.00    -0.077 C 
ATOM      7  C   UNL     1      96.601 138.497 136.024  1.00  0.00     0.039 C 
ATOM      8  C   UNL     1      95.260 140.044 137.374  1.00  0.00    -0.023 CG0
ATOM      9  G   UNL     1      94.841 141.303 138.111  1.00  0.00     0.000 G0
ENDBRANCH   5   6
ENDBRANCH   4   5
ENDBRANCH   2   4
BRANCH   1  10
ATOM     10  C   UNL     1      94.776 143.109 135.029  1.00  0.00     0.111 C 
BRANCH  10  11
ATOM     11  C   UNL     1      94.524 143.306 136.504  1.00  0.00     0.163 C 
ATOM     12  O   UNL     1      94.878 144.407 137.006  1.00  0.00    -0.294 OA
BRANCH  11  13
ATOM     13  C   UNL     1      93.903 142.265 137.391  1.00  0.00    -0.002 C 
ATOM     14  C   UNL     1      92.561 142.288 137.654  1.00  0.00    -0.069 C 
ATOM     15  C   UNL     1      91.614 143.161 136.861  1.00  0.00     0.039 C 
ATOM     16  C   UNL     1      91.937 141.409 138.715  1.00  0.00     0.039 C 
BRANCH  13  17
ATOM     17  C   UNL     1      94.835 141.306 138.123  1.00  0.00     0.066 CG0
ATOM     18  G   UNL     1      95.232 140.045 137.376  1.00  0.00     0.000 G0
ENDBRANCH  13  17
ENDBRANCH  11  13
ENDBRANCH  10  11
ENDBRANCH   1  10
TORSDOF 0
ENDMDL
MODEL 7
REMARK VINA RESULT:    -3.442     14.325     16.212
REMARK INTER + INTRA:          -4.420
REMARK INTER:                  -4.244
REMARK INTRA:                  -0.176
REMARK UNBOUND:                 0.431
REMARK SMILES CC1=CCC(=C(C)C)C(=O)CC(C)=CCC1
REMARK SMILES IDX 12 1 14 2 13 3 15 4 16 5 2 6 1 7 3 8 11 10 9 11 10 12 5 13
REMARK SMILES IDX 6 14 7 15 8 16 4 17
REMARK H PARENT
REMARK Flexibility Score: 60.00
ROOT
ATOM      1  C   UNL     1      97.383 142.237 134.568  1.00  0.00    -0.070 C 
ATOM      2  C   UNL     1      96.575 143.250 134.178  1.00  0.00    -0.027 C 
ATOM      3  C   UNL     1      98.171 141.509 133.509  1.00  0.00     0.039 C 
ENDROOT
BRANCH   2   4
ATOM      4  C   UNL     1      95.836 144.174 135.112  1.00  0.00     0.032 C 
BRANCH   4   5
ATOM      5  C   UNL     1      94.398 143.679 135.304  1.00  0.00     0.034 C 
BRANCH   5   6
ATOM      6  C   UNL     1      93.954 143.736 136.753  1.00  0.00    -0.077 C 
ATOM      7  C   UNL     1      93.580 145.074 137.340  1.00  0.00     0.039 C 
ATOM      8  C   UNL     1      93.941 142.660 137.577  1.00  0.00    -0.023 CG0
ATOM      9  G   UNL     1      94.217 141.213 137.209  1.00  0.00     0.000 G0
ENDBRANCH   5   6
ENDBRANCH   4   5
ENDBRANCH   2   4
BRANCH   1  10
ATOM     10  C   UNL     1      97.521 141.789 136.009  1.00  0.00     0.111 C 
BRANCH  10  11
ATOM     11  C   UNL     1      96.586 140.650 136.338  1.00  0.00     0.163 C 
ATOM     12  O   UNL     1      96.620 139.643 135.581  1.00  0.00    -0.294 OA
BRANCH  11  13
ATOM     13  C   UNL     1      95.622 140.669 137.488  1.00  0.00    -0.002 C 
ATOM     14  C   UNL     1      95.948 140.075 138.677  1.00  0.00    -0.069 C 
ATOM     15  C   UNL     1      97.363 139.637 138.981  1.00  0.00     0.039 C 
ATOM     16  C   UNL     1      94.928 139.868 139.775  1.00  0.00     0.039 C 
BRANCH  13  17
ATOM     17  C   UNL     1      94.217 141.203 137.231  1.00  0.00     0.066 CG0
ATOM     18  G   UNL     1      93.970 142.658 137.587  1.00  0.00     0.000 G0
ENDBRANCH  13  17
ENDBRANCH  11  13
ENDBRANCH  10  11
ENDBRANCH   1  10
TORSDOF 0
ENDMDL
MODEL 8
REMARK VINA RESULT:    -3.421     13.303     15.160
REMARK INTER + INTRA:          -4.390
REMARK INTER:                  -4.948
REMARK INTRA:                   0.558
REMARK UNBOUND:                 0.431
REMARK SMILES CC1=CCC(=C(C)C)C(=O)CC(C)=CCC1
REMARK SMILES IDX 12 1 14 2 13 3 15 4 16 5 2 6 1 7 3 8 11 10 9 11 10 12 5 13
REMARK SMILES IDX 6 14 7 15 8 16 4 17
REMARK H PARENT
REMARK Flexibility Score: 60.00
ROOT
ATOM      1  C   UNL     1      96.318 139.424 135.919  1.00  0.00    -0.070 C 
ATOM      2  C   UNL     1      97.370 139.318 135.075  1.00  0.00    -0.027 C 
ATOM      3  C   UNL     1      96.125 138.344 136.953  1.00  0.00     0.039 C 
ENDROOT
BRANCH   2   4
ATOM      4  C   UNL     1      97.795 140.373 134.087  1.00  0.00     0.032 C 
BRANCH   4   5
ATOM      5  C   UNL     1      99.165 140.935 134.481  1.00  0.00     0.034 C 
BRANCH   5   6
ATOM      6  C   UNL     1      99.297 141.147 135.976  1.00  0.00    -0.077 C 
ATOM      7  C   UNL     1     100.143 140.184 136.770  1.00  0.00     0.039 C 
ATOM      8  C   UNL     1      98.637 142.117 136.658  1.00  0.00    -0.023 CG0
ATOM      9  G   UNL     1      97.781 143.230 136.081  1.00  0.00     0.000 G0
ENDBRANCH   5   6
ENDBRANCH   4   5
ENDBRANCH   2   4
BRANCH   1  10
ATOM     10  C   UNL     1      95.317 140.560 135.863  1.00  0.00     0.111 C 
BRANCH  10  11
ATOM     11  C   UNL     1      95.748 141.734 136.709  1.00  0.00     0.163 C 
ATOM     12  O   UNL     1      95.645 141.610 137.959  1.00  0.00    -0.294 OA
BRANCH  11  13
ATOM     13  C   UNL     1      96.263 143.025 136.142  1.00  0.00    -0.002 C 
ATOM     14  C   UNL     1      95.409 143.910 135.542  1.00  0.00    -0.069 C 
ATOM     15  C   UNL     1      93.909 143.773 135.672  1.00  0.00     0.039 C 
ATOM     16  C   UNL     1      95.912 145.103 134.760  1.00  0.00     0.039 C 
BRANCH  13  17
ATOM     17  C   UNL     1      97.773 143.230 136.095  1.00  0.00     0.066 CG0
ATOM     18  G   UNL     1      98.627 142.100 136.643  1.00  0.00     0.000 G0
ENDBRANCH  13  17
ENDBRANCH  11  13
ENDBRANCH  10  11
ENDBRANCH   1  10
TORSDOF 0
ENDMDL
MODEL 9
REMARK VINA RESULT:    -3.381     13.687     15.501
REMARK INTER + INTRA:          -4.334
REMARK INTER:                  -4.565
REMARK INTRA:                   0.231
REMARK UNBOUND:                 0.431
REMARK SMILES CC1=CCC(=C(C)C)C(=O)CC(C)=CCC1
REMARK SMILES IDX 12 1 14 2 13 3 15 4 16 5 2 6 1 7 3 8 11 10 9 11 10 12 5 13
REMARK SMILES IDX 6 14 7 15 8 16 4 17
REMARK H PARENT
REMARK Flexibility Score: 60.00
ROOT
ATOM      1  C   UNL     1      97.871 141.919 134.347  1.00  0.00    -0.070 C 
ATOM      2  C   UNL     1      96.994 142.838 133.883  1.00  0.00    -0.027 C 
ATOM      3  C   UNL     1      98.127 140.693 133.507  1.00  0.00     0.039 C 
ENDROOT
BRANCH   2   4
ATOM      4  C   UNL     1      96.733 144.181 134.517  1.00  0.00     0.032 C 
BRANCH   4   5
ATOM      5  C   UNL     1      95.266 144.277 134.949  1.00  0.00     0.034 C 
BRANCH   5   6
ATOM      6  C   UNL     1      95.091 144.120 136.446  1.00  0.00    -0.077 C 
ATOM      7  C   UNL     1      94.954 145.362 137.291  1.00  0.00     0.039 C 
ATOM      8  C   UNL     1      95.121 142.924 137.084  1.00  0.00    -0.023 CG0
ATOM      9  G   UNL     1      95.191 141.544 136.454  1.00  0.00     0.000 G0
ENDBRANCH   5   6
ENDBRANCH   4   5
ENDBRANCH   2   4
BRANCH   1  10
ATOM     10  C   UNL     1      98.592 142.050 135.674  1.00  0.00     0.111 C 
BRANCH  10  11
ATOM     11  C   UNL     1      97.757 141.540 136.823  1.00  0.00     0.163 C 
ATOM     12  O   UNL     1      98.177 141.776 137.988  1.00  0.00    -0.294 OA
BRANCH  11  13
ATOM     13  C   UNL     1      96.485 140.761 136.649  1.00  0.00    -0.002 C 
ATOM     14  C   UNL     1      96.519 139.400 136.510  1.00  0.00    -0.069 C 
ATOM     15  C   UNL     1      97.770 138.605 136.806  1.00  0.00     0.039 C 
ATOM     16  C   UNL     1      95.297 138.606 136.103  1.00  0.00     0.039 C 
BRANCH  13  17
ATOM     17  C   UNL     1      95.192 141.543 136.450  1.00  0.00     0.066 CG0
ATOM     18  G   UNL     1      95.127 142.917 137.092  1.00  0.00     0.000 G0
ENDBRANCH  13  17
ENDBRANCH  11  13
ENDBRANCH  10  11
ENDBRANCH   1  10
TORSDOF 0
ENDMDL
