MODEL 1
REMARK VINA RESULT:    12.846      0.000      0.000
REMARK INTER + INTRA:          23.494
REMARK INTER:                  18.854
REMARK INTRA:                   4.641
REMARK UNBOUND:                 4.641
REMARK SMILES Cc1cc2c(C(C)C)c(O)c(O)c(C=O)c2c(O)c1-c1c(C)cc2c(C(C)C)c(O)c(O)c(C=O)c2c1O
REMARK SMILES IDX 1 1 2 2 3 3 4 4 16 5 13 6 11 7 9 8 5 9 17 10 19 11 20 12
REMARK SMILES IDX 37 13 21 14 36 15 23 16 22 17 24 18 33 19 25 20 31 21 29 22
REMARK SMILES IDX 38 23 34 25 35 26 26 27 27 28 28 29 32 30 30 32 18 34 6 36
REMARK SMILES IDX 7 37 8 38 14 39 15 40 10 41 12 43
REMARK H PARENT 38 24 32 31 30 33 18 35 10 42 12 44
REMARK Flexibility Score: inf
ROOT
ATOM      1  C   UNL     1       4.876   6.688  33.031  1.00  0.00     0.045 C 
ATOM      2  C   UNL     1       5.954   6.256  33.995  1.00  0.00    -0.039 A 
ATOM      3  C   UNL     1       6.256   4.899  34.122  1.00  0.00     0.013 A 
ATOM      4  C   UNL     1       7.241   4.434  35.016  1.00  0.00    -0.006 A 
ATOM      5  C   UNL     1       8.045   5.396  35.699  1.00  0.00     0.039 A 
ATOM      6  C   UNL     1       9.198   4.953  36.409  1.00  0.00     0.072 A 
ATOM      7  C   UNL     1       9.486   3.576  36.484  1.00  0.00     0.169 A 
ATOM      8  C   UNL     1       8.643   2.637  35.892  1.00  0.00     0.162 A 
ATOM      9  C   UNL     1       7.456   3.038  35.230  1.00  0.00     0.008 A 
ATOM     10  C   UNL     1       7.648   6.765  35.671  1.00  0.00     0.132 A 
ATOM     11  C   UNL     1       6.620   7.191  34.805  1.00  0.00     0.031 A 
ENDROOT
BRANCH  11  12
ATOM     12  C   UNL     1       6.240   8.626  34.740  1.00  0.00     0.031 A 
ATOM     13  C   UNL     1       6.478   9.372  33.566  1.00  0.00     0.132 A 
ATOM     14  C   UNL     1       5.631   9.235  35.849  1.00  0.00    -0.039 A 
ATOM     15  C   UNL     1       6.105  10.749  33.496  1.00  0.00     0.039 A 
ATOM     16  C   UNL     1       5.340  10.600  35.810  1.00  0.00     0.013 A 
ATOM     17  C   UNL     1       5.298   8.440  37.088  1.00  0.00     0.045 C 
ATOM     18  C   UNL     1       5.636  11.392  34.680  1.00  0.00    -0.006 A 
ATOM     19  C   UNL     1       6.195  11.507  32.290  1.00  0.00     0.072 A 
ATOM     20  C   UNL     1       5.447  12.807  34.702  1.00  0.00     0.008 A 
ATOM     21  C   UNL     1       5.822  12.867  32.287  1.00  0.00     0.169 A 
ATOM     22  C   UNL     1       5.461  13.507  33.478  1.00  0.00     0.162 A 
BRANCH  13  23
ATOM     23  O   UNL     1       7.105   8.753  32.479  1.00  0.00    -0.507 OA
ATOM     24  H   UNL     1       8.028   8.999  32.141  1.00  0.00     0.293 HD
ENDBRANCH  13  23
BRANCH  19  25
ATOM     25  C   UNL     1       6.581  10.887  31.005  1.00  0.00     0.264 C 
ATOM     26  O   UNL     1       6.584   9.634  30.874  1.00  0.00    -0.298 OA
ENDBRANCH  19  25
BRANCH  20  27
ATOM     27  C   UNL     1       5.222  13.573  36.019  1.00  0.00     0.017 C 
ATOM     28  C   UNL     1       5.180  15.084  35.773  1.00  0.00     0.012 C 
ATOM     29  C   UNL     1       6.232  13.211  37.123  1.00  0.00     0.012 C 
ENDBRANCH  20  27
BRANCH  21  30
ATOM     30  O   UNL     1       5.778  13.613  31.103  1.00  0.00    -0.504 OA
ATOM     31  H   UNL     1       6.552  13.700  30.459  1.00  0.00     0.293 HD
ENDBRANCH  21  30
BRANCH  22  32
ATOM     32  O   UNL     1       5.086  14.853  33.442  1.00  0.00    -0.504 OA
ATOM     33  H   UNL     1       5.752  15.614  33.503  1.00  0.00     0.293 HD
ENDBRANCH  22  32
ENDBRANCH  11  12
BRANCH  10  34
ATOM     34  O   UNL     1       8.245   7.689  36.536  1.00  0.00    -0.507 OA
ATOM     35  H   UNL     1       8.755   8.505  36.223  1.00  0.00     0.293 HD
ENDBRANCH  10  34
BRANCH   9  36
ATOM     36  C   UNL     1       6.421   1.956  34.868  1.00  0.00     0.017 C 
ATOM     37  C   UNL     1       5.186   2.539  34.167  1.00  0.00     0.012 C 
ATOM     38  C   UNL     1       6.053   1.005  36.026  1.00  0.00     0.012 C 
ENDBRANCH   9  36
BRANCH   6  39
ATOM     39  C   UNL     1      10.189   5.893  36.971  1.00  0.00     0.264 C 
ATOM     40  O   UNL     1      10.790   6.711  36.224  1.00  0.00    -0.298 OA
ENDBRANCH   6  39
BRANCH   8  41
ATOM     41  O   UNL     1       9.045   1.298  35.964  1.00  0.00    -0.504 OA
ATOM     42  H   UNL     1       8.873   0.696  36.758  1.00  0.00     0.293 HD
ENDBRANCH   8  41
BRANCH   7  43
ATOM     43  O   UNL     1      10.636   3.098  37.124  1.00  0.00    -0.504 OA
ATOM     44  H   UNL     1      10.690   2.898  38.114  1.00  0.00     0.293 HD
ENDBRANCH   7  43
TORSDOF 11
ENDMDL
