MODEL 1
REMARK VINA RESULT:    -4.622      0.000      0.000
REMARK INTER + INTRA:          -4.892
REMARK INTER:                  -4.892
REMARK INTRA:                   0.000
REMARK UNBOUND:                 0.000
REMARK SMILES O=c1ccc2cc(O)c(O)cc2o1
REMARK SMILES IDX 4 1 3 2 2 3 1 4 13 5 12 6 11 7 9 8 7 9 6 10 5 11 8 12 10 14
REMARK H PARENT 8 13 10 15
REMARK Flexibility Score: inf
ROOT
ATOM      1  C   UNL     1      -7.200   8.850 -17.501  1.00  0.00     0.019 A 
ATOM      2  C   UNL     1      -8.467   9.422 -17.400  1.00  0.00     0.094 A 
ATOM      3  C   UNL     1      -9.156   9.757 -18.570  1.00  0.00     0.336 A 
ATOM      4  O   UNL     1     -10.301  10.274 -18.499  1.00  0.00    -0.246 OA
ATOM      5  O   UNL     1      -8.608   9.533 -19.762  1.00  0.00    -0.423 OA
ATOM      6  C   UNL     1      -7.401   8.989 -19.904  1.00  0.00     0.142 A 
ATOM      7  C   UNL     1      -6.876   8.776 -21.182  1.00  0.00     0.098 A 
ATOM      8  C   UNL     1      -5.605   8.203 -21.338  1.00  0.00     0.161 A 
ATOM      9  C   UNL     1      -4.854   7.841 -20.204  1.00  0.00     0.158 A 
ATOM     10  C   UNL     1      -5.378   8.054 -18.923  1.00  0.00     0.062 A 
ATOM     11  C   UNL     1      -6.647   8.626 -18.767  1.00  0.00     0.022 A 
ENDROOT
BRANCH   9  12
ATOM     12  O   UNL     1      -3.588   7.270 -20.331  1.00  0.00    -0.504 OA
ATOM     13  H   UNL     1      -2.863   7.409 -19.639  1.00  0.00     0.293 HD
ENDBRANCH   9  12
BRANCH   8  14
ATOM     14  O   UNL     1      -5.085   7.993 -22.615  1.00  0.00    -0.504 OA
ATOM     15  H   UNL     1      -5.678   7.730 -23.392  1.00  0.00     0.293 HD
ENDBRANCH   8  14
TORSDOF 2
ENDMDL
MODEL 2
REMARK VINA RESULT:    -4.477      1.273      2.341
REMARK INTER + INTRA:          -4.739
REMARK INTER:                  -4.739
REMARK INTRA:                   0.000
REMARK UNBOUND:                 0.000
REMARK SMILES O=c1ccc2cc(O)c(O)cc2o1
REMARK SMILES IDX 4 1 3 2 2 3 1 4 13 5 12 6 11 7 9 8 7 9 6 10 5 11 8 12 10 14
REMARK H PARENT 8 13 10 15
REMARK Flexibility Score: inf
ROOT
ATOM      1  C   UNL     1      -8.167   9.339 -20.027  1.00  0.00     0.019 A 
ATOM      2  C   UNL     1      -8.772   9.443 -18.776  1.00  0.00     0.094 A 
ATOM      3  C   UNL     1      -8.059   9.037 -17.643  1.00  0.00     0.336 A 
ATOM      4  O   UNL     1      -8.588   9.122 -16.504  1.00  0.00    -0.246 OA
ATOM      5  O   UNL     1      -6.823   8.559 -17.759  1.00  0.00    -0.423 OA
ATOM      6  C   UNL     1      -6.208   8.444 -18.935  1.00  0.00     0.142 A 
ATOM      7  C   UNL     1      -4.907   7.935 -18.997  1.00  0.00     0.098 A 
ATOM      8  C   UNL     1      -4.255   7.812 -20.233  1.00  0.00     0.161 A 
ATOM      9  C   UNL     1      -4.911   8.200 -21.415  1.00  0.00     0.158 A 
ATOM     10  C   UNL     1      -6.214   8.710 -21.356  1.00  0.00     0.062 A 
ATOM     11  C   UNL     1      -6.866   8.834 -20.122  1.00  0.00     0.022 A 
ENDROOT
BRANCH   9  12
ATOM     12  O   UNL     1      -4.285   8.088 -22.656  1.00  0.00    -0.504 OA
ATOM     13  H   UNL     1      -3.899   8.891 -23.139  1.00  0.00     0.293 HD
ENDBRANCH   9  12
BRANCH   8  14
ATOM     14  O   UNL     1      -2.957   7.304 -20.290  1.00  0.00    -0.504 OA
ATOM     15  H   UNL     1      -2.186   7.766 -19.824  1.00  0.00     0.293 HD
ENDBRANCH   8  14
TORSDOF 2
ENDMDL
MODEL 3
REMARK VINA RESULT:    -4.426      1.903      2.645
REMARK INTER + INTRA:          -4.685
REMARK INTER:                  -4.685
REMARK INTRA:                   0.000
REMARK UNBOUND:                 0.000
REMARK SMILES O=c1ccc2cc(O)c(O)cc2o1
REMARK SMILES IDX 4 1 3 2 2 3 1 4 13 5 12 6 11 7 9 8 7 9 6 10 5 11 8 12 10 14
REMARK H PARENT 8 13 10 15
REMARK Flexibility Score: inf
ROOT
ATOM      1  C   UNL     1      -8.849   8.029 -18.076  1.00  0.00     0.019 A 
ATOM      2  C   UNL     1     -10.119   8.226 -17.537  1.00  0.00     0.094 A 
ATOM      3  C   UNL     1     -10.784   9.430 -17.790  1.00  0.00     0.336 A 
ATOM      4  O   UNL     1     -11.932   9.627 -17.312  1.00  0.00    -0.246 OA
ATOM      5  O   UNL     1     -10.211  10.373 -18.534  1.00  0.00    -0.423 OA
ATOM      6  C   UNL     1      -9.000  10.225 -19.068  1.00  0.00     0.142 A 
ATOM      7  C   UNL     1      -8.448  11.251 -19.842  1.00  0.00     0.098 A 
ATOM      8  C   UNL     1      -7.172  11.101 -20.407  1.00  0.00     0.161 A 
ATOM      9  C   UNL     1      -6.445   9.915 -20.194  1.00  0.00     0.158 A 
ATOM     10  C   UNL     1      -6.995   8.887 -19.418  1.00  0.00     0.062 A 
ATOM     11  C   UNL     1      -8.269   9.037 -18.854  1.00  0.00     0.022 A 
ENDROOT
BRANCH   9  12
ATOM     12  O   UNL     1      -5.175   9.741 -20.744  1.00  0.00    -0.504 OA
ATOM     13  H   UNL     1      -4.399  10.348 -20.510  1.00  0.00     0.293 HD
ENDBRANCH   9  12
BRANCH   8  14
ATOM     14  O   UNL     1      -6.625  12.126 -21.178  1.00  0.00    -0.504 OA
ATOM     15  H   UNL     1      -6.785  13.101 -20.955  1.00  0.00     0.293 HD
ENDBRANCH   8  14
TORSDOF 2
ENDMDL
MODEL 4
REMARK VINA RESULT:    -4.399      1.456      1.828
REMARK INTER + INTRA:          -4.657
REMARK INTER:                  -4.657
REMARK INTRA:                   0.000
REMARK UNBOUND:                 0.000
REMARK SMILES O=c1ccc2cc(O)c(O)cc2o1
REMARK SMILES IDX 4 1 3 2 2 3 1 4 13 5 12 6 11 7 9 8 7 9 6 10 5 11 8 12 10 14
REMARK H PARENT 8 13 10 15
REMARK Flexibility Score: inf
ROOT
ATOM      1  C   UNL     1      -8.088   9.547 -18.548  1.00  0.00     0.019 A 
ATOM      2  C   UNL     1      -8.875  10.440 -19.274  1.00  0.00     0.094 A 
ATOM      3  C   UNL     1      -8.514  10.747 -20.590  1.00  0.00     0.336 A 
ATOM      4  O   UNL     1      -9.212  11.551 -21.261  1.00  0.00    -0.246 OA
ATOM      5  O   UNL     1      -7.434  10.195 -21.139  1.00  0.00    -0.423 OA
ATOM      6  C   UNL     1      -6.656   9.338 -20.481  1.00  0.00     0.142 A 
ATOM      7  C   UNL     1      -5.534   8.789 -21.110  1.00  0.00     0.098 A 
ATOM      8  C   UNL     1      -4.711   7.885 -20.422  1.00  0.00     0.161 A 
ATOM      9  C   UNL     1      -5.013   7.530 -19.094  1.00  0.00     0.158 A 
ATOM     10  C   UNL     1      -6.135   8.079 -18.462  1.00  0.00     0.062 A 
ATOM     11  C   UNL     1      -6.959   8.982 -19.149  1.00  0.00     0.022 A 
ENDROOT
BRANCH   9  12
ATOM     12  O   UNL     1      -4.210   6.634 -18.389  1.00  0.00    -0.504 OA
ATOM     13  H   UNL     1      -4.374   6.418 -17.413  1.00  0.00     0.293 HD
ENDBRANCH   9  12
BRANCH   8  14
ATOM     14  O   UNL     1      -3.592   7.340 -21.053  1.00  0.00    -0.504 OA
ATOM     15  H   UNL     1      -2.700   7.817 -21.054  1.00  0.00     0.293 HD
ENDBRANCH   8  14
TORSDOF 2
ENDMDL
MODEL 5
REMARK VINA RESULT:    -4.307      1.772      4.586
REMARK INTER + INTRA:          -4.559
REMARK INTER:                  -4.559
REMARK INTRA:                   0.000
REMARK UNBOUND:                 0.000
REMARK SMILES O=c1ccc2cc(O)c(O)cc2o1
REMARK SMILES IDX 4 1 3 2 2 3 1 4 13 5 12 6 11 7 9 8 7 9 6 10 5 11 8 12 10 14
REMARK H PARENT 8 13 10 15
REMARK Flexibility Score: inf
ROOT
ATOM      1  C   UNL     1      -5.761   7.869 -18.498  1.00  0.00     0.019 A 
ATOM      2  C   UNL     1      -4.613   8.365 -19.112  1.00  0.00     0.094 A 
ATOM      3  C   UNL     1      -4.690   9.566 -19.825  1.00  0.00     0.336 A 
ATOM      4  O   UNL     1      -3.664  10.031 -20.387  1.00  0.00    -0.246 OA
ATOM      5  O   UNL     1      -5.844  10.224 -19.914  1.00  0.00    -0.423 OA
ATOM      6  C   UNL     1      -6.963   9.785 -19.342  1.00  0.00     0.142 A 
ATOM      7  C   UNL     1      -8.147  10.519 -19.469  1.00  0.00     0.098 A 
ATOM      8  C   UNL     1      -9.330  10.061 -18.869  1.00  0.00     0.161 A 
ATOM      9  C   UNL     1      -9.326   8.859 -18.137  1.00  0.00     0.158 A 
ATOM     10  C   UNL     1      -8.142   8.123 -18.008  1.00  0.00     0.062 A 
ATOM     11  C   UNL     1      -6.961   8.580 -18.607  1.00  0.00     0.022 A 
ENDROOT
BRANCH   9  12
ATOM     12  O   UNL     1     -10.488   8.383 -17.530  1.00  0.00    -0.504 OA
ATOM     13  H   UNL     1     -11.130   7.764 -18.009  1.00  0.00     0.293 HD
ENDBRANCH   9  12
BRANCH   8  14
ATOM     14  O   UNL     1     -10.508  10.796 -18.999  1.00  0.00    -0.504 OA
ATOM     15  H   UNL     1     -10.992  10.869 -19.885  1.00  0.00     0.293 HD
ENDBRANCH   8  14
TORSDOF 2
ENDMDL
MODEL 6
REMARK VINA RESULT:    -4.304      1.796      2.534
REMARK INTER + INTRA:          -4.556
REMARK INTER:                  -4.556
REMARK INTRA:                   0.000
REMARK UNBOUND:                 0.000
REMARK SMILES O=c1ccc2cc(O)c(O)cc2o1
REMARK SMILES IDX 4 1 3 2 2 3 1 4 13 5 12 6 11 7 9 8 7 9 6 10 5 11 8 12 10 14
REMARK H PARENT 8 13 10 15
REMARK Flexibility Score: inf
ROOT
ATOM      1  C   UNL     1     -10.131   8.467 -17.397  1.00  0.00     0.019 A 
ATOM      2  C   UNL     1     -11.273   9.266 -17.394  1.00  0.00     0.094 A 
ATOM      3  C   UNL     1     -11.282  10.439 -18.155  1.00  0.00     0.336 A 
ATOM      4  O   UNL     1     -12.305  11.174 -18.165  1.00  0.00    -0.246 OA
ATOM      5  O   UNL     1     -10.216  10.786 -18.871  1.00  0.00    -0.423 OA
ATOM      6  C   UNL     1      -9.105  10.052 -18.902  1.00  0.00     0.142 A 
ATOM      7  C   UNL     1      -8.015  10.467 -19.674  1.00  0.00     0.098 A 
ATOM      8  C   UNL     1      -6.842   9.698 -19.710  1.00  0.00     0.161 A 
ATOM      9  C   UNL     1      -6.761   8.505 -18.968  1.00  0.00     0.158 A 
ATOM     10  C   UNL     1      -7.852   8.088 -18.195  1.00  0.00     0.062 A 
ATOM     11  C   UNL     1      -9.023   8.856 -18.158  1.00  0.00     0.022 A 
ENDROOT
BRANCH   9  12
ATOM     12  O   UNL     1      -5.607   7.722 -18.988  1.00  0.00    -0.504 OA
ATOM     13  H   UNL     1      -4.944   7.761 -19.752  1.00  0.00     0.293 HD
ENDBRANCH   9  12
BRANCH   8  14
ATOM     14  O   UNL     1      -5.757  10.115 -20.481  1.00  0.00    -0.504 OA
ATOM     15  H   UNL     1      -5.886  10.629 -21.344  1.00  0.00     0.293 HD
ENDBRANCH   8  14
TORSDOF 2
ENDMDL
MODEL 7
REMARK VINA RESULT:    -4.296      1.063      4.549
REMARK INTER + INTRA:          -4.547
REMARK INTER:                  -4.547
REMARK INTRA:                   0.000
REMARK UNBOUND:                 0.000
REMARK SMILES O=c1ccc2cc(O)c(O)cc2o1
REMARK SMILES IDX 4 1 3 2 2 3 1 4 13 5 12 6 11 7 9 8 7 9 6 10 5 11 8 12 10 14
REMARK H PARENT 8 13 10 15
REMARK Flexibility Score: inf
ROOT
ATOM      1  C   UNL     1      -5.651   7.753 -18.888  1.00  0.00     0.019 A 
ATOM      2  C   UNL     1      -4.868   7.631 -20.034  1.00  0.00     0.094 A 
ATOM      3  C   UNL     1      -5.267   8.289 -21.202  1.00  0.00     0.336 A 
ATOM      4  O   UNL     1      -4.572   8.191 -22.247  1.00  0.00    -0.246 OA
ATOM      5  O   UNL     1      -6.378   9.021 -21.217  1.00  0.00    -0.423 OA
ATOM      6  C   UNL     1      -7.154   9.165 -20.145  1.00  0.00     0.142 A 
ATOM      7  C   UNL     1      -8.312   9.947 -20.219  1.00  0.00     0.098 A 
ATOM      8  C   UNL     1      -9.134  10.102 -19.093  1.00  0.00     0.161 A 
ATOM      9  C   UNL     1      -8.794   9.467 -17.884  1.00  0.00     0.158 A 
ATOM     10  C   UNL     1      -7.637   8.683 -17.807  1.00  0.00     0.062 A 
ATOM     11  C   UNL     1      -6.815   8.528 -18.931  1.00  0.00     0.022 A 
ENDROOT
BRANCH   9  12
ATOM     12  O   UNL     1      -9.594   9.605 -16.750  1.00  0.00    -0.504 OA
ATOM     13  H   UNL     1     -10.604   9.660 -16.807  1.00  0.00     0.293 HD
ENDBRANCH   9  12
BRANCH   8  14
ATOM     14  O   UNL     1     -10.287  10.882 -19.172  1.00  0.00    -0.504 OA
ATOM     15  H   UNL     1     -10.357  11.660 -19.817  1.00  0.00     0.293 HD
ENDBRANCH   8  14
TORSDOF 2
ENDMDL
MODEL 8
REMARK VINA RESULT:    -4.276     11.790     13.299
REMARK INTER + INTRA:          -4.526
REMARK INTER:                  -4.526
REMARK INTRA:                   0.000
REMARK UNBOUND:                 0.000
REMARK SMILES O=c1ccc2cc(O)c(O)cc2o1
REMARK SMILES IDX 4 1 3 2 2 3 1 4 13 5 12 6 11 7 9 8 7 9 6 10 5 11 8 12 10 14
REMARK H PARENT 8 13 10 15
REMARK Flexibility Score: inf
ROOT
ATOM      1  C   UNL     1      -6.025   0.778  -7.416  1.00  0.00     0.019 A 
ATOM      2  C   UNL     1      -5.073  -0.172  -7.052  1.00  0.00     0.094 A 
ATOM      3  C   UNL     1      -3.899  -0.280  -7.806  1.00  0.00     0.336 A 
ATOM      4  O   UNL     1      -3.028  -1.132  -7.492  1.00  0.00    -0.246 OA
ATOM      5  O   UNL     1      -3.697   0.513  -8.855  1.00  0.00    -0.423 OA
ATOM      6  C   UNL     1      -4.580   1.433  -9.237  1.00  0.00     0.142 A 
ATOM      7  C   UNL     1      -4.314   2.239 -10.349  1.00  0.00     0.098 A 
ATOM      8  C   UNL     1      -5.240   3.210 -10.756  1.00  0.00     0.161 A 
ATOM      9  C   UNL     1      -6.443   3.375 -10.044  1.00  0.00     0.158 A 
ATOM     10  C   UNL     1      -6.713   2.569  -8.931  1.00  0.00     0.062 A 
ATOM     11  C   UNL     1      -5.787   1.599  -8.524  1.00  0.00     0.022 A 
ENDROOT
BRANCH   9  12
ATOM     12  O   UNL     1      -7.381   4.333 -10.428  1.00  0.00    -0.504 OA
ATOM     13  H   UNL     1      -7.331   4.806 -11.323  1.00  0.00     0.293 HD
ENDBRANCH   9  12
BRANCH   8  14
ATOM     14  O   UNL     1      -4.971   4.011 -11.865  1.00  0.00    -0.504 OA
ATOM     15  H   UNL     1      -4.254   4.726 -11.841  1.00  0.00     0.293 HD
ENDBRANCH   8  14
TORSDOF 2
ENDMDL
MODEL 9
REMARK VINA RESULT:    -4.174      2.118      4.416
REMARK INTER + INTRA:          -4.418
REMARK INTER:                  -4.418
REMARK INTRA:                   0.000
REMARK UNBOUND:                 0.000
REMARK SMILES O=c1ccc2cc(O)c(O)cc2o1
REMARK SMILES IDX 4 1 3 2 2 3 1 4 13 5 12 6 11 7 9 8 7 9 6 10 5 11 8 12 10 14
REMARK H PARENT 8 13 10 15
REMARK Flexibility Score: inf
ROOT
ATOM      1  C   UNL     1      -7.774   9.011 -18.162  1.00  0.00     0.019 A 
ATOM      2  C   UNL     1      -6.685   8.143 -18.211  1.00  0.00     0.094 A 
ATOM      3  C   UNL     1      -5.893   8.111 -19.363  1.00  0.00     0.336 A 
ATOM      4  O   UNL     1      -4.905   7.334 -19.426  1.00  0.00    -0.246 OA
ATOM      5  O   UNL     1      -6.177   8.899 -20.397  1.00  0.00    -0.423 OA
ATOM      6  C   UNL     1      -7.207   9.743 -20.392  1.00  0.00     0.142 A 
ATOM      7  C   UNL     1      -7.457  10.547 -21.509  1.00  0.00     0.098 A 
ATOM      8  C   UNL     1      -8.541  11.438 -21.509  1.00  0.00     0.161 A 
ATOM      9  C   UNL     1      -9.381  11.523 -20.383  1.00  0.00     0.158 A 
ATOM     10  C   UNL     1      -9.133  10.718 -19.264  1.00  0.00     0.062 A 
ATOM     11  C   UNL     1      -8.050   9.828 -19.263  1.00  0.00     0.022 A 
ENDROOT
BRANCH   9  12
ATOM     12  O   UNL     1     -10.465  12.400 -20.358  1.00  0.00    -0.504 OA
ATOM     13  H   UNL     1     -11.402  12.104 -20.601  1.00  0.00     0.293 HD
ENDBRANCH   9  12
BRANCH   8  14
ATOM     14  O   UNL     1      -8.787  12.238 -22.624  1.00  0.00    -0.504 OA
ATOM     15  H   UNL     1      -9.368  11.917 -23.389  1.00  0.00     0.293 HD
ENDBRANCH   8  14
TORSDOF 2
ENDMDL
