MODEL 1
REMARK VINA RESULT:    -4.764      0.000      0.000
REMARK INTER + INTRA:          -4.775
REMARK INTER:                  -5.878
REMARK INTRA:                   1.104
REMARK UNBOUND:                 1.104
REMARK SMILES CC1=CC=CC(C)(C)CC1=O
REMARK SMILES IDX 1 1 2 2 3 3 10 4 11 5 9 6 4 8 5 9 6 10 7 11 8 12
REMARK H PARENT
REMARK Flexibility Score: 80.00
ROOT
ATOM      1  C   UNL     1      -7.440  33.540  19.885  1.00  0.00     0.048 C 
ATOM      2  C   UNL     1      -8.064  33.506  21.261  1.00  0.00    -0.008 C 
ATOM      3  C   UNL     1      -7.599  34.373  22.186  1.00  0.00     0.007 C 
ENDROOT
BRANCH   2   4
ATOM      4  C   UNL     1      -9.111  32.475  21.494  1.00  0.00     0.159 C 
ATOM      5  O   UNL     1      -9.281  31.579  20.622  1.00  0.00    -0.295 OA
BRANCH   4   6
ATOM      6  C   UNL     1      -9.959  32.403  22.729  1.00  0.00     0.091 CG0
ATOM      7  G   UNL     1      -9.147  32.349  24.044  1.00  0.00     0.000 G0
ENDBRANCH   4   6
ENDBRANCH   2   4
BRANCH   3   8
ATOM      8  C   UNL     1      -8.020  34.574  23.592  1.00  0.00    -0.003 C 
ATOM      9  C   UNL     1      -8.707  33.743  24.384  1.00  0.00    -0.020 C 
BRANCH   9  10
ATOM     10  C   UNL     1      -9.161  32.347  24.030  1.00  0.00    -0.010 CG0
ATOM     11  C   UNL     1      -7.905  31.473  23.807  1.00  0.00     0.016 C 
ATOM     12  C   UNL     1      -9.966  31.731  25.198  1.00  0.00     0.016 C 
ATOM     13  G   UNL     1      -9.961  32.385  22.708  1.00  0.00     0.000 G0
ENDBRANCH   9  10
ENDBRANCH   3   8
TORSDOF 0
ENDMDL
MODEL 2
REMARK VINA RESULT:    -4.763      1.654      3.139
REMARK INTER + INTRA:          -4.773
REMARK INTER:                  -5.615
REMARK INTRA:                   0.841
REMARK UNBOUND:                 1.104
REMARK SMILES CC1=CC=CC(C)(C)CC1=O
REMARK SMILES IDX 1 1 2 2 3 3 10 4 11 5 9 6 4 8 5 9 6 10 7 11 8 12
REMARK H PARENT
REMARK Flexibility Score: 80.00
ROOT
ATOM      1  C   UNL     1      -8.048  34.617  25.973  1.00  0.00     0.048 C 
ATOM      2  C   UNL     1      -8.340  34.145  24.568  1.00  0.00    -0.008 C 
ATOM      3  C   UNL     1      -7.810  34.847  23.544  1.00  0.00     0.007 C 
ENDROOT
BRANCH   2   4
ATOM      4  C   UNL     1      -9.239  32.968  24.432  1.00  0.00     0.159 C 
ATOM      5  O   UNL     1      -9.607  32.365  25.477  1.00  0.00    -0.295 OA
BRANCH   4   6
ATOM      6  C   UNL     1      -9.777  32.468  23.124  1.00  0.00     0.091 CG0
ATOM      7  G   UNL     1      -8.688  32.199  22.060  1.00  0.00     0.000 G0
ENDBRANCH   4   6
ENDBRANCH   2   4
BRANCH   3   8
ATOM      8  C   UNL     1      -7.914  34.618  22.084  1.00  0.00    -0.003 C 
ATOM      9  C   UNL     1      -8.252  33.497  21.437  1.00  0.00    -0.020 C 
BRANCH   9  10
ATOM     10  C   UNL     1      -8.681  32.197  22.074  1.00  0.00    -0.010 CG0
ATOM     11  C   UNL     1      -9.303  31.303  20.977  1.00  0.00     0.016 C 
ATOM     12  C   UNL     1      -7.455  31.453  22.654  1.00  0.00     0.016 C 
ATOM     13  G   UNL     1      -9.767  32.479  23.138  1.00  0.00     0.000 G0
ENDBRANCH   9  10
ENDBRANCH   3   8
TORSDOF 0
ENDMDL
MODEL 3
REMARK VINA RESULT:    -4.630      2.133      3.225
REMARK INTER + INTRA:          -4.609
REMARK INTER:                  -5.454
REMARK INTRA:                   0.845
REMARK UNBOUND:                 1.104
REMARK SMILES CC1=CC=CC(C)(C)CC1=O
REMARK SMILES IDX 1 1 2 2 3 3 10 4 11 5 9 6 4 8 5 9 6 10 7 11 8 12
REMARK H PARENT
REMARK Flexibility Score: 80.00
ROOT
ATOM      1  C   UNL     1      -7.927  34.656  23.420  1.00  0.00     0.048 C 
ATOM      2  C   UNL     1      -8.366  33.282  22.969  1.00  0.00    -0.008 C 
ATOM      3  C   UNL     1      -8.585  33.090  21.651  1.00  0.00     0.007 C 
ENDROOT
BRANCH   2   4
ATOM      4  C   UNL     1      -8.572  32.263  24.034  1.00  0.00     0.159 C 
ATOM      5  O   UNL     1      -8.284  32.568  25.224  1.00  0.00    -0.295 OA
BRANCH   4   6
ATOM      6  C   UNL     1      -9.144  30.898  23.792  1.00  0.00     0.091 CG0
ATOM      7  G   UNL     1      -8.430  30.110  22.670  1.00  0.00     0.000 G0
ENDBRANCH   4   6
ENDBRANCH   2   4
BRANCH   3   8
ATOM      8  C   UNL     1      -9.004  31.868  20.928  1.00  0.00    -0.003 C 
ATOM      9  C   UNL     1      -8.923  30.593  21.326  1.00  0.00    -0.020 C 
BRANCH   9  10
ATOM     10  C   UNL     1      -8.433  30.111  22.670  1.00  0.00    -0.010 CG0
ATOM     11  C   UNL     1      -8.826  28.623  22.823  1.00  0.00     0.016 C 
ATOM     12  C   UNL     1      -6.891  30.204  22.745  1.00  0.00     0.016 C 
ATOM     13  G   UNL     1      -9.134  30.911  23.792  1.00  0.00     0.000 G0
ENDBRANCH   9  10
ENDBRANCH   3   8
TORSDOF 0
ENDMDL
MODEL 4
REMARK VINA RESULT:    -4.613      1.176      1.601
REMARK INTER + INTRA:          -4.588
REMARK INTER:                  -5.447
REMARK INTRA:                   0.860
REMARK UNBOUND:                 1.104
REMARK SMILES CC1=CC=CC(C)(C)CC1=O
REMARK SMILES IDX 1 1 2 2 3 3 10 4 11 5 9 6 4 8 5 9 6 10 7 11 8 12
REMARK H PARENT
REMARK Flexibility Score: 80.00
ROOT
ATOM      1  C   UNL     1      -7.713  32.668  19.980  1.00  0.00     0.048 C 
ATOM      2  C   UNL     1      -7.792  32.889  21.472  1.00  0.00    -0.008 C 
ATOM      3  C   UNL     1      -7.870  34.161  21.918  1.00  0.00     0.007 C 
ENDROOT
BRANCH   2   4
ATOM      4  C   UNL     1      -7.725  31.677  22.332  1.00  0.00     0.159 C 
ATOM      5  O   UNL     1      -7.712  30.544  21.778  1.00  0.00    -0.295 OA
BRANCH   4   6
ATOM      6  C   UNL     1      -7.627  31.712  23.828  1.00  0.00     0.091 CG0
ATOM      7  G   UNL     1      -8.714  32.577  24.507  1.00  0.00     0.000 G0
ENDBRANCH   4   6
ENDBRANCH   2   4
BRANCH   3   8
ATOM      8  C   UNL     1      -7.968  34.676  23.303  1.00  0.00    -0.003 C 
ATOM      9  C   UNL     1      -8.354  34.028  24.409  1.00  0.00    -0.020 C 
BRANCH   9  10
ATOM     10  C   UNL     1      -8.721  32.566  24.501  1.00  0.00    -0.010 CG0
ATOM     11  C   UNL     1      -8.780  32.176  25.996  1.00  0.00     0.016 C 
ATOM     12  C   UNL     1     -10.122  32.324  23.892  1.00  0.00     0.016 C 
ATOM     13  G   UNL     1      -7.621  31.715  23.825  1.00  0.00     0.000 G0
ENDBRANCH   9  10
ENDBRANCH   3   8
TORSDOF 0
ENDMDL
MODEL 5
REMARK VINA RESULT:    -4.401      1.675      2.414
REMARK INTER + INTRA:          -4.327
REMARK INTER:                  -5.450
REMARK INTRA:                   1.123
REMARK UNBOUND:                 1.104
REMARK SMILES CC1=CC=CC(C)(C)CC1=O
REMARK SMILES IDX 1 1 2 2 3 3 10 4 11 5 9 6 4 8 5 9 6 10 7 11 8 12
REMARK H PARENT
REMARK Flexibility Score: 80.00
ROOT
ATOM      1  C   UNL     1      -7.712  34.860  22.049  1.00  0.00     0.048 C 
ATOM      2  C   UNL     1      -8.240  33.496  22.430  1.00  0.00    -0.008 C 
ATOM      3  C   UNL     1      -8.517  33.269  23.732  1.00  0.00     0.007 C 
ENDROOT
BRANCH   2   4
ATOM      4  C   UNL     1      -8.359  32.496  21.336  1.00  0.00     0.159 C 
ATOM      5  O   UNL     1      -7.857  32.769  20.211  1.00  0.00    -0.295 OA
BRANCH   4   6
ATOM      6  C   UNL     1      -9.006  31.152  21.492  1.00  0.00     0.091 CG0
ATOM      7  G   UNL     1      -8.413  30.301  22.638  1.00  0.00     0.000 G0
ENDBRANCH   4   6
ENDBRANCH   2   4
BRANCH   3   8
ATOM      8  C   UNL     1      -9.048  32.052  24.389  1.00  0.00    -0.003 C 
ATOM      9  C   UNL     1      -9.051  30.793  23.935  1.00  0.00    -0.020 C 
BRANCH   9  10
ATOM     10  C   UNL     1      -8.436  30.310  22.644  1.00  0.00    -0.010 CG0
ATOM     11  C   UNL     1      -6.910  30.550  22.717  1.00  0.00     0.016 C 
ATOM     12  C   UNL     1      -8.670  28.791  22.473  1.00  0.00     0.016 C 
ATOM     13  G   UNL     1      -8.997  31.138  21.465  1.00  0.00     0.000 G0
ENDBRANCH   9  10
ENDBRANCH   3   8
TORSDOF 0
ENDMDL
MODEL 6
REMARK VINA RESULT:    -4.081      2.159      4.089
REMARK INTER + INTRA:          -3.932
REMARK INTER:                  -5.070
REMARK INTRA:                   1.138
REMARK UNBOUND:                 1.104
REMARK SMILES CC1=CC=CC(C)(C)CC1=O
REMARK SMILES IDX 1 1 2 2 3 3 10 4 11 5 9 6 4 8 5 9 6 10 7 11 8 12
REMARK H PARENT
REMARK Flexibility Score: 80.00
ROOT
ATOM      1  C   UNL     1      -7.881  29.825  26.305  1.00  0.00     0.048 C 
ATOM      2  C   UNL     1      -8.318  30.257  24.924  1.00  0.00    -0.008 C 
ATOM      3  C   UNL     1      -8.056  29.428  23.891  1.00  0.00     0.007 C 
ENDROOT
BRANCH   2   4
ATOM      4  C   UNL     1      -8.959  31.595  24.815  1.00  0.00     0.159 C 
ATOM      5  O   UNL     1      -8.909  32.372  25.808  1.00  0.00    -0.295 OA
BRANCH   4   6
ATOM      6  C   UNL     1      -9.632  32.106  23.576  1.00  0.00     0.091 CG0
ATOM      7  G   UNL     1      -8.729  32.092  22.321  1.00  0.00     0.000 G0
ENDBRANCH   4   6
ENDBRANCH   2   4
BRANCH   3   8
ATOM      8  C   UNL     1      -8.371  29.579  22.452  1.00  0.00    -0.003 C 
ATOM      9  C   UNL     1      -8.687  30.692  21.779  1.00  0.00    -0.020 C 
BRANCH   9  10
ATOM     10  C   UNL     1      -8.725  32.092  22.342  1.00  0.00    -0.010 CG0
ATOM     11  C   UNL     1      -7.294  32.473  22.788  1.00  0.00     0.016 C 
ATOM     12  C   UNL     1      -9.166  33.097  21.253  1.00  0.00     0.016 C 
ATOM     13  G   UNL     1      -9.640  32.121  23.588  1.00  0.00     0.000 G0
ENDBRANCH   9  10
ENDBRANCH   3   8
TORSDOF 0
ENDMDL
MODEL 7
REMARK VINA RESULT:    -4.027      2.348      3.551
REMARK INTER + INTRA:          -3.865
REMARK INTER:                  -4.710
REMARK INTRA:                   0.845
REMARK UNBOUND:                 1.104
REMARK SMILES CC1=CC=CC(C)(C)CC1=O
REMARK SMILES IDX 1 1 2 2 3 3 10 4 11 5 9 6 4 8 5 9 6 10 7 11 8 12
REMARK H PARENT
REMARK Flexibility Score: 80.00
ROOT
ATOM      1  C   UNL     1      -8.251  31.953  21.019  1.00  0.00     0.048 C 
ATOM      2  C   UNL     1      -8.683  31.010  22.117  1.00  0.00    -0.008 C 
ATOM      3  C   UNL     1      -8.591  29.683  21.882  1.00  0.00     0.007 C 
ENDROOT
BRANCH   2   4
ATOM      4  C   UNL     1      -9.226  31.630  23.356  1.00  0.00     0.159 C 
ATOM      5  O   UNL     1      -9.213  32.888  23.456  1.00  0.00    -0.295 OA
BRANCH   4   6
ATOM      6  C   UNL     1      -9.832  30.856  24.488  1.00  0.00     0.091 CG0
ATOM      7  G   UNL     1      -8.943  29.702  25.005  1.00  0.00     0.000 G0
ENDBRANCH   4   6
ENDBRANCH   2   4
BRANCH   3   8
ATOM      8  C   UNL     1      -8.925  28.540  22.762  1.00  0.00    -0.003 C 
ATOM      9  C   UNL     1      -9.051  28.521  24.094  1.00  0.00    -0.020 C 
BRANCH   9  10
ATOM     10  C   UNL     1      -8.942  29.712  25.016  1.00  0.00    -0.010 CG0
ATOM     11  C   UNL     1      -9.484  29.301  26.404  1.00  0.00     0.016 C 
ATOM     12  C   UNL     1      -7.461  30.124  25.188  1.00  0.00     0.016 C 
ATOM     13  G   UNL     1      -9.823  30.862  24.476  1.00  0.00     0.000 G0
ENDBRANCH   9  10
ENDBRANCH   3   8
TORSDOF 0
ENDMDL
MODEL 8
REMARK VINA RESULT:    -3.783     17.339     18.373
REMARK INTER + INTRA:          -3.565
REMARK INTER:                  -4.429
REMARK INTRA:                   0.865
REMARK UNBOUND:                 1.104
REMARK SMILES CC1=CC=CC(C)(C)CC1=O
REMARK SMILES IDX 1 1 2 2 3 3 10 4 11 5 9 6 4 8 5 9 6 10 7 11 8 12
REMARK H PARENT
REMARK Flexibility Score: 80.00
ROOT
ATOM      1  C   UNL     1      -0.532  47.463  20.631  1.00  0.00     0.048 C 
ATOM      2  C   UNL     1       0.951  47.321  20.377  1.00  0.00    -0.008 C 
ATOM      3  C   UNL     1       1.790  47.505  21.419  1.00  0.00     0.007 C 
ENDROOT
BRANCH   2   4
ATOM      4  C   UNL     1       1.365  47.041  18.976  1.00  0.00     0.159 C 
ATOM      5  O   UNL     1       0.469  46.865  18.105  1.00  0.00    -0.295 OA
BRANCH   4   6
ATOM      6  C   UNL     1       2.791  46.994  18.514  1.00  0.00     0.091 CG0
ATOM      7  G   UNL     1       3.696  46.075  19.367  1.00  0.00     0.000 G0
ENDBRANCH   4   6
ENDBRANCH   2   4
BRANCH   3   8
ATOM      8  C   UNL     1       3.267  47.421  21.472  1.00  0.00    -0.003 C 
ATOM      9  C   UNL     1       4.098  46.794  20.631  1.00  0.00    -0.020 C 
BRANCH   9  10
ATOM     10  C   UNL     1       3.704  46.069  19.367  1.00  0.00    -0.010 CG0
ATOM     11  C   UNL     1       4.989  45.776  18.557  1.00  0.00     0.016 C 
ATOM     12  C   UNL     1       3.040  44.714  19.709  1.00  0.00     0.016 C 
ATOM     13  G   UNL     1       2.795  46.981  18.512  1.00  0.00     0.000 G0
ENDBRANCH   9  10
ENDBRANCH   3   8
TORSDOF 0
ENDMDL
MODEL 9
REMARK VINA RESULT:    -3.694      2.926      4.237
REMARK INTER + INTRA:          -3.454
REMARK INTER:                  -4.280
REMARK INTRA:                   0.826
REMARK UNBOUND:                 1.104
REMARK SMILES CC1=CC=CC(C)(C)CC1=O
REMARK SMILES IDX 1 1 2 2 3 3 10 4 11 5 9 6 4 8 5 9 6 10 7 11 8 12
REMARK H PARENT
REMARK Flexibility Score: 80.00
ROOT
ATOM      1  C   UNL     1      -7.998  29.068  22.143  1.00  0.00     0.048 C 
ATOM      2  C   UNL     1      -8.668  29.431  23.448  1.00  0.00    -0.008 C 
ATOM      3  C   UNL     1      -9.378  28.472  24.080  1.00  0.00     0.007 C 
ENDROOT
BRANCH   2   4
ATOM      4  C   UNL     1      -8.529  30.841  23.901  1.00  0.00     0.159 C 
ATOM      5  O   UNL     1      -7.808  31.624  23.224  1.00  0.00    -0.295 OA
BRANCH   4   6
ATOM      6  C   UNL     1      -9.230  31.413  25.097  1.00  0.00     0.091 CG0
ATOM      7  G   UNL     1      -9.052  30.577  26.385  1.00  0.00     0.000 G0
ENDBRANCH   4   6
ENDBRANCH   2   4
BRANCH   3   8
ATOM      8  C   UNL     1     -10.122  28.533  25.360  1.00  0.00    -0.003 C 
ATOM      9  C   UNL     1      -9.980  29.402  26.367  1.00  0.00    -0.020 C 
BRANCH   9  10
ATOM     10  C   UNL     1      -9.049  30.590  26.393  1.00  0.00    -0.010 CG0
ATOM     11  C   UNL     1      -9.458  31.500  27.574  1.00  0.00     0.016 C 
ATOM     12  C   UNL     1      -7.593  30.126  26.633  1.00  0.00     0.016 C 
ATOM     13  G   UNL     1      -9.209  31.399  25.085  1.00  0.00     0.000 G0
ENDBRANCH   9  10
ENDBRANCH   3   8
TORSDOF 0
ENDMDL
