MODEL 1
REMARK VINA RESULT:    -5.833      0.000      0.000
REMARK INTER + INTRA:          -8.537
REMARK INTER:                  -8.220
REMARK INTRA:                  -0.317
REMARK UNBOUND:                -0.317
REMARK SMILES CCCCCCCCC(=O)[O-]
REMARK SMILES IDX 6 1 7 2 8 3 9 4 10 5 11 6 5 7 4 8 3 9 2 10 1 11
REMARK H PARENT
REMARK Flexibility Score: inf
ROOT
ATOM      1  C   UNL     1      93.726 121.520 120.952  1.00  0.00     0.000 C 
ENDROOT
BRANCH   1   2
ATOM      2  C   UNL     1      94.364 121.400 122.344  1.00  0.00     0.006 C 
BRANCH   2   3
ATOM      3  C   UNL     1      95.516 122.394 122.543  1.00  0.00     0.053 C 
BRANCH   3   4
ATOM      4  C   UNL     1      95.227 123.366 123.647  1.00  0.00     0.041 C 
ATOM      5  O   UNL     1      96.065 124.260 123.939  1.00  0.00    -0.550 OA
ATOM      6  O   UNL     1      94.020 123.305 124.331  1.00  0.00    -0.550 OA
ENDBRANCH   3   4
ENDBRANCH   2   3
ENDBRANCH   1   2
BRANCH   1   7
ATOM      7  C   UNL     1      94.704 121.073 119.859  1.00  0.00     0.000 C 
BRANCH   7   8
ATOM      8  C   UNL     1      94.003 120.976 118.499  1.00  0.00    -0.000 C 
BRANCH   8   9
ATOM      9  C   UNL     1      92.680 121.756 118.505  1.00  0.00    -0.000 C 
BRANCH   9  10
ATOM     10  C   UNL     1      92.110 121.962 117.093  1.00  0.00    -0.003 C 
ATOM     11  C   UNL     1      92.653 120.954 116.082  1.00  0.00     0.004 C 
ENDBRANCH   9  10
ENDBRANCH   8   9
ENDBRANCH   7   8
ENDBRANCH   1   7
TORSDOF 7
ENDMDL
MODEL 2
REMARK VINA RESULT:    -5.551      0.894      1.489
REMARK INTER + INTRA:          -8.140
REMARK INTER:                  -7.834
REMARK INTRA:                  -0.306
REMARK UNBOUND:                -0.317
REMARK SMILES CCCCCCCCC(=O)[O-]
REMARK SMILES IDX 6 1 7 2 8 3 9 4 10 5 11 6 5 7 4 8 3 9 2 10 1 11
REMARK H PARENT
REMARK Flexibility Score: inf
ROOT
ATOM      1  C   UNL     1      93.475 122.166 122.013  1.00  0.00     0.000 C 
ENDROOT
BRANCH   1   2
ATOM      2  C   UNL     1      94.814 121.627 122.537  1.00  0.00     0.006 C 
BRANCH   2   3
ATOM      3  C   UNL     1      95.891 122.717 122.611  1.00  0.00     0.053 C 
BRANCH   3   4
ATOM      4  C   UNL     1      95.979 123.320 123.980  1.00  0.00     0.041 C 
ATOM      5  O   UNL     1      95.096 124.126 124.375  1.00  0.00    -0.550 OA
ATOM      6  O   UNL     1      97.019 122.968 124.830  1.00  0.00    -0.550 OA
ENDBRANCH   3   4
ENDBRANCH   2   3
ENDBRANCH   1   2
BRANCH   1   7
ATOM      7  C   UNL     1      93.118 121.531 120.664  1.00  0.00     0.000 C 
BRANCH   7   8
ATOM      8  C   UNL     1      94.352 120.902 120.006  1.00  0.00    -0.000 C 
BRANCH   8   9
ATOM      9  C   UNL     1      94.240 120.945 118.474  1.00  0.00    -0.000 C 
BRANCH   9  10
ATOM     10  C   UNL     1      93.054 121.794 117.992  1.00  0.00    -0.003 C 
ATOM     11  C   UNL     1      92.576 121.404 116.595  1.00  0.00     0.004 C 
ENDBRANCH   9  10
ENDBRANCH   8   9
ENDBRANCH   7   8
ENDBRANCH   1   7
TORSDOF 7
ENDMDL
MODEL 3
REMARK VINA RESULT:    -5.547      3.479      6.138
REMARK INTER + INTRA:          -8.135
REMARK INTER:                  -7.803
REMARK INTRA:                  -0.332
REMARK UNBOUND:                -0.317
REMARK SMILES CCCCCCCCC(=O)[O-]
REMARK SMILES IDX 6 1 7 2 8 3 9 4 10 5 11 6 5 7 4 8 3 9 2 10 1 11
REMARK H PARENT
REMARK Flexibility Score: inf
ROOT
ATOM      1  C   UNL     1      94.962 121.095 120.076  1.00  0.00     0.000 C 
ENDROOT
BRANCH   1   2
ATOM      2  C   UNL     1      94.420 121.098 118.639  1.00  0.00     0.006 C 
BRANCH   2   3
ATOM      3  C   UNL     1      92.965 121.579 118.568  1.00  0.00     0.053 C 
BRANCH   3   4
ATOM      4  C   UNL     1      92.628 122.136 117.218  1.00  0.00     0.041 C 
ATOM      5  O   UNL     1      92.483 123.377 117.064  1.00  0.00    -0.550 OA
ATOM      6  O   UNL     1      92.507 121.288 116.126  1.00  0.00    -0.550 OA
ENDBRANCH   3   4
ENDBRANCH   2   3
ENDBRANCH   1   2
BRANCH   1   7
ATOM      7  C   UNL     1      93.830 121.283 121.092  1.00  0.00     0.000 C 
BRANCH   7   8
ATOM      8  C   UNL     1      94.373 121.773 122.439  1.00  0.00    -0.000 C 
BRANCH   8   9
ATOM      9  C   UNL     1      95.825 122.254 122.305  1.00  0.00    -0.000 C 
BRANCH   9  10
ATOM     10  C   UNL     1      96.446 122.642 123.655  1.00  0.00    -0.003 C 
ATOM     11  C   UNL     1      95.902 123.961 124.200  1.00  0.00     0.004 C 
ENDBRANCH   9  10
ENDBRANCH   8   9
ENDBRANCH   7   8
ENDBRANCH   1   7
TORSDOF 7
ENDMDL
MODEL 4
REMARK VINA RESULT:    -5.064      1.641      2.715
REMARK INTER + INTRA:          -7.454
REMARK INTER:                  -7.186
REMARK INTRA:                  -0.268
REMARK UNBOUND:                -0.317
REMARK SMILES CCCCCCCCC(=O)[O-]
REMARK SMILES IDX 6 1 7 2 8 3 9 4 10 5 11 6 5 7 4 8 3 9 2 10 1 11
REMARK H PARENT
REMARK Flexibility Score: inf
ROOT
ATOM      1  C   UNL     1      95.532 122.452 122.311  1.00  0.00     0.000 C 
ENDROOT
BRANCH   1   2
ATOM      2  C   UNL     1      96.176 122.760 123.671  1.00  0.00     0.006 C 
BRANCH   2   3
ATOM      3  C   UNL     1      95.903 124.198 124.130  1.00  0.00     0.053 C 
BRANCH   3   4
ATOM      4  C   UNL     1      96.883 124.644 125.173  1.00  0.00     0.041 C 
ATOM      5  O   UNL     1      97.393 125.794 125.112  1.00  0.00    -0.550 OA
ATOM      6  O   UNL     1      97.208 123.802 126.228  1.00  0.00    -0.550 OA
ENDBRANCH   3   4
ENDBRANCH   2   3
ENDBRANCH   1   2
BRANCH   1   7
ATOM      7  C   UNL     1      94.086 121.972 122.483  1.00  0.00     0.000 C 
BRANCH   7   8
ATOM      8  C   UNL     1      93.467 121.590 121.133  1.00  0.00    -0.000 C 
BRANCH   8   9
ATOM      9  C   UNL     1      94.494 120.881 120.239  1.00  0.00    -0.000 C 
BRANCH   9  10
ATOM     10  C   UNL     1      94.443 121.366 118.782  1.00  0.00    -0.003 C 
ATOM     11  C   UNL     1      93.041 121.291 118.182  1.00  0.00     0.004 C 
ENDBRANCH   9  10
ENDBRANCH   8   9
ENDBRANCH   7   8
ENDBRANCH   1   7
TORSDOF 7
ENDMDL
MODEL 5
REMARK VINA RESULT:    -5.015      3.253      6.269
REMARK INTER + INTRA:          -7.384
REMARK INTER:                  -7.094
REMARK INTRA:                  -0.290
REMARK UNBOUND:                -0.317
REMARK SMILES CCCCCCCCC(=O)[O-]
REMARK SMILES IDX 6 1 7 2 8 3 9 4 10 5 11 6 5 7 4 8 3 9 2 10 1 11
REMARK H PARENT
REMARK Flexibility Score: inf
ROOT
ATOM      1  C   UNL     1      94.198 121.273 122.000  1.00  0.00     0.000 C 
ENDROOT
BRANCH   1   2
ATOM      2  C   UNL     1      94.210 121.268 120.465  1.00  0.00     0.006 C 
BRANCH   2   3
ATOM      3  C   UNL     1      92.896 121.790 119.871  1.00  0.00     0.053 C 
BRANCH   3   4
ATOM      4  C   UNL     1      92.845 121.606 118.385  1.00  0.00     0.041 C 
ATOM      5  O   UNL     1      93.804 121.057 117.781  1.00  0.00    -0.550 OA
ATOM      6  O   UNL     1      91.724 122.010 117.672  1.00  0.00    -0.550 OA
ENDBRANCH   3   4
ENDBRANCH   2   3
ENDBRANCH   1   2
BRANCH   1   7
ATOM      7  C   UNL     1      93.361 122.438 122.540  1.00  0.00     0.000 C 
BRANCH   7   8
ATOM      8  C   UNL     1      93.765 122.789 123.977  1.00  0.00    -0.000 C 
BRANCH   8   9
ATOM      9  C   UNL     1      94.830 123.896 123.994  1.00  0.00    -0.000 C 
BRANCH   9  10
ATOM     10  C   UNL     1      96.227 123.366 124.351  1.00  0.00    -0.003 C 
ATOM     11  C   UNL     1      96.866 124.118 125.516  1.00  0.00     0.004 C 
ENDBRANCH   9  10
ENDBRANCH   8   9
ENDBRANCH   7   8
ENDBRANCH   1   7
TORSDOF 7
ENDMDL
MODEL 6
REMARK VINA RESULT:    -4.863      3.252      7.177
REMARK INTER + INTRA:          -7.171
REMARK INTER:                  -6.933
REMARK INTRA:                  -0.238
REMARK UNBOUND:                -0.317
REMARK SMILES CCCCCCCCC(=O)[O-]
REMARK SMILES IDX 6 1 7 2 8 3 9 4 10 5 11 6 5 7 4 8 3 9 2 10 1 11
REMARK H PARENT
REMARK Flexibility Score: inf
ROOT
ATOM      1  C   UNL     1      95.021 123.507 123.929  1.00  0.00     0.000 C 
ENDROOT
BRANCH   1   2
ATOM      2  C   UNL     1      95.492 122.554 122.820  1.00  0.00     0.006 C 
BRANCH   2   3
ATOM      3  C   UNL     1      94.461 121.458 122.519  1.00  0.00     0.053 C 
BRANCH   3   4
ATOM      4  C   UNL     1      94.069 121.447 121.072  1.00  0.00     0.041 C 
ATOM      5  O   UNL     1      94.904 121.107 120.193  1.00  0.00    -0.550 OA
ATOM      6  O   UNL     1      92.774 121.780 120.700  1.00  0.00    -0.550 OA
ENDBRANCH   3   4
ENDBRANCH   2   3
ENDBRANCH   1   2
BRANCH   1   7
ATOM      7  C   UNL     1      96.136 124.480 124.328  1.00  0.00     0.000 C 
BRANCH   7   8
ATOM      8  C   UNL     1      96.935 123.944 125.522  1.00  0.00    -0.000 C 
BRANCH   8   9
ATOM      9  C   UNL     1      97.579 125.092 126.313  1.00  0.00    -0.000 C 
BRANCH   9  10
ATOM     10  C   UNL     1      98.003 126.263 125.414  1.00  0.00    -0.003 C 
ATOM     11  C   UNL     1      98.014 127.601 126.151  1.00  0.00     0.004 C 
ENDBRANCH   9  10
ENDBRANCH   8   9
ENDBRANCH   7   8
ENDBRANCH   1   7
TORSDOF 7
ENDMDL
MODEL 7
REMARK VINA RESULT:    -4.745      3.093      6.668
REMARK INTER + INTRA:          -7.005
REMARK INTER:                  -6.792
REMARK INTRA:                  -0.213
REMARK UNBOUND:                -0.317
REMARK SMILES CCCCCCCCC(=O)[O-]
REMARK SMILES IDX 6 1 7 2 8 3 9 4 10 5 11 6 5 7 4 8 3 9 2 10 1 11
REMARK H PARENT
REMARK Flexibility Score: inf
ROOT
ATOM      1  C   UNL     1      94.599 122.351 123.260  1.00  0.00     0.000 C 
ENDROOT
BRANCH   1   2
ATOM      2  C   UNL     1      94.352 121.393 122.086  1.00  0.00     0.006 C 
BRANCH   2   3
ATOM      3  C   UNL     1      93.127 121.797 121.254  1.00  0.00     0.053 C 
BRANCH   3   4
ATOM      4  C   UNL     1      93.317 121.490 119.800  1.00  0.00     0.041 C 
ATOM      5  O   UNL     1      94.345 120.875 119.411  1.00  0.00    -0.550 OA
ATOM      6  O   UNL     1      92.344 121.854 118.879  1.00  0.00    -0.550 OA
ENDBRANCH   3   4
ENDBRANCH   2   3
ENDBRANCH   1   2
BRANCH   1   7
ATOM      7  C   UNL     1      95.929 123.094 123.092  1.00  0.00     0.000 C 
BRANCH   7   8
ATOM      8  C   UNL     1      96.034 124.266 124.076  1.00  0.00    -0.000 C 
BRANCH   8   9
ATOM      9  C   UNL     1      96.562 123.794 125.439  1.00  0.00    -0.000 C 
BRANCH   9  10
ATOM     10  C   UNL     1      97.525 124.805 126.081  1.00  0.00    -0.003 C 
ATOM     11  C   UNL     1      97.730 126.053 125.226  1.00  0.00     0.004 C 
ENDBRANCH   9  10
ENDBRANCH   8   9
ENDBRANCH   7   8
ENDBRANCH   1   7
TORSDOF 7
ENDMDL
MODEL 8
REMARK VINA RESULT:    -4.710      2.479      4.038
REMARK INTER + INTRA:          -6.954
REMARK INTER:                  -6.631
REMARK INTRA:                  -0.323
REMARK UNBOUND:                -0.317
REMARK SMILES CCCCCCCCC(=O)[O-]
REMARK SMILES IDX 6 1 7 2 8 3 9 4 10 5 11 6 5 7 4 8 3 9 2 10 1 11
REMARK H PARENT
REMARK Flexibility Score: inf
ROOT
ATOM      1  C   UNL     1      95.986 123.726 123.510  1.00  0.00     0.000 C 
ENDROOT
BRANCH   1   2
ATOM      2  C   UNL     1      95.870 123.817 125.039  1.00  0.00     0.006 C 
BRANCH   2   3
ATOM      3  C   UNL     1      97.242 123.844 125.725  1.00  0.00     0.053 C 
BRANCH   3   4
ATOM      4  C   UNL     1      97.621 125.228 126.155  1.00  0.00     0.041 C 
ATOM      5  O   UNL     1      97.728 125.505 127.379  1.00  0.00    -0.550 OA
ATOM      6  O   UNL     1      97.888 126.205 125.204  1.00  0.00    -0.550 OA
ENDBRANCH   3   4
ENDBRANCH   2   3
ENDBRANCH   1   2
BRANCH   1   7
ATOM      7  C   UNL     1      96.393 122.315 123.072  1.00  0.00     0.000 C 
BRANCH   7   8
ATOM      8  C   UNL     1      95.555 121.844 121.878  1.00  0.00    -0.000 C 
BRANCH   8   9
ATOM      9  C   UNL     1      94.054 121.909 122.200  1.00  0.00    -0.000 C 
BRANCH   9  10
ATOM     10  C   UNL     1      93.174 121.649 120.967  1.00  0.00    -0.003 C 
ATOM     11  C   UNL     1      93.969 121.126 119.772  1.00  0.00     0.004 C 
ENDBRANCH   9  10
ENDBRANCH   8   9
ENDBRANCH   7   8
ENDBRANCH   1   7
TORSDOF 7
ENDMDL
MODEL 9
REMARK VINA RESULT:    -4.608      3.810      6.017
REMARK INTER + INTRA:          -6.812
REMARK INTER:                  -6.593
REMARK INTRA:                  -0.219
REMARK UNBOUND:                -0.317
REMARK SMILES CCCCCCCCC(=O)[O-]
REMARK SMILES IDX 6 1 7 2 8 3 9 4 10 5 11 6 5 7 4 8 3 9 2 10 1 11
REMARK H PARENT
REMARK Flexibility Score: inf
ROOT
ATOM      1  C   UNL     1      97.130 124.106 125.622  1.00  0.00     0.000 C 
ENDROOT
BRANCH   1   2
ATOM      2  C   UNL     1      97.944 125.254 126.236  1.00  0.00     0.006 C 
BRANCH   2   3
ATOM      3  C   UNL     1      97.954 126.502 125.343  1.00  0.00     0.053 C 
BRANCH   3   4
ATOM      4  C   UNL     1      98.391 127.721 126.096  1.00  0.00     0.041 C 
ATOM      5  O   UNL     1      99.502 128.258 125.842  1.00  0.00    -0.550 OA
ATOM      6  O   UNL     1      97.559 128.283 127.055  1.00  0.00    -0.550 OA
ENDBRANCH   3   4
ENDBRANCH   2   3
ENDBRANCH   1   2
BRANCH   1   7
ATOM      7  C   UNL     1      96.370 124.574 124.375  1.00  0.00     0.000 C 
BRANCH   7   8
ATOM      8  C   UNL     1      95.230 123.610 124.029  1.00  0.00    -0.000 C 
BRANCH   8   9
ATOM      9  C   UNL     1      95.608 122.715 122.839  1.00  0.00    -0.000 C 
BRANCH   9  10
ATOM     10  C   UNL     1      94.628 121.548 122.643  1.00  0.00    -0.003 C 
ATOM     11  C   UNL     1      93.452 121.909 121.737  1.00  0.00     0.004 C 
ENDBRANCH   9  10
ENDBRANCH   8   9
ENDBRANCH   7   8
ENDBRANCH   1   7
TORSDOF 7
ENDMDL
