MODEL 1
REMARK VINA RESULT:    -6.853      0.000      0.000
REMARK INTER + INTRA:          -8.998
REMARK INTER:                  -8.656
REMARK INTRA:                  -0.342
REMARK UNBOUND:                -0.342
REMARK SMILES O=C(C=Cc1ccc(O)cc1)c1ccc(O)cc1O
REMARK SMILES IDX 4 1 3 2 5 3 6 4 7 5 8 6 11 7 10 8 9 9 2 11 1 12 12 13 18 14
REMARK SMILES IDX 13 15 17 16 14 17 15 18 19 19 16 21
REMARK H PARENT 9 10 19 20 16 22
REMARK Flexibility Score: inf
ROOT
ATOM      1  C   UNL     1       2.714  -4.358  10.666  1.00  0.00     0.012 C 
ATOM      2  C   UNL     1       2.489  -3.036  10.596  1.00  0.00     0.053 C 
ENDROOT
BRANCH   1   3
ATOM      3  C   UNL     1       2.528  -5.318   9.559  1.00  0.00    -0.025 A 
ATOM      4  C   UNL     1       1.248  -5.772   9.194  1.00  0.00     0.012 A 
ATOM      5  C   UNL     1       1.098  -6.718   8.176  1.00  0.00     0.047 A 
ATOM      6  C   UNL     1       2.224  -7.237   7.527  1.00  0.00     0.115 A 
ATOM      7  C   UNL     1       3.655  -5.863   8.926  1.00  0.00     0.012 A 
ATOM      8  C   UNL     1       3.504  -6.809   7.907  1.00  0.00     0.047 A 
BRANCH   6   9
ATOM      9  O   UNL     1       2.061  -8.177   6.512  1.00  0.00    -0.508 OA
ATOM     10  H   UNL     1       2.843  -8.488   5.949  1.00  0.00     0.293 HD
ENDBRANCH   6   9
ENDBRANCH   1   3
BRANCH   2  11
ATOM     11  C   UNL     1       2.196  -2.281   9.351  1.00  0.00     0.189 C 
ATOM     12  O   UNL     1       2.580  -2.729   8.237  1.00  0.00    -0.289 OA
BRANCH  11  13
ATOM     13  C   UNL     1       1.485  -0.982   9.395  1.00  0.00     0.064 A 
ATOM     14  C   UNL     1       2.145   0.206   9.014  1.00  0.00     0.130 A 
ATOM     15  C   UNL     1       0.151  -0.908   9.839  1.00  0.00     0.020 A 
ATOM     16  C   UNL     1       1.470   1.434   9.073  1.00  0.00     0.093 A 
ATOM     17  C   UNL     1      -0.514   0.319   9.892  1.00  0.00     0.047 A 
ATOM     18  C   UNL     1       0.144   1.493   9.509  1.00  0.00     0.119 A 
BRANCH  14  19
ATOM     19  O   UNL     1       3.464   0.164   8.560  1.00  0.00    -0.507 OA
ATOM     20  H   UNL     1       3.687  -0.009   7.588  1.00  0.00     0.293 HD
ENDBRANCH  14  19
BRANCH  18  21
ATOM     21  O   UNL     1      -0.511   2.722   9.559  1.00  0.00    -0.508 OA
ATOM     22  H   UNL     1      -0.004   3.586   9.706  1.00  0.00     0.293 HD
ENDBRANCH  18  21
ENDBRANCH  11  13
ENDBRANCH   2  11
TORSDOF 6
ENDMDL
MODEL 2
REMARK VINA RESULT:    -6.825      4.666      8.721
REMARK INTER + INTRA:          -8.962
REMARK INTER:                  -8.653
REMARK INTRA:                  -0.310
REMARK UNBOUND:                -0.342
REMARK SMILES O=C(C=Cc1ccc(O)cc1)c1ccc(O)cc1O
REMARK SMILES IDX 4 1 3 2 5 3 6 4 7 5 8 6 11 7 10 8 9 9 2 11 1 12 12 13 18 14
REMARK SMILES IDX 13 15 17 16 14 17 15 18 19 19 16 21
REMARK H PARENT 9 10 19 20 16 22
REMARK Flexibility Score: inf
ROOT
ATOM      1  C   UNL     1       3.716  -6.419   7.566  1.00  0.00     0.012 C 
ATOM      2  C   UNL     1       3.933  -7.532   6.845  1.00  0.00     0.053 C 
ENDROOT
BRANCH   1   3
ATOM      3  C   UNL     1       2.611  -6.223   8.525  1.00  0.00    -0.025 A 
ATOM      4  C   UNL     1       1.267  -6.287   8.113  1.00  0.00     0.012 A 
ATOM      5  C   UNL     1       0.237  -6.050   9.028  1.00  0.00     0.047 A 
ATOM      6  C   UNL     1       0.535  -5.726  10.356  1.00  0.00     0.115 A 
ATOM      7  C   UNL     1       2.905  -5.869   9.850  1.00  0.00     0.012 A 
ATOM      8  C   UNL     1       1.873  -5.632  10.764  1.00  0.00     0.047 A 
BRANCH   6   9
ATOM      9  O   UNL     1      -0.500  -5.495  11.257  1.00  0.00    -0.508 OA
ATOM     10  H   UNL     1      -1.185  -6.210  11.473  1.00  0.00     0.293 HD
ENDBRANCH   6   9
ENDBRANCH   1   3
BRANCH   2  11
ATOM     11  C   UNL     1       3.218  -8.821   7.021  1.00  0.00     0.189 C 
ATOM     12  O   UNL     1       3.123  -9.338   8.167  1.00  0.00    -0.289 OA
BRANCH  11  13
ATOM     13  C   UNL     1       2.638  -9.538   5.861  1.00  0.00     0.064 A 
ATOM     14  C   UNL     1       2.048 -10.808   6.030  1.00  0.00     0.130 A 
ATOM     15  C   UNL     1       2.687  -8.975   4.572  1.00  0.00     0.020 A 
ATOM     16  C   UNL     1       1.515 -11.487   4.924  1.00  0.00     0.093 A 
ATOM     17  C   UNL     1       2.152  -9.657   3.477  1.00  0.00     0.047 A 
ATOM     18  C   UNL     1       1.563 -10.914   3.651  1.00  0.00     0.119 A 
BRANCH  14  19
ATOM     19  O   UNL     1       1.975 -11.389   7.297  1.00  0.00    -0.507 OA
ATOM     20  H   UNL     1       2.658 -12.069   7.610  1.00  0.00     0.293 HD
ENDBRANCH  14  19
BRANCH  18  21
ATOM     21  O   UNL     1       1.027 -11.603   2.565  1.00  0.00    -0.508 OA
ATOM     22  H   UNL     1       0.549 -12.488   2.683  1.00  0.00     0.293 HD
ENDBRANCH  18  21
ENDBRANCH  11  13
ENDBRANCH   2  11
TORSDOF 6
ENDMDL
MODEL 3
REMARK VINA RESULT:    -6.195      1.721      7.031
REMARK INTER + INTRA:          -8.167
REMARK INTER:                  -7.524
REMARK INTRA:                  -0.643
REMARK UNBOUND:                -0.342
REMARK SMILES O=C(C=Cc1ccc(O)cc1)c1ccc(O)cc1O
REMARK SMILES IDX 4 1 3 2 5 3 6 4 7 5 8 6 11 7 10 8 9 9 2 11 1 12 12 13 18 14
REMARK SMILES IDX 13 15 17 16 14 17 15 18 19 19 16 21
REMARK H PARENT 9 10 19 20 16 22
REMARK Flexibility Score: inf
ROOT
ATOM      1  C   UNL     1       2.819  -3.533  10.871  1.00  0.00     0.012 C 
ATOM      2  C   UNL     1       2.645  -4.850  10.669  1.00  0.00     0.053 C 
ENDROOT
BRANCH   1   3
ATOM      3  C   UNL     1       2.390  -2.462   9.949  1.00  0.00    -0.025 A 
ATOM      4  C   UNL     1       2.786  -2.460   8.599  1.00  0.00     0.012 A 
ATOM      5  C   UNL     1       2.409  -1.411   7.755  1.00  0.00     0.047 A 
ATOM      6  C   UNL     1       1.653  -0.344   8.253  1.00  0.00     0.115 A 
ATOM      7  C   UNL     1       1.658  -1.377  10.450  1.00  0.00     0.012 A 
ATOM      8  C   UNL     1       1.280  -0.328   9.605  1.00  0.00     0.047 A 
BRANCH   6   9
ATOM      9  O   UNL     1       1.282   0.693   7.402  1.00  0.00    -0.508 OA
ATOM     10  H   UNL     1       0.776   1.502   7.742  1.00  0.00     0.293 HD
ENDBRANCH   6   9
ENDBRANCH   1   3
BRANCH   2  11
ATOM     11  C   UNL     1       1.831  -5.451   9.583  1.00  0.00     0.189 C 
ATOM     12  O   UNL     1       0.582  -5.282   9.563  1.00  0.00    -0.289 OA
BRANCH  11  13
ATOM     13  C   UNL     1       2.458  -6.284   8.529  1.00  0.00     0.064 A 
ATOM     14  C   UNL     1       1.711  -7.283   7.871  1.00  0.00     0.130 A 
ATOM     15  C   UNL     1       3.812  -6.108   8.187  1.00  0.00     0.020 A 
ATOM     16  C   UNL     1       2.316  -8.078   6.886  1.00  0.00     0.093 A 
ATOM     17  C   UNL     1       4.406  -6.903   7.203  1.00  0.00     0.047 A 
ATOM     18  C   UNL     1       3.658  -7.889   6.549  1.00  0.00     0.119 A 
BRANCH  14  19
ATOM     19  O   UNL     1       0.364  -7.476   8.182  1.00  0.00    -0.507 OA
ATOM     20  H   UNL     1      -0.307  -6.719   8.131  1.00  0.00     0.293 HD
ENDBRANCH  14  19
BRANCH  18  21
ATOM     21  O   UNL     1       4.241  -8.687   5.567  1.00  0.00    -0.508 OA
ATOM     22  H   UNL     1       3.683  -9.290   4.976  1.00  0.00     0.293 HD
ENDBRANCH  18  21
ENDBRANCH  11  13
ENDBRANCH   2  11
TORSDOF 6
ENDMDL
MODEL 4
REMARK VINA RESULT:    -6.153      4.727      7.913
REMARK INTER + INTRA:          -8.113
REMARK INTER:                  -7.222
REMARK INTRA:                  -0.891
REMARK UNBOUND:                -0.342
REMARK SMILES O=C(C=Cc1ccc(O)cc1)c1ccc(O)cc1O
REMARK SMILES IDX 4 1 3 2 5 3 6 4 7 5 8 6 11 7 10 8 9 9 2 11 1 12 12 13 18 14
REMARK SMILES IDX 13 15 17 16 14 17 15 18 19 19 16 21
REMARK H PARENT 9 10 19 20 16 22
REMARK Flexibility Score: inf
ROOT
ATOM      1  C   UNL     1       1.304 -10.365   4.124  1.00  0.00     0.012 C 
ATOM      2  C   UNL     1       0.994 -10.108   5.405  1.00  0.00     0.053 C 
ENDROOT
BRANCH   1   3
ATOM      3  C   UNL     1       2.660 -10.299   3.541  1.00  0.00    -0.025 A 
ATOM      4  C   UNL     1       3.346  -9.075   3.428  1.00  0.00     0.012 A 
ATOM      5  C   UNL     1       4.608  -9.028   2.829  1.00  0.00     0.047 A 
ATOM      6  C   UNL     1       5.189 -10.193   2.318  1.00  0.00     0.115 A 
ATOM      7  C   UNL     1       3.233 -11.458   3.000  1.00  0.00     0.012 A 
ATOM      8  C   UNL     1       4.497 -11.409   2.402  1.00  0.00     0.047 A 
BRANCH   6   9
ATOM      9  O   UNL     1       6.448 -10.132   1.726  1.00  0.00    -0.508 OA
ATOM     10  H   UNL     1       6.574 -10.280   0.732  1.00  0.00     0.293 HD
ENDBRANCH   6   9
ENDBRANCH   1   3
BRANCH   2  11
ATOM     11  C   UNL     1       1.975  -9.894   6.498  1.00  0.00     0.189 C 
ATOM     12  O   UNL     1       2.618 -10.872   6.968  1.00  0.00    -0.289 OA
BRANCH  11  13
ATOM     13  C   UNL     1       2.192  -8.549   7.080  1.00  0.00     0.064 A 
ATOM     14  C   UNL     1       3.471  -7.953   7.045  1.00  0.00     0.130 A 
ATOM     15  C   UNL     1       1.133  -7.855   7.696  1.00  0.00     0.020 A 
ATOM     16  C   UNL     1       3.671  -6.686   7.611  1.00  0.00     0.093 A 
ATOM     17  C   UNL     1       1.341  -6.592   8.256  1.00  0.00     0.047 A 
ATOM     18  C   UNL     1       2.610  -6.004   8.214  1.00  0.00     0.119 A 
BRANCH  14  19
ATOM     19  O   UNL     1       4.538  -8.612   6.433  1.00  0.00    -0.507 OA
ATOM     20  H   UNL     1       5.300  -9.005   6.972  1.00  0.00     0.293 HD
ENDBRANCH  14  19
BRANCH  18  21
ATOM     21  O   UNL     1       2.828  -4.745   8.769  1.00  0.00    -0.508 OA
ATOM     22  H   UNL     1       3.758  -4.347   8.830  1.00  0.00     0.293 HD
ENDBRANCH  18  21
ENDBRANCH  11  13
ENDBRANCH   2  11
TORSDOF 6
ENDMDL
MODEL 5
REMARK VINA RESULT:    -5.634     14.805     16.659
REMARK INTER + INTRA:          -7.457
REMARK INTER:                  -6.483
REMARK INTRA:                  -0.974
REMARK UNBOUND:                -0.342
REMARK SMILES O=C(C=Cc1ccc(O)cc1)c1ccc(O)cc1O
REMARK SMILES IDX 4 1 3 2 5 3 6 4 7 5 8 6 11 7 10 8 9 9 2 11 1 12 12 13 18 14
REMARK SMILES IDX 13 15 17 16 14 17 15 18 19 19 16 21
REMARK H PARENT 9 10 19 20 16 22
REMARK Flexibility Score: inf
ROOT
ATOM      1  C   UNL     1     -12.117  -8.790   4.199  1.00  0.00     0.012 C 
ATOM      2  C   UNL     1     -11.534  -8.383   3.059  1.00  0.00     0.053 C 
ENDROOT
BRANCH   1   3
ATOM      3  C   UNL     1     -11.651  -9.906   5.047  1.00  0.00    -0.025 A 
ATOM      4  C   UNL     1     -12.015 -11.236   4.767  1.00  0.00     0.012 A 
ATOM      5  C   UNL     1     -11.603 -12.272   5.610  1.00  0.00     0.047 A 
ATOM      6  C   UNL     1     -10.846 -11.992   6.752  1.00  0.00     0.115 A 
ATOM      7  C   UNL     1     -10.917  -9.627   6.209  1.00  0.00     0.012 A 
ATOM      8  C   UNL     1     -10.505 -10.665   7.051  1.00  0.00     0.047 A 
BRANCH   6   9
ATOM      9  O   UNL     1     -10.440 -13.033   7.582  1.00  0.00    -0.508 OA
ATOM     10  H   UNL     1     -10.803 -13.133   8.523  1.00  0.00     0.293 HD
ENDBRANCH   6   9
ENDBRANCH   1   3
BRANCH   2  11
ATOM     11  C   UNL     1     -10.223  -8.856   2.550  1.00  0.00     0.189 C 
ATOM     12  O   UNL     1      -9.160  -8.292   2.926  1.00  0.00    -0.289 OA
BRANCH  11  13
ATOM     13  C   UNL     1     -10.137  -9.966   1.572  1.00  0.00     0.064 A 
ATOM     14  C   UNL     1     -10.447  -9.745   0.213  1.00  0.00     0.130 A 
ATOM     15  C   UNL     1      -9.771 -11.260   1.986  1.00  0.00     0.020 A 
ATOM     16  C   UNL     1     -10.379 -10.804  -0.704  1.00  0.00     0.093 A 
ATOM     17  C   UNL     1      -9.704 -12.309   1.065  1.00  0.00     0.047 A 
ATOM     18  C   UNL     1     -10.007 -12.083  -0.282  1.00  0.00     0.119 A 
BRANCH  14  19
ATOM     19  O   UNL     1     -10.805  -8.470  -0.230  1.00  0.00    -0.507 OA
ATOM     20  H   UNL     1     -11.258  -7.803   0.382  1.00  0.00     0.293 HD
ENDBRANCH  14  19
BRANCH  18  21
ATOM     21  O   UNL     1      -9.943 -13.122  -1.208  1.00  0.00    -0.508 OA
ATOM     22  H   UNL     1      -9.246 -13.135  -1.942  1.00  0.00     0.293 HD
ENDBRANCH  18  21
ENDBRANCH  11  13
ENDBRANCH   2  11
TORSDOF 6
ENDMDL
MODEL 6
REMARK VINA RESULT:    -5.578      5.543      8.800
REMARK INTER + INTRA:          -7.387
REMARK INTER:                  -6.298
REMARK INTRA:                  -1.089
REMARK UNBOUND:                -0.342
REMARK SMILES O=C(C=Cc1ccc(O)cc1)c1ccc(O)cc1O
REMARK SMILES IDX 4 1 3 2 5 3 6 4 7 5 8 6 11 7 10 8 9 9 2 11 1 12 12 13 18 14
REMARK SMILES IDX 13 15 17 16 14 17 15 18 19 19 16 21
REMARK H PARENT 9 10 19 20 16 22
REMARK Flexibility Score: inf
ROOT
ATOM      1  C   UNL     1      -3.722   2.086  12.428  1.00  0.00     0.012 C 
ATOM      2  C   UNL     1      -4.689   1.208  12.114  1.00  0.00     0.053 C 
ENDROOT
BRANCH   1   3
ATOM      3  C   UNL     1      -2.442   2.243  11.707  1.00  0.00    -0.025 A 
ATOM      4  C   UNL     1      -1.344   1.408  11.981  1.00  0.00     0.012 A 
ATOM      5  C   UNL     1      -0.127   1.605  11.323  1.00  0.00     0.047 A 
ATOM      6  C   UNL     1       0.015   2.650  10.403  1.00  0.00     0.115 A 
ATOM      7  C   UNL     1      -2.287   3.307  10.807  1.00  0.00     0.012 A 
ATOM      8  C   UNL     1      -1.068   3.503  10.149  1.00  0.00     0.047 A 
BRANCH   6   9
ATOM      9  O   UNL     1       1.232   2.834   9.753  1.00  0.00    -0.508 OA
ATOM     10  H   UNL     1       1.916   3.501  10.088  1.00  0.00     0.293 HD
ENDBRANCH   6   9
ENDBRANCH   1   3
BRANCH   2  11
ATOM     11  C   UNL     1      -4.725   0.374  10.887  1.00  0.00     0.189 C 
ATOM     12  O   UNL     1      -4.927   0.912   9.765  1.00  0.00    -0.289 OA
BRANCH  11  13
ATOM     13  C   UNL     1      -4.561  -1.097  10.957  1.00  0.00     0.064 A 
ATOM     14  C   UNL     1      -5.539  -1.951  10.405  1.00  0.00     0.130 A 
ATOM     15  C   UNL     1      -3.442  -1.665  11.595  1.00  0.00     0.020 A 
ATOM     16  C   UNL     1      -5.385  -3.342  10.489  1.00  0.00     0.093 A 
ATOM     17  C   UNL     1      -3.295  -3.052  11.672  1.00  0.00     0.047 A 
ATOM     18  C   UNL     1      -4.266  -3.894  11.118  1.00  0.00     0.119 A 
BRANCH  14  19
ATOM     19  O   UNL     1      -6.656  -1.418   9.758  1.00  0.00    -0.507 OA
ATOM     20  H   UNL     1      -7.271  -1.995   9.198  1.00  0.00     0.293 HD
ENDBRANCH  14  19
BRANCH  18  21
ATOM     21  O   UNL     1      -4.129  -5.279  11.191  1.00  0.00    -0.508 OA
ATOM     22  H   UNL     1      -3.519  -5.784  10.559  1.00  0.00     0.293 HD
ENDBRANCH  18  21
ENDBRANCH  11  13
ENDBRANCH   2  11
TORSDOF 6
ENDMDL
MODEL 7
REMARK VINA RESULT:    -5.556      3.802      6.968
REMARK INTER + INTRA:          -7.359
REMARK INTER:                  -6.249
REMARK INTRA:                  -1.111
REMARK UNBOUND:                -0.342
REMARK SMILES O=C(C=Cc1ccc(O)cc1)c1ccc(O)cc1O
REMARK SMILES IDX 4 1 3 2 5 3 6 4 7 5 8 6 11 7 10 8 9 9 2 11 1 12 12 13 18 14
REMARK SMILES IDX 13 15 17 16 14 17 15 18 19 19 16 21
REMARK H PARENT 9 10 19 20 16 22
REMARK Flexibility Score: inf
ROOT
ATOM      1  C   UNL     1      -1.528   1.613  12.526  1.00  0.00     0.012 C 
ATOM      2  C   UNL     1      -0.514   2.262  11.930  1.00  0.00     0.053 C 
ENDROOT
BRANCH   1   3
ATOM      3  C   UNL     1      -2.671   0.988  11.831  1.00  0.00    -0.025 A 
ATOM      4  C   UNL     1      -3.737   1.762  11.338  1.00  0.00     0.012 A 
ATOM      5  C   UNL     1      -4.832   1.146  10.727  1.00  0.00     0.047 A 
ATOM      6  C   UNL     1      -4.887  -0.248  10.620  1.00  0.00     0.115 A 
ATOM      7  C   UNL     1      -2.743  -0.410  11.748  1.00  0.00     0.012 A 
ATOM      8  C   UNL     1      -3.840  -1.026  11.135  1.00  0.00     0.047 A 
BRANCH   6   9
ATOM      9  O   UNL     1      -5.982  -0.850  10.006  1.00  0.00    -0.508 OA
ATOM     10  H   UNL     1      -5.866  -1.565   9.299  1.00  0.00     0.293 HD
ENDBRANCH   6   9
ENDBRANCH   1   3
BRANCH   2  11
ATOM     11  C   UNL     1      -0.266   2.304  10.467  1.00  0.00     0.189 C 
ATOM     12  O   UNL     1      -0.855   3.159   9.752  1.00  0.00    -0.289 OA
BRANCH  11  13
ATOM     13  C   UNL     1       0.642   1.330   9.817  1.00  0.00     0.064 A 
ATOM     14  C   UNL     1       1.693   1.777   8.988  1.00  0.00     0.130 A 
ATOM     15  C   UNL     1       0.457  -0.054   9.997  1.00  0.00     0.020 A 
ATOM     16  C   UNL     1       2.538   0.848   8.364  1.00  0.00     0.093 A 
ATOM     17  C   UNL     1       1.306  -0.972   9.373  1.00  0.00     0.047 A 
ATOM     18  C   UNL     1       2.349  -0.523   8.556  1.00  0.00     0.119 A 
BRANCH  14  19
ATOM     19  O   UNL     1       1.908   3.143   8.797  1.00  0.00    -0.507 OA
ATOM     20  H   UNL     1       2.105   3.527   7.881  1.00  0.00     0.293 HD
ENDBRANCH  14  19
BRANCH  18  21
ATOM     21  O   UNL     1       3.200  -1.430   7.929  1.00  0.00    -0.508 OA
ATOM     22  H   UNL     1       3.726  -2.115   8.458  1.00  0.00     0.293 HD
ENDBRANCH  18  21
ENDBRANCH  11  13
ENDBRANCH   2  11
TORSDOF 6
ENDMDL
MODEL 8
REMARK VINA RESULT:    -5.519      4.883      6.511
REMARK INTER + INTRA:          -7.313
REMARK INTER:                  -6.275
REMARK INTRA:                  -1.037
REMARK UNBOUND:                -0.342
REMARK SMILES O=C(C=Cc1ccc(O)cc1)c1ccc(O)cc1O
REMARK SMILES IDX 4 1 3 2 5 3 6 4 7 5 8 6 11 7 10 8 9 9 2 11 1 12 12 13 18 14
REMARK SMILES IDX 13 15 17 16 14 17 15 18 19 19 16 21
REMARK H PARENT 9 10 19 20 16 22
REMARK Flexibility Score: inf
ROOT
ATOM      1  C   UNL     1      -4.515  -0.657  12.707  1.00  0.00     0.012 C 
ATOM      2  C   UNL     1      -4.405   0.539  12.106  1.00  0.00     0.053 C 
ENDROOT
BRANCH   1   3
ATOM      3  C   UNL     1      -4.420  -1.967  12.032  1.00  0.00    -0.025 A 
ATOM      4  C   UNL     1      -5.505  -2.494  11.307  1.00  0.00     0.012 A 
ATOM      5  C   UNL     1      -5.411  -3.757  10.716  1.00  0.00     0.047 A 
ATOM      6  C   UNL     1      -4.246  -4.517  10.860  1.00  0.00     0.115 A 
ATOM      7  C   UNL     1      -3.265  -2.744  12.198  1.00  0.00     0.012 A 
ATOM      8  C   UNL     1      -3.173  -4.009  11.606  1.00  0.00     0.047 A 
BRANCH   6   9
ATOM      9  O   UNL     1      -4.164  -5.773  10.264  1.00  0.00    -0.508 OA
ATOM     10  H   UNL     1      -3.664  -6.536  10.704  1.00  0.00     0.293 HD
ENDBRANCH   6   9
ENDBRANCH   1   3
BRANCH   2  11
ATOM     11  C   UNL     1      -3.986   0.755  10.698  1.00  0.00     0.189 C 
ATOM     12  O   UNL     1      -4.833   0.672   9.768  1.00  0.00    -0.289 OA
BRANCH  11  13
ATOM     13  C   UNL     1      -2.571   1.035  10.356  1.00  0.00     0.064 A 
ATOM     14  C   UNL     1      -2.142   2.358  10.123  1.00  0.00     0.130 A 
ATOM     15  C   UNL     1      -1.642  -0.015  10.234  1.00  0.00     0.020 A 
ATOM     16  C   UNL     1      -0.805   2.613   9.784  1.00  0.00     0.093 A 
ATOM     17  C   UNL     1      -0.312   0.248   9.898  1.00  0.00     0.047 A 
ATOM     18  C   UNL     1       0.110   1.563   9.673  1.00  0.00     0.119 A 
BRANCH  14  19
ATOM     19  O   UNL     1      -3.038   3.422  10.244  1.00  0.00    -0.507 OA
ATOM     20  H   UNL     1      -3.053   4.012  11.067  1.00  0.00     0.293 HD
ENDBRANCH  14  19
BRANCH  18  21
ATOM     21  O   UNL     1       1.434   1.836   9.337  1.00  0.00    -0.508 OA
ATOM     22  H   UNL     1       2.043   1.120   8.959  1.00  0.00     0.293 HD
ENDBRANCH  18  21
ENDBRANCH  11  13
ENDBRANCH   2  11
TORSDOF 6
ENDMDL
MODEL 9
REMARK VINA RESULT:    -5.297      8.361     10.104
REMARK INTER + INTRA:          -7.033
REMARK INTER:                  -5.814
REMARK INTRA:                  -1.219
REMARK UNBOUND:                -0.342
REMARK SMILES O=C(C=Cc1ccc(O)cc1)c1ccc(O)cc1O
REMARK SMILES IDX 4 1 3 2 5 3 6 4 7 5 8 6 11 7 10 8 9 9 2 11 1 12 12 13 18 14
REMARK SMILES IDX 13 15 17 16 14 17 15 18 19 19 16 21
REMARK H PARENT 9 10 19 20 16 22
REMARK Flexibility Score: inf
ROOT
ATOM      1  C   UNL     1      -7.181  -6.443  12.313  1.00  0.00     0.012 C 
ATOM      2  C   UNL     1      -6.065  -6.333  11.573  1.00  0.00     0.053 C 
ENDROOT
BRANCH   1   3
ATOM      3  C   UNL     1      -8.281  -5.458  12.354  1.00  0.00    -0.025 A 
ATOM      4  C   UNL     1      -9.439  -5.624  11.573  1.00  0.00     0.012 A 
ATOM      5  C   UNL     1     -10.446  -4.655  11.590  1.00  0.00     0.047 A 
ATOM      6  C   UNL     1     -10.300  -3.501  12.367  1.00  0.00     0.115 A 
ATOM      7  C   UNL     1      -8.125  -4.286  13.108  1.00  0.00     0.012 A 
ATOM      8  C   UNL     1      -9.135  -3.317  13.125  1.00  0.00     0.047 A 
BRANCH   6   9
ATOM      9  O   UNL     1     -11.312  -2.545  12.377  1.00  0.00    -0.508 OA
ATOM     10  H   UNL     1     -12.207  -2.725  12.816  1.00  0.00     0.293 HD
ENDBRANCH   6   9
ENDBRANCH   1   3
BRANCH   2  11
ATOM     11  C   UNL     1      -5.824  -5.303  10.532  1.00  0.00     0.189 C 
ATOM     12  O   UNL     1      -6.232  -5.490   9.354  1.00  0.00    -0.289 OA
BRANCH  11  13
ATOM     13  C   UNL     1      -5.076  -4.062  10.843  1.00  0.00     0.064 A 
ATOM     14  C   UNL     1      -5.662  -2.799  10.616  1.00  0.00     0.130 A 
ATOM     15  C   UNL     1      -3.763  -4.124  11.346  1.00  0.00     0.020 A 
ATOM     16  C   UNL     1      -4.941  -1.629  10.898  1.00  0.00     0.093 A 
ATOM     17  C   UNL     1      -3.053  -2.953  11.627  1.00  0.00     0.047 A 
ATOM     18  C   UNL     1      -3.641  -1.703  11.404  1.00  0.00     0.119 A 
BRANCH  14  19
ATOM     19  O   UNL     1      -6.966  -2.705  10.126  1.00  0.00    -0.507 OA
ATOM     20  H   UNL     1      -7.158  -2.642   9.133  1.00  0.00     0.293 HD
ENDBRANCH  14  19
BRANCH  18  21
ATOM     21  O   UNL     1      -2.942  -0.531  11.680  1.00  0.00    -0.508 OA
ATOM     22  H   UNL     1      -2.139  -0.526  12.297  1.00  0.00     0.293 HD
ENDBRANCH  18  21
ENDBRANCH  11  13
ENDBRANCH   2  11
TORSDOF 6
ENDMDL
