MODEL 1
REMARK VINA RESULT:    -5.044      0.000      0.000
REMARK INTER + INTRA:          -5.191
REMARK INTER:                  -5.191
REMARK INTRA:                   0.000
REMARK UNBOUND:                 0.000
REMARK SMILES C=C1[C@H]2C[C@]3(C[C@@H]1O)[C@H](C)CC[C@@H]3C2(C)C
REMARK SMILES IDX 10 1 9 2 11 3 12 4 13 5 5 6 4 7 3 8 14 9 15 10 16 11 2 12
REMARK SMILES IDX 1 13 7 14 6 15 8 16
REMARK H PARENT 8 17
REMARK Flexibility Score: inf
ROOT
ATOM      1  C   UNL     1     140.650 135.177 150.754  1.00  0.00     0.008 C 
ATOM      2  C   UNL     1     140.333 135.436 149.274  1.00  0.00    -0.008 C 
ATOM      3  C   UNL     1     139.594 134.277 148.619  1.00  0.00     0.004 C 
ATOM      4  C   UNL     1     139.785 134.483 147.123  1.00  0.00     0.005 C 
ATOM      5  C   UNL     1     141.126 135.232 146.948  1.00  0.00     0.002 C 
ATOM      6  C   UNL     1     141.557 135.689 148.365  1.00  0.00    -0.020 C 
ATOM      7  C   UNL     1     142.785 134.833 148.696  1.00  0.00     0.016 C 
ATOM      8  C   UNL     1     143.497 134.806 147.358  1.00  0.00     0.023 C 
ATOM      9  C   UNL     1     142.356 134.448 146.361  1.00  0.00    -0.025 C 
ATOM     10  C   UNL     1     142.666 134.892 144.911  1.00  0.00     0.012 C 
ATOM     11  C   UNL     1     142.177 132.904 146.334  1.00  0.00     0.012 C 
ATOM     12  C   UNL     1     144.070 136.205 147.124  1.00  0.00    -0.045 C 
ATOM     13  C   UNL     1     145.272 136.343 146.542  1.00  0.00     0.011 C 
ATOM     14  C   UNL     1     143.260 137.454 147.478  1.00  0.00     0.140 C 
ATOM     15  C   UNL     1     142.009 137.174 148.369  1.00  0.00     0.044 C 
ENDROOT
BRANCH  14  16
ATOM     16  O   UNL     1     142.868 138.093 146.290  1.00  0.00    -0.389 OA
ATOM     17  H   UNL     1     141.958 137.759 146.069  1.00  0.00     0.211 HD
ENDBRANCH  14  16
TORSDOF 1
ENDMDL
MODEL 2
REMARK VINA RESULT:    -4.941      9.130     10.713
REMARK INTER + INTRA:          -5.086
REMARK INTER:                  -5.086
REMARK INTRA:                   0.000
REMARK UNBOUND:                 0.000
REMARK SMILES C=C1[C@H]2C[C@]3(C[C@@H]1O)[C@H](C)CC[C@@H]3C2(C)C
REMARK SMILES IDX 10 1 9 2 11 3 12 4 13 5 5 6 4 7 3 8 14 9 15 10 16 11 2 12
REMARK SMILES IDX 1 13 7 14 6 15 8 16
REMARK H PARENT 8 17
REMARK Flexibility Score: inf
ROOT
ATOM      1  C   UNL     1     141.055 144.433 144.470  1.00  0.00     0.008 C 
ATOM      2  C   UNL     1     141.113 143.970 143.007  1.00  0.00    -0.008 C 
ATOM      3  C   UNL     1     141.242 145.130 142.028  1.00  0.00     0.004 C 
ATOM      4  C   UNL     1     140.815 144.558 140.683  1.00  0.00     0.005 C 
ATOM      5  C   UNL     1     139.814 143.419 140.985  1.00  0.00     0.002 C 
ATOM      6  C   UNL     1     139.888 143.169 142.513  1.00  0.00    -0.020 C 
ATOM      7  C   UNL     1     138.542 143.662 143.055  1.00  0.00     0.016 C 
ATOM      8  C   UNL     1     137.593 143.184 141.974  1.00  0.00     0.023 C 
ATOM      9  C   UNL     1     138.293 143.648 140.663  1.00  0.00    -0.025 C 
ATOM     10  C   UNL     1     137.850 142.830 139.426  1.00  0.00     0.012 C 
ATOM     11  C   UNL     1     137.913 145.129 140.387  1.00  0.00     0.012 C 
ATOM     12  C   UNL     1     137.506 141.660 142.092  1.00  0.00    -0.045 C 
ATOM     13  C   UNL     1     136.333 141.043 141.888  1.00  0.00     0.011 C 
ATOM     14  C   UNL     1     138.757 140.823 142.368  1.00  0.00     0.140 C 
ATOM     15  C   UNL     1     139.994 141.654 142.835  1.00  0.00     0.044 C 
ENDROOT
BRANCH  14  16
ATOM     16  O   UNL     1     139.080 140.094 141.212  1.00  0.00    -0.389 OA
ATOM     17  H   UNL     1     140.067 140.140 141.107  1.00  0.00     0.211 HD
ENDBRANCH  14  16
TORSDOF 1
ENDMDL
MODEL 3
REMARK VINA RESULT:    -4.612      8.387      9.638
REMARK INTER + INTRA:          -4.747
REMARK INTER:                  -4.747
REMARK INTRA:                   0.000
REMARK UNBOUND:                 0.000
REMARK SMILES C=C1[C@H]2C[C@]3(C[C@@H]1O)[C@H](C)CC[C@@H]3C2(C)C
REMARK SMILES IDX 10 1 9 2 11 3 12 4 13 5 5 6 4 7 3 8 14 9 15 10 16 11 2 12
REMARK SMILES IDX 1 13 7 14 6 15 8 16
REMARK H PARENT 8 17
REMARK Flexibility Score: inf
ROOT
ATOM      1  C   UNL     1     137.079 139.996 141.260  1.00  0.00     0.008 C 
ATOM      2  C   UNL     1     137.539 141.074 142.254  1.00  0.00    -0.008 C 
ATOM      3  C   UNL     1     136.700 142.342 142.174  1.00  0.00     0.004 C 
ATOM      4  C   UNL     1     137.549 143.418 142.838  1.00  0.00     0.005 C 
ATOM      5  C   UNL     1     139.025 143.005 142.632  1.00  0.00     0.002 C 
ATOM      6  C   UNL     1     138.998 141.553 142.089  1.00  0.00    -0.020 C 
ATOM      7  C   UNL     1     139.471 141.671 140.635  1.00  0.00     0.016 C 
ATOM      8  C   UNL     1     140.571 142.706 140.763  1.00  0.00     0.023 C 
ATOM      9  C   UNL     1     139.901 143.823 141.616  1.00  0.00    -0.025 C 
ATOM     10  C   UNL     1     140.932 144.713 142.352  1.00  0.00     0.012 C 
ATOM     11  C   UNL     1     139.088 144.756 140.675  1.00  0.00     0.012 C 
ATOM     12  C   UNL     1     141.742 142.033 141.483  1.00  0.00    -0.045 C 
ATOM     13  C   UNL     1     143.000 142.316 141.114  1.00  0.00     0.011 C 
ATOM     14  C   UNL     1     141.500 141.096 142.668  1.00  0.00     0.140 C 
ATOM     15  C   UNL     1     140.013 140.648 142.838  1.00  0.00     0.044 C 
ENDROOT
BRANCH  14  16
ATOM     16  O   UNL     1     141.947 141.723 143.842  1.00  0.00    -0.389 OA
ATOM     17  H   UNL     1     142.805 142.174 143.620  1.00  0.00     0.211 HD
ENDBRANCH  14  16
TORSDOF 1
ENDMDL
MODEL 4
REMARK VINA RESULT:    -4.566      1.576      2.228
REMARK INTER + INTRA:          -4.699
REMARK INTER:                  -4.699
REMARK INTRA:                   0.000
REMARK UNBOUND:                 0.000
REMARK SMILES C=C1[C@H]2C[C@]3(C[C@@H]1O)[C@H](C)CC[C@@H]3C2(C)C
REMARK SMILES IDX 10 1 9 2 11 3 12 4 13 5 5 6 4 7 3 8 14 9 15 10 16 11 2 12
REMARK SMILES IDX 1 13 7 14 6 15 8 16
REMARK H PARENT 8 17
REMARK Flexibility Score: inf
ROOT
ATOM      1  C   UNL     1     137.896 134.356 150.279  1.00  0.00     0.008 C 
ATOM      2  C   UNL     1     138.281 135.111 148.998  1.00  0.00    -0.008 C 
ATOM      3  C   UNL     1     137.460 134.678 147.791  1.00  0.00     0.004 C 
ATOM      4  C   UNL     1     138.260 135.145 146.583  1.00  0.00     0.005 C 
ATOM      5  C   UNL     1     139.745 135.156 147.015  1.00  0.00     0.002 C 
ATOM      6  C   UNL     1     139.752 134.957 148.552  1.00  0.00    -0.020 C 
ATOM      7  C   UNL     1     140.341 133.558 148.763  1.00  0.00     0.016 C 
ATOM      8  C   UNL     1     141.433 133.533 147.713  1.00  0.00     0.023 C 
ATOM      9  C   UNL     1     140.705 134.054 146.438  1.00  0.00    -0.025 C 
ATOM     10  C   UNL     1     141.680 134.647 145.393  1.00  0.00     0.012 C 
ATOM     11  C   UNL     1     139.976 132.863 145.754  1.00  0.00     0.012 C 
ATOM     12  C   UNL     1     142.538 134.478 148.190  1.00  0.00    -0.045 C 
ATOM     13  C   UNL     1     143.824 134.156 147.984  1.00  0.00     0.011 C 
ATOM     14  C   UNL     1     142.196 135.822 148.836  1.00  0.00     0.140 C 
ATOM     15  C   UNL     1     140.698 135.971 149.250  1.00  0.00     0.044 C 
ENDROOT
BRANCH  14  16
ATOM     16  O   UNL     1     142.553 136.854 147.952  1.00  0.00    -0.389 OA
ATOM     17  H   UNL     1     141.966 136.768 147.155  1.00  0.00     0.211 HD
ENDBRANCH  14  16
TORSDOF 1
ENDMDL
MODEL 5
REMARK VINA RESULT:    -4.555     14.083     15.465
REMARK INTER + INTRA:          -4.689
REMARK INTER:                  -4.689
REMARK INTRA:                   0.000
REMARK UNBOUND:                 0.000
REMARK SMILES C=C1[C@H]2C[C@]3(C[C@@H]1O)[C@H](C)CC[C@@H]3C2(C)C
REMARK SMILES IDX 10 1 9 2 11 3 12 4 13 5 5 6 4 7 3 8 14 9 15 10 16 11 2 12
REMARK SMILES IDX 1 13 7 14 6 15 8 16
REMARK H PARENT 8 17
REMARK Flexibility Score: inf
ROOT
ATOM      1  C   UNL     1     128.883 139.796 137.674  1.00  0.00     0.008 C 
ATOM      2  C   UNL     1     130.316 139.649 138.208  1.00  0.00    -0.008 C 
ATOM      3  C   UNL     1     130.950 140.987 138.564  1.00  0.00     0.004 C 
ATOM      4  C   UNL     1     132.447 140.714 138.607  1.00  0.00     0.005 C 
ATOM      5  C   UNL     1     132.711 139.544 137.631  1.00  0.00     0.002 C 
ATOM      6  C   UNL     1     131.320 138.979 137.244  1.00  0.00    -0.020 C 
ATOM      7  C   UNL     1     131.140 139.358 135.770  1.00  0.00     0.016 C 
ATOM      8  C   UNL     1     132.537 139.124 135.230  1.00  0.00     0.023 C 
ATOM      9  C   UNL     1     133.440 139.847 136.272  1.00  0.00    -0.025 C 
ATOM     10  C   UNL     1     134.892 139.310 136.281  1.00  0.00     0.012 C 
ATOM     11  C   UNL     1     133.517 141.357 135.910  1.00  0.00     0.012 C 
ATOM     12  C   UNL     1     132.762 137.611 135.201  1.00  0.00    -0.045 C 
ATOM     13  C   UNL     1     133.444 137.059 134.186  1.00  0.00     0.011 C 
ATOM     14  C   UNL     1     132.282 136.725 136.352  1.00  0.00     0.140 C 
ATOM     15  C   UNL     1     131.293 137.429 137.334  1.00  0.00     0.044 C 
ENDROOT
BRANCH  14  16
ATOM     16  O   UNL     1     133.400 136.251 137.058  1.00  0.00    -0.389 OA
ATOM     17  H   UNL     1     134.184 136.775 136.743  1.00  0.00     0.211 HD
ENDBRANCH  14  16
TORSDOF 1
ENDMDL
MODEL 6
REMARK VINA RESULT:    -4.555      8.182      9.425
REMARK INTER + INTRA:          -4.689
REMARK INTER:                  -4.689
REMARK INTRA:                   0.000
REMARK UNBOUND:                 0.000
REMARK SMILES C=C1[C@H]2C[C@]3(C[C@@H]1O)[C@H](C)CC[C@@H]3C2(C)C
REMARK SMILES IDX 10 1 9 2 11 3 12 4 13 5 5 6 4 7 3 8 14 9 15 10 16 11 2 12
REMARK SMILES IDX 1 13 7 14 6 15 8 16
REMARK H PARENT 8 17
REMARK Flexibility Score: inf
ROOT
ATOM      1  C   UNL     1     140.336 138.558 141.003  1.00  0.00     0.008 C 
ATOM      2  C   UNL     1     139.700 139.298 142.190  1.00  0.00    -0.008 C 
ATOM      3  C   UNL     1     138.297 138.800 142.510  1.00  0.00     0.004 C 
ATOM      4  C   UNL     1     137.667 139.909 143.343  1.00  0.00     0.005 C 
ATOM      5  C   UNL     1     138.343 141.228 142.905  1.00  0.00     0.002 C 
ATOM      6  C   UNL     1     139.549 140.826 142.018  1.00  0.00    -0.020 C 
ATOM      7  C   UNL     1     139.161 141.274 140.604  1.00  0.00     0.016 C 
ATOM      8  C   UNL     1     138.484 142.600 140.887  1.00  0.00     0.023 C 
ATOM      9  C   UNL     1     137.511 142.254 142.052  1.00  0.00    -0.025 C 
ATOM     10  C   UNL     1     137.116 143.493 142.891  1.00  0.00     0.012 C 
ATOM     11  C   UNL     1     136.198 141.673 141.456  1.00  0.00     0.012 C 
ATOM     12  C   UNL     1     139.579 143.585 141.304  1.00  0.00    -0.045 C 
ATOM     13  C   UNL     1     139.509 144.864 140.904  1.00  0.00     0.011 C 
ATOM     14  C   UNL     1     140.715 143.149 142.231  1.00  0.00     0.140 C 
ATOM     15  C   UNL     1     140.832 141.604 142.419  1.00  0.00     0.044 C 
ENDROOT
BRANCH  14  16
ATOM     16  O   UNL     1     140.546 143.771 143.479  1.00  0.00    -0.389 OA
ATOM     17  H   UNL     1     139.692 144.277 143.437  1.00  0.00     0.211 HD
ENDBRANCH  14  16
TORSDOF 1
ENDMDL
MODEL 7
REMARK VINA RESULT:    -4.547      9.521     10.893
REMARK INTER + INTRA:          -4.680
REMARK INTER:                  -4.680
REMARK INTRA:                   0.000
REMARK UNBOUND:                 0.000
REMARK SMILES C=C1[C@H]2C[C@]3(C[C@@H]1O)[C@H](C)CC[C@@H]3C2(C)C
REMARK SMILES IDX 10 1 9 2 11 3 12 4 13 5 5 6 4 7 3 8 14 9 15 10 16 11 2 12
REMARK SMILES IDX 1 13 7 14 6 15 8 16
REMARK H PARENT 8 17
REMARK Flexibility Score: inf
ROOT
ATOM      1  C   UNL     1     140.583 143.941 141.074  1.00  0.00     0.008 C 
ATOM      2  C   UNL     1     139.094 143.876 141.445  1.00  0.00    -0.008 C 
ATOM      3  C   UNL     1     138.868 143.712 142.942  1.00  0.00     0.004 C 
ATOM      4  C   UNL     1     137.440 143.202 143.070  1.00  0.00     0.005 C 
ATOM      5  C   UNL     1     137.131 142.421 141.773  1.00  0.00     0.002 C 
ATOM      6  C   UNL     1     138.295 142.724 140.795  1.00  0.00    -0.020 C 
ATOM      7  C   UNL     1     139.062 141.402 140.678  1.00  0.00     0.016 C 
ATOM      8  C   UNL     1     137.926 140.400 140.651  1.00  0.00     0.023 C 
ATOM      9  C   UNL     1     137.032 140.854 141.842  1.00  0.00    -0.025 C 
ATOM     10  C   UNL     1     135.565 140.376 141.706  1.00  0.00     0.012 C 
ATOM     11  C   UNL     1     137.590 140.235 143.154  1.00  0.00     0.012 C 
ATOM     12  C   UNL     1     137.227 140.548 139.297  1.00  0.00    -0.045 C 
ATOM     13  C   UNL     1     136.769 139.457 138.663  1.00  0.00     0.011 C 
ATOM     14  C   UNL     1     136.978 141.929 138.690  1.00  0.00     0.140 C 
ATOM     15  C   UNL     1     137.768 143.085 139.380  1.00  0.00     0.044 C 
ENDROOT
BRANCH  14  16
ATOM     16  O   UNL     1     135.600 142.202 138.730  1.00  0.00    -0.389 OA
ATOM     17  H   UNL     1     135.444 142.785 139.519  1.00  0.00     0.211 HD
ENDBRANCH  14  16
TORSDOF 1
ENDMDL
MODEL 8
REMARK VINA RESULT:    -4.486     14.207     15.281
REMARK INTER + INTRA:          -4.617
REMARK INTER:                  -4.617
REMARK INTRA:                   0.000
REMARK UNBOUND:                 0.000
REMARK SMILES C=C1[C@H]2C[C@]3(C[C@@H]1O)[C@H](C)CC[C@@H]3C2(C)C
REMARK SMILES IDX 10 1 9 2 11 3 12 4 13 5 5 6 4 7 3 8 14 9 15 10 16 11 2 12
REMARK SMILES IDX 1 13 7 14 6 15 8 16
REMARK H PARENT 8 17
REMARK Flexibility Score: inf
ROOT
ATOM      1  C   UNL     1     131.237 141.154 139.515  1.00  0.00     0.008 C 
ATOM      2  C   UNL     1     130.840 140.777 138.080  1.00  0.00    -0.008 C 
ATOM      3  C   UNL     1     129.838 139.632 138.030  1.00  0.00     0.004 C 
ATOM      4  C   UNL     1     129.926 139.095 136.607  1.00  0.00     0.005 C 
ATOM      5  C   UNL     1     131.363 139.384 136.115  1.00  0.00     0.002 C 
ATOM      6  C   UNL     1     132.001 140.329 137.164  1.00  0.00    -0.020 C 
ATOM      7  C   UNL     1     133.070 139.478 137.858  1.00  0.00     0.016 C 
ATOM      8  C   UNL     1     133.638 138.701 136.688  1.00  0.00     0.023 C 
ATOM      9  C   UNL     1     132.362 138.180 135.962  1.00  0.00    -0.025 C 
ATOM     10  C   UNL     1     132.616 137.845 134.472  1.00  0.00     0.012 C 
ATOM     11  C   UNL     1     131.893 136.867 136.648  1.00  0.00     0.012 C 
ATOM     12  C   UNL     1     134.441 139.688 135.838  1.00  0.00    -0.045 C 
ATOM     13  C   UNL     1     135.588 139.292 135.265  1.00  0.00     0.011 C 
ATOM     14  C   UNL     1     133.918 141.101 135.573  1.00  0.00     0.140 C 
ATOM     15  C   UNL     1     132.724 141.524 136.486  1.00  0.00     0.044 C 
ENDROOT
BRANCH  14  16
ATOM     16  O   UNL     1     133.545 141.201 134.222  1.00  0.00    -0.389 OA
ATOM     17  H   UNL     1     133.607 142.162 133.976  1.00  0.00     0.211 HD
ENDBRANCH  14  16
TORSDOF 1
ENDMDL
MODEL 9
REMARK VINA RESULT:    -4.350      1.998      3.714
REMARK INTER + INTRA:          -4.477
REMARK INTER:                  -4.477
REMARK INTRA:                   0.000
REMARK UNBOUND:                 0.000
REMARK SMILES C=C1[C@H]2C[C@]3(C[C@@H]1O)[C@H](C)CC[C@@H]3C2(C)C
REMARK SMILES IDX 10 1 9 2 11 3 12 4 13 5 5 6 4 7 3 8 14 9 15 10 16 11 2 12
REMARK SMILES IDX 1 13 7 14 6 15 8 16
REMARK H PARENT 8 17
REMARK Flexibility Score: inf
ROOT
ATOM      1  C   UNL     1     137.332 134.559 148.211  1.00  0.00     0.008 C 
ATOM      2  C   UNL     1     138.638 134.157 148.912  1.00  0.00    -0.008 C 
ATOM      3  C   UNL     1     139.050 135.143 149.997  1.00  0.00     0.004 C 
ATOM      4  C   UNL     1     140.530 134.871 150.235  1.00  0.00     0.005 C 
ATOM      5  C   UNL     1     141.098 134.328 148.904  1.00  0.00     0.002 C 
ATOM      6  C   UNL     1     139.876 134.038 147.995  1.00  0.00    -0.020 C 
ATOM      7  C   UNL     1     139.954 135.093 146.886  1.00  0.00     0.016 C 
ATOM      8  C   UNL     1     141.446 135.141 146.626  1.00  0.00     0.023 C 
ATOM      9  C   UNL     1     142.047 135.252 148.058  1.00  0.00    -0.025 C 
ATOM     10  C   UNL     1     143.515 134.768 148.130  1.00  0.00     0.012 C 
ATOM     11  C   UNL     1     142.041 136.745 148.492  1.00  0.00     0.012 C 
ATOM     12  C   UNL     1     141.824 133.835 145.925  1.00  0.00    -0.045 C 
ATOM     13  C   UNL     1     142.746 133.846 144.950  1.00  0.00     0.011 C 
ATOM     14  C   UNL     1     141.219 132.502 146.370  1.00  0.00     0.140 C 
ATOM     15  C   UNL     1     139.989 132.643 147.322  1.00  0.00     0.044 C 
ENDROOT
BRANCH  14  16
ATOM     16  O   UNL     1     142.218 131.734 146.990  1.00  0.00    -0.389 OA
ATOM     17  H   UNL     1     142.958 132.355 147.222  1.00  0.00     0.211 HD
ENDBRANCH  14  16
TORSDOF 1
ENDMDL
