MODEL 1
REMARK VINA RESULT:    -4.598      0.000      0.000
REMARK INTER + INTRA:          -4.867
REMARK INTER:                  -4.867
REMARK INTRA:                   0.000
REMARK UNBOUND:                 0.000
REMARK SMILES O=c1ccc2cc(O)c(O)cc2o1
REMARK SMILES IDX 4 1 3 2 2 3 1 4 13 5 12 6 11 7 9 8 7 9 6 10 5 11 8 12 10 14
REMARK H PARENT 8 13 10 15
REMARK Flexibility Score: inf
ROOT
ATOM      1  C   UNL     1      43.995  18.447  -4.794  1.00  0.00     0.019 A 
ATOM      2  C   UNL     1      44.476  19.543  -5.509  1.00  0.00     0.094 A 
ATOM      3  C   UNL     1      44.227  20.831  -5.024  1.00  0.00     0.336 A 
ATOM      4  O   UNL     1      44.653  21.834  -5.655  1.00  0.00    -0.246 OA
ATOM      5  O   UNL     1      43.541  21.005  -3.896  1.00  0.00    -0.423 OA
ATOM      6  C   UNL     1      43.065  19.987  -3.184  1.00  0.00     0.142 A 
ATOM      7  C   UNL     1      42.351  20.231  -2.006  1.00  0.00     0.098 A 
ATOM      8  C   UNL     1      41.847  19.162  -1.251  1.00  0.00     0.161 A 
ATOM      9  C   UNL     1      42.058  17.842  -1.677  1.00  0.00     0.158 A 
ATOM     10  C   UNL     1      42.774  17.591  -2.857  1.00  0.00     0.062 A 
ATOM     11  C   UNL     1      43.278  18.659  -3.612  1.00  0.00     0.022 A 
ENDROOT
BRANCH   9  12
ATOM     12  O   UNL     1      41.554  16.785  -0.921  1.00  0.00    -0.504 OA
ATOM     13  H   UNL     1      40.936  16.944  -0.134  1.00  0.00     0.293 HD
ENDBRANCH   9  12
BRANCH   8  14
ATOM     14  O   UNL     1      41.136  19.401  -0.078  1.00  0.00    -0.504 OA
ATOM     15  H   UNL     1      41.516  19.979   0.664  1.00  0.00     0.293 HD
ENDBRANCH   8  14
TORSDOF 2
ENDMDL
MODEL 2
REMARK VINA RESULT:    -4.302      8.341      9.369
REMARK INTER + INTRA:          -4.553
REMARK INTER:                  -4.553
REMARK INTRA:                   0.000
REMARK UNBOUND:                 0.000
REMARK SMILES O=c1ccc2cc(O)c(O)cc2o1
REMARK SMILES IDX 4 1 3 2 2 3 1 4 13 5 12 6 11 7 9 8 7 9 6 10 5 11 8 12 10 14
REMARK H PARENT 8 13 10 15
REMARK Flexibility Score: inf
ROOT
ATOM      1  C   UNL     1      51.877  16.086  -5.760  1.00  0.00     0.019 A 
ATOM      2  C   UNL     1      52.939  15.256  -6.118  1.00  0.00     0.094 A 
ATOM      3  C   UNL     1      52.869  13.894  -5.809  1.00  0.00     0.336 A 
ATOM      4  O   UNL     1      53.817  13.128  -6.124  1.00  0.00    -0.246 OA
ATOM      5  O   UNL     1      51.803  13.399  -5.182  1.00  0.00    -0.423 OA
ATOM      6  C   UNL     1      50.770  14.156  -4.823  1.00  0.00     0.142 A 
ATOM      7  C   UNL     1      49.677  13.580  -4.167  1.00  0.00     0.098 A 
ATOM      8  C   UNL     1      48.584  14.373  -3.786  1.00  0.00     0.161 A 
ATOM      9  C   UNL     1      48.585  15.748  -4.063  1.00  0.00     0.158 A 
ATOM     10  C   UNL     1      49.678  16.332  -4.722  1.00  0.00     0.062 A 
ATOM     11  C   UNL     1      50.771  15.539  -5.103  1.00  0.00     0.022 A 
ENDROOT
BRANCH   9  12
ATOM     12  O   UNL     1      47.496  16.529  -3.681  1.00  0.00    -0.504 OA
ATOM     13  H   UNL     1      46.666  16.601  -4.260  1.00  0.00     0.293 HD
ENDBRANCH   9  12
BRANCH   8  14
ATOM     14  O   UNL     1      47.494  13.803  -3.132  1.00  0.00    -0.504 OA
ATOM     15  H   UNL     1      46.777  13.297  -3.640  1.00  0.00     0.293 HD
ENDBRANCH   8  14
TORSDOF 2
ENDMDL
MODEL 3
REMARK VINA RESULT:    -4.272      1.493      2.722
REMARK INTER + INTRA:          -4.522
REMARK INTER:                  -4.522
REMARK INTRA:                   0.000
REMARK UNBOUND:                 0.000
REMARK SMILES O=c1ccc2cc(O)c(O)cc2o1
REMARK SMILES IDX 4 1 3 2 2 3 1 4 13 5 12 6 11 7 9 8 7 9 6 10 5 11 8 12 10 14
REMARK H PARENT 8 13 10 15
REMARK Flexibility Score: inf
ROOT
ATOM      1  C   UNL     1      42.096  20.258  -2.459  1.00  0.00     0.019 A 
ATOM      2  C   UNL     1      42.810  21.070  -3.338  1.00  0.00     0.094 A 
ATOM      3  C   UNL     1      43.711  20.478  -4.229  1.00  0.00     0.336 A 
ATOM      4  O   UNL     1      44.365  21.194  -5.032  1.00  0.00    -0.246 OA
ATOM      5  O   UNL     1      43.881  19.157  -4.237  1.00  0.00    -0.423 OA
ATOM      6  C   UNL     1      43.220  18.347  -3.415  1.00  0.00     0.142 A 
ATOM      7  C   UNL     1      43.441  16.966  -3.468  1.00  0.00     0.098 A 
ATOM      8  C   UNL     1      42.746  16.107  -2.604  1.00  0.00     0.161 A 
ATOM      9  C   UNL     1      41.827  16.631  -1.683  1.00  0.00     0.158 A 
ATOM     10  C   UNL     1      41.601  18.014  -1.625  1.00  0.00     0.062 A 
ATOM     11  C   UNL     1      42.295  18.874  -2.488  1.00  0.00     0.022 A 
ENDROOT
BRANCH   9  12
ATOM     12  O   UNL     1      41.141  15.770  -0.827  1.00  0.00    -0.504 OA
ATOM     13  H   UNL     1      41.511  15.520   0.083  1.00  0.00     0.293 HD
ENDBRANCH   9  12
BRANCH   8  14
ATOM     14  O   UNL     1      42.963  14.732  -2.654  1.00  0.00    -0.504 OA
ATOM     15  H   UNL     1      42.432  14.090  -2.075  1.00  0.00     0.293 HD
ENDBRANCH   8  14
TORSDOF 2
ENDMDL
MODEL 4
REMARK VINA RESULT:    -4.130      2.528      4.126
REMARK INTER + INTRA:          -4.372
REMARK INTER:                  -4.372
REMARK INTRA:                   0.000
REMARK UNBOUND:                 0.000
REMARK SMILES O=c1ccc2cc(O)c(O)cc2o1
REMARK SMILES IDX 4 1 3 2 2 3 1 4 13 5 12 6 11 7 9 8 7 9 6 10 5 11 8 12 10 14
REMARK H PARENT 8 13 10 15
REMARK Flexibility Score: inf
ROOT
ATOM      1  C   UNL     1      42.996  20.354  -2.384  1.00  0.00     0.019 A 
ATOM      2  C   UNL     1      42.069  21.014  -1.580  1.00  0.00     0.094 A 
ATOM      3  C   UNL     1      41.141  20.260  -0.854  1.00  0.00     0.336 A 
ATOM      4  O   UNL     1      40.295  20.838  -0.122  1.00  0.00    -0.246 OA
ATOM      5  O   UNL     1      41.148  18.931  -0.929  1.00  0.00    -0.423 OA
ATOM      6  C   UNL     1      42.016  18.262  -1.684  1.00  0.00     0.142 A 
ATOM      7  C   UNL     1      41.975  16.864  -1.724  1.00  0.00     0.098 A 
ATOM      8  C   UNL     1      42.888  16.153  -2.517  1.00  0.00     0.161 A 
ATOM      9  C   UNL     1      43.846  16.844  -3.274  1.00  0.00     0.158 A 
ATOM     10  C   UNL     1      43.892  18.246  -3.237  1.00  0.00     0.062 A 
ATOM     11  C   UNL     1      42.980  18.957  -2.445  1.00  0.00     0.022 A 
ENDROOT
BRANCH   9  12
ATOM     12  O   UNL     1      44.749  16.131  -4.060  1.00  0.00    -0.504 OA
ATOM     13  H   UNL     1      44.460  15.670  -4.915  1.00  0.00     0.293 HD
ENDBRANCH   9  12
BRANCH   8  14
ATOM     14  O   UNL     1      42.850  14.761  -2.559  1.00  0.00    -0.504 OA
ATOM     15  H   UNL     1      43.077  14.200  -1.746  1.00  0.00     0.293 HD
ENDBRANCH   8  14
TORSDOF 2
ENDMDL
MODEL 5
REMARK VINA RESULT:    -4.128      6.148      7.594
REMARK INTER + INTRA:          -4.369
REMARK INTER:                  -4.369
REMARK INTRA:                   0.000
REMARK UNBOUND:                 0.000
REMARK SMILES O=c1ccc2cc(O)c(O)cc2o1
REMARK SMILES IDX 4 1 3 2 2 3 1 4 13 5 12 6 11 7 9 8 7 9 6 10 5 11 8 12 10 14
REMARK H PARENT 8 13 10 15
REMARK Flexibility Score: inf
ROOT
ATOM      1  C   UNL     1      46.893  16.578  -4.245  1.00  0.00     0.019 A 
ATOM      2  C   UNL     1      45.566  16.734  -3.848  1.00  0.00     0.094 A 
ATOM      3  C   UNL     1      44.964  15.729  -3.083  1.00  0.00     0.336 A 
ATOM      4  O   UNL     1      43.767  15.851  -2.715  1.00  0.00    -0.246 OA
ATOM      5  O   UNL     1      45.652  14.643  -2.738  1.00  0.00    -0.423 OA
ATOM      6  C   UNL     1      46.920  14.456  -3.095  1.00  0.00     0.142 A 
ATOM      7  C   UNL     1      47.592  13.293  -2.703  1.00  0.00     0.098 A 
ATOM      8  C   UNL     1      48.929  13.090  -3.077  1.00  0.00     0.161 A 
ATOM      9  C   UNL     1      49.596  14.056  -3.845  1.00  0.00     0.158 A 
ATOM     10  C   UNL     1      48.928  15.224  -4.241  1.00  0.00     0.062 A 
ATOM     11  C   UNL     1      47.592  15.427  -3.868  1.00  0.00     0.022 A 
ENDROOT
BRANCH   9  12
ATOM     12  O   UNL     1      50.925  13.847  -4.212  1.00  0.00    -0.504 OA
ATOM     13  H   UNL     1      51.174  13.210  -4.961  1.00  0.00     0.293 HD
ENDBRANCH   9  12
BRANCH   8  14
ATOM     14  O   UNL     1      49.601  11.934  -2.688  1.00  0.00    -0.504 OA
ATOM     15  H   UNL     1      50.413  11.597  -3.194  1.00  0.00     0.293 HD
ENDBRANCH   8  14
TORSDOF 2
ENDMDL
MODEL 6
REMARK VINA RESULT:    -4.124      7.623      9.578
REMARK INTER + INTRA:          -4.366
REMARK INTER:                  -4.366
REMARK INTRA:                   0.000
REMARK UNBOUND:                 0.000
REMARK SMILES O=c1ccc2cc(O)c(O)cc2o1
REMARK SMILES IDX 4 1 3 2 2 3 1 4 13 5 12 6 11 7 9 8 7 9 6 10 5 11 8 12 10 14
REMARK H PARENT 8 13 10 15
REMARK Flexibility Score: inf
ROOT
ATOM      1  C   UNL     1      48.092  16.113  -4.307  1.00  0.00     0.019 A 
ATOM      2  C   UNL     1      47.147  15.247  -3.759  1.00  0.00     0.094 A 
ATOM      3  C   UNL     1      47.490  13.904  -3.564  1.00  0.00     0.336 A 
ATOM      4  O   UNL     1      46.650  13.106  -3.071  1.00  0.00    -0.246 OA
ATOM      5  O   UNL     1      48.701  13.464  -3.896  1.00  0.00    -0.423 OA
ATOM      6  C   UNL     1      49.632  14.257  -4.420  1.00  0.00     0.142 A 
ATOM      7  C   UNL     1      50.888  13.738  -4.750  1.00  0.00     0.098 A 
ATOM      8  C   UNL     1      51.873  14.569  -5.303  1.00  0.00     0.161 A 
ATOM      9  C   UNL     1      51.599  15.927  -5.528  1.00  0.00     0.158 A 
ATOM     10  C   UNL     1      50.341  16.454  -5.199  1.00  0.00     0.062 A 
ATOM     11  C   UNL     1      49.357  15.623  -4.646  1.00  0.00     0.022 A 
ENDROOT
BRANCH   9  12
ATOM     12  O   UNL     1      52.583  16.746  -6.078  1.00  0.00    -0.504 OA
ATOM     13  H   UNL     1      53.133  17.375  -5.503  1.00  0.00     0.293 HD
ENDBRANCH   9  12
BRANCH   8  14
ATOM     14  O   UNL     1      53.125  14.056  -5.632  1.00  0.00    -0.504 OA
ATOM     15  H   UNL     1      53.450  14.024  -6.592  1.00  0.00     0.293 HD
ENDBRANCH   8  14
TORSDOF 2
ENDMDL
MODEL 7
REMARK VINA RESULT:    -4.084      6.961      8.664
REMARK INTER + INTRA:          -4.323
REMARK INTER:                  -4.323
REMARK INTRA:                   0.000
REMARK UNBOUND:                 0.000
REMARK SMILES O=c1ccc2cc(O)c(O)cc2o1
REMARK SMILES IDX 4 1 3 2 2 3 1 4 13 5 12 6 11 7 9 8 7 9 6 10 5 11 8 12 10 14
REMARK H PARENT 8 13 10 15
REMARK Flexibility Score: inf
ROOT
ATOM      1  C   UNL     1      48.257  13.349  -3.127  1.00  0.00     0.019 A 
ATOM      2  C   UNL     1      46.965  13.740  -2.777  1.00  0.00     0.094 A 
ATOM      3  C   UNL     1      46.508  15.001  -3.174  1.00  0.00     0.336 A 
ATOM      4  O   UNL     1      45.345  15.373  -2.868  1.00  0.00    -0.246 OA
ATOM      5  O   UNL     1      47.294  15.812  -3.877  1.00  0.00    -0.423 OA
ATOM      6  C   UNL     1      48.532  15.477  -4.232  1.00  0.00     0.142 A 
ATOM      7  C   UNL     1      49.313  16.372  -4.972  1.00  0.00     0.098 A 
ATOM      8  C   UNL     1      50.619  16.024  -5.349  1.00  0.00     0.161 A 
ATOM      9  C   UNL     1      51.145  14.776  -4.985  1.00  0.00     0.158 A 
ATOM     10  C   UNL     1      50.367  13.874  -4.243  1.00  0.00     0.062 A 
ATOM     11  C   UNL     1      49.062  14.221  -3.866  1.00  0.00     0.022 A 
ENDROOT
BRANCH   9  12
ATOM     12  O   UNL     1      52.443  14.438  -5.363  1.00  0.00    -0.504 OA
ATOM     13  H   UNL     1      53.208  15.099  -5.283  1.00  0.00     0.293 HD
ENDBRANCH   9  12
BRANCH   8  14
ATOM     14  O   UNL     1      51.399  16.912  -6.085  1.00  0.00    -0.504 OA
ATOM     15  H   UNL     1      51.277  17.022  -7.086  1.00  0.00     0.293 HD
ENDBRANCH   8  14
TORSDOF 2
ENDMDL
MODEL 8
REMARK VINA RESULT:    -4.044      7.114      9.003
REMARK INTER + INTRA:          -4.280
REMARK INTER:                  -4.280
REMARK INTRA:                   0.000
REMARK UNBOUND:                 0.000
REMARK SMILES O=c1ccc2cc(O)c(O)cc2o1
REMARK SMILES IDX 4 1 3 2 2 3 1 4 13 5 12 6 11 7 9 8 7 9 6 10 5 11 8 12 10 14
REMARK H PARENT 8 13 10 15
REMARK Flexibility Score: inf
ROOT
ATOM      1  C   UNL     1      49.283  11.914  -3.116  1.00  0.00     0.019 A 
ATOM      2  C   UNL     1      48.264  11.354  -2.347  1.00  0.00     0.094 A 
ATOM      3  C   UNL     1      47.152  12.138  -2.019  1.00  0.00     0.336 A 
ATOM      4  O   UNL     1      46.222  11.650  -1.326  1.00  0.00    -0.246 OA
ATOM      5  O   UNL     1      47.070  13.398  -2.439  1.00  0.00    -0.423 OA
ATOM      6  C   UNL     1      48.019  13.970  -3.174  1.00  0.00     0.142 A 
ATOM      7  C   UNL     1      47.878  15.300  -3.586  1.00  0.00     0.098 A 
ATOM      8  C   UNL     1      48.876  15.909  -4.362  1.00  0.00     0.161 A 
ATOM      9  C   UNL     1      50.020  15.184  -4.728  1.00  0.00     0.158 A 
ATOM     10  C   UNL     1      50.167  13.850  -4.318  1.00  0.00     0.062 A 
ATOM     11  C   UNL     1      49.170  13.241  -3.543  1.00  0.00     0.022 A 
ENDROOT
BRANCH   9  12
ATOM     12  O   UNL     1      51.006  15.796  -5.499  1.00  0.00    -0.504 OA
ATOM     13  H   UNL     1      51.939  15.958  -5.135  1.00  0.00     0.293 HD
ENDBRANCH   9  12
BRANCH   8  14
ATOM     14  O   UNL     1      48.738  17.232  -4.774  1.00  0.00    -0.504 OA
ATOM     15  H   UNL     1      49.502  17.895  -4.693  1.00  0.00     0.293 HD
ENDBRANCH   8  14
TORSDOF 2
ENDMDL
MODEL 9
REMARK VINA RESULT:    -2.759      1.594      2.546
REMARK INTER + INTRA:          -2.920
REMARK INTER:                  -2.920
REMARK INTRA:                   0.000
REMARK UNBOUND:                 0.000
REMARK SMILES O=c1ccc2cc(O)c(O)cc2o1
REMARK SMILES IDX 4 1 3 2 2 3 1 4 13 5 12 6 11 7 9 8 7 9 6 10 5 11 8 12 10 14
REMARK H PARENT 8 13 10 15
REMARK Flexibility Score: inf
ROOT
ATOM      1  C   UNL     1      43.724  21.000  -4.724  1.00  0.00     0.019 A 
ATOM      2  C   UNL     1      44.416  20.191  -5.624  1.00  0.00     0.094 A 
ATOM      3  C   UNL     1      44.587  18.835  -5.325  1.00  0.00     0.336 A 
ATOM      4  O   UNL     1      45.209  18.089  -6.125  1.00  0.00    -0.246 OA
ATOM      5  O   UNL     1      44.095  18.327  -4.197  1.00  0.00    -0.423 OA
ATOM      6  C   UNL     1      43.428  19.064  -3.312  1.00  0.00     0.142 A 
ATOM      7  C   UNL     1      42.933  18.474  -2.144  1.00  0.00     0.098 A 
ATOM      8  C   UNL     1      42.230  19.246  -1.207  1.00  0.00     0.161 A 
ATOM      9  C   UNL     1      42.020  20.613  -1.441  1.00  0.00     0.158 A 
ATOM     10  C   UNL     1      42.514  21.210  -2.611  1.00  0.00     0.062 A 
ATOM     11  C   UNL     1      43.217  20.439  -3.547  1.00  0.00     0.022 A 
ENDROOT
BRANCH   9  12
ATOM     12  O   UNL     1      41.320  21.373  -0.505  1.00  0.00    -0.504 OA
ATOM     13  H   UNL     1      41.539  21.330   0.484  1.00  0.00     0.293 HD
ENDBRANCH   9  12
BRANCH   8  14
ATOM     14  O   UNL     1      41.735  18.663  -0.043  1.00  0.00    -0.504 OA
ATOM     15  H   UNL     1      41.422  17.698  -0.025  1.00  0.00     0.293 HD
ENDBRANCH   8  14
TORSDOF 2
ENDMDL
