MODEL 1
REMARK VINA RESULT:    -3.512      0.000      0.000
REMARK INTER + INTRA:          -4.742
REMARK INTER:                  -4.538
REMARK INTRA:                  -0.204
REMARK UNBOUND:                -0.204
REMARK SMILES CCCCCCC(=O)[O-]
REMARK SMILES IDX 5 1 6 2 7 3 8 4 9 5 4 6 3 7 2 8 1 9
REMARK H PARENT
REMARK Flexibility Score: inf
ROOT
ATOM      1  C   UNL     1      37.041  -7.890  11.457  1.00  0.00     0.006 C 
ENDROOT
BRANCH   1   2
ATOM      2  C   UNL     1      37.460  -7.117  12.714  1.00  0.00     0.053 C 
BRANCH   2   3
ATOM      3  C   UNL     1      36.272  -6.638  13.492  1.00  0.00     0.041 C 
ATOM      4  O   UNL     1      36.404  -6.264  14.686  1.00  0.00    -0.550 OA
ATOM      5  O   UNL     1      35.025  -6.573  12.884  1.00  0.00    -0.550 OA
ENDBRANCH   2   3
ENDBRANCH   1   2
BRANCH   1   6
ATOM      6  C   UNL     1      37.996  -7.642  10.277  1.00  0.00     0.000 C 
BRANCH   6   7
ATOM      7  C   UNL     1      39.456  -7.463  10.726  1.00  0.00    -0.000 C 
BRANCH   7   8
ATOM      8  C   UNL     1      40.289  -6.662   9.715  1.00  0.00    -0.003 C 
ATOM      9  C   UNL     1      39.445  -6.247   8.514  1.00  0.00     0.004 C 
ENDBRANCH   7   8
ENDBRANCH   6   7
ENDBRANCH   1   6
TORSDOF 5
ENDMDL
MODEL 2
REMARK VINA RESULT:    -3.512      3.050      4.934
REMARK INTER + INTRA:          -4.742
REMARK INTER:                  -4.516
REMARK INTRA:                  -0.226
REMARK UNBOUND:                -0.204
REMARK SMILES CCCCCCC(=O)[O-]
REMARK SMILES IDX 5 1 6 2 7 3 8 4 9 5 4 6 3 7 2 8 1 9
REMARK H PARENT
REMARK Flexibility Score: inf
ROOT
ATOM      1  C   UNL     1      38.613  -7.635  11.621  1.00  0.00     0.006 C 
ENDROOT
BRANCH   1   2
ATOM      2  C   UNL     1      38.158  -7.298  10.195  1.00  0.00     0.053 C 
BRANCH   2   3
ATOM      3  C   UNL     1      39.254  -6.652   9.403  1.00  0.00     0.041 C 
ATOM      4  O   UNL     1      39.014  -6.166   8.267  1.00  0.00    -0.550 OA
ATOM      5  O   UNL     1      40.533  -6.558   9.936  1.00  0.00    -0.550 OA
ENDBRANCH   2   3
ENDBRANCH   1   2
BRANCH   1   6
ATOM      6  C   UNL     1      37.435  -8.033  12.528  1.00  0.00     0.000 C 
BRANCH   6   7
ATOM      7  C   UNL     1      36.081  -7.552  11.983  1.00  0.00    -0.000 C 
BRANCH   7   8
ATOM      8  C   UNL     1      35.258  -6.795  13.035  1.00  0.00    -0.003 C 
ATOM      9  C   UNL     1      36.160  -6.202  14.115  1.00  0.00     0.004 C 
ENDBRANCH   7   8
ENDBRANCH   6   7
ENDBRANCH   1   6
TORSDOF 5
ENDMDL
MODEL 3
REMARK VINA RESULT:    -3.501      3.104      4.834
REMARK INTER + INTRA:          -4.729
REMARK INTER:                  -4.498
REMARK INTRA:                  -0.230
REMARK UNBOUND:                -0.204
REMARK SMILES CCCCCCC(=O)[O-]
REMARK SMILES IDX 5 1 6 2 7 3 8 4 9 5 4 6 3 7 2 8 1 9
REMARK H PARENT
REMARK Flexibility Score: inf
ROOT
ATOM      1  C   UNL     1      38.754  -7.891  11.433  1.00  0.00     0.006 C 
ENDROOT
BRANCH   1   2
ATOM      2  C   UNL     1      38.315  -7.245  10.113  1.00  0.00     0.053 C 
BRANCH   2   3
ATOM      3  C   UNL     1      39.468  -6.607   9.398  1.00  0.00     0.041 C 
ATOM      4  O   UNL     1      40.593  -6.524   9.956  1.00  0.00    -0.550 OA
ATOM      5  O   UNL     1      39.305  -6.135   8.102  1.00  0.00    -0.550 OA
ENDBRANCH   2   3
ENDBRANCH   1   2
BRANCH   1   6
ATOM      6  C   UNL     1      37.608  -7.956  12.458  1.00  0.00     0.000 C 
BRANCH   6   7
ATOM      7  C   UNL     1      36.236  -7.665  11.829  1.00  0.00    -0.000 C 
BRANCH   7   8
ATOM      8  C   UNL     1      35.292  -6.927  12.789  1.00  0.00    -0.003 C 
ATOM      9  C   UNL     1      36.073  -6.231  13.899  1.00  0.00     0.004 C 
ENDBRANCH   7   8
ENDBRANCH   6   7
ENDBRANCH   1   6
TORSDOF 5
ENDMDL
MODEL 4
REMARK VINA RESULT:    -3.480      0.233      1.104
REMARK INTER + INTRA:          -4.702
REMARK INTER:                  -4.486
REMARK INTRA:                  -0.216
REMARK UNBOUND:                -0.204
REMARK SMILES CCCCCCC(=O)[O-]
REMARK SMILES IDX 5 1 6 2 7 3 8 4 9 5 4 6 3 7 2 8 1 9
REMARK H PARENT
REMARK Flexibility Score: inf
ROOT
ATOM      1  C   UNL     1      36.861  -7.747  11.232  1.00  0.00     0.006 C 
ENDROOT
BRANCH   1   2
ATOM      2  C   UNL     1      37.281  -7.364  12.657  1.00  0.00     0.053 C 
BRANCH   2   3
ATOM      3  C   UNL     1      36.167  -6.690  13.400  1.00  0.00     0.041 C 
ATOM      4  O   UNL     1      35.032  -6.569  12.869  1.00  0.00    -0.550 OA
ATOM      5  O   UNL     1      36.376  -6.226  14.692  1.00  0.00    -0.550 OA
ENDBRANCH   2   3
ENDBRANCH   1   2
BRANCH   1   6
ATOM      6  C   UNL     1      38.073  -7.982  10.313  1.00  0.00     0.000 C 
BRANCH   6   7
ATOM      7  C   UNL     1      39.381  -7.439  10.910  1.00  0.00    -0.000 C 
BRANCH   7   8
ATOM      8  C   UNL     1      40.321  -6.863   9.841  1.00  0.00    -0.003 C 
ATOM      9  C   UNL     1      39.532  -6.222   8.703  1.00  0.00     0.004 C 
ENDBRANCH   7   8
ENDBRANCH   6   7
ENDBRANCH   1   6
TORSDOF 5
ENDMDL
MODEL 5
REMARK VINA RESULT:    -3.428      3.518      5.294
REMARK INTER + INTRA:          -4.634
REMARK INTER:                  -4.517
REMARK INTRA:                  -0.118
REMARK UNBOUND:                -0.204
REMARK SMILES CCCCCCC(=O)[O-]
REMARK SMILES IDX 5 1 6 2 7 3 8 4 9 5 4 6 3 7 2 8 1 9
REMARK H PARENT
REMARK Flexibility Score: inf
ROOT
ATOM      1  C   UNL     1      38.455  -7.703  10.292  1.00  0.00     0.006 C 
ENDROOT
BRANCH   1   2
ATOM      2  C   UNL     1      38.521  -6.737   9.102  1.00  0.00     0.053 C 
BRANCH   2   3
ATOM      3  C   UNL     1      39.813  -6.866   8.354  1.00  0.00     0.041 C 
ATOM      4  O   UNL     1      39.850  -6.662   7.112  1.00  0.00    -0.550 OA
ATOM      5  O   UNL     1      40.982  -7.178   9.036  1.00  0.00    -0.550 OA
ENDBRANCH   2   3
ENDBRANCH   1   2
BRANCH   1   6
ATOM      6  C   UNL     1      37.244  -7.427  11.199  1.00  0.00     0.000 C 
BRANCH   6   7
ATOM      7  C   UNL     1      37.617  -7.397  12.690  1.00  0.00    -0.000 C 
BRANCH   7   8
ATOM      8  C   UNL     1      36.633  -6.567  13.527  1.00  0.00    -0.003 C 
ATOM      9  C   UNL     1      35.199  -6.764  13.044  1.00  0.00     0.004 C 
ENDBRANCH   7   8
ENDBRANCH   6   7
ENDBRANCH   1   6
TORSDOF 5
ENDMDL
MODEL 6
REMARK VINA RESULT:    -3.290      3.862      5.279
REMARK INTER + INTRA:          -4.455
REMARK INTER:                  -4.215
REMARK INTRA:                  -0.240
REMARK UNBOUND:                -0.204
REMARK SMILES CCCCCCC(=O)[O-]
REMARK SMILES IDX 5 1 6 2 7 3 8 4 9 5 4 6 3 7 2 8 1 9
REMARK H PARENT
REMARK Flexibility Score: inf
ROOT
ATOM      1  C   UNL     1      38.878  -6.663   9.257  1.00  0.00     0.006 C 
ENDROOT
BRANCH   1   2
ATOM      2  C   UNL     1      40.313  -6.884   9.753  1.00  0.00     0.053 C 
BRANCH   2   3
ATOM      3  C   UNL     1      41.031  -7.913   8.932  1.00  0.00     0.041 C 
ATOM      4  O   UNL     1      41.777  -7.558   7.983  1.00  0.00    -0.550 OA
ATOM      5  O   UNL     1      40.901  -9.260   9.240  1.00  0.00    -0.550 OA
ENDBRANCH   2   3
ENDBRANCH   1   2
BRANCH   1   6
ATOM      6  C   UNL     1      37.834  -7.289  10.197  1.00  0.00     0.000 C 
BRANCH   6   7
ATOM      7  C   UNL     1      38.388  -7.543  11.609  1.00  0.00    -0.000 C 
BRANCH   7   8
ATOM      8  C   UNL     1      37.313  -8.050  12.580  1.00  0.00    -0.003 C 
ATOM      9  C   UNL     1      35.923  -7.590  12.150  1.00  0.00     0.004 C 
ENDBRANCH   7   8
ENDBRANCH   6   7
ENDBRANCH   1   6
TORSDOF 5
ENDMDL
MODEL 7
REMARK VINA RESULT:    -3.286      1.344      2.244
REMARK INTER + INTRA:          -4.451
REMARK INTER:                  -4.214
REMARK INTRA:                  -0.236
REMARK UNBOUND:                -0.204
REMARK SMILES CCCCCCC(=O)[O-]
REMARK SMILES IDX 5 1 6 2 7 3 8 4 9 5 4 6 3 7 2 8 1 9
REMARK H PARENT
REMARK Flexibility Score: inf
ROOT
ATOM      1  C   UNL     1      39.312  -7.864  11.100  1.00  0.00     0.006 C 
ENDROOT
BRANCH   1   2
ATOM      2  C   UNL     1      37.859  -7.378  11.024  1.00  0.00     0.053 C 
BRANCH   2   3
ATOM      3  C   UNL     1      37.155  -7.530  12.338  1.00  0.00     0.041 C 
ATOM      4  O   UNL     1      36.355  -8.485  12.523  1.00  0.00    -0.550 OA
ATOM      5  O   UNL     1      37.409  -6.636  13.370  1.00  0.00    -0.550 OA
ENDBRANCH   2   3
ENDBRANCH   1   2
BRANCH   1   6
ATOM      6  C   UNL     1      40.253  -7.024  10.220  1.00  0.00     0.000 C 
BRANCH   6   7
ATOM      7  C   UNL     1      39.495  -6.188   9.175  1.00  0.00    -0.000 C 
BRANCH   7   8
ATOM      8  C   UNL     1      39.658  -6.738   7.751  1.00  0.00    -0.003 C 
ATOM      9  C   UNL     1      40.928  -7.575   7.628  1.00  0.00     0.004 C 
ENDBRANCH   7   8
ENDBRANCH   6   7
ENDBRANCH   1   6
TORSDOF 5
ENDMDL
MODEL 8
REMARK VINA RESULT:    -3.174      6.901      8.603
REMARK INTER + INTRA:          -4.305
REMARK INTER:                  -4.038
REMARK INTRA:                  -0.268
REMARK UNBOUND:                -0.204
REMARK SMILES CCCCCCC(=O)[O-]
REMARK SMILES IDX 5 1 6 2 7 3 8 4 9 5 4 6 3 7 2 8 1 9
REMARK H PARENT
REMARK Flexibility Score: inf
ROOT
ATOM      1  C   UNL     1      40.982  -6.829   3.554  1.00  0.00     0.006 C 
ENDROOT
BRANCH   1   2
ATOM      2  C   UNL     1      40.611  -6.505   5.007  1.00  0.00     0.053 C 
BRANCH   2   3
ATOM      3  C   UNL     1      41.447  -7.281   5.979  1.00  0.00     0.041 C 
ATOM      4  O   UNL     1      41.109  -7.355   7.189  1.00  0.00    -0.550 OA
ATOM      5  O   UNL     1      42.581  -7.950   5.539  1.00  0.00    -0.550 OA
ENDBRANCH   2   3
ENDBRANCH   1   2
BRANCH   1   6
ATOM      6  C   UNL     1      40.830  -5.609   2.629  1.00  0.00     0.000 C 
BRANCH   6   7
ATOM      7  C   UNL     1      41.037  -4.277   3.369  1.00  0.00    -0.000 C 
BRANCH   7   8
ATOM      8  C   UNL     1      39.970  -3.233   3.012  1.00  0.00    -0.003 C 
ATOM      9  C   UNL     1      38.885  -3.838   2.126  1.00  0.00     0.004 C 
ENDBRANCH   7   8
ENDBRANCH   6   7
ENDBRANCH   1   6
TORSDOF 5
ENDMDL
MODEL 9
REMARK VINA RESULT:    -3.090      3.203      4.740
REMARK INTER + INTRA:          -4.198
REMARK INTER:                  -3.920
REMARK INTRA:                  -0.277
REMARK UNBOUND:                -0.204
REMARK SMILES CCCCCCC(=O)[O-]
REMARK SMILES IDX 5 1 6 2 7 3 8 4 9 5 4 6 3 7 2 8 1 9
REMARK H PARENT
REMARK Flexibility Score: inf
ROOT
ATOM      1  C   UNL     1      38.014  -7.356  12.058  1.00  0.00     0.006 C 
ENDROOT
BRANCH   1   2
ATOM      2  C   UNL     1      38.976  -7.960  11.027  1.00  0.00     0.053 C 
BRANCH   2   3
ATOM      3  C   UNL     1      39.343  -6.968   9.965  1.00  0.00     0.041 C 
ATOM      4  O   UNL     1      40.534  -6.578   9.845  1.00  0.00    -0.550 OA
ATOM      5  O   UNL     1      38.375  -6.502   9.086  1.00  0.00    -0.550 OA
ENDBRANCH   2   3
ENDBRANCH   1   2
BRANCH   1   6
ATOM      6  C   UNL     1      36.560  -7.803  11.828  1.00  0.00     0.000 C 
BRANCH   6   7
ATOM      7  C   UNL     1      36.337  -9.286  12.168  1.00  0.00    -0.000 C 
BRANCH   7   8
ATOM      8  C   UNL     1      36.776  -9.635  13.597  1.00  0.00    -0.003 C 
ATOM      9  C   UNL     1      37.654 -10.883  13.611  1.00  0.00     0.004 C 
ENDBRANCH   7   8
ENDBRANCH   6   7
ENDBRANCH   1   6
TORSDOF 5
ENDMDL
