MODEL 1
REMARK VINA RESULT:    -4.150      0.000      0.000
REMARK INTER + INTRA:          -5.829
REMARK INTER:                  -5.606
REMARK INTRA:                  -0.223
REMARK UNBOUND:                -0.223
REMARK SMILES CCCCCCCC(=O)[O-]
REMARK SMILES IDX 5 1 6 2 7 3 8 4 9 5 10 6 4 7 3 8 2 9 1 10
REMARK H PARENT
REMARK Flexibility Score: inf
ROOT
ATOM      1  C   UNL     1     -26.887  45.742  90.468  1.00  0.00     0.000 C 
ENDROOT
BRANCH   1   2
ATOM      2  C   UNL     1     -26.178  44.386  90.614  1.00  0.00     0.006 C 
BRANCH   2   3
ATOM      3  C   UNL     1     -26.987  43.382  91.446  1.00  0.00     0.053 C 
BRANCH   3   4
ATOM      4  C   UNL     1     -28.149  42.867  90.656  1.00  0.00     0.041 C 
ATOM      5  O   UNL     1     -29.258  42.668  91.218  1.00  0.00    -0.550 OA
ATOM      6  O   UNL     1     -27.994  42.560  89.310  1.00  0.00    -0.550 OA
ENDBRANCH   3   4
ENDBRANCH   2   3
ENDBRANCH   1   2
BRANCH   1   7
ATOM      7  C   UNL     1     -26.032  46.775  89.711  1.00  0.00     0.000 C 
BRANCH   7   8
ATOM      8  C   UNL     1     -26.574  47.070  88.303  1.00  0.00    -0.000 C 
BRANCH   8   9
ATOM      9  C   UNL     1     -25.903  46.215  87.218  1.00  0.00    -0.003 C 
ATOM     10  C   UNL     1     -25.639  47.034  85.957  1.00  0.00     0.004 C 
ENDBRANCH   8   9
ENDBRANCH   7   8
ENDBRANCH   1   7
TORSDOF 6
ENDMDL
MODEL 2
REMARK VINA RESULT:    -4.149      6.969      8.709
REMARK INTER + INTRA:          -5.827
REMARK INTER:                  -5.235
REMARK INTRA:                  -0.592
REMARK UNBOUND:                -0.223
REMARK SMILES CCCCCCCC(=O)[O-]
REMARK SMILES IDX 5 1 6 2 7 3 8 4 9 5 10 6 4 7 3 8 2 9 1 10
REMARK H PARENT
REMARK Flexibility Score: inf
ROOT
ATOM      1  C   UNL     1     -18.096  44.810  84.333  1.00  0.00     0.000 C 
ENDROOT
BRANCH   1   2
ATOM      2  C   UNL     1     -18.866  44.486  85.623  1.00  0.00     0.006 C 
BRANCH   2   3
ATOM      3  C   UNL     1     -20.287  43.975  85.351  1.00  0.00     0.053 C 
BRANCH   3   4
ATOM      4  C   UNL     1     -21.280  44.733  86.175  1.00  0.00     0.041 C 
ATOM      5  O   UNL     1     -22.089  44.117  86.916  1.00  0.00    -0.550 OA
ATOM      6  O   UNL     1     -21.344  46.118  86.086  1.00  0.00    -0.550 OA
ENDBRANCH   3   4
ENDBRANCH   2   3
ENDBRANCH   1   2
BRANCH   1   7
ATOM      7  C   UNL     1     -17.790  46.312  84.189  1.00  0.00     0.000 C 
BRANCH   7   8
ATOM      8  C   UNL     1     -19.022  47.125  83.759  1.00  0.00    -0.000 C 
BRANCH   8   9
ATOM      9  C   UNL     1     -19.606  46.652  82.419  1.00  0.00    -0.003 C 
ATOM     10  C   UNL     1     -21.102  46.370  82.542  1.00  0.00     0.004 C 
ENDBRANCH   8   9
ENDBRANCH   7   8
ENDBRANCH   1   7
TORSDOF 6
ENDMDL
MODEL 3
REMARK VINA RESULT:    -4.127      7.461      8.698
REMARK INTER + INTRA:          -5.798
REMARK INTER:                  -5.442
REMARK INTRA:                  -0.356
REMARK UNBOUND:                -0.223
REMARK SMILES CCCCCCCC(=O)[O-]
REMARK SMILES IDX 5 1 6 2 7 3 8 4 9 5 10 6 4 7 3 8 2 9 1 10
REMARK H PARENT
REMARK Flexibility Score: inf
ROOT
ATOM      1  C   UNL     1     -18.300  44.571  85.370  1.00  0.00     0.000 C 
ENDROOT
BRANCH   1   2
ATOM      2  C   UNL     1     -19.423  43.530  85.228  1.00  0.00     0.006 C 
BRANCH   2   3
ATOM      3  C   UNL     1     -20.315  43.449  86.474  1.00  0.00     0.053 C 
BRANCH   3   4
ATOM      4  C   UNL     1     -20.519  42.022  86.876  1.00  0.00     0.041 C 
ATOM      5  O   UNL     1     -19.541  41.232  86.925  1.00  0.00    -0.550 OA
ATOM      6  O   UNL     1     -21.798  41.553  87.150  1.00  0.00    -0.550 OA
ENDBRANCH   3   4
ENDBRANCH   2   3
ENDBRANCH   1   2
BRANCH   1   7
ATOM      7  C   UNL     1     -17.995  45.293  84.045  1.00  0.00     0.000 C 
BRANCH   7   8
ATOM      8  C   UNL     1     -18.712  46.649  83.935  1.00  0.00    -0.000 C 
BRANCH   8   9
ATOM      9  C   UNL     1     -19.490  46.804  82.621  1.00  0.00    -0.003 C 
ATOM     10  C   UNL     1     -20.757  45.950  82.629  1.00  0.00     0.004 C 
ENDBRANCH   8   9
ENDBRANCH   7   8
ENDBRANCH   1   7
TORSDOF 6
ENDMDL
MODEL 4
REMARK VINA RESULT:    -4.104      0.510      1.144
REMARK INTER + INTRA:          -5.766
REMARK INTER:                  -5.496
REMARK INTRA:                  -0.270
REMARK UNBOUND:                -0.223
REMARK SMILES CCCCCCCC(=O)[O-]
REMARK SMILES IDX 5 1 6 2 7 3 8 4 9 5 10 6 4 7 3 8 2 9 1 10
REMARK H PARENT
REMARK Flexibility Score: inf
ROOT
ATOM      1  C   UNL     1     -27.163  45.849  90.437  1.00  0.00     0.000 C 
ENDROOT
BRANCH   1   2
ATOM      2  C   UNL     1     -26.254  44.616  90.563  1.00  0.00     0.006 C 
BRANCH   2   3
ATOM      3  C   UNL     1     -26.904  43.480  91.364  1.00  0.00     0.053 C 
BRANCH   3   4
ATOM      4  C   UNL     1     -28.045  42.889  90.597  1.00  0.00     0.041 C 
ATOM      5  O   UNL     1     -27.906  42.594  89.382  1.00  0.00    -0.550 OA
ATOM      6  O   UNL     1     -29.278  42.710  91.213  1.00  0.00    -0.550 OA
ENDBRANCH   3   4
ENDBRANCH   2   3
ENDBRANCH   1   2
BRANCH   1   7
ATOM      7  C   UNL     1     -26.636  46.868  89.410  1.00  0.00     0.000 C 
BRANCH   7   8
ATOM      8  C   UNL     1     -25.506  46.295  88.539  1.00  0.00    -0.000 C 
BRANCH   8   9
ATOM      9  C   UNL     1     -25.971  45.949  87.117  1.00  0.00    -0.003 C 
ATOM     10  C   UNL     1     -25.474  46.983  86.109  1.00  0.00     0.004 C 
ENDBRANCH   8   9
ENDBRANCH   7   8
ENDBRANCH   1   7
TORSDOF 6
ENDMDL
MODEL 5
REMARK VINA RESULT:    -3.995     11.416     12.431
REMARK INTER + INTRA:          -5.619
REMARK INTER:                  -5.400
REMARK INTRA:                  -0.219
REMARK UNBOUND:                -0.223
REMARK SMILES CCCCCCCC(=O)[O-]
REMARK SMILES IDX 5 1 6 2 7 3 8 4 9 5 10 6 4 7 3 8 2 9 1 10
REMARK H PARENT
REMARK Flexibility Score: inf
ROOT
ATOM      1  C   UNL     1     -20.237  37.918  85.173  1.00  0.00     0.000 C 
ENDROOT
BRANCH   1   2
ATOM      2  C   UNL     1     -19.023  37.714  84.253  1.00  0.00     0.006 C 
BRANCH   2   3
ATOM      3  C   UNL     1     -18.165  36.509  84.664  1.00  0.00     0.053 C 
BRANCH   3   4
ATOM      4  C   UNL     1     -17.087  36.269  83.654  1.00  0.00     0.041 C 
ATOM      5  O   UNL     1     -16.349  37.216  83.278  1.00  0.00    -0.550 OA
ATOM      6  O   UNL     1     -16.931  35.008  83.091  1.00  0.00    -0.550 OA
ENDBRANCH   3   4
ENDBRANCH   2   3
ENDBRANCH   1   2
BRANCH   1   7
ATOM      7  C   UNL     1     -20.037  39.077  86.165  1.00  0.00     0.000 C 
BRANCH   7   8
ATOM      8  C   UNL     1     -21.134  39.127  87.241  1.00  0.00    -0.000 C 
BRANCH   8   9
ATOM      9  C   UNL     1     -20.570  39.057  88.668  1.00  0.00    -0.003 C 
ATOM     10  C   UNL     1     -19.830  37.741  88.902  1.00  0.00     0.004 C 
ENDBRANCH   8   9
ENDBRANCH   7   8
ENDBRANCH   1   7
TORSDOF 6
ENDMDL
MODEL 6
REMARK VINA RESULT:    -3.992      7.908      8.660
REMARK INTER + INTRA:          -5.616
REMARK INTER:                  -5.491
REMARK INTRA:                  -0.124
REMARK UNBOUND:                -0.223
REMARK SMILES CCCCCCCC(=O)[O-]
REMARK SMILES IDX 5 1 6 2 7 3 8 4 9 5 10 6 4 7 3 8 2 9 1 10
REMARK H PARENT
REMARK Flexibility Score: inf
ROOT
ATOM      1  C   UNL     1     -20.516  42.482  87.064  1.00  0.00     0.000 C 
ENDROOT
BRANCH   1   2
ATOM      2  C   UNL     1     -20.052  41.043  86.787  1.00  0.00     0.006 C 
BRANCH   2   3
ATOM      3  C   UNL     1     -21.169  40.010  86.989  1.00  0.00     0.053 C 
BRANCH   3   4
ATOM      4  C   UNL     1     -20.632  38.623  86.826  1.00  0.00     0.041 C 
ATOM      5  O   UNL     1     -20.244  38.223  85.697  1.00  0.00    -0.550 OA
ATOM      6  O   UNL     1     -20.605  37.755  87.910  1.00  0.00    -0.550 OA
ENDBRANCH   3   4
ENDBRANCH   2   3
ENDBRANCH   1   2
BRANCH   1   7
ATOM      7  C   UNL     1     -20.486  43.364  85.803  1.00  0.00     0.000 C 
BRANCH   7   8
ATOM      8  C   UNL     1     -19.059  43.785  85.413  1.00  0.00    -0.000 C 
BRANCH   8   9
ATOM      9  C   UNL     1     -19.034  45.008  84.484  1.00  0.00    -0.003 C 
ATOM     10  C   UNL     1     -17.621  45.572  84.357  1.00  0.00     0.004 C 
ENDBRANCH   8   9
ENDBRANCH   7   8
ENDBRANCH   1   7
TORSDOF 6
ENDMDL
MODEL 7
REMARK VINA RESULT:    -3.988      6.951      8.264
REMARK INTER + INTRA:          -5.610
REMARK INTER:                  -5.138
REMARK INTRA:                  -0.472
REMARK UNBOUND:                -0.223
REMARK SMILES CCCCCCCC(=O)[O-]
REMARK SMILES IDX 5 1 6 2 7 3 8 4 9 5 10 6 4 7 3 8 2 9 1 10
REMARK H PARENT
REMARK Flexibility Score: inf
ROOT
ATOM      1  C   UNL     1     -21.293  45.206  85.824  1.00  0.00     0.000 C 
ENDROOT
BRANCH   1   2
ATOM      2  C   UNL     1     -20.466  44.253  86.701  1.00  0.00     0.006 C 
BRANCH   2   3
ATOM      3  C   UNL     1     -20.078  42.961  85.970  1.00  0.00     0.053 C 
BRANCH   3   4
ATOM      4  C   UNL     1     -20.464  41.766  86.782  1.00  0.00     0.041 C 
ATOM      5  O   UNL     1     -19.604  40.895  87.077  1.00  0.00    -0.550 OA
ATOM      6  O   UNL     1     -21.786  41.588  87.173  1.00  0.00    -0.550 OA
ENDBRANCH   3   4
ENDBRANCH   2   3
ENDBRANCH   1   2
BRANCH   1   7
ATOM      7  C   UNL     1     -20.733  45.328  84.395  1.00  0.00     0.000 C 
BRANCH   7   8
ATOM      8  C   UNL     1     -19.464  46.194  84.332  1.00  0.00    -0.000 C 
BRANCH   8   9
ATOM      9  C   UNL     1     -18.229  45.403  83.877  1.00  0.00    -0.003 C 
ATOM     10  C   UNL     1     -17.233  45.233  85.021  1.00  0.00     0.004 C 
ENDBRANCH   8   9
ENDBRANCH   7   8
ENDBRANCH   1   7
TORSDOF 6
ENDMDL
MODEL 8
REMARK VINA RESULT:    -3.984      1.540      2.088
REMARK INTER + INTRA:          -5.605
REMARK INTER:                  -5.147
REMARK INTRA:                  -0.458
REMARK UNBOUND:                -0.223
REMARK SMILES CCCCCCCC(=O)[O-]
REMARK SMILES IDX 5 1 6 2 7 3 8 4 9 5 10 6 4 7 3 8 2 9 1 10
REMARK H PARENT
REMARK Flexibility Score: inf
ROOT
ATOM      1  C   UNL     1     -26.298  46.106  89.723  1.00  0.00     0.000 C 
ENDROOT
BRANCH   1   2
ATOM      2  C   UNL     1     -27.352  45.372  90.568  1.00  0.00     0.006 C 
BRANCH   2   3
ATOM      3  C   UNL     1     -27.024  43.886  90.766  1.00  0.00     0.053 C 
BRANCH   3   4
ATOM      4  C   UNL     1     -28.180  43.036  90.344  1.00  0.00     0.041 C 
ATOM      5  O   UNL     1     -29.023  42.646  91.194  1.00  0.00    -0.550 OA
ATOM      6  O   UNL     1     -28.300  42.633  89.020  1.00  0.00    -0.550 OA
ENDBRANCH   3   4
ENDBRANCH   2   3
ENDBRANCH   1   2
BRANCH   1   7
ATOM      7  C   UNL     1     -26.190  45.542  88.295  1.00  0.00     0.000 C 
BRANCH   7   8
ATOM      8  C   UNL     1     -24.790  45.735  87.690  1.00  0.00    -0.000 C 
BRANCH   8   9
ATOM      9  C   UNL     1     -23.673  45.184  88.589  1.00  0.00    -0.003 C 
ATOM     10  C   UNL     1     -23.718  43.658  88.647  1.00  0.00     0.004 C 
ENDBRANCH   8   9
ENDBRANCH   7   8
ENDBRANCH   1   7
TORSDOF 6
ENDMDL
MODEL 9
REMARK VINA RESULT:    -3.871      7.486      8.383
REMARK INTER + INTRA:          -5.452
REMARK INTER:                  -5.262
REMARK INTRA:                  -0.190
REMARK UNBOUND:                -0.223
REMARK SMILES CCCCCCCC(=O)[O-]
REMARK SMILES IDX 5 1 6 2 7 3 8 4 9 5 10 6 4 7 3 8 2 9 1 10
REMARK H PARENT
REMARK Flexibility Score: inf
ROOT
ATOM      1  C   UNL     1     -20.593  43.818  86.331  1.00  0.00     0.000 C 
ENDROOT
BRANCH   1   2
ATOM      2  C   UNL     1     -20.942  42.684  87.308  1.00  0.00     0.006 C 
BRANCH   2   3
ATOM      3  C   UNL     1     -20.251  41.361  86.951  1.00  0.00     0.053 C 
BRANCH   3   4
ATOM      4  C   UNL     1     -20.237  40.445  88.134  1.00  0.00     0.041 C 
ATOM      5  O   UNL     1     -19.495  40.695  89.119  1.00  0.00    -0.550 OA
ATOM      6  O   UNL     1     -21.006  39.288  88.128  1.00  0.00    -0.550 OA
ENDBRANCH   3   4
ENDBRANCH   2   3
ENDBRANCH   1   2
BRANCH   1   7
ATOM      7  C   UNL     1     -19.424  43.454  85.398  1.00  0.00     0.000 C 
BRANCH   7   8
ATOM      8  C   UNL     1     -18.332  44.536  85.373  1.00  0.00    -0.000 C 
BRANCH   8   9
ATOM      9  C   UNL     1     -18.288  45.304  84.044  1.00  0.00    -0.003 C 
ATOM     10  C   UNL     1     -17.658  46.682  84.226  1.00  0.00     0.004 C 
ENDBRANCH   8   9
ENDBRANCH   7   8
ENDBRANCH   1   7
TORSDOF 6
ENDMDL
