MODEL 1
REMARK VINA RESULT:    -4.772      0.000      0.000
REMARK INTER + INTRA:          -5.144
REMARK INTER:                  -5.051
REMARK INTRA:                  -0.093
REMARK UNBOUND:                -0.093
REMARK SMILES C=C(C)[C@@H]1CC=C(C)C(=O)C1
REMARK SMILES IDX 8 1 7 2 6 3 5 4 4 5 11 6 9 7 10 8 2 9 1 10 3 11
REMARK H PARENT
REMARK Flexibility Score: inf
ROOT
ATOM      1  C   UNL     1     197.115 212.697 215.604  1.00  0.00     0.048 C 
ATOM      2  C   UNL     1     197.783 211.394 215.950  1.00  0.00    -0.012 C 
ATOM      3  C   UNL     1     197.039 210.340 216.326  1.00  0.00    -0.019 C 
ATOM      4  C   UNL     1     197.653 209.008 216.667  1.00  0.00     0.036 C 
ATOM      5  C   UNL     1     199.047 209.186 217.300  1.00  0.00     0.025 C 
ATOM      6  C   UNL     1     199.949 210.027 216.378  1.00  0.00     0.089 C 
ATOM      7  C   UNL     1     199.265 211.312 215.995  1.00  0.00     0.158 C 
ATOM      8  O   UNL     1     199.965 212.310 215.678  1.00  0.00    -0.295 OA
ENDROOT
BRANCH   5   9
ATOM      9  C   UNL     1     199.685 207.847 217.640  1.00  0.00    -0.077 C 
ATOM     10  C   UNL     1     200.597 207.735 218.621  1.00  0.00     0.008 C 
ATOM     11  C   UNL     1     199.298 206.608 216.873  1.00  0.00     0.039 C 
ENDBRANCH   5   9
TORSDOF 1
ENDMDL
MODEL 2
REMARK VINA RESULT:    -4.767     14.482     16.895
REMARK INTER + INTRA:          -5.139
REMARK INTER:                  -5.046
REMARK INTRA:                  -0.093
REMARK UNBOUND:                -0.093
REMARK SMILES C=C(C)[C@@H]1CC=C(C)C(=O)C1
REMARK SMILES IDX 8 1 7 2 6 3 5 4 4 5 11 6 9 7 10 8 2 9 1 10 3 11
REMARK H PARENT
REMARK Flexibility Score: inf
ROOT
ATOM      1  C   UNL     1     215.086 199.587 215.564  1.00  0.00     0.048 C 
ATOM      2  C   UNL     1     214.422 200.891 215.910  1.00  0.00    -0.012 C 
ATOM      3  C   UNL     1     215.170 201.946 216.277  1.00  0.00    -0.019 C 
ATOM      4  C   UNL     1     214.559 203.280 216.617  1.00  0.00     0.036 C 
ATOM      5  C   UNL     1     213.170 203.105 217.262  1.00  0.00     0.025 C 
ATOM      6  C   UNL     1     212.261 202.261 216.350  1.00  0.00     0.089 C 
ATOM      7  C   UNL     1     212.941 200.974 215.967  1.00  0.00     0.158 C 
ATOM      8  O   UNL     1     212.238 199.976 215.658  1.00  0.00    -0.295 OA
ENDROOT
BRANCH   5   9
ATOM      9  C   UNL     1     212.536 204.446 217.602  1.00  0.00    -0.077 C 
ATOM     10  C   UNL     1     211.612 204.557 218.574  1.00  0.00     0.008 C 
ATOM     11  C   UNL     1     212.938 205.686 216.847  1.00  0.00     0.039 C 
ENDBRANCH   5   9
TORSDOF 1
ENDMDL
MODEL 3
REMARK VINA RESULT:    -4.550      1.903      4.412
REMARK INTER + INTRA:          -4.909
REMARK INTER:                  -4.813
REMARK INTRA:                  -0.095
REMARK UNBOUND:                -0.093
REMARK SMILES C=C(C)[C@@H]1CC=C(C)C(=O)C1
REMARK SMILES IDX 8 1 7 2 6 3 5 4 4 5 11 6 9 7 10 8 2 9 1 10 3 11
REMARK H PARENT
REMARK Flexibility Score: inf
ROOT
ATOM      1  C   UNL     1     199.343 205.490 216.926  1.00  0.00     0.048 C 
ATOM      2  C   UNL     1     199.092 206.969 216.811  1.00  0.00    -0.012 C 
ATOM      3  C   UNL     1     198.252 207.434 215.871  1.00  0.00    -0.019 C 
ATOM      4  C   UNL     1     197.952 208.902 215.724  1.00  0.00     0.036 C 
ATOM      5  C   UNL     1     199.175 209.759 216.105  1.00  0.00     0.025 C 
ATOM      6  C   UNL     1     199.657 209.401 217.523  1.00  0.00     0.089 C 
ATOM      7  C   UNL     1     199.866 207.917 217.652  1.00  0.00     0.158 C 
ATOM      8  O   UNL     1     200.681 207.483 218.509  1.00  0.00    -0.295 OA
ENDROOT
BRANCH   5   9
ATOM      9  C   UNL     1     198.882 211.247 215.970  1.00  0.00    -0.077 C 
ATOM     10  C   UNL     1     199.851 212.167 216.121  1.00  0.00     0.008 C 
ATOM     11  C   UNL     1     197.484 211.718 215.660  1.00  0.00     0.039 C 
ENDBRANCH   5   9
TORSDOF 1
ENDMDL
MODEL 4
REMARK VINA RESULT:    -4.539      3.007      5.228
REMARK INTER + INTRA:          -4.897
REMARK INTER:                  -4.802
REMARK INTRA:                  -0.095
REMARK UNBOUND:                -0.093
REMARK SMILES C=C(C)[C@@H]1CC=C(C)C(=O)C1
REMARK SMILES IDX 8 1 7 2 6 3 5 4 4 5 11 6 9 7 10 8 2 9 1 10 3 11
REMARK H PARENT
REMARK Flexibility Score: inf
ROOT
ATOM      1  C   UNL     1     198.106 203.373 214.555  1.00  0.00     0.048 C 
ATOM      2  C   UNL     1     198.437 204.719 215.139  1.00  0.00    -0.012 C 
ATOM      3  C   UNL     1     199.199 204.800 216.244  1.00  0.00    -0.019 C 
ATOM      4  C   UNL     1     199.575 206.122 216.860  1.00  0.00     0.036 C 
ATOM      5  C   UNL     1     198.460 207.166 216.659  1.00  0.00     0.025 C 
ATOM      6  C   UNL     1     198.113 207.295 215.164  1.00  0.00     0.089 C 
ATOM      7  C   UNL     1     197.823 205.944 214.568  1.00  0.00     0.158 C 
ATOM      8  O   UNL     1     197.080 205.867 213.554  1.00  0.00    -0.295 OA
ENDROOT
BRANCH   5   9
ATOM      9  C   UNL     1     198.831 208.510 217.268  1.00  0.00    -0.077 C 
ATOM     10  C   UNL     1     199.565 208.590 218.392  1.00  0.00     0.008 C 
ATOM     11  C   UNL     1     198.377 209.789 216.613  1.00  0.00     0.039 C 
ENDBRANCH   5   9
TORSDOF 1
ENDMDL
MODEL 5
REMARK VINA RESULT:    -4.522     14.504     15.882
REMARK INTER + INTRA:          -4.879
REMARK INTER:                  -4.785
REMARK INTRA:                  -0.093
REMARK UNBOUND:                -0.093
REMARK SMILES C=C(C)[C@@H]1CC=C(C)C(=O)C1
REMARK SMILES IDX 8 1 7 2 6 3 5 4 4 5 11 6 9 7 10 8 2 9 1 10 3 11
REMARK H PARENT
REMARK Flexibility Score: inf
ROOT
ATOM      1  C   UNL     1     212.866 206.819 216.788  1.00  0.00     0.048 C 
ATOM      2  C   UNL     1     213.130 205.340 216.718  1.00  0.00    -0.012 C 
ATOM      3  C   UNL     1     213.934 204.848 215.759  1.00  0.00    -0.019 C 
ATOM      4  C   UNL     1     214.247 203.379 215.654  1.00  0.00     0.036 C 
ATOM      5  C   UNL     1     213.054 202.523 216.121  1.00  0.00     0.025 C 
ATOM      6  C   UNL     1     212.630 202.930 217.544  1.00  0.00     0.089 C 
ATOM      7  C   UNL     1     212.407 204.415 217.627  1.00  0.00     0.158 C 
ATOM      8  O   UNL     1     211.625 204.871 218.503  1.00  0.00    -0.295 OA
ENDROOT
BRANCH   5   9
ATOM      9  C   UNL     1     213.360 201.035 216.029  1.00  0.00    -0.077 C 
ATOM     10  C   UNL     1     212.376 200.120 215.971  1.00  0.00     0.008 C 
ATOM     11  C   UNL     1     214.789 200.557 216.000  1.00  0.00     0.039 C 
ENDBRANCH   5   9
TORSDOF 1
ENDMDL
MODEL 6
REMARK VINA RESULT:    -4.514     14.731     15.584
REMARK INTER + INTRA:          -4.871
REMARK INTER:                  -4.773
REMARK INTRA:                  -0.098
REMARK UNBOUND:                -0.093
REMARK SMILES C=C(C)[C@@H]1CC=C(C)C(=O)C1
REMARK SMILES IDX 8 1 7 2 6 3 5 4 4 5 11 6 9 7 10 8 2 9 1 10 3 11
REMARK H PARENT
REMARK Flexibility Score: inf
ROOT
ATOM      1  C   UNL     1     214.231 209.001 214.503  1.00  0.00     0.048 C 
ATOM      2  C   UNL     1     213.886 207.664 215.099  1.00  0.00    -0.012 C 
ATOM      3  C   UNL     1     213.119 207.600 216.201  1.00  0.00    -0.019 C 
ATOM      4  C   UNL     1     212.729 206.288 216.829  1.00  0.00     0.036 C 
ATOM      5  C   UNL     1     213.837 205.233 216.644  1.00  0.00     0.025 C 
ATOM      6  C   UNL     1     214.190 205.086 215.152  1.00  0.00     0.089 C 
ATOM      7  C   UNL     1     214.493 206.428 214.544  1.00  0.00     0.158 C 
ATOM      8  O   UNL     1     215.242 206.490 213.532  1.00  0.00    -0.295 OA
ENDROOT
BRANCH   5   9
ATOM      9  C   UNL     1     213.452 203.899 217.265  1.00  0.00    -0.077 C 
ATOM     10  C   UNL     1     213.999 202.745 216.841  1.00  0.00     0.008 C 
ATOM     11  C   UNL     1     212.439 203.848 218.380  1.00  0.00     0.039 C 
ENDBRANCH   5   9
TORSDOF 1
ENDMDL
MODEL 7
REMARK VINA RESULT:    -4.436     14.809     17.071
REMARK INTER + INTRA:          -4.788
REMARK INTER:                  -4.690
REMARK INTRA:                  -0.098
REMARK UNBOUND:                -0.093
REMARK SMILES C=C(C)[C@@H]1CC=C(C)C(=O)C1
REMARK SMILES IDX 8 1 7 2 6 3 5 4 4 5 11 6 9 7 10 8 2 9 1 10 3 11
REMARK H PARENT
REMARK Flexibility Score: inf
ROOT
ATOM      1  C   UNL     1     213.841 198.713 215.631  1.00  0.00     0.048 C 
ATOM      2  C   UNL     1     213.665 200.100 216.187  1.00  0.00    -0.012 C 
ATOM      3  C   UNL     1     212.552 200.410 216.874  1.00  0.00    -0.019 C 
ATOM      4  C   UNL     1     212.333 201.777 217.466  1.00  0.00     0.036 C 
ATOM      5  C   UNL     1     212.988 202.869 216.599  1.00  0.00     0.025 C 
ATOM      6  C   UNL     1     214.481 202.557 216.385  1.00  0.00     0.089 C 
ATOM      7  C   UNL     1     214.661 201.155 215.871  1.00  0.00     0.158 C 
ATOM      8  O   UNL     1     215.688 200.875 215.196  1.00  0.00    -0.295 OA
ENDROOT
BRANCH   5   9
ATOM      9  C   UNL     1     212.782 204.256 217.192  1.00  0.00    -0.077 C 
ATOM     10  C   UNL     1     213.506 205.310 216.774  1.00  0.00     0.008 C 
ATOM     11  C   UNL     1     211.751 204.472 218.269  1.00  0.00     0.039 C 
ENDBRANCH   5   9
TORSDOF 1
ENDMDL
MODEL 8
REMARK VINA RESULT:    -4.423     14.750     15.896
REMARK INTER + INTRA:          -4.774
REMARK INTER:                  -4.679
REMARK INTRA:                  -0.095
REMARK UNBOUND:                -0.093
REMARK SMILES C=C(C)[C@@H]1CC=C(C)C(=O)C1
REMARK SMILES IDX 8 1 7 2 6 3 5 4 4 5 11 6 9 7 10 8 2 9 1 10 3 11
REMARK H PARENT
REMARK Flexibility Score: inf
ROOT
ATOM      1  C   UNL     1     213.108 207.138 216.756  1.00  0.00     0.048 C 
ATOM      2  C   UNL     1     213.096 205.648 216.544  1.00  0.00    -0.012 C 
ATOM      3  C   UNL     1     212.477 204.851 217.432  1.00  0.00    -0.019 C 
ATOM      4  C   UNL     1     212.419 203.356 217.260  1.00  0.00     0.036 C 
ATOM      5  C   UNL     1     213.686 202.829 216.558  1.00  0.00     0.025 C 
ATOM      6  C   UNL     1     213.901 203.564 215.222  1.00  0.00     0.089 C 
ATOM      7  C   UNL     1     213.870 205.054 215.426  1.00  0.00     0.158 C 
ATOM      8  O   UNL     1     214.481 205.798 214.613  1.00  0.00    -0.295 OA
ENDROOT
BRANCH   5   9
ATOM      9  C   UNL     1     213.637 201.320 216.369  1.00  0.00    -0.077 C 
ATOM     10  C   UNL     1     214.688 200.642 215.875  1.00  0.00     0.008 C 
ATOM     11  C   UNL     1     212.394 200.552 216.737  1.00  0.00     0.039 C 
ENDBRANCH   5   9
TORSDOF 1
ENDMDL
MODEL 9
REMARK VINA RESULT:    -4.404      2.128      4.598
REMARK INTER + INTRA:          -4.755
REMARK INTER:                  -4.658
REMARK INTRA:                  -0.096
REMARK UNBOUND:                -0.093
REMARK SMILES C=C(C)[C@@H]1CC=C(C)C(=O)C1
REMARK SMILES IDX 8 1 7 2 6 3 5 4 4 5 11 6 9 7 10 8 2 9 1 10 3 11
REMARK H PARENT
REMARK Flexibility Score: inf
ROOT
ATOM      1  C   UNL     1     199.109 205.234 216.751  1.00  0.00     0.048 C 
ATOM      2  C   UNL     1     199.159 206.725 216.555  1.00  0.00    -0.012 C 
ATOM      3  C   UNL     1     199.806 207.496 217.446  1.00  0.00    -0.019 C 
ATOM      4  C   UNL     1     199.902 208.990 217.290  1.00  0.00     0.036 C 
ATOM      5  C   UNL     1     198.644 209.558 216.605  1.00  0.00     0.025 C 
ATOM      6  C   UNL     1     198.398 208.845 215.263  1.00  0.00     0.089 C 
ATOM      7  C   UNL     1     198.391 207.351 215.450  1.00  0.00     0.158 C 
ATOM      8  O   UNL     1     197.754 206.633 214.634  1.00  0.00    -0.295 OA
ENDROOT
BRANCH   5   9
ATOM      9  C   UNL     1     198.731 211.068 216.431  1.00  0.00    -0.077 C 
ATOM     10  C   UNL     1     199.850 211.745 216.744  1.00  0.00     0.008 C 
ATOM     11  C   UNL     1     197.550 211.838 215.898  1.00  0.00     0.039 C 
ENDBRANCH   5   9
TORSDOF 1
ENDMDL
