MODEL 1
REMARK VINA RESULT:    -4.610      0.000      0.000
REMARK INTER + INTRA:          -8.845
REMARK INTER:                  -8.114
REMARK INTRA:                  -0.732
REMARK UNBOUND:                -0.732
REMARK SMILES CCCCCCC=CCCCCCCCC(=O)[O-]
REMARK SMILES IDX 10 1 11 2 12 3 13 4 14 5 15 6 16 7 17 8 18 9 9 10 8 11 7 12
REMARK SMILES IDX 6 13 5 14 4 15 3 16 2 17 1 18
REMARK H PARENT
REMARK Flexibility Score: inf
ROOT
ATOM      1  C   UNL     1     148.735 150.454 157.832  1.00  0.00     0.004 C 
ENDROOT
BRANCH   1   2
ATOM      2  C   UNL     1     147.256 150.845 157.694  1.00  0.00     0.000 C 
BRANCH   2   3
ATOM      3  C   UNL     1     147.051 152.333 158.013  1.00  0.00     0.000 C 
BRANCH   3   4
ATOM      4  C   UNL     1     148.376 153.104 158.123  1.00  0.00     0.000 C 
BRANCH   4   5
ATOM      5  C   UNL     1     148.543 154.157 157.013  1.00  0.00     0.006 C 
BRANCH   5   6
ATOM      6  C   UNL     1     149.950 154.769 157.004  1.00  0.00     0.053 C 
BRANCH   6   7
ATOM      7  C   UNL     1     149.915 156.245 157.264  1.00  0.00     0.041 C 
ATOM      8  O   UNL     1     148.814 156.834 157.431  1.00  0.00    -0.550 OA
ATOM      9  O   UNL     1     151.100 156.964 157.350  1.00  0.00    -0.550 OA
ENDBRANCH   6   7
ENDBRANCH   5   6
ENDBRANCH   4   5
ENDBRANCH   3   4
ENDBRANCH   2   3
ENDBRANCH   1   2
BRANCH   1  10
ATOM     10  C   UNL     1     149.016 149.046 157.285  1.00  0.00     0.027 C 
BRANCH  10  11
ATOM     11  C   UNL     1     147.813 148.146 157.369  1.00  0.00    -0.031 C 
ATOM     12  C   UNL     1     147.922 146.813 157.279  1.00  0.00    -0.031 C 
BRANCH  12  13
ATOM     13  C   UNL     1     146.703 145.936 157.367  1.00  0.00     0.027 C 
BRANCH  13  14
ATOM     14  C   UNL     1     147.010 144.637 158.125  1.00  0.00     0.004 C 
BRANCH  14  15
ATOM     15  C   UNL     1     148.267 143.927 157.598  1.00  0.00     0.000 C 
BRANCH  15  16
ATOM     16  C   UNL     1     148.325 142.446 158.009  1.00  0.00    -0.000 C 
BRANCH  16  17
ATOM     17  C   UNL     1     146.938 141.785 158.025  1.00  0.00    -0.003 C 
ATOM     18  C   UNL     1     146.878 140.517 157.174  1.00  0.00     0.004 C 
ENDBRANCH  16  17
ENDBRANCH  15  16
ENDBRANCH  14  15
ENDBRANCH  13  14
ENDBRANCH  12  13
ENDBRANCH  10  11
ENDBRANCH   1  10
TORSDOF 13
ENDMDL
MODEL 2
REMARK VINA RESULT:    -4.499      6.003     11.089
REMARK INTER + INTRA:          -8.650
REMARK INTER:                  -8.157
REMARK INTRA:                  -0.493
REMARK UNBOUND:                -0.732
REMARK SMILES CCCCCCC=CCCCCCCCC(=O)[O-]
REMARK SMILES IDX 10 1 11 2 12 3 13 4 14 5 15 6 16 7 17 8 18 9 9 10 8 11 7 12
REMARK SMILES IDX 6 13 5 14 4 15 3 16 2 17 1 18
REMARK H PARENT
REMARK Flexibility Score: inf
ROOT
ATOM      1  C   UNL     1     147.985 146.244 156.113  1.00  0.00     0.004 C 
ENDROOT
BRANCH   1   2
ATOM      2  C   UNL     1     148.827 145.323 157.009  1.00  0.00     0.000 C 
BRANCH   2   3
ATOM      3  C   UNL     1     147.931 144.524 157.967  1.00  0.00     0.000 C 
BRANCH   3   4
ATOM      4  C   UNL     1     148.298 143.032 158.017  1.00  0.00     0.000 C 
BRANCH   4   5
ATOM      5  C   UNL     1     147.062 142.120 158.113  1.00  0.00     0.006 C 
BRANCH   5   6
ATOM      6  C   UNL     1     147.416 140.643 157.903  1.00  0.00     0.053 C 
BRANCH   6   7
ATOM      7  C   UNL     1     146.193 139.803 157.688  1.00  0.00     0.041 C 
ATOM      8  O   UNL     1     145.051 140.334 157.692  1.00  0.00    -0.550 OA
ATOM      9  O   UNL     1     146.318 138.440 157.454  1.00  0.00    -0.550 OA
ENDBRANCH   6   7
ENDBRANCH   5   6
ENDBRANCH   4   5
ENDBRANCH   3   4
ENDBRANCH   2   3
ENDBRANCH   1   2
BRANCH   1  10
ATOM     10  C   UNL     1     148.594 147.650 155.993  1.00  0.00     0.027 C 
BRANCH  10  11
ATOM     11  C   UNL     1     148.069 148.594 157.040  1.00  0.00    -0.031 C 
ATOM     12  C   UNL     1     147.559 149.791 156.717  1.00  0.00    -0.031 C 
BRANCH  12  13
ATOM     13  C   UNL     1     147.041 150.717 157.783  1.00  0.00     0.027 C 
BRANCH  13  14
ATOM     14  C   UNL     1     147.979 151.916 157.979  1.00  0.00     0.004 C 
BRANCH  14  15
ATOM     15  C   UNL     1     147.220 153.244 158.125  1.00  0.00     0.000 C 
BRANCH  15  16
ATOM     16  C   UNL     1     148.150 154.468 158.058  1.00  0.00    -0.000 C 
BRANCH  16  17
ATOM     17  C   UNL     1     149.621 154.077 157.843  1.00  0.00    -0.003 C 
ATOM     18  C   UNL     1     150.340 155.002 156.861  1.00  0.00     0.004 C 
ENDBRANCH  16  17
ENDBRANCH  15  16
ENDBRANCH  14  15
ENDBRANCH  13  14
ENDBRANCH  12  13
ENDBRANCH  10  11
ENDBRANCH   1  10
TORSDOF 13
ENDMDL
MODEL 3
REMARK VINA RESULT:    -4.394      1.795      3.118
REMARK INTER + INTRA:          -8.464
REMARK INTER:                  -8.010
REMARK INTRA:                  -0.454
REMARK UNBOUND:                -0.732
REMARK SMILES CCCCCCC=CCCCCCCCC(=O)[O-]
REMARK SMILES IDX 10 1 11 2 12 3 13 4 14 5 15 6 16 7 17 8 18 9 9 10 8 11 7 12
REMARK SMILES IDX 6 13 5 14 4 15 3 16 2 17 1 18
REMARK H PARENT
REMARK Flexibility Score: inf
ROOT
ATOM      1  C   UNL     1     147.932 147.576 155.077  1.00  0.00     0.004 C 
ENDROOT
BRANCH   1   2
ATOM      2  C   UNL     1     146.781 148.102 155.947  1.00  0.00     0.000 C 
BRANCH   2   3
ATOM      3  C   UNL     1     147.265 149.227 156.875  1.00  0.00     0.000 C 
BRANCH   3   4
ATOM      4  C   UNL     1     146.210 150.328 157.073  1.00  0.00     0.000 C 
BRANCH   4   5
ATOM      5  C   UNL     1     146.790 151.742 156.901  1.00  0.00     0.006 C 
BRANCH   5   6
ATOM      6  C   UNL     1     147.619 152.179 158.116  1.00  0.00     0.053 C 
BRANCH   6   7
ATOM      7  C   UNL     1     148.113 153.586 157.975  1.00  0.00     0.041 C 
ATOM      8  O   UNL     1     149.347 153.819 157.876  1.00  0.00    -0.550 OA
ATOM      9  O   UNL     1     147.208 154.639 157.925  1.00  0.00    -0.550 OA
ENDBRANCH   6   7
ENDBRANCH   5   6
ENDBRANCH   4   5
ENDBRANCH   3   4
ENDBRANCH   2   3
ENDBRANCH   1   2
BRANCH   1  10
ATOM     10  C   UNL     1     149.007 146.859 155.909  1.00  0.00     0.027 C 
BRANCH  10  11
ATOM     11  C   UNL     1     148.414 145.966 156.965  1.00  0.00    -0.031 C 
ATOM     12  C   UNL     1     148.746 144.671 157.060  1.00  0.00    -0.031 C 
BRANCH  12  13
ATOM     13  C   UNL     1     148.139 143.799 158.125  1.00  0.00     0.027 C 
BRANCH  13  14
ATOM     14  C   UNL     1     148.269 142.313 157.765  1.00  0.00     0.004 C 
BRANCH  14  15
ATOM     15  C   UNL     1     146.946 141.706 157.272  1.00  0.00     0.000 C 
BRANCH  15  16
ATOM     16  C   UNL     1     146.717 140.279 157.800  1.00  0.00    -0.000 C 
BRANCH  16  17
ATOM     17  C   UNL     1     145.784 139.459 156.895  1.00  0.00    -0.003 C 
ATOM     18  C   UNL     1     144.576 140.260 156.413  1.00  0.00     0.004 C 
ENDBRANCH  16  17
ENDBRANCH  15  16
ENDBRANCH  14  15
ENDBRANCH  13  14
ENDBRANCH  12  13
ENDBRANCH  10  11
ENDBRANCH   1  10
TORSDOF 13
ENDMDL
MODEL 4
REMARK VINA RESULT:    -4.175      1.496      2.879
REMARK INTER + INTRA:          -8.079
REMARK INTER:                  -7.580
REMARK INTRA:                  -0.500
REMARK UNBOUND:                -0.732
REMARK SMILES CCCCCCC=CCCCCCCCC(=O)[O-]
REMARK SMILES IDX 10 1 11 2 12 3 13 4 14 5 15 6 16 7 17 8 18 9 9 10 8 11 7 12
REMARK SMILES IDX 6 13 5 14 4 15 3 16 2 17 1 18
REMARK H PARENT
REMARK Flexibility Score: inf
ROOT
ATOM      1  C   UNL     1     147.888 152.907 157.678  1.00  0.00     0.004 C 
ENDROOT
BRANCH   1   2
ATOM      2  C   UNL     1     147.038 154.179 157.816  1.00  0.00     0.000 C 
BRANCH   2   3
ATOM      3  C   UNL     1     147.920 155.397 158.125  1.00  0.00     0.000 C 
BRANCH   3   4
ATOM      4  C   UNL     1     149.275 155.347 157.399  1.00  0.00     0.000 C 
BRANCH   4   5
ATOM      5  C   UNL     1     150.263 156.406 157.916  1.00  0.00     0.006 C 
BRANCH   5   6
ATOM      6  C   UNL     1     150.900 157.209 156.774  1.00  0.00     0.053 C 
BRANCH   6   7
ATOM      7  C   UNL     1     152.335 157.536 157.056  1.00  0.00     0.041 C 
ATOM      8  O   UNL     1     152.653 158.125 158.123  1.00  0.00    -0.550 OA
ATOM      9  O   UNL     1     153.323 157.164 156.154  1.00  0.00    -0.550 OA
ENDBRANCH   6   7
ENDBRANCH   5   6
ENDBRANCH   4   5
ENDBRANCH   3   4
ENDBRANCH   2   3
ENDBRANCH   1   2
BRANCH   1  10
ATOM     10  C   UNL     1     147.068 151.632 157.925  1.00  0.00     0.027 C 
BRANCH  10  11
ATOM     11  C   UNL     1     147.935 150.407 158.047  1.00  0.00    -0.031 C 
ATOM     12  C   UNL     1     147.687 149.295 157.340  1.00  0.00    -0.031 C 
BRANCH  12  13
ATOM     13  C   UNL     1     148.568 148.084 157.480  1.00  0.00     0.027 C 
BRANCH  13  14
ATOM     14  C   UNL     1     148.093 146.945 156.568  1.00  0.00     0.004 C 
BRANCH  14  15
ATOM     15  C   UNL     1     146.975 146.104 157.204  1.00  0.00     0.000 C 
BRANCH  15  16
ATOM     16  C   UNL     1     147.520 144.975 158.095  1.00  0.00    -0.000 C 
BRANCH  16  17
ATOM     17  C   UNL     1     148.420 143.998 157.322  1.00  0.00    -0.003 C 
ATOM     18  C   UNL     1     148.418 142.592 157.922  1.00  0.00     0.004 C 
ENDBRANCH  16  17
ENDBRANCH  15  16
ENDBRANCH  14  15
ENDBRANCH  13  14
ENDBRANCH  12  13
ENDBRANCH  10  11
ENDBRANCH   1  10
TORSDOF 13
ENDMDL
MODEL 5
REMARK VINA RESULT:    -4.127      3.041      5.787
REMARK INTER + INTRA:          -7.995
REMARK INTER:                  -7.475
REMARK INTRA:                  -0.521
REMARK UNBOUND:                -0.732
REMARK SMILES CCCCCCC=CCCCCCCCC(=O)[O-]
REMARK SMILES IDX 10 1 11 2 12 3 13 4 14 5 15 6 16 7 17 8 18 9 9 10 8 11 7 12
REMARK SMILES IDX 6 13 5 14 4 15 3 16 2 17 1 18
REMARK H PARENT
REMARK Flexibility Score: inf
ROOT
ATOM      1  C   UNL     1     147.727 144.942 158.092  1.00  0.00     0.004 C 
ENDROOT
BRANCH   1   2
ATOM      2  C   UNL     1     147.661 145.687 156.750  1.00  0.00     0.000 C 
BRANCH   2   3
ATOM      3  C   UNL     1     149.037 146.255 156.371  1.00  0.00     0.000 C 
BRANCH   3   4
ATOM      4  C   UNL     1     149.096 147.787 156.476  1.00  0.00     0.000 C 
BRANCH   4   5
ATOM      5  C   UNL     1     148.034 148.357 157.432  1.00  0.00     0.006 C 
BRANCH   5   6
ATOM      6  C   UNL     1     148.299 149.828 157.779  1.00  0.00     0.053 C 
BRANCH   6   7
ATOM      7  C   UNL     1     147.099 150.686 157.516  1.00  0.00     0.041 C 
ATOM      8  O   UNL     1     147.124 151.914 157.796  1.00  0.00    -0.550 OA
ATOM      9  O   UNL     1     145.964 150.136 156.936  1.00  0.00    -0.550 OA
ENDBRANCH   6   7
ENDBRANCH   5   6
ENDBRANCH   4   5
ENDBRANCH   3   4
ENDBRANCH   2   3
ENDBRANCH   1   2
BRANCH   1  10
ATOM     10  C   UNL     1     148.401 143.568 157.960  1.00  0.00     0.027 C 
BRANCH  10  11
ATOM     11  C   UNL     1     147.426 142.433 158.121  1.00  0.00    -0.031 C 
ATOM     12  C   UNL     1     147.799 141.155 157.955  1.00  0.00    -0.031 C 
BRANCH  12  13
ATOM     13  C   UNL     1     146.805 140.039 158.122  1.00  0.00     0.027 C 
BRANCH  13  14
ATOM     14  C   UNL     1     147.233 138.794 157.333  1.00  0.00     0.004 C 
BRANCH  14  15
ATOM     15  C   UNL     1     146.050 137.875 156.989  1.00  0.00     0.000 C 
BRANCH  15  16
ATOM     16  C   UNL     1     144.725 138.364 157.599  1.00  0.00    -0.000 C 
BRANCH  16  17
ATOM     17  C   UNL     1     143.763 138.928 156.542  1.00  0.00    -0.003 C 
ATOM     18  C   UNL     1     144.306 140.182 155.858  1.00  0.00     0.004 C 
ENDBRANCH  16  17
ENDBRANCH  15  16
ENDBRANCH  14  15
ENDBRANCH  13  14
ENDBRANCH  12  13
ENDBRANCH  10  11
ENDBRANCH   1  10
TORSDOF 13
ENDMDL
MODEL 6
REMARK VINA RESULT:    -4.099      6.276     11.345
REMARK INTER + INTRA:          -7.946
REMARK INTER:                  -7.572
REMARK INTRA:                  -0.374
REMARK UNBOUND:                -0.732
REMARK SMILES CCCCCCC=CCCCCCCCC(=O)[O-]
REMARK SMILES IDX 10 1 11 2 12 3 13 4 14 5 15 6 16 7 17 8 18 9 9 10 8 11 7 12
REMARK SMILES IDX 6 13 5 14 4 15 3 16 2 17 1 18
REMARK H PARENT
REMARK Flexibility Score: inf
ROOT
ATOM      1  C   UNL     1     147.422 143.401 157.266  1.00  0.00     0.004 C 
ENDROOT
BRANCH   1   2
ATOM      2  C   UNL     1     147.981 142.257 158.125  1.00  0.00     0.000 C 
BRANCH   2   3
ATOM      3  C   UNL     1     147.027 141.054 158.124  1.00  0.00     0.000 C 
BRANCH   3   4
ATOM      4  C   UNL     1     147.763 139.712 157.981  1.00  0.00     0.000 C 
BRANCH   4   5
ATOM      5  C   UNL     1     146.988 138.699 157.121  1.00  0.00     0.006 C 
BRANCH   5   6
ATOM      6  C   UNL     1     145.589 138.415 157.682  1.00  0.00     0.053 C 
BRANCH   6   7
ATOM      7  C   UNL     1     144.512 138.924 156.773  1.00  0.00     0.041 C 
ATOM      8  O   UNL     1     143.619 138.144 156.348  1.00  0.00    -0.550 OA
ATOM      9  O   UNL     1     144.477 140.266 156.419  1.00  0.00    -0.550 OA
ENDBRANCH   6   7
ENDBRANCH   5   6
ENDBRANCH   4   5
ENDBRANCH   3   4
ENDBRANCH   2   3
ENDBRANCH   1   2
BRANCH   1  10
ATOM     10  C   UNL     1     147.086 144.644 158.104  1.00  0.00     0.027 C 
BRANCH  10  11
ATOM     11  C   UNL     1     147.830 145.868 157.640  1.00  0.00    -0.031 C 
ATOM     12  C   UNL     1     148.345 145.953 156.406  1.00  0.00    -0.031 C 
BRANCH  12  13
ATOM     13  C   UNL     1     149.084 147.187 155.966  1.00  0.00     0.027 C 
BRANCH  13  14
ATOM     14  C   UNL     1     149.486 148.049 157.171  1.00  0.00     0.004 C 
BRANCH  14  15
ATOM     15  C   UNL     1     148.477 149.173 157.457  1.00  0.00     0.000 C 
BRANCH  15  16
ATOM     16  C   UNL     1     147.377 149.266 156.386  1.00  0.00    -0.000 C 
BRANCH  16  17
ATOM     17  C   UNL     1     146.118 149.985 156.896  1.00  0.00    -0.003 C 
ATOM     18  C   UNL     1     146.392 151.428 157.319  1.00  0.00     0.004 C 
ENDBRANCH  16  17
ENDBRANCH  15  16
ENDBRANCH  14  15
ENDBRANCH  13  14
ENDBRANCH  12  13
ENDBRANCH  10  11
ENDBRANCH   1  10
TORSDOF 13
ENDMDL
