MODEL 1
REMARK VINA RESULT:    -6.524      0.000      0.000
REMARK INTER + INTRA:          -8.813
REMARK INTER:                  -8.240
REMARK INTRA:                  -0.573
REMARK UNBOUND:                -0.573
REMARK SMILES O=C(C=Cc1ccc(O)cc1)c1ccc(O)cc1O
REMARK SMILES IDX 4 1 3 2 5 3 6 4 7 5 8 6 11 7 10 8 9 9 2 11 1 12 12 13 18 14
REMARK SMILES IDX 13 15 17 16 14 17 15 18 19 19 16 21
REMARK H PARENT 9 10 19 20 16 22
REMARK Flexibility Score: inf
ROOT
ATOM      1  C   UNL     1      23.687 -21.740 -12.780  1.00  0.00     0.012 C 
ATOM      2  C   UNL     1      24.310 -22.927 -12.800  1.00  0.00     0.053 C 
ENDROOT
BRANCH   1   3
ATOM      3  C   UNL     1      23.669 -20.839 -11.601  1.00  0.00    -0.025 A 
ATOM      4  C   UNL     1      24.868 -20.627 -10.898  1.00  0.00     0.012 A 
ATOM      5  C   UNL     1      24.901 -19.780  -9.786  1.00  0.00     0.047 A 
ATOM      6  C   UNL     1      23.740 -19.123  -9.369  1.00  0.00     0.115 A 
ATOM      7  C   UNL     1      22.506 -20.160 -11.182  1.00  0.00     0.012 A 
ATOM      8  C   UNL     1      22.544 -19.312 -10.071  1.00  0.00     0.047 A 
BRANCH   6   9
ATOM      9  O   UNL     1      23.788 -18.281  -8.259  1.00  0.00    -0.508 OA
ATOM     10  H   UNL     1      22.943 -17.936  -7.819  1.00  0.00     0.293 HD
ENDBRANCH   6   9
ENDBRANCH   1   3
BRANCH   2  11
ATOM     11  C   UNL     1      24.312 -23.795 -13.997  1.00  0.00     0.189 C 
ATOM     12  O   UNL     1      23.737 -23.417 -15.055  1.00  0.00    -0.289 OA
BRANCH  11  13
ATOM     13  C   UNL     1      25.008 -25.101 -13.974  1.00  0.00     0.064 A 
ATOM     14  C   UNL     1      26.195 -25.329 -14.713  1.00  0.00     0.130 A 
ATOM     15  C   UNL     1      24.499 -26.132 -13.164  1.00  0.00     0.020 A 
ATOM     16  C   UNL     1      26.857 -26.558 -14.599  1.00  0.00     0.093 A 
ATOM     17  C   UNL     1      25.162 -27.357 -13.072  1.00  0.00     0.047 A 
ATOM     18  C   UNL     1      26.343 -27.573 -13.783  1.00  0.00     0.119 A 
BRANCH  14  19
ATOM     19  O   UNL     1      26.726 -24.376 -15.584  1.00  0.00    -0.507 OA
ATOM     20  H   UNL     1      27.717 -24.197 -15.672  1.00  0.00     0.293 HD
ENDBRANCH  14  19
BRANCH  18  21
ATOM     21  O   UNL     1      26.998 -28.798 -13.675  1.00  0.00    -0.508 OA
ATOM     22  H   UNL     1      26.831 -29.419 -12.891  1.00  0.00     0.293 HD
ENDBRANCH  18  21
ENDBRANCH  11  13
ENDBRANCH   2  11
TORSDOF 6
ENDMDL
MODEL 2
REMARK VINA RESULT:    -6.326      1.617      7.690
REMARK INTER + INTRA:          -8.563
REMARK INTER:                  -7.931
REMARK INTRA:                  -0.632
REMARK UNBOUND:                -0.573
REMARK SMILES O=C(C=Cc1ccc(O)cc1)c1ccc(O)cc1O
REMARK SMILES IDX 4 1 3 2 5 3 6 4 7 5 8 6 11 7 10 8 9 9 2 11 1 12 12 13 18 14
REMARK SMILES IDX 13 15 17 16 14 17 15 18 19 19 16 21
REMARK H PARENT 9 10 19 20 16 22
REMARK Flexibility Score: inf
ROOT
ATOM      1  C   UNL     1      23.437 -23.651 -12.855  1.00  0.00     0.012 C 
ATOM      2  C   UNL     1      23.576 -22.317 -12.871  1.00  0.00     0.053 C 
ENDROOT
BRANCH   1   3
ATOM      3  C   UNL     1      24.434 -24.590 -13.426  1.00  0.00    -0.025 A 
ATOM      4  C   UNL     1      25.437 -24.078 -14.267  1.00  0.00     0.012 A 
ATOM      5  C   UNL     1      26.403 -24.923 -14.820  1.00  0.00     0.047 A 
ATOM      6  C   UNL     1      26.387 -26.291 -14.533  1.00  0.00     0.115 A 
ATOM      7  C   UNL     1      24.435 -25.969 -13.129  1.00  0.00     0.012 A 
ATOM      8  C   UNL     1      25.404 -26.811 -13.683  1.00  0.00     0.047 A 
BRANCH   6   9
ATOM      9  O   UNL     1      27.356 -27.122 -15.092  1.00  0.00    -0.508 OA
ATOM     10  H   UNL     1      27.385 -28.114 -14.887  1.00  0.00     0.293 HD
ENDBRANCH   6   9
ENDBRANCH   1   3
BRANCH   2  11
ATOM     11  C   UNL     1      22.564 -21.412 -12.286  1.00  0.00     0.189 C 
ATOM     12  O   UNL     1      21.370 -21.449 -12.693  1.00  0.00    -0.289 OA
BRANCH  11  13
ATOM     13  C   UNL     1      22.935 -20.476 -11.202  1.00  0.00     0.064 A 
ATOM     14  C   UNL     1      22.136 -19.352 -10.878  1.00  0.00     0.130 A 
ATOM     15  C   UNL     1      24.093 -20.731 -10.445  1.00  0.00     0.020 A 
ATOM     16  C   UNL     1      22.491 -18.538  -9.794  1.00  0.00     0.093 A 
ATOM     17  C   UNL     1      24.442 -19.902  -9.377  1.00  0.00     0.047 A 
ATOM     18  C   UNL     1      23.642 -18.808  -9.045  1.00  0.00     0.119 A 
BRANCH  14  19
ATOM     19  O   UNL     1      21.007 -19.000 -11.620  1.00  0.00    -0.507 OA
ATOM     20  H   UNL     1      20.666 -18.052 -11.694  1.00  0.00     0.293 HD
ENDBRANCH  14  19
BRANCH  18  21
ATOM     21  O   UNL     1      23.999 -17.995  -7.972  1.00  0.00    -0.508 OA
ATOM     22  H   UNL     1      24.950 -17.969  -7.622  1.00  0.00     0.293 HD
ENDBRANCH  18  21
ENDBRANCH  11  13
ENDBRANCH   2  11
TORSDOF 6
ENDMDL
MODEL 3
REMARK VINA RESULT:    -6.317      4.430      8.809
REMARK INTER + INTRA:          -8.552
REMARK INTER:                  -7.943
REMARK INTRA:                  -0.609
REMARK UNBOUND:                -0.573
REMARK SMILES O=C(C=Cc1ccc(O)cc1)c1ccc(O)cc1O
REMARK SMILES IDX 4 1 3 2 5 3 6 4 7 5 8 6 11 7 10 8 9 9 2 11 1 12 12 13 18 14
REMARK SMILES IDX 13 15 17 16 14 17 15 18 19 19 16 21
REMARK H PARENT 9 10 19 20 16 22
REMARK Flexibility Score: inf
ROOT
ATOM      1  C   UNL     1      20.940 -20.942 -12.713  1.00  0.00     0.012 C 
ATOM      2  C   UNL     1      20.588 -20.023 -11.803  1.00  0.00     0.053 C 
ENDROOT
BRANCH   1   3
ATOM      3  C   UNL     1      21.068 -22.390 -12.416  1.00  0.00    -0.025 A 
ATOM      4  C   UNL     1      21.224 -22.791 -11.077  1.00  0.00     0.012 A 
ATOM      5  C   UNL     1      21.338 -24.145 -10.748  1.00  0.00     0.047 A 
ATOM      6  C   UNL     1      21.287 -25.118 -11.749  1.00  0.00     0.115 A 
ATOM      7  C   UNL     1      21.001 -23.380 -13.418  1.00  0.00     0.012 A 
ATOM      8  C   UNL     1      21.115 -24.733 -13.084  1.00  0.00     0.047 A 
BRANCH   6   9
ATOM      9  O   UNL     1      21.403 -26.464 -11.407  1.00  0.00    -0.508 OA
ATOM     10  H   UNL     1      20.944 -27.190 -11.945  1.00  0.00     0.293 HD
ENDBRANCH   6   9
ENDBRANCH   1   3
BRANCH   2  11
ATOM     11  C   UNL     1      20.465 -18.588 -12.138  1.00  0.00     0.189 C 
ATOM     12  O   UNL     1      19.755 -18.225 -13.116  1.00  0.00    -0.289 OA
BRANCH  11  13
ATOM     13  C   UNL     1      21.151 -17.566 -11.317  1.00  0.00     0.064 A 
ATOM     14  C   UNL     1      21.345 -16.241 -11.780  1.00  0.00     0.130 A 
ATOM     15  C   UNL     1      21.587 -17.909 -10.024  1.00  0.00     0.020 A 
ATOM     16  C   UNL     1      21.933 -15.291 -10.936  1.00  0.00     0.093 A 
ATOM     17  C   UNL     1      22.184 -16.954  -9.199  1.00  0.00     0.047 A 
ATOM     18  C   UNL     1      22.355 -15.644  -9.648  1.00  0.00     0.119 A 
BRANCH  14  19
ATOM     19  O   UNL     1      20.995 -15.843 -13.072  1.00  0.00    -0.507 OA
ATOM     20  H   UNL     1      20.102 -16.053 -13.494  1.00  0.00     0.293 HD
ENDBRANCH  14  19
BRANCH  18  21
ATOM     21  O   UNL     1      22.947 -14.701  -8.810  1.00  0.00    -0.508 OA
ATOM     22  H   UNL     1      22.816 -14.730  -7.806  1.00  0.00     0.293 HD
ENDBRANCH  18  21
ENDBRANCH  11  13
ENDBRANCH   2  11
TORSDOF 6
ENDMDL
MODEL 4
REMARK VINA RESULT:    -6.292      5.100      7.345
REMARK INTER + INTRA:          -8.520
REMARK INTER:                  -7.897
REMARK INTRA:                  -0.623
REMARK UNBOUND:                -0.573
REMARK SMILES O=C(C=Cc1ccc(O)cc1)c1ccc(O)cc1O
REMARK SMILES IDX 4 1 3 2 5 3 6 4 7 5 8 6 11 7 10 8 9 9 2 11 1 12 12 13 18 14
REMARK SMILES IDX 13 15 17 16 14 17 15 18 19 19 16 21
REMARK H PARENT 9 10 19 20 16 22
REMARK Flexibility Score: inf
ROOT
ATOM      1  C   UNL     1      22.757 -29.516 -11.767  1.00  0.00     0.012 C 
ATOM      2  C   UNL     1      24.075 -29.272 -11.742  1.00  0.00     0.053 C 
ENDROOT
BRANCH   1   3
ATOM      3  C   UNL     1      21.893 -29.503 -10.561  1.00  0.00    -0.025 A 
ATOM      4  C   UNL     1      21.310 -30.709 -10.138  1.00  0.00     0.012 A 
ATOM      5  C   UNL     1      20.496 -30.747  -9.002  1.00  0.00     0.047 A 
ATOM      6  C   UNL     1      20.263 -29.582  -8.265  1.00  0.00     0.115 A 
ATOM      7  C   UNL     1      21.665 -28.335  -9.803  1.00  0.00     0.012 A 
ATOM      8  C   UNL     1      20.851 -28.378  -8.667  1.00  0.00     0.047 A 
BRANCH   6   9
ATOM      9  O   UNL     1      19.449 -29.635  -7.135  1.00  0.00    -0.508 OA
ATOM     10  H   UNL     1      19.549 -28.967  -6.380  1.00  0.00     0.293 HD
ENDBRANCH   6   9
ENDBRANCH   1   3
BRANCH   2  11
ATOM     11  C   UNL     1      24.903 -29.287 -12.967  1.00  0.00     0.189 C 
ATOM     12  O   UNL     1      25.204 -30.384 -13.515  1.00  0.00    -0.289 OA
BRANCH  11  13
ATOM     13  C   UNL     1      25.364 -28.020 -13.575  1.00  0.00     0.064 A 
ATOM     14  C   UNL     1      26.739 -27.699 -13.684  1.00  0.00     0.130 A 
ATOM     15  C   UNL     1      24.410 -27.126 -14.096  1.00  0.00     0.020 A 
ATOM     16  C   UNL     1      27.127 -26.520 -14.335  1.00  0.00     0.093 A 
ATOM     17  C   UNL     1      24.811 -25.948 -14.729  1.00  0.00     0.047 A 
ATOM     18  C   UNL     1      26.168 -25.644 -14.856  1.00  0.00     0.119 A 
BRANCH  14  19
ATOM     19  O   UNL     1      27.740 -28.505 -13.138  1.00  0.00    -0.507 OA
ATOM     20  H   UNL     1      27.948 -29.435 -13.476  1.00  0.00     0.293 HD
ENDBRANCH  14  19
BRANCH  18  21
ATOM     21  O   UNL     1      26.552 -24.468 -15.497  1.00  0.00    -0.508 OA
ATOM     22  H   UNL     1      26.760 -24.450 -16.489  1.00  0.00     0.293 HD
ENDBRANCH  18  21
ENDBRANCH  11  13
ENDBRANCH   2  11
TORSDOF 6
ENDMDL
MODEL 5
REMARK VINA RESULT:    -6.279      4.159      8.012
REMARK INTER + INTRA:          -8.504
REMARK INTER:                  -7.831
REMARK INTRA:                  -0.673
REMARK UNBOUND:                -0.573
REMARK SMILES O=C(C=Cc1ccc(O)cc1)c1ccc(O)cc1O
REMARK SMILES IDX 4 1 3 2 5 3 6 4 7 5 8 6 11 7 10 8 9 9 2 11 1 12 12 13 18 14
REMARK SMILES IDX 13 15 17 16 14 17 15 18 19 19 16 21
REMARK H PARENT 9 10 19 20 16 22
REMARK Flexibility Score: inf
ROOT
ATOM      1  C   UNL     1      21.714 -23.051 -12.096  1.00  0.00     0.012 C 
ATOM      2  C   UNL     1      21.133 -21.930 -11.646  1.00  0.00     0.053 C 
ENDROOT
BRANCH   1   3
ATOM      3  C   UNL     1      21.222 -24.416 -11.786  1.00  0.00    -0.025 A 
ATOM      4  C   UNL     1      21.105 -24.799 -10.439  1.00  0.00     0.012 A 
ATOM      5  C   UNL     1      20.637 -26.072 -10.098  1.00  0.00     0.047 A 
ATOM      6  C   UNL     1      20.269 -26.976 -11.098  1.00  0.00     0.115 A 
ATOM      7  C   UNL     1      20.834 -25.330 -12.788  1.00  0.00     0.012 A 
ATOM      8  C   UNL     1      20.365 -26.601 -12.443  1.00  0.00     0.047 A 
BRANCH   6   9
ATOM      9  O   UNL     1      19.805 -28.241 -10.744  1.00  0.00    -0.508 OA
ATOM     10  H   UNL     1      19.055 -28.362 -10.073  1.00  0.00     0.293 HD
ENDBRANCH   6   9
ENDBRANCH   1   3
BRANCH   2  11
ATOM     11  C   UNL     1      21.648 -20.586 -11.982  1.00  0.00     0.189 C 
ATOM     12  O   UNL     1      21.522 -20.133 -13.153  1.00  0.00    -0.289 OA
BRANCH  11  13
ATOM     13  C   UNL     1      22.292 -19.750 -10.944  1.00  0.00     0.064 A 
ATOM     14  C   UNL     1      21.767 -18.490 -10.566  1.00  0.00     0.130 A 
ATOM     15  C   UNL     1      23.437 -20.239 -10.288  1.00  0.00     0.020 A 
ATOM     16  C   UNL     1      22.371 -17.771  -9.526  1.00  0.00     0.093 A 
ATOM     17  C   UNL     1      24.037 -19.504  -9.263  1.00  0.00     0.047 A 
ATOM     18  C   UNL     1      23.505 -18.273  -8.876  1.00  0.00     0.119 A 
BRANCH  14  19
ATOM     19  O   UNL     1      20.673 -17.913 -11.212  1.00  0.00    -0.507 OA
ATOM     20  H   UNL     1      19.886 -18.446 -11.554  1.00  0.00     0.293 HD
ENDBRANCH  14  19
BRANCH  18  21
ATOM     21  O   UNL     1      24.110 -17.555  -7.847  1.00  0.00    -0.508 OA
ATOM     22  H   UNL     1      24.901 -16.945  -8.021  1.00  0.00     0.293 HD
ENDBRANCH  18  21
ENDBRANCH  11  13
ENDBRANCH   2  11
TORSDOF 6
ENDMDL
MODEL 6
REMARK VINA RESULT:    -6.149      4.160      7.863
REMARK INTER + INTRA:          -8.339
REMARK INTER:                  -7.907
REMARK INTRA:                  -0.432
REMARK UNBOUND:                -0.573
REMARK SMILES O=C(C=Cc1ccc(O)cc1)c1ccc(O)cc1O
REMARK SMILES IDX 4 1 3 2 5 3 6 4 7 5 8 6 11 7 10 8 9 9 2 11 1 12 12 13 18 14
REMARK SMILES IDX 13 15 17 16 14 17 15 18 19 19 16 21
REMARK H PARENT 9 10 19 20 16 22
REMARK Flexibility Score: inf
ROOT
ATOM      1  C   UNL     1      21.693 -23.057 -12.022  1.00  0.00     0.012 C 
ATOM      2  C   UNL     1      21.108 -21.892 -11.707  1.00  0.00     0.053 C 
ENDROOT
BRANCH   1   3
ATOM      3  C   UNL     1      21.072 -24.382 -11.779  1.00  0.00    -0.025 A 
ATOM      4  C   UNL     1      20.667 -25.149 -12.885  1.00  0.00     0.012 A 
ATOM      5  C   UNL     1      20.086 -26.408 -12.705  1.00  0.00     0.047 A 
ATOM      6  C   UNL     1      19.912 -26.924 -11.418  1.00  0.00     0.115 A 
ATOM      7  C   UNL     1      20.907 -24.918 -10.484  1.00  0.00     0.012 A 
ATOM      8  C   UNL     1      20.326 -26.178 -10.309  1.00  0.00     0.047 A 
BRANCH   6   9
ATOM      9  O   UNL     1      19.331 -28.179 -11.253  1.00  0.00    -0.508 OA
ATOM     10  H   UNL     1      18.673 -28.552 -11.929  1.00  0.00     0.293 HD
ENDBRANCH   6   9
ENDBRANCH   1   3
BRANCH   2  11
ATOM     11  C   UNL     1      21.756 -20.589 -11.971  1.00  0.00     0.189 C 
ATOM     12  O   UNL     1      21.768 -20.112 -13.140  1.00  0.00    -0.289 OA
BRANCH  11  13
ATOM     13  C   UNL     1      22.371 -19.822 -10.866  1.00  0.00     0.064 A 
ATOM     14  C   UNL     1      23.633 -20.170 -10.325  1.00  0.00     0.130 A 
ATOM     15  C   UNL     1      21.702 -18.690 -10.365  1.00  0.00     0.020 A 
ATOM     16  C   UNL     1      24.207 -19.367  -9.330  1.00  0.00     0.093 A 
ATOM     17  C   UNL     1      22.279 -17.908  -9.363  1.00  0.00     0.047 A 
ATOM     18  C   UNL     1      23.533 -18.240  -8.846  1.00  0.00     0.119 A 
BRANCH  14  19
ATOM     19  O   UNL     1      24.329 -21.312 -10.728  1.00  0.00    -0.507 OA
ATOM     20  H   UNL     1      23.949 -22.245 -10.657  1.00  0.00     0.293 HD
ENDBRANCH  14  19
BRANCH  18  21
ATOM     21  O   UNL     1      24.099 -17.445  -7.852  1.00  0.00    -0.508 OA
ATOM     22  H   UNL     1      24.866 -16.814  -8.052  1.00  0.00     0.293 HD
ENDBRANCH  18  21
ENDBRANCH  11  13
ENDBRANCH   2  11
TORSDOF 6
ENDMDL
MODEL 7
REMARK VINA RESULT:    -6.121      1.415      1.900
REMARK INTER + INTRA:          -8.304
REMARK INTER:                  -7.679
REMARK INTRA:                  -0.625
REMARK UNBOUND:                -0.573
REMARK SMILES O=C(C=Cc1ccc(O)cc1)c1ccc(O)cc1O
REMARK SMILES IDX 4 1 3 2 5 3 6 4 7 5 8 6 11 7 10 8 9 9 2 11 1 12 12 13 18 14
REMARK SMILES IDX 13 15 17 16 14 17 15 18 19 19 16 21
REMARK H PARENT 9 10 19 20 16 22
REMARK Flexibility Score: inf
ROOT
ATOM      1  C   UNL     1      22.724 -21.274 -12.475  1.00  0.00     0.012 C 
ATOM      2  C   UNL     1      23.514 -22.298 -12.828  1.00  0.00     0.053 C 
ENDROOT
BRANCH   1   3
ATOM      3  C   UNL     1      22.978 -20.406 -11.298  1.00  0.00    -0.025 A 
ATOM      4  C   UNL     1      24.154 -20.608 -10.555  1.00  0.00     0.012 A 
ATOM      5  C   UNL     1      24.440 -19.808  -9.444  1.00  0.00     0.047 A 
ATOM      6  C   UNL     1      23.562 -18.788  -9.068  1.00  0.00     0.115 A 
ATOM      7  C   UNL     1      22.105 -19.365 -10.920  1.00  0.00     0.012 A 
ATOM      8  C   UNL     1      22.396 -18.566  -9.810  1.00  0.00     0.047 A 
BRANCH   6   9
ATOM      9  O   UNL     1      23.859 -17.999  -7.958  1.00  0.00    -0.508 OA
ATOM     10  H   UNL     1      23.132 -17.531  -7.430  1.00  0.00     0.293 HD
ENDBRANCH   6   9
ENDBRANCH   1   3
BRANCH   2  11
ATOM     11  C   UNL     1      23.232 -23.138 -14.013  1.00  0.00     0.189 C 
ATOM     12  O   UNL     1      22.236 -22.886 -14.746  1.00  0.00    -0.289 OA
BRANCH  11  13
ATOM     13  C   UNL     1      24.128 -24.262 -14.363  1.00  0.00     0.064 A 
ATOM     14  C   UNL     1      23.648 -25.427 -15.012  1.00  0.00     0.130 A 
ATOM     15  C   UNL     1      25.502 -24.155 -14.079  1.00  0.00     0.020 A 
ATOM     16  C   UNL     1      24.549 -26.431 -15.389  1.00  0.00     0.093 A 
ATOM     17  C   UNL     1      26.386 -25.171 -14.449  1.00  0.00     0.047 A 
ATOM     18  C   UNL     1      25.915 -26.308 -15.108  1.00  0.00     0.119 A 
BRANCH  14  19
ATOM     19  O   UNL     1      22.292 -25.632 -15.271  1.00  0.00    -0.507 OA
ATOM     20  H   UNL     1      21.948 -26.354 -15.888  1.00  0.00     0.293 HD
ENDBRANCH  14  19
BRANCH  18  21
ATOM     21  O   UNL     1      26.810 -27.310 -15.476  1.00  0.00    -0.508 OA
ATOM     22  H   UNL     1      27.551 -27.136 -16.145  1.00  0.00     0.293 HD
ENDBRANCH  18  21
ENDBRANCH  11  13
ENDBRANCH   2  11
TORSDOF 6
ENDMDL
MODEL 8
REMARK VINA RESULT:    -6.043      1.547      2.101
REMARK INTER + INTRA:          -8.206
REMARK INTER:                  -7.487
REMARK INTRA:                  -0.719
REMARK UNBOUND:                -0.573
REMARK SMILES O=C(C=Cc1ccc(O)cc1)c1ccc(O)cc1O
REMARK SMILES IDX 4 1 3 2 5 3 6 4 7 5 8 6 11 7 10 8 9 9 2 11 1 12 12 13 18 14
REMARK SMILES IDX 13 15 17 16 14 17 15 18 19 19 16 21
REMARK H PARENT 9 10 19 20 16 22
REMARK Flexibility Score: inf
ROOT
ATOM      1  C   UNL     1      24.016 -22.518 -12.561  1.00  0.00     0.012 C 
ATOM      2  C   UNL     1      23.580 -22.799 -13.797  1.00  0.00     0.053 C 
ENDROOT
BRANCH   1   3
ATOM      3  C   UNL     1      23.989 -21.159 -11.967  1.00  0.00    -0.025 A 
ATOM      4  C   UNL     1      24.113 -20.049 -12.821  1.00  0.00     0.012 A 
ATOM      5  C   UNL     1      24.084 -18.749 -12.307  1.00  0.00     0.047 A 
ATOM      6  C   UNL     1      23.920 -18.538 -10.936  1.00  0.00     0.115 A 
ATOM      7  C   UNL     1      23.809 -20.937 -10.586  1.00  0.00     0.012 A 
ATOM      8  C   UNL     1      23.779 -19.635 -10.077  1.00  0.00     0.047 A 
BRANCH   6   9
ATOM      9  O   UNL     1      23.893 -17.237 -10.438  1.00  0.00    -0.508 OA
ATOM     10  H   UNL     1      24.669 -16.856  -9.909  1.00  0.00     0.293 HD
ENDBRANCH   6   9
ENDBRANCH   1   3
BRANCH   2  11
ATOM     11  C   UNL     1      23.616 -24.169 -14.353  1.00  0.00     0.189 C 
ATOM     12  O   UNL     1      22.633 -24.613 -15.008  1.00  0.00    -0.289 OA
BRANCH  11  13
ATOM     13  C   UNL     1      24.812 -25.020 -14.169  1.00  0.00     0.064 A 
ATOM     14  C   UNL     1      24.751 -26.261 -13.488  1.00  0.00     0.130 A 
ATOM     15  C   UNL     1      26.038 -24.603 -14.721  1.00  0.00     0.020 A 
ATOM     16  C   UNL     1      25.896 -27.064 -13.405  1.00  0.00     0.093 A 
ATOM     17  C   UNL     1      27.174 -25.408 -14.618  1.00  0.00     0.047 A 
ATOM     18  C   UNL     1      27.106 -26.641 -13.966  1.00  0.00     0.119 A 
BRANCH  14  19
ATOM     19  O   UNL     1      23.587 -26.712 -12.862  1.00  0.00    -0.507 OA
ATOM     20  H   UNL     1      22.712 -26.844 -13.349  1.00  0.00     0.293 HD
ENDBRANCH  14  19
BRANCH  18  21
ATOM     21  O   UNL     1      28.247 -27.436 -13.878  1.00  0.00    -0.508 OA
ATOM     22  H   UNL     1      29.074 -27.122 -13.383  1.00  0.00     0.293 HD
ENDBRANCH  18  21
ENDBRANCH  11  13
ENDBRANCH   2  11
TORSDOF 6
ENDMDL
MODEL 9
REMARK VINA RESULT:    -5.996      4.166      4.883
REMARK INTER + INTRA:          -8.146
REMARK INTER:                  -7.491
REMARK INTRA:                  -0.655
REMARK UNBOUND:                -0.573
REMARK SMILES O=C(C=Cc1ccc(O)cc1)c1ccc(O)cc1O
REMARK SMILES IDX 4 1 3 2 5 3 6 4 7 5 8 6 11 7 10 8 9 9 2 11 1 12 12 13 18 14
REMARK SMILES IDX 13 15 17 16 14 17 15 18 19 19 16 21
REMARK H PARENT 9 10 19 20 16 22
REMARK Flexibility Score: inf
ROOT
ATOM      1  C   UNL     1      21.093 -18.795 -11.354  1.00  0.00     0.012 C 
ATOM      2  C   UNL     1      21.698 -19.680 -12.160  1.00  0.00     0.053 C 
ENDROOT
BRANCH   1   3
ATOM      3  C   UNL     1      21.818 -17.756 -10.582  1.00  0.00    -0.025 A 
ATOM      4  C   UNL     1      22.647 -18.161  -9.522  1.00  0.00     0.012 A 
ATOM      5  C   UNL     1      23.357 -17.218  -8.772  1.00  0.00     0.047 A 
ATOM      6  C   UNL     1      23.257 -15.858  -9.077  1.00  0.00     0.115 A 
ATOM      7  C   UNL     1      21.735 -16.383 -10.892  1.00  0.00     0.012 A 
ATOM      8  C   UNL     1      22.447 -15.443 -10.141  1.00  0.00     0.047 A 
BRANCH   6   9
ATOM      9  O   UNL     1      23.969 -14.930  -8.321  1.00  0.00    -0.508 OA
ATOM     10  H   UNL     1      23.694 -13.955  -8.282  1.00  0.00     0.293 HD
ENDBRANCH   6   9
ENDBRANCH   1   3
BRANCH   2  11
ATOM     11  C   UNL     1      20.941 -20.698 -12.920  1.00  0.00     0.189 C 
ATOM     12  O   UNL     1      20.253 -20.360 -13.923  1.00  0.00    -0.289 OA
BRANCH  11  13
ATOM     13  C   UNL     1      21.004 -22.124 -12.529  1.00  0.00     0.064 A 
ATOM     14  C   UNL     1      20.913 -23.167 -13.483  1.00  0.00     0.130 A 
ATOM     15  C   UNL     1      21.199 -22.452 -11.175  1.00  0.00     0.020 A 
ATOM     16  C   UNL     1      21.053 -24.498 -13.071  1.00  0.00     0.093 A 
ATOM     17  C   UNL     1      21.322 -23.785 -10.777  1.00  0.00     0.047 A 
ATOM     18  C   UNL     1      21.255 -24.810 -11.722  1.00  0.00     0.119 A 
BRANCH  14  19
ATOM     19  O   UNL     1      20.659 -22.922 -14.834  1.00  0.00    -0.507 OA
ATOM     20  H   UNL     1      20.085 -23.523 -15.408  1.00  0.00     0.293 HD
ENDBRANCH  14  19
BRANCH  18  21
ATOM     21  O   UNL     1      21.386 -26.135 -11.310  1.00  0.00    -0.508 OA
ATOM     22  H   UNL     1      21.194 -26.413 -10.355  1.00  0.00     0.293 HD
ENDBRANCH  18  21
ENDBRANCH  11  13
ENDBRANCH   2  11
TORSDOF 6
ENDMDL
