MODEL 1
REMARK VINA RESULT:    -8.033      0.000      0.000
REMARK INTER + INTRA:         -11.126
REMARK INTER:                 -10.146
REMARK INTRA:                  -0.979
REMARK UNBOUND:                -0.979
REMARK SMILES O[C@H]1OC[C@@H](Cc2ccc3c(c2)OCO3)[C@H]1Cc1ccc2c(c1)OCO2
REMARK SMILES IDX 4 1 5 2 16 3 2 4 3 5 6 6 7 7 12 8 8 9 11 10 9 11 10 12 13 13
REMARK SMILES IDX 15 14 14 15 17 16 18 17 23 18 19 19 22 20 20 21 21 22 24 23
REMARK SMILES IDX 26 24 25 25 1 26
REMARK H PARENT 1 27
REMARK Flexibility Score: inf
ROOT
ATOM      1  C   UNL     1      23.940 -23.417  23.081  1.00  0.00     0.168 C 
ATOM      2  C   UNL     1      25.012 -23.922  24.042  1.00  0.00     0.028 C 
ATOM      3  C   UNL     1      24.250 -24.935  24.886  1.00  0.00     0.055 C 
ATOM      4  C   UNL     1      23.275 -25.461  23.820  1.00  0.00     0.250 C 
ATOM      5  O   UNL     1      22.927 -24.394  22.968  1.00  0.00    -0.352 OA
ENDROOT
BRANCH   2   6
ATOM      6  C   UNL     1      25.747 -22.795  24.803  1.00  0.00     0.042 C 
BRANCH   6   7
ATOM      7  C   UNL     1      27.120 -22.561  24.230  1.00  0.00    -0.044 A 
ATOM      8  C   UNL     1      27.885 -23.647  23.748  1.00  0.00     0.054 A 
ATOM      9  C   UNL     1      27.672 -21.254  24.217  1.00  0.00     0.008 A 
ATOM     10  C   UNL     1      29.162 -23.381  23.261  1.00  0.00     0.166 A 
ATOM     11  C   UNL     1      28.967 -21.029  23.714  1.00  0.00     0.051 A 
ATOM     12  C   UNL     1      29.680 -22.127  23.244  1.00  0.00     0.165 A 
ATOM     13  O   UNL     1      30.086 -24.268  22.742  1.00  0.00    -0.454 OA
ATOM     14  O   UNL     1      30.954 -22.163  22.712  1.00  0.00    -0.454 OA
ATOM     15  C   UNL     1      31.255 -23.524  22.375  1.00  0.00     0.468 C 
ENDBRANCH   6   7
ENDBRANCH   2   6
BRANCH   3  16
ATOM     16  C   UNL     1      23.543 -24.311  26.126  1.00  0.00     0.044 C 
BRANCH  16  17
ATOM     17  C   UNL     1      23.765 -25.102  27.393  1.00  0.00    -0.044 A 
ATOM     18  C   UNL     1      24.201 -26.446  27.327  1.00  0.00     0.054 A 
ATOM     19  C   UNL     1      23.506 -24.513  28.658  1.00  0.00     0.008 A 
ATOM     20  C   UNL     1      24.383 -27.135  28.522  1.00  0.00     0.166 A 
ATOM     21  C   UNL     1      23.702 -25.246  29.842  1.00  0.00     0.051 A 
ATOM     22  C   UNL     1      24.144 -26.560  29.728  1.00  0.00     0.165 A 
ATOM     23  O   UNL     1      24.807 -28.437  28.710  1.00  0.00    -0.454 OA
ATOM     24  O   UNL     1      24.407 -27.471  30.733  1.00  0.00    -0.454 OA
ATOM     25  C   UNL     1      24.836 -28.694  30.120  1.00  0.00     0.468 C 
ENDBRANCH  16  17
ENDBRANCH   3  16
BRANCH   4  26
ATOM     26  O   UNL     1      22.113 -26.021  24.366  1.00  0.00    -0.368 OA
ATOM     27  H   UNL     1      22.409 -26.660  25.067  1.00  0.00     0.213 HD
ENDBRANCH   4  26
TORSDOF 5
ENDMDL
MODEL 2
REMARK VINA RESULT:    -8.030      0.680      1.430
REMARK INTER + INTRA:         -11.122
REMARK INTER:                 -10.136
REMARK INTRA:                  -0.986
REMARK UNBOUND:                -0.979
REMARK SMILES O[C@H]1OC[C@@H](Cc2ccc3c(c2)OCO3)[C@H]1Cc1ccc2c(c1)OCO2
REMARK SMILES IDX 4 1 5 2 16 3 2 4 3 5 6 6 7 7 12 8 8 9 11 10 9 11 10 12 13 13
REMARK SMILES IDX 15 14 14 15 17 16 18 17 23 18 19 19 22 20 20 21 21 22 24 23
REMARK SMILES IDX 26 24 25 25 1 26
REMARK H PARENT 1 27
REMARK Flexibility Score: inf
ROOT
ATOM      1  C   UNL     1      23.962 -23.414  23.113  1.00  0.00     0.168 C 
ATOM      2  C   UNL     1      25.022 -23.937  24.078  1.00  0.00     0.028 C 
ATOM      3  C   UNL     1      24.242 -24.945  24.911  1.00  0.00     0.055 C 
ATOM      4  C   UNL     1      23.267 -25.453  23.837  1.00  0.00     0.250 C 
ATOM      5  O   UNL     1      22.938 -24.377  22.989  1.00  0.00    -0.352 OA
ENDROOT
BRANCH   2   6
ATOM      6  C   UNL     1      25.766 -22.824  24.849  1.00  0.00     0.042 C 
BRANCH   6   7
ATOM      7  C   UNL     1      27.149 -22.608  24.290  1.00  0.00    -0.044 A 
ATOM      8  C   UNL     1      27.705 -21.310  24.249  1.00  0.00     0.054 A 
ATOM      9  C   UNL     1      27.879 -23.702  23.758  1.00  0.00     0.008 A 
ATOM     10  C   UNL     1      28.972 -21.160  23.692  1.00  0.00     0.166 A 
ATOM     11  C   UNL     1      29.158 -23.505  23.204  1.00  0.00     0.051 A 
ATOM     12  C   UNL     1      29.668 -22.212  23.192  1.00  0.00     0.165 A 
ATOM     13  O   UNL     1      29.714 -20.004  23.543  1.00  0.00    -0.454 OA
ATOM     14  O   UNL     1      30.883 -21.770  22.706  1.00  0.00    -0.454 OA
ATOM     15  C   UNL     1      30.954 -20.352  22.913  1.00  0.00     0.468 C 
ENDBRANCH   6   7
ENDBRANCH   2   6
BRANCH   3  16
ATOM     16  C   UNL     1      23.535 -24.320  26.151  1.00  0.00     0.044 C 
BRANCH  16  17
ATOM     17  C   UNL     1      23.758 -25.109  27.418  1.00  0.00    -0.044 A 
ATOM     18  C   UNL     1      24.200 -26.452  27.354  1.00  0.00     0.054 A 
ATOM     19  C   UNL     1      23.492 -24.521  28.682  1.00  0.00     0.008 A 
ATOM     20  C   UNL     1      24.380 -27.139  28.550  1.00  0.00     0.166 A 
ATOM     21  C   UNL     1      23.687 -25.253  29.868  1.00  0.00     0.051 A 
ATOM     22  C   UNL     1      24.135 -26.565  29.754  1.00  0.00     0.165 A 
ATOM     23  O   UNL     1      24.809 -28.439  28.739  1.00  0.00    -0.454 OA
ATOM     24  O   UNL     1      24.399 -27.475  30.761  1.00  0.00    -0.454 OA
ATOM     25  C   UNL     1      24.835 -28.696  30.149  1.00  0.00     0.468 C 
ENDBRANCH  16  17
ENDBRANCH   3  16
BRANCH   4  26
ATOM     26  O   UNL     1      22.095 -26.002  24.372  1.00  0.00    -0.368 OA
ATOM     27  H   UNL     1      22.228 -26.048  25.356  1.00  0.00     0.213 HD
ENDBRANCH   4  26
TORSDOF 5
ENDMDL
MODEL 3
REMARK VINA RESULT:    -7.990      2.815      6.966
REMARK INTER + INTRA:         -11.071
REMARK INTER:                  -9.842
REMARK INTRA:                  -1.229
REMARK UNBOUND:                -0.979
REMARK SMILES O[C@H]1OC[C@@H](Cc2ccc3c(c2)OCO3)[C@H]1Cc1ccc2c(c1)OCO2
REMARK SMILES IDX 4 1 5 2 16 3 2 4 3 5 6 6 7 7 12 8 8 9 11 10 9 11 10 12 13 13
REMARK SMILES IDX 15 14 14 15 17 16 18 17 23 18 19 19 22 20 20 21 21 22 24 23
REMARK SMILES IDX 26 24 25 25 1 26
REMARK H PARENT 1 27
REMARK Flexibility Score: inf
ROOT
ATOM      1  C   UNL     1      24.065 -27.120  31.279  1.00  0.00     0.168 C 
ATOM      2  C   UNL     1      23.383 -26.328  30.168  1.00  0.00     0.028 C 
ATOM      3  C   UNL     1      24.253 -26.638  28.958  1.00  0.00     0.055 C 
ATOM      4  C   UNL     1      24.656 -28.080  29.306  1.00  0.00     0.250 C 
ATOM      5  O   UNL     1      24.802 -28.177  30.704  1.00  0.00    -0.352 OA
ENDROOT
BRANCH   2   6
ATOM      6  C   UNL     1      23.170 -24.836  30.507  1.00  0.00     0.042 C 
BRANCH   6   7
ATOM      7  C   UNL     1      22.810 -24.045  29.276  1.00  0.00    -0.044 A 
ATOM      8  C   UNL     1      22.036 -24.637  28.252  1.00  0.00     0.054 A 
ATOM      9  C   UNL     1      23.286 -22.719  29.118  1.00  0.00     0.008 A 
ATOM     10  C   UNL     1      21.760 -23.875  27.120  1.00  0.00     0.166 A 
ATOM     11  C   UNL     1      22.982 -21.984  27.957  1.00  0.00     0.051 A 
ATOM     12  C   UNL     1      22.213 -22.604  26.979  1.00  0.00     0.165 A 
ATOM     13  O   UNL     1      21.033 -24.232  26.001  1.00  0.00    -0.454 OA
ATOM     14  O   UNL     1      21.791 -22.097  25.765  1.00  0.00    -0.454 OA
ATOM     15  C   UNL     1      21.026 -23.113  25.102  1.00  0.00     0.468 C 
ENDBRANCH   6   7
ENDBRANCH   2   6
BRANCH   3  16
ATOM     16  C   UNL     1      25.466 -25.673  28.795  1.00  0.00     0.044 C 
BRANCH  16  17
ATOM     17  C   UNL     1      25.451 -24.922  27.485  1.00  0.00    -0.044 A 
ATOM     18  C   UNL     1      24.769 -25.454  26.366  1.00  0.00     0.054 A 
ATOM     19  C   UNL     1      26.149 -23.693  27.358  1.00  0.00     0.008 A 
ATOM     20  C   UNL     1      24.792 -24.729  25.179  1.00  0.00     0.166 A 
ATOM     21  C   UNL     1      26.148 -22.992  26.138  1.00  0.00     0.051 A 
ATOM     22  C   UNL     1      25.453 -23.548  25.070  1.00  0.00     0.165 A 
ATOM     23  O   UNL     1      24.199 -25.036  23.970  1.00  0.00    -0.454 OA
ATOM     24  O   UNL     1      25.306 -23.055  23.788  1.00  0.00    -0.454 OA
ATOM     25  C   UNL     1      24.505 -23.984  23.045  1.00  0.00     0.468 C 
ENDBRANCH  16  17
ENDBRANCH   3  16
BRANCH   4  26
ATOM     26  O   UNL     1      25.844 -28.486  28.683  1.00  0.00    -0.368 OA
ATOM     27  H   UNL     1      26.255 -27.668  28.297  1.00  0.00     0.213 HD
ENDBRANCH   4  26
TORSDOF 5
ENDMDL
MODEL 4
REMARK VINA RESULT:    -7.895      1.293      7.698
REMARK INTER + INTRA:         -10.951
REMARK INTER:                 -10.092
REMARK INTRA:                  -0.860
REMARK UNBOUND:                -0.979
REMARK SMILES O[C@H]1OC[C@@H](Cc2ccc3c(c2)OCO3)[C@H]1Cc1ccc2c(c1)OCO2
REMARK SMILES IDX 4 1 5 2 16 3 2 4 3 5 6 6 7 7 12 8 8 9 11 10 9 11 10 12 13 13
REMARK SMILES IDX 15 14 14 15 17 16 18 17 23 18 19 19 22 20 20 21 21 22 24 23
REMARK SMILES IDX 26 24 25 25 1 26
REMARK H PARENT 1 27
REMARK Flexibility Score: inf
ROOT
ATOM      1  C   UNL     1      23.217 -25.504  25.777  1.00  0.00     0.168 C 
ATOM      2  C   UNL     1      24.067 -24.258  26.006  1.00  0.00     0.028 C 
ATOM      3  C   UNL     1      24.401 -23.820  24.587  1.00  0.00     0.055 C 
ATOM      4  C   UNL     1      23.105 -24.254  23.883  1.00  0.00     0.250 C 
ATOM      5  O   UNL     1      22.644 -25.439  24.489  1.00  0.00    -0.352 OA
ENDROOT
BRANCH   2   6
ATOM      6  C   UNL     1      25.259 -24.485  26.964  1.00  0.00     0.042 C 
BRANCH   6   7
ATOM      7  C   UNL     1      24.831 -25.246  28.191  1.00  0.00    -0.044 A 
ATOM      8  C   UNL     1      25.257 -26.579  28.387  1.00  0.00     0.054 A 
ATOM      9  C   UNL     1      23.958 -24.643  29.134  1.00  0.00     0.008 A 
ATOM     10  C   UNL     1      24.806 -27.250  29.520  1.00  0.00     0.166 A 
ATOM     11  C   UNL     1      23.527 -25.357  30.267  1.00  0.00     0.051 A 
ATOM     12  C   UNL     1      23.978 -26.664  30.421  1.00  0.00     0.165 A 
ATOM     13  O   UNL     1      25.084 -28.542  29.922  1.00  0.00    -0.454 OA
ATOM     14  O   UNL     1      23.696 -27.558  31.436  1.00  0.00    -0.454 OA
ATOM     15  C   UNL     1      24.389 -28.781  31.154  1.00  0.00     0.468 C 
ENDBRANCH   6   7
ENDBRANCH   2   6
BRANCH   3  16
ATOM     16  C   UNL     1      25.682 -24.492  24.009  1.00  0.00     0.044 C 
BRANCH  16  17
ATOM     17  C   UNL     1      26.846 -23.539  23.888  1.00  0.00    -0.044 A 
ATOM     18  C   UNL     1      26.648 -22.147  24.048  1.00  0.00     0.054 A 
ATOM     19  C   UNL     1      28.142 -24.028  23.579  1.00  0.00     0.008 A 
ATOM     20  C   UNL     1      27.751 -21.309  23.917  1.00  0.00     0.166 A 
ATOM     21  C   UNL     1      29.230 -23.145  23.454  1.00  0.00     0.051 A 
ATOM     22  C   UNL     1      28.988 -21.788  23.633  1.00  0.00     0.165 A 
ATOM     23  O   UNL     1      27.806 -19.934  24.038  1.00  0.00    -0.454 OA
ATOM     24  O   UNL     1      29.883 -20.737  23.563  1.00  0.00    -0.454 OA
ATOM     25  C   UNL     1      29.162 -19.524  23.817  1.00  0.00     0.468 C 
ENDBRANCH  16  17
ENDBRANCH   3  16
BRANCH   4  26
ATOM     26  O   UNL     1      23.271 -24.467  22.508  1.00  0.00    -0.368 OA
ATOM     27  H   UNL     1      23.419 -23.573  22.099  1.00  0.00     0.213 HD
ENDBRANCH   4  26
TORSDOF 5
ENDMDL
MODEL 5
REMARK VINA RESULT:    -7.885      3.038      7.491
REMARK INTER + INTRA:         -10.938
REMARK INTER:                  -9.758
REMARK INTRA:                  -1.181
REMARK UNBOUND:                -0.979
REMARK SMILES O[C@H]1OC[C@@H](Cc2ccc3c(c2)OCO3)[C@H]1Cc1ccc2c(c1)OCO2
REMARK SMILES IDX 4 1 5 2 16 3 2 4 3 5 6 6 7 7 12 8 8 9 11 10 9 11 10 12 13 13
REMARK SMILES IDX 15 14 14 15 17 16 18 17 23 18 19 19 22 20 20 21 21 22 24 23
REMARK SMILES IDX 26 24 25 25 1 26
REMARK H PARENT 1 27
REMARK Flexibility Score: inf
ROOT
ATOM      1  C   UNL     1      22.779 -25.237  25.372  1.00  0.00     0.168 C 
ATOM      2  C   UNL     1      23.551 -23.928  25.509  1.00  0.00     0.028 C 
ATOM      3  C   UNL     1      24.286 -23.836  24.179  1.00  0.00     0.055 C 
ATOM      4  C   UNL     1      23.239 -24.502  23.271  1.00  0.00     0.250 C 
ATOM      5  O   UNL     1      22.601 -25.524  24.002  1.00  0.00    -0.352 OA
ENDROOT
BRANCH   2   6
ATOM      6  C   UNL     1      24.413 -23.845  26.788  1.00  0.00     0.042 C 
BRANCH   6   7
ATOM      7  C   UNL     1      23.940 -22.734  27.690  1.00  0.00    -0.044 A 
ATOM      8  C   UNL     1      23.005 -21.785  27.220  1.00  0.00     0.054 A 
ATOM      9  C   UNL     1      24.469 -22.609  29.001  1.00  0.00     0.008 A 
ATOM     10  C   UNL     1      22.626 -20.760  28.082  1.00  0.00     0.166 A 
ATOM     11  C   UNL     1      24.057 -21.557  29.840  1.00  0.00     0.051 A 
ATOM     12  C   UNL     1      23.130 -20.651  29.337  1.00  0.00     0.165 A 
ATOM     13  O   UNL     1      21.737 -19.728  27.851  1.00  0.00    -0.454 OA
ATOM     14  O   UNL     1      22.580 -19.546  29.958  1.00  0.00    -0.454 OA
ATOM     15  C   UNL     1      21.677 -18.922  29.036  1.00  0.00     0.468 C 
ENDBRANCH   6   7
ENDBRANCH   2   6
BRANCH   3  16
ATOM     16  C   UNL     1      25.666 -24.558  24.175  1.00  0.00     0.044 C 
BRANCH  16  17
ATOM     17  C   UNL     1      26.827 -23.614  23.973  1.00  0.00    -0.044 A 
ATOM     18  C   UNL     1      26.652 -22.221  24.152  1.00  0.00     0.054 A 
ATOM     19  C   UNL     1      28.093 -24.113  23.569  1.00  0.00     0.008 A 
ATOM     20  C   UNL     1      27.749 -21.392  23.944  1.00  0.00     0.166 A 
ATOM     21  C   UNL     1      29.176 -23.238  23.369  1.00  0.00     0.051 A 
ATOM     22  C   UNL     1      28.959 -21.879  23.570  1.00  0.00     0.165 A 
ATOM     23  O   UNL     1      27.825 -20.018  24.066  1.00  0.00    -0.454 OA
ATOM     24  O   UNL     1      29.856 -20.836  23.439  1.00  0.00    -0.454 OA
ATOM     25  C   UNL     1      29.165 -19.618  23.749  1.00  0.00     0.468 C 
ENDBRANCH  16  17
ENDBRANCH   3  16
BRANCH   4  26
ATOM     26  O   UNL     1      23.789 -25.038  22.099  1.00  0.00    -0.368 OA
ATOM     27  H   UNL     1      23.998 -25.990  22.294  1.00  0.00     0.213 HD
ENDBRANCH   4  26
TORSDOF 5
ENDMDL
MODEL 6
REMARK VINA RESULT:    -7.752      4.381      7.388
REMARK INTER + INTRA:         -10.771
REMARK INTER:                  -9.463
REMARK INTRA:                  -1.308
REMARK UNBOUND:                -0.979
REMARK SMILES O[C@H]1OC[C@@H](Cc2ccc3c(c2)OCO3)[C@H]1Cc1ccc2c(c1)OCO2
REMARK SMILES IDX 4 1 5 2 16 3 2 4 3 5 6 6 7 7 12 8 8 9 11 10 9 11 10 12 13 13
REMARK SMILES IDX 15 14 14 15 17 16 18 17 23 18 19 19 22 20 20 21 21 22 24 23
REMARK SMILES IDX 26 24 25 25 1 26
REMARK H PARENT 1 27
REMARK Flexibility Score: inf
ROOT
ATOM      1  C   UNL     1      22.815 -25.373  24.834  1.00  0.00     0.168 C 
ATOM      2  C   UNL     1      22.947 -25.261  26.350  1.00  0.00     0.028 C 
ATOM      3  C   UNL     1      22.252 -23.939  26.647  1.00  0.00     0.055 C 
ATOM      4  C   UNL     1      21.172 -23.976  25.553  1.00  0.00     0.250 C 
ATOM      5  O   UNL     1      21.716 -24.595  24.410  1.00  0.00    -0.352 OA
ENDROOT
BRANCH   2   6
ATOM      6  C   UNL     1      24.396 -25.416  26.863  1.00  0.00     0.042 C 
BRANCH   6   7
ATOM      7  C   UNL     1      24.466 -26.399  28.002  1.00  0.00    -0.044 A 
ATOM      8  C   UNL     1      23.803 -26.127  29.219  1.00  0.00     0.054 A 
ATOM      9  C   UNL     1      25.240 -27.582  27.873  1.00  0.00     0.008 A 
ATOM     10  C   UNL     1      23.928 -27.052  30.252  1.00  0.00     0.166 A 
ATOM     11  C   UNL     1      25.338 -28.491  28.943  1.00  0.00     0.051 A 
ATOM     12  C   UNL     1      24.663 -28.185  30.119  1.00  0.00     0.165 A 
ATOM     13  O   UNL     1      23.377 -27.006  31.518  1.00  0.00    -0.454 OA
ATOM     14  O   UNL     1      24.609 -28.908  31.295  1.00  0.00    -0.454 OA
ATOM     15  C   UNL     1      23.790 -28.184  32.224  1.00  0.00     0.468 C 
ENDBRANCH   6   7
ENDBRANCH   2   6
BRANCH   3  16
ATOM     16  C   UNL     1      23.194 -22.702  26.552  1.00  0.00     0.044 C 
BRANCH  16  17
ATOM     17  C   UNL     1      23.217 -21.879  27.818  1.00  0.00    -0.044 A 
ATOM     18  C   UNL     1      22.436 -20.703  27.918  1.00  0.00     0.054 A 
ATOM     19  C   UNL     1      24.048 -22.260  28.903  1.00  0.00     0.008 A 
ATOM     20  C   UNL     1      22.499 -19.975  29.102  1.00  0.00     0.166 A 
ATOM     21  C   UNL     1      24.083 -21.493  30.082  1.00  0.00     0.051 A 
ATOM     22  C   UNL     1      23.288 -20.354  30.139  1.00  0.00     0.165 A 
ATOM     23  O   UNL     1      21.829 -18.814  29.435  1.00  0.00    -0.454 OA
ATOM     24  O   UNL     1      23.151 -19.450  31.176  1.00  0.00    -0.454 OA
ATOM     25  C   UNL     1      22.220 -18.441  30.763  1.00  0.00     0.468 C 
ENDBRANCH  16  17
ENDBRANCH   3  16
BRANCH   4  26
ATOM     26  O   UNL     1      20.690 -22.706  25.212  1.00  0.00    -0.368 OA
ATOM     27  H   UNL     1      21.478 -22.100  25.191  1.00  0.00     0.213 HD
ENDBRANCH   4  26
TORSDOF 5
ENDMDL
MODEL 7
REMARK VINA RESULT:    -7.607      3.750      5.913
REMARK INTER + INTRA:         -10.588
REMARK INTER:                  -9.418
REMARK INTRA:                  -1.170
REMARK UNBOUND:                -0.979
REMARK SMILES O[C@H]1OC[C@@H](Cc2ccc3c(c2)OCO3)[C@H]1Cc1ccc2c(c1)OCO2
REMARK SMILES IDX 4 1 5 2 16 3 2 4 3 5 6 6 7 7 12 8 8 9 11 10 9 11 10 12 13 13
REMARK SMILES IDX 15 14 14 15 17 16 18 17 23 18 19 19 22 20 20 21 21 22 24 23
REMARK SMILES IDX 26 24 25 25 1 26
REMARK H PARENT 1 27
REMARK Flexibility Score: inf
ROOT
ATOM      1  C   UNL     1      24.104 -22.624  23.997  1.00  0.00     0.168 C 
ATOM      2  C   UNL     1      24.097 -22.586  25.522  1.00  0.00     0.028 C 
ATOM      3  C   UNL     1      25.009 -23.750  25.887  1.00  0.00     0.055 C 
ATOM      4  C   UNL     1      25.991 -23.672  24.706  1.00  0.00     0.250 C 
ATOM      5  O   UNL     1      25.279 -23.271  23.559  1.00  0.00    -0.352 OA
ENDROOT
BRANCH   2   6
ATOM      6  C   UNL     1      22.680 -22.594  26.139  1.00  0.00     0.042 C 
BRANCH   6   7
ATOM      7  C   UNL     1      22.460 -21.382  27.006  1.00  0.00    -0.044 A 
ATOM      8  C   UNL     1      21.749 -20.268  26.505  1.00  0.00     0.054 A 
ATOM      9  C   UNL     1      23.007 -21.334  28.314  1.00  0.00     0.008 A 
ATOM     10  C   UNL     1      21.602 -19.160  27.335  1.00  0.00     0.166 A 
ATOM     11  C   UNL     1      22.834 -20.194  29.120  1.00  0.00     0.051 A 
ATOM     12  C   UNL     1      22.122 -19.125  28.588  1.00  0.00     0.165 A 
ATOM     13  O   UNL     1      20.956 -17.968  27.071  1.00  0.00    -0.454 OA
ATOM     14  O   UNL     1      21.825 -17.910  29.175  1.00  0.00    -0.454 OA
ATOM     15  C   UNL     1      21.074 -17.133  28.231  1.00  0.00     0.468 C 
ENDBRANCH   6   7
ENDBRANCH   2   6
BRANCH   3  16
ATOM     16  C   UNL     1      24.269 -25.116  25.994  1.00  0.00     0.044 C 
BRANCH  16  17
ATOM     17  C   UNL     1      24.283 -25.687  27.392  1.00  0.00    -0.044 A 
ATOM     18  C   UNL     1      24.654 -27.035  27.609  1.00  0.00     0.054 A 
ATOM     19  C   UNL     1      23.892 -24.884  28.496  1.00  0.00     0.008 A 
ATOM     20  C   UNL     1      24.642 -27.515  28.914  1.00  0.00     0.166 A 
ATOM     21  C   UNL     1      23.893 -25.411  29.800  1.00  0.00     0.051 A 
ATOM     22  C   UNL     1      24.278 -26.737  29.964  1.00  0.00     0.165 A 
ATOM     23  O   UNL     1      24.969 -28.778  29.370  1.00  0.00    -0.454 OA
ATOM     24  O   UNL     1      24.359 -27.472  31.132  1.00  0.00    -0.454 OA
ATOM     25  C   UNL     1      24.801 -28.793  30.793  1.00  0.00     0.468 C 
ENDBRANCH  16  17
ENDBRANCH   3  16
BRANCH   4  26
ATOM     26  O   UNL     1      26.642 -24.887  24.452  1.00  0.00    -0.368 OA
ATOM     27  H   UNL     1      27.490 -24.869  24.970  1.00  0.00     0.213 HD
ENDBRANCH   4  26
TORSDOF 5
ENDMDL
MODEL 8
REMARK VINA RESULT:    -7.539      3.677      8.840
REMARK INTER + INTRA:         -10.502
REMARK INTER:                  -9.124
REMARK INTRA:                  -1.379
REMARK UNBOUND:                -0.979
REMARK SMILES O[C@H]1OC[C@@H](Cc2ccc3c(c2)OCO3)[C@H]1Cc1ccc2c(c1)OCO2
REMARK SMILES IDX 4 1 5 2 16 3 2 4 3 5 6 6 7 7 12 8 8 9 11 10 9 11 10 12 13 13
REMARK SMILES IDX 15 14 14 15 17 16 18 17 23 18 19 19 22 20 20 21 21 22 24 23
REMARK SMILES IDX 26 24 25 25 1 26
REMARK H PARENT 1 27
REMARK Flexibility Score: inf
ROOT
ATOM      1  C   UNL     1      24.933 -26.783  31.662  1.00  0.00     0.168 C 
ATOM      2  C   UNL     1      23.741 -26.309  30.836  1.00  0.00     0.028 C 
ATOM      3  C   UNL     1      23.901 -27.094  29.542  1.00  0.00     0.055 C 
ATOM      4  C   UNL     1      24.506 -28.388  30.111  1.00  0.00     0.250 C 
ATOM      5  O   UNL     1      25.340 -28.051  31.195  1.00  0.00    -0.352 OA
ENDROOT
BRANCH   2   6
ATOM      6  C   UNL     1      23.643 -24.772  30.710  1.00  0.00     0.042 C 
BRANCH   6   7
ATOM      7  C   UNL     1      22.229 -24.299  30.928  1.00  0.00    -0.044 A 
ATOM      8  C   UNL     1      21.933 -22.917  30.933  1.00  0.00     0.054 A 
ATOM      9  C   UNL     1      21.195 -25.239  31.176  1.00  0.00     0.008 A 
ATOM     10  C   UNL     1      20.617 -22.532  31.173  1.00  0.00     0.166 A 
ATOM     11  C   UNL     1      19.877 -24.806  31.413  1.00  0.00     0.051 A 
ATOM     12  C   UNL     1      19.632 -23.437  31.402  1.00  0.00     0.165 A 
ATOM     13  O   UNL     1      20.092 -21.255  31.225  1.00  0.00    -0.454 OA
ATOM     14  O   UNL     1      18.438 -22.774  31.608  1.00  0.00    -0.454 OA
ATOM     15  C   UNL     1      18.688 -21.366  31.502  1.00  0.00     0.468 C 
ENDBRANCH   6   7
ENDBRANCH   2   6
BRANCH   3  16
ATOM     16  C   UNL     1      24.810 -26.390  28.490  1.00  0.00     0.044 C 
BRANCH  16  17
ATOM     17  C   UNL     1      24.036 -25.838  27.317  1.00  0.00    -0.044 A 
ATOM     18  C   UNL     1      24.720 -25.312  26.196  1.00  0.00     0.054 A 
ATOM     19  C   UNL     1      22.618 -25.812  27.344  1.00  0.00     0.008 A 
ATOM     20  C   UNL     1      23.963 -24.807  25.144  1.00  0.00     0.166 A 
ATOM     21  C   UNL     1      21.890 -25.291  26.259  1.00  0.00     0.051 A 
ATOM     22  C   UNL     1      22.606 -24.798  25.174  1.00  0.00     0.165 A 
ATOM     23  O   UNL     1      24.400 -24.257  23.954  1.00  0.00    -0.454 OA
ATOM     24  O   UNL     1      22.123 -24.242  24.004  1.00  0.00    -0.454 OA
ATOM     25  C   UNL     1      23.247 -23.880  23.190  1.00  0.00     0.468 C 
ENDBRANCH  16  17
ENDBRANCH   3  16
BRANCH   4  26
ATOM     26  O   UNL     1      25.240 -29.115  29.164  1.00  0.00    -0.368 OA
ATOM     27  H   UNL     1      25.066 -28.689  28.283  1.00  0.00     0.213 HD
ENDBRANCH   4  26
TORSDOF 5
ENDMDL
MODEL 9
REMARK VINA RESULT:    -7.515      3.163      7.480
REMARK INTER + INTRA:         -10.471
REMARK INTER:                  -8.844
REMARK INTRA:                  -1.627
REMARK UNBOUND:                -0.979
REMARK SMILES O[C@H]1OC[C@@H](Cc2ccc3c(c2)OCO3)[C@H]1Cc1ccc2c(c1)OCO2
REMARK SMILES IDX 4 1 5 2 16 3 2 4 3 5 6 6 7 7 12 8 8 9 11 10 9 11 10 12 13 13
REMARK SMILES IDX 15 14 14 15 17 16 18 17 23 18 19 19 22 20 20 21 21 22 24 23
REMARK SMILES IDX 26 24 25 25 1 26
REMARK H PARENT 1 27
REMARK Flexibility Score: inf
ROOT
ATOM      1  C   UNL     1      21.102 -21.480  30.416  1.00  0.00     0.168 C 
ATOM      2  C   UNL     1      22.221 -22.356  29.861  1.00  0.00     0.028 C 
ATOM      3  C   UNL     1      22.974 -21.395  28.952  1.00  0.00     0.055 C 
ATOM      4  C   UNL     1      22.775 -20.095  29.747  1.00  0.00     0.250 C 
ATOM      5  O   UNL     1      21.498 -20.128  30.343  1.00  0.00    -0.352 OA
ENDROOT
BRANCH   2   6
ATOM      6  C   UNL     1      21.722 -23.672  29.221  1.00  0.00     0.042 C 
BRANCH   6   7
ATOM      7  C   UNL     1      22.666 -24.809  29.515  1.00  0.00    -0.044 A 
ATOM      8  C   UNL     1      23.039 -25.708  28.490  1.00  0.00     0.054 A 
ATOM      9  C   UNL     1      23.146 -25.012  30.835  1.00  0.00     0.008 A 
ATOM     10  C   UNL     1      23.886 -26.761  28.822  1.00  0.00     0.166 A 
ATOM     11  C   UNL     1      24.002 -26.090  31.126  1.00  0.00     0.051 A 
ATOM     12  C   UNL     1      24.348 -26.944  30.085  1.00  0.00     0.165 A 
ATOM     13  O   UNL     1      24.383 -27.755  28.001  1.00  0.00    -0.454 OA
ATOM     14  O   UNL     1      25.161 -28.060  30.120  1.00  0.00    -0.454 OA
ATOM     15  C   UNL     1      25.211 -28.614  28.798  1.00  0.00     0.468 C 
ENDBRANCH   6   7
ENDBRANCH   2   6
BRANCH   3  16
ATOM     16  C   UNL     1      22.410 -21.332  27.501  1.00  0.00     0.044 C 
BRANCH  16  17
ATOM     17  C   UNL     1      23.162 -22.217  26.536  1.00  0.00    -0.044 A 
ATOM     18  C   UNL     1      22.543 -22.659  25.343  1.00  0.00     0.054 A 
ATOM     19  C   UNL     1      24.483 -22.640  26.835  1.00  0.00     0.008 A 
ATOM     20  C   UNL     1      23.274 -23.480  24.491  1.00  0.00     0.166 A 
ATOM     21  C   UNL     1      25.187 -23.472  25.946  1.00  0.00     0.051 A 
ATOM     22  C   UNL     1      24.541 -23.870  24.780  1.00  0.00     0.165 A 
ATOM     23  O   UNL     1      22.891 -24.023  23.280  1.00  0.00    -0.454 OA
ATOM     24  O   UNL     1      25.018 -24.676  23.764  1.00  0.00    -0.454 OA
ATOM     25  C   UNL     1      23.986 -24.801  22.777  1.00  0.00     0.468 C 
ENDBRANCH  16  17
ENDBRANCH   3  16
BRANCH   4  26
ATOM     26  O   UNL     1      22.893 -18.943  28.959  1.00  0.00    -0.368 OA
ATOM     27  H   UNL     1      22.686 -18.172  29.550  1.00  0.00     0.213 HD
ENDBRANCH   4  26
TORSDOF 5
ENDMDL
