MODEL 1
REMARK VINA RESULT:    -3.299      0.000      0.000
REMARK INTER + INTRA:          -4.854
REMARK INTER:                  -4.456
REMARK INTRA:                  -0.398
REMARK UNBOUND:                -0.398
REMARK SMILES CCCCCCC=CC(=O)[O-]
REMARK SMILES IDX 5 1 6 2 7 3 8 4 9 5 10 6 11 7 4 8 3 9 2 10 1 11
REMARK H PARENT
REMARK Flexibility Score: inf
ROOT
ATOM      1  C   UNL     1     -25.268   5.930 -30.045  1.00  0.00     0.004 C 
ENDROOT
BRANCH   1   2
ATOM      2  C   UNL     1     -23.963   6.015 -30.851  1.00  0.00     0.027 C 
BRANCH   2   3
ATOM      3  C   UNL     1     -24.164   5.682 -32.304  1.00  0.00    -0.025 C 
ATOM      4  C   UNL     1     -25.333   5.220 -32.760  1.00  0.00     0.020 C 
BRANCH   4   5
ATOM      5  C   UNL     1     -25.552   4.895 -34.179  1.00  0.00     0.064 C 
ATOM      6  O   UNL     1     -24.907   3.971 -34.742  1.00  0.00    -0.545 OA
ATOM      7  O   UNL     1     -26.486   5.618 -34.908  1.00  0.00    -0.545 OA
ENDBRANCH   4   5
ENDBRANCH   2   3
ENDBRANCH   1   2
BRANCH   1   8
ATOM      8  C   UNL     1     -25.747   7.310 -29.571  1.00  0.00     0.000 C 
BRANCH   8   9
ATOM      9  C   UNL     1     -24.612   8.079 -28.884  1.00  0.00    -0.000 C 
BRANCH   9  10
ATOM     10  C   UNL     1     -24.749   8.013 -27.358  1.00  0.00    -0.003 C 
ATOM     11  C   UNL     1     -23.872   6.911 -26.773  1.00  0.00     0.004 C 
ENDBRANCH   9  10
ENDBRANCH   8   9
ENDBRANCH   1   8
TORSDOF 6
ENDMDL
MODEL 2
REMARK VINA RESULT:    -3.222     14.026     15.518
REMARK INTER + INTRA:          -4.751
REMARK INTER:                  -4.365
REMARK INTRA:                  -0.385
REMARK UNBOUND:                -0.398
REMARK SMILES CCCCCCC=CC(=O)[O-]
REMARK SMILES IDX 5 1 6 2 7 3 8 4 9 5 10 6 11 7 4 8 3 9 2 10 1 11
REMARK H PARENT
REMARK Flexibility Score: inf
ROOT
ATOM      1  C   UNL     1     -34.619  -5.378 -33.249  1.00  0.00     0.004 C 
ENDROOT
BRANCH   1   2
ATOM      2  C   UNL     1     -34.976  -5.813 -31.819  1.00  0.00     0.027 C 
BRANCH   2   3
ATOM      3  C   UNL     1     -34.599  -7.242 -31.545  1.00  0.00    -0.025 C 
ATOM      4  C   UNL     1     -33.392  -7.570 -31.073  1.00  0.00     0.020 C 
BRANCH   4   5
ATOM      5  C   UNL     1     -33.006  -8.962 -30.792  1.00  0.00     0.064 C 
ATOM      6  O   UNL     1     -33.270  -9.888 -31.605  1.00  0.00    -0.545 OA
ATOM      7  O   UNL     1     -32.339  -9.260 -29.611  1.00  0.00    -0.545 OA
ENDBRANCH   4   5
ENDBRANCH   2   3
ENDBRANCH   1   2
BRANCH   1   8
ATOM      8  C   UNL     1     -33.377  -4.476 -33.287  1.00  0.00     0.000 C 
BRANCH   8   9
ATOM      9  C   UNL     1     -33.763  -3.019 -33.570  1.00  0.00    -0.000 C 
BRANCH   9  10
ATOM     10  C   UNL     1     -33.142  -2.075 -32.534  1.00  0.00    -0.003 C 
ATOM     11  C   UNL     1     -33.492  -2.507 -31.114  1.00  0.00     0.004 C 
ENDBRANCH   9  10
ENDBRANCH   8   9
ENDBRANCH   1   8
TORSDOF 6
ENDMDL
MODEL 3
REMARK VINA RESULT:    -3.178      1.759      2.820
REMARK INTER + INTRA:          -4.690
REMARK INTER:                  -4.340
REMARK INTRA:                  -0.350
REMARK UNBOUND:                -0.398
REMARK SMILES CCCCCCC=CC(=O)[O-]
REMARK SMILES IDX 5 1 6 2 7 3 8 4 9 5 10 6 11 7 4 8 3 9 2 10 1 11
REMARK H PARENT
REMARK Flexibility Score: inf
ROOT
ATOM      1  C   UNL     1     -24.497   8.012 -29.006  1.00  0.00     0.004 C 
ENDROOT
BRANCH   1   2
ATOM      2  C   UNL     1     -24.107   6.588 -29.432  1.00  0.00     0.027 C 
BRANCH   2   3
ATOM      3  C   UNL     1     -24.084   6.424 -30.926  1.00  0.00    -0.025 C 
ATOM      4  C   UNL     1     -24.337   5.245 -31.504  1.00  0.00     0.020 C 
BRANCH   4   5
ATOM      5  C   UNL     1     -24.325   5.065 -32.965  1.00  0.00     0.064 C 
ATOM      6  O   UNL     1     -25.292   5.449 -33.677  1.00  0.00    -0.545 OA
ATOM      7  O   UNL     1     -23.230   4.462 -33.569  1.00  0.00    -0.545 OA
ENDBRANCH   4   5
ENDBRANCH   2   3
ENDBRANCH   1   2
BRANCH   1   8
ATOM      8  C   UNL     1     -25.684   8.021 -28.031  1.00  0.00     0.000 C 
BRANCH   8   9
ATOM      9  C   UNL     1     -27.015   7.916 -28.786  1.00  0.00    -0.000 C 
BRANCH   9  10
ATOM     10  C   UNL     1     -27.771   6.642 -28.391  1.00  0.00    -0.003 C 
ATOM     11  C   UNL     1     -29.193   6.653 -28.942  1.00  0.00     0.004 C 
ENDBRANCH   9  10
ENDBRANCH   8   9
ENDBRANCH   1   8
TORSDOF 6
ENDMDL
MODEL 4
REMARK VINA RESULT:    -3.159      0.999      1.587
REMARK INTER + INTRA:          -4.665
REMARK INTER:                  -4.225
REMARK INTRA:                  -0.439
REMARK UNBOUND:                -0.398
REMARK SMILES CCCCCCC=CC(=O)[O-]
REMARK SMILES IDX 5 1 6 2 7 3 8 4 9 5 10 6 11 7 4 8 3 9 2 10 1 11
REMARK H PARENT
REMARK Flexibility Score: inf
ROOT
ATOM      1  C   UNL     1     -24.283   5.007 -29.237  1.00  0.00     0.004 C 
ENDROOT
BRANCH   1   2
ATOM      2  C   UNL     1     -23.515   5.562 -30.446  1.00  0.00     0.027 C 
BRANCH   2   3
ATOM      3  C   UNL     1     -23.946   4.927 -31.739  1.00  0.00    -0.025 C 
ATOM      4  C   UNL     1     -24.746   5.565 -32.599  1.00  0.00     0.020 C 
BRANCH   4   5
ATOM      5  C   UNL     1     -25.174   4.963 -33.872  1.00  0.00     0.064 C 
ATOM      6  O   UNL     1     -24.549   3.993 -34.377  1.00  0.00    -0.545 OA
ATOM      7  O   UNL     1     -26.287   5.473 -34.528  1.00  0.00    -0.545 OA
ENDBRANCH   4   5
ENDBRANCH   2   3
ENDBRANCH   1   2
BRANCH   1   8
ATOM      8  C   UNL     1     -24.192   5.937 -28.017  1.00  0.00     0.000 C 
BRANCH   8   9
ATOM      9  C   UNL     1     -24.226   7.409 -28.445  1.00  0.00    -0.000 C 
BRANCH   9  10
ATOM     10  C   UNL     1     -25.530   8.081 -28.000  1.00  0.00    -0.003 C 
ATOM     11  C   UNL     1     -26.588   8.010 -29.096  1.00  0.00     0.004 C 
ENDBRANCH   9  10
ENDBRANCH   8   9
ENDBRANCH   1   8
TORSDOF 6
ENDMDL
MODEL 5
REMARK VINA RESULT:    -3.092      9.079     10.763
REMARK INTER + INTRA:          -4.574
REMARK INTER:                  -4.081
REMARK INTRA:                  -0.493
REMARK UNBOUND:                -0.398
REMARK SMILES CCCCCCC=CC(=O)[O-]
REMARK SMILES IDX 5 1 6 2 7 3 8 4 9 5 10 6 11 7 4 8 3 9 2 10 1 11
REMARK H PARENT
REMARK Flexibility Score: inf
ROOT
ATOM      1  C   UNL     1     -20.458  -3.836 -30.733  1.00  0.00     0.004 C 
ENDROOT
BRANCH   1   2
ATOM      2  C   UNL     1     -19.918  -2.452 -30.341  1.00  0.00     0.027 C 
BRANCH   2   3
ATOM      3  C   UNL     1     -20.478  -1.354 -31.203  1.00  0.00    -0.025 C 
ATOM      4  C   UNL     1     -19.684  -0.454 -31.791  1.00  0.00     0.020 C 
BRANCH   4   5
ATOM      5  C   UNL     1     -20.211   0.624 -32.643  1.00  0.00     0.064 C 
ATOM      6  O   UNL     1     -20.458   1.766 -32.171  1.00  0.00    -0.545 OA
ATOM      7  O   UNL     1     -20.438   0.378 -33.991  1.00  0.00    -0.545 OA
ENDBRANCH   4   5
ENDBRANCH   2   3
ENDBRANCH   1   2
BRANCH   1   8
ATOM      8  C   UNL     1     -20.720  -3.949 -32.242  1.00  0.00     0.000 C 
BRANCH   8   9
ATOM      9  C   UNL     1     -19.493  -4.509 -32.972  1.00  0.00    -0.000 C 
BRANCH   9  10
ATOM     10  C   UNL     1     -18.878  -3.456 -33.901  1.00  0.00    -0.003 C 
ATOM     11  C   UNL     1     -17.977  -4.102 -34.948  1.00  0.00     0.004 C 
ENDBRANCH   9  10
ENDBRANCH   8   9
ENDBRANCH   1   8
TORSDOF 6
ENDMDL
MODEL 6
REMARK VINA RESULT:    -3.075      3.274      6.967
REMARK INTER + INTRA:          -4.551
REMARK INTER:                  -4.238
REMARK INTRA:                  -0.313
REMARK UNBOUND:                -0.398
REMARK SMILES CCCCCCC=CC(=O)[O-]
REMARK SMILES IDX 5 1 6 2 7 3 8 4 9 5 10 6 11 7 4 8 3 9 2 10 1 11
REMARK H PARENT
REMARK Flexibility Score: inf
ROOT
ATOM      1  C   UNL     1     -25.259   4.076 -35.054  1.00  0.00     0.004 C 
ENDROOT
BRANCH   1   2
ATOM      2  C   UNL     1     -25.941   5.110 -34.146  1.00  0.00     0.027 C 
BRANCH   2   3
ATOM      3  C   UNL     1     -25.451   5.036 -32.726  1.00  0.00    -0.025 C 
ATOM      4  C   UNL     1     -24.239   5.481 -32.380  1.00  0.00     0.020 C 
BRANCH   4   5
ATOM      5  C   UNL     1     -23.744   5.423 -30.995  1.00  0.00     0.064 C 
ATOM      6  O   UNL     1     -23.644   6.466 -30.295  1.00  0.00    -0.545 OA
ATOM      7  O   UNL     1     -23.381   4.198 -30.450  1.00  0.00    -0.545 OA
ENDBRANCH   4   5
ENDBRANCH   2   3
ENDBRANCH   1   2
BRANCH   1   8
ATOM      8  C   UNL     1     -25.920   3.996 -36.438  1.00  0.00     0.000 C 
BRANCH   8   9
ATOM      9  C   UNL     1     -26.747   5.255 -36.726  1.00  0.00    -0.000 C 
BRANCH   9  10
ATOM     10  C   UNL     1     -27.891   4.950 -37.700  1.00  0.00    -0.003 C 
ATOM     11  C   UNL     1     -27.971   3.459 -38.007  1.00  0.00     0.004 C 
ENDBRANCH   9  10
ENDBRANCH   8   9
ENDBRANCH   1   8
TORSDOF 6
ENDMDL
MODEL 7
REMARK VINA RESULT:    -3.069      9.398     11.439
REMARK INTER + INTRA:          -4.543
REMARK INTER:                  -3.791
REMARK INTRA:                  -0.752
REMARK UNBOUND:                -0.398
REMARK SMILES CCCCCCC=CC(=O)[O-]
REMARK SMILES IDX 5 1 6 2 7 3 8 4 9 5 10 6 11 7 4 8 3 9 2 10 1 11
REMARK H PARENT
REMARK Flexibility Score: inf
ROOT
ATOM      1  C   UNL     1     -32.938   2.080 -38.343  1.00  0.00     0.004 C 
ENDROOT
BRANCH   1   2
ATOM      2  C   UNL     1     -32.626   2.798 -39.665  1.00  0.00     0.027 C 
BRANCH   2   3
ATOM      3  C   UNL     1     -31.188   3.227 -39.758  1.00  0.00    -0.025 C 
ATOM      4  C   UNL     1     -30.485   3.558 -38.670  1.00  0.00     0.020 C 
BRANCH   4   5
ATOM      5  C   UNL     1     -29.075   3.974 -38.740  1.00  0.00     0.064 C 
ATOM      6  O   UNL     1     -28.148   3.125 -38.823  1.00  0.00    -0.545 OA
ATOM      7  O   UNL     1     -28.761   5.327 -38.714  1.00  0.00    -0.545 OA
ENDBRANCH   4   5
ENDBRANCH   2   3
ENDBRANCH   1   2
BRANCH   1   8
ATOM      8  C   UNL     1     -33.133   0.569 -38.537  1.00  0.00     0.000 C 
BRANCH   8   9
ATOM      9  C   UNL     1     -31.929  -0.214 -38.001  1.00  0.00    -0.000 C 
BRANCH   9  10
ATOM     10  C   UNL     1     -31.061  -0.743 -39.148  1.00  0.00    -0.003 C 
ATOM     11  C   UNL     1     -29.674  -0.107 -39.129  1.00  0.00     0.004 C 
ENDBRANCH   9  10
ENDBRANCH   8   9
ENDBRANCH   1   8
TORSDOF 6
ENDMDL
MODEL 8
REMARK VINA RESULT:    -3.068     12.349     13.722
REMARK INTER + INTRA:          -4.542
REMARK INTER:                  -3.915
REMARK INTRA:                  -0.627
REMARK UNBOUND:                -0.398
REMARK SMILES CCCCCCC=CC(=O)[O-]
REMARK SMILES IDX 5 1 6 2 7 3 8 4 9 5 10 6 11 7 4 8 3 9 2 10 1 11
REMARK H PARENT
REMARK Flexibility Score: inf
ROOT
ATOM      1  C   UNL     1     -34.392  -6.078 -32.292  1.00  0.00     0.004 C 
ENDROOT
BRANCH   1   2
ATOM      2  C   UNL     1     -34.644  -4.997 -33.354  1.00  0.00     0.027 C 
BRANCH   2   3
ATOM      3  C   UNL     1     -33.533  -3.985 -33.416  1.00  0.00    -0.025 C 
ATOM      4  C   UNL     1     -33.775  -2.696 -33.673  1.00  0.00     0.020 C 
BRANCH   4   5
ATOM      5  C   UNL     1     -32.703  -1.689 -33.732  1.00  0.00     0.064 C 
ATOM      6  O   UNL     1     -32.621  -0.774 -32.870  1.00  0.00    -0.545 OA
ATOM      7  O   UNL     1     -31.765  -1.750 -34.754  1.00  0.00    -0.545 OA
ENDBRANCH   4   5
ENDBRANCH   2   3
ENDBRANCH   1   2
BRANCH   1   8
ATOM      8  C   UNL     1     -35.420  -6.022 -31.153  1.00  0.00     0.000 C 
BRANCH   8   9
ATOM      9  C   UNL     1     -34.794  -5.449 -29.876  1.00  0.00    -0.000 C 
BRANCH   9  10
ATOM     10  C   UNL     1     -34.869  -3.918 -29.866  1.00  0.00    -0.003 C 
ATOM     11  C   UNL     1     -33.495  -3.299 -29.635  1.00  0.00     0.004 C 
ENDBRANCH   9  10
ENDBRANCH   8   9
ENDBRANCH   1   8
TORSDOF 6
ENDMDL
MODEL 9
REMARK VINA RESULT:    -3.015      2.568      4.039
REMARK INTER + INTRA:          -4.471
REMARK INTER:                  -3.803
REMARK INTRA:                  -0.668
REMARK UNBOUND:                -0.398
REMARK SMILES CCCCCCC=CC(=O)[O-]
REMARK SMILES IDX 5 1 6 2 7 3 8 4 9 5 10 6 11 7 4 8 3 9 2 10 1 11
REMARK H PARENT
REMARK Flexibility Score: inf
ROOT
ATOM      1  C   UNL     1     -26.127   7.440 -27.285  1.00  0.00     0.004 C 
ENDROOT
BRANCH   1   2
ATOM      2  C   UNL     1     -24.864   8.124 -27.831  1.00  0.00     0.027 C 
BRANCH   2   3
ATOM      3  C   UNL     1     -24.313   7.426 -29.043  1.00  0.00    -0.025 C 
ATOM      4  C   UNL     1     -24.417   6.102 -29.195  1.00  0.00     0.020 C 
BRANCH   4   5
ATOM      5  C   UNL     1     -23.890   5.401 -30.377  1.00  0.00     0.064 C 
ATOM      6  O   UNL     1     -23.200   4.353 -30.260  1.00  0.00    -0.545 OA
ATOM      7  O   UNL     1     -24.158   5.903 -31.644  1.00  0.00    -0.545 OA
ENDBRANCH   4   5
ENDBRANCH   2   3
ENDBRANCH   1   2
BRANCH   1   8
ATOM      8  C   UNL     1     -27.413   8.125 -27.770  1.00  0.00     0.000 C 
BRANCH   8   9
ATOM      9  C   UNL     1     -28.453   7.089 -28.214  1.00  0.00    -0.000 C 
BRANCH   9  10
ATOM     10  C   UNL     1     -28.127   6.547 -29.611  1.00  0.00    -0.003 C 
ATOM     11  C   UNL     1     -27.956   5.031 -29.588  1.00  0.00     0.004 C 
ENDBRANCH   9  10
ENDBRANCH   8   9
ENDBRANCH   1   8
TORSDOF 6
ENDMDL
