MODEL 1
REMARK VINA RESULT:    -4.151      0.000      0.000
REMARK INTER + INTRA:          -5.088
REMARK INTER:                  -4.879
REMARK INTRA:                  -0.209
REMARK UNBOUND:                -0.209
REMARK SMILES [NH3+][C@H](CO)C(=O)[O-]
REMARK SMILES IDX 3 1 2 2 1 3 5 7 6 8 7 9 4 10
REMARK H PARENT 1 4 1 5 1 6 4 11
REMARK Flexibility Score: inf
ROOT
ATOM      1  C   UNL     1      35.774  25.251  33.623  1.00  0.00     0.227 C 
ENDROOT
BRANCH   1   2
ATOM      2  C   UNL     1      37.007  26.095  33.993  1.00  0.00     0.253 C 
BRANCH   2   3
ATOM      3  N   UNL     1      37.037  27.359  33.245  1.00  0.00    -0.348 N 
ATOM      4  H   UNL     1      37.692  27.300  32.431  1.00  0.00     0.345 HD
ATOM      5  H   UNL     1      36.078  27.581  32.892  1.00  0.00     0.345 HD
ATOM      6  H   UNL     1      37.342  28.136  33.874  1.00  0.00     0.345 HD
ENDBRANCH   2   3
BRANCH   2   7
ATOM      7  C   UNL     1      37.064  26.343  35.477  1.00  0.00     0.102 C 
ATOM      8  O   UNL     1      36.199  25.845  36.245  1.00  0.00    -0.544 OA
ATOM      9  O   UNL     1      38.101  27.098  36.013  1.00  0.00    -0.544 OA
ENDBRANCH   2   7
ENDBRANCH   1   2
BRANCH   1  10
ATOM     10  O   UNL     1      34.582  25.901  33.982  1.00  0.00    -0.390 OA
ATOM     11  H   UNL     1      34.055  25.259  34.524  1.00  0.00     0.210 HD
ENDBRANCH   1  10
TORSDOF 4
ENDMDL
MODEL 2
REMARK VINA RESULT:    -4.091      2.146      3.016
REMARK INTER + INTRA:          -5.018
REMARK INTER:                  -4.659
REMARK INTRA:                  -0.359
REMARK UNBOUND:                -0.209
REMARK SMILES [NH3+][C@H](CO)C(=O)[O-]
REMARK SMILES IDX 3 1 2 2 1 3 5 7 6 8 7 9 4 10
REMARK H PARENT 1 4 1 5 1 6 4 11
REMARK Flexibility Score: inf
ROOT
ATOM      1  C   UNL     1      37.426  27.050  34.581  1.00  0.00     0.227 C 
ENDROOT
BRANCH   1   2
ATOM      2  C   UNL     1      36.520  25.856  34.932  1.00  0.00     0.253 C 
BRANCH   2   3
ATOM      3  N   UNL     1      35.495  26.229  35.915  1.00  0.00    -0.348 N 
ATOM      4  H   UNL     1      34.814  26.911  35.508  1.00  0.00     0.345 HD
ATOM      5  H   UNL     1      34.976  25.375  36.223  1.00  0.00     0.345 HD
ATOM      6  H   UNL     1      35.948  26.657  36.754  1.00  0.00     0.345 HD
ENDBRANCH   2   3
BRANCH   2   7
ATOM      7  C   UNL     1      35.894  25.273  33.692  1.00  0.00     0.102 C 
ATOM      8  O   UNL     1      34.695  25.522  33.401  1.00  0.00    -0.544 OA
ATOM      9  O   UNL     1      36.656  24.484  32.839  1.00  0.00    -0.544 OA
ENDBRANCH   2   7
ENDBRANCH   1   2
BRANCH   1  10
ATOM     10  O   UNL     1      37.121  27.569  33.314  1.00  0.00    -0.390 OA
ATOM     11  H   UNL     1      36.167  27.360  33.137  1.00  0.00     0.210 HD
ENDBRANCH   1  10
TORSDOF 4
ENDMDL
MODEL 3
REMARK VINA RESULT:    -4.066      2.125      3.027
REMARK INTER + INTRA:          -4.988
REMARK INTER:                  -4.766
REMARK INTRA:                  -0.222
REMARK UNBOUND:                -0.209
REMARK SMILES [NH3+][C@H](CO)C(=O)[O-]
REMARK SMILES IDX 3 1 2 2 1 3 5 7 6 8 7 9 4 10
REMARK H PARENT 1 4 1 5 1 6 4 11
REMARK Flexibility Score: inf
ROOT
ATOM      1  C   UNL     1      37.827  26.639  33.228  1.00  0.00     0.227 C 
ENDROOT
BRANCH   1   2
ATOM      2  C   UNL     1      36.987  25.468  32.685  1.00  0.00     0.253 C 
BRANCH   2   3
ATOM      3  N   UNL     1      37.827  24.303  32.376  1.00  0.00    -0.348 N 
ATOM      4  H   UNL     1      38.678  24.585  31.838  1.00  0.00     0.345 HD
ATOM      5  H   UNL     1      38.125  23.840  33.265  1.00  0.00     0.345 HD
ATOM      6  H   UNL     1      37.280  23.612  31.814  1.00  0.00     0.345 HD
ENDBRANCH   2   3
BRANCH   2   7
ATOM      7  C   UNL     1      35.888  25.103  33.648  1.00  0.00     0.102 C 
ATOM      8  O   UNL     1      35.937  25.477  34.850  1.00  0.00    -0.544 OA
ATOM      9  O   UNL     1      34.790  24.379  33.201  1.00  0.00    -0.544 OA
ENDBRANCH   2   7
ENDBRANCH   1   2
BRANCH   1  10
ATOM     10  O   UNL     1      37.073  27.820  33.299  1.00  0.00    -0.390 OA
ATOM     11  H   UNL     1      36.615  27.818  34.180  1.00  0.00     0.210 HD
ENDBRANCH   1  10
TORSDOF 4
ENDMDL
MODEL 4
REMARK VINA RESULT:    -3.949      1.770      2.374
REMARK INTER + INTRA:          -4.851
REMARK INTER:                  -4.632
REMARK INTRA:                  -0.219
REMARK UNBOUND:                -0.209
REMARK SMILES [NH3+][C@H](CO)C(=O)[O-]
REMARK SMILES IDX 3 1 2 2 1 3 5 7 6 8 7 9 4 10
REMARK H PARENT 1 4 1 5 1 6 4 11
REMARK Flexibility Score: inf
ROOT
ATOM      1  C   UNL     1      37.955  26.580  33.577  1.00  0.00     0.227 C 
ENDROOT
BRANCH   1   2
ATOM      2  C   UNL     1      37.794  26.380  35.096  1.00  0.00     0.253 C 
BRANCH   2   3
ATOM      3  N   UNL     1      38.125  27.605  35.837  1.00  0.00    -0.348 N 
ATOM      4  H   UNL     1      38.666  27.385  36.704  1.00  0.00     0.345 HD
ATOM      5  H   UNL     1      38.697  28.237  35.231  1.00  0.00     0.345 HD
ATOM      6  H   UNL     1      37.247  28.108  36.099  1.00  0.00     0.345 HD
ENDBRANCH   2   3
BRANCH   2   7
ATOM      7  C   UNL     1      36.405  25.903  35.431  1.00  0.00     0.102 C 
ATOM      8  O   UNL     1      35.949  26.023  36.598  1.00  0.00    -0.544 OA
ATOM      9  O   UNL     1      35.602  25.359  34.435  1.00  0.00    -0.544 OA
ENDBRANCH   2   7
ENDBRANCH   1   2
BRANCH   1  10
ATOM     10  O   UNL     1      37.162  27.641  33.113  1.00  0.00    -0.390 OA
ATOM     11  H   UNL     1      36.216  27.362  33.217  1.00  0.00     0.210 HD
ENDBRANCH   1  10
TORSDOF 4
ENDMDL
MODEL 5
REMARK VINA RESULT:    -3.872     19.840     20.430
REMARK INTER + INTRA:          -4.760
REMARK INTER:                  -4.406
REMARK INTRA:                  -0.354
REMARK UNBOUND:                -0.209
REMARK SMILES [NH3+][C@H](CO)C(=O)[O-]
REMARK SMILES IDX 3 1 2 2 1 3 5 7 6 8 7 9 4 10
REMARK H PARENT 1 4 1 5 1 6 4 11
REMARK Flexibility Score: inf
ROOT
ATOM      1  C   UNL     1      21.766  11.978  37.620  1.00  0.00     0.227 C 
ENDROOT
BRANCH   1   2
ATOM      2  C   UNL     1      20.544  12.790  37.153  1.00  0.00     0.253 C 
BRANCH   2   3
ATOM      3  N   UNL     1      19.894  13.476  38.277  1.00  0.00    -0.348 N 
ATOM      4  H   UNL     1      19.069  14.031  37.953  1.00  0.00     0.345 HD
ATOM      5  H   UNL     1      19.573  12.771  38.980  1.00  0.00     0.345 HD
ATOM      6  H   UNL     1      20.575  14.117  38.743  1.00  0.00     0.345 HD
ENDBRANCH   2   3
BRANCH   2   7
ATOM      7  C   UNL     1      20.929  13.767  36.072  1.00  0.00     0.102 C 
ATOM      8  O   UNL     1      20.692  13.512  34.862  1.00  0.00    -0.544 OA
ATOM      9  O   UNL     1      21.518  14.978  36.413  1.00  0.00    -0.544 OA
ENDBRANCH   2   7
ENDBRANCH   1   2
BRANCH   1  10
ATOM     10  O   UNL     1      22.928  12.360  36.932  1.00  0.00    -0.390 OA
ATOM     11  H   UNL     1      23.139  11.630  36.293  1.00  0.00     0.210 HD
ENDBRANCH   1  10
TORSDOF 4
ENDMDL
MODEL 6
REMARK VINA RESULT:    -3.857     20.442     21.022
REMARK INTER + INTRA:          -4.742
REMARK INTER:                  -4.502
REMARK INTRA:                  -0.240
REMARK UNBOUND:                -0.209
REMARK SMILES [NH3+][C@H](CO)C(=O)[O-]
REMARK SMILES IDX 3 1 2 2 1 3 5 7 6 8 7 9 4 10
REMARK H PARENT 1 4 1 5 1 6 4 11
REMARK Flexibility Score: inf
ROOT
ATOM      1  C   UNL     1      20.518  13.786  35.802  1.00  0.00     0.227 C 
ENDROOT
BRANCH   1   2
ATOM      2  C   UNL     1      20.875  13.464  37.265  1.00  0.00     0.253 C 
BRANCH   2   3
ATOM      3  N   UNL     1      19.698  13.561  38.139  1.00  0.00    -0.348 N 
ATOM      4  H   UNL     1      19.798  14.349  38.819  1.00  0.00     0.345 HD
ATOM      5  H   UNL     1      18.843  13.720  37.559  1.00  0.00     0.345 HD
ATOM      6  H   UNL     1      19.575  12.667  38.666  1.00  0.00     0.345 HD
ENDBRANCH   2   3
BRANCH   2   7
ATOM      7  C   UNL     1      21.521  12.108  37.374  1.00  0.00     0.102 C 
ATOM      8  O   UNL     1      22.772  11.998  37.460  1.00  0.00    -0.544 OA
ATOM      9  O   UNL     1      20.729  10.967  37.420  1.00  0.00    -0.544 OA
ENDBRANCH   2   7
ENDBRANCH   1   2
BRANCH   1  10
ATOM     10  O   UNL     1      19.779  12.748  35.214  1.00  0.00    -0.390 OA
ATOM     11  H   UNL     1      20.228  12.521  34.359  1.00  0.00     0.210 HD
ENDBRANCH   1  10
TORSDOF 4
ENDMDL
MODEL 7
REMARK VINA RESULT:    -3.754     20.245     21.146
REMARK INTER + INTRA:          -4.621
REMARK INTER:                  -4.275
REMARK INTRA:                  -0.346
REMARK UNBOUND:                -0.209
REMARK SMILES [NH3+][C@H](CO)C(=O)[O-]
REMARK SMILES IDX 3 1 2 2 1 3 5 7 6 8 7 9 4 10
REMARK H PARENT 1 4 1 5 1 6 4 11
REMARK Flexibility Score: inf
ROOT
ATOM      1  C   UNL     1      20.239  12.745  38.797  1.00  0.00     0.227 C 
ENDROOT
BRANCH   1   2
ATOM      2  C   UNL     1      20.908  12.270  37.494  1.00  0.00     0.253 C 
BRANCH   2   3
ATOM      3  N   UNL     1      20.308  11.021  37.007  1.00  0.00    -0.348 N 
ATOM      4  H   UNL     1      19.445  11.211  36.447  1.00  0.00     0.345 HD
ATOM      5  H   UNL     1      20.997  10.513  36.406  1.00  0.00     0.345 HD
ATOM      6  H   UNL     1      20.063  10.406  37.815  1.00  0.00     0.345 HD
ENDBRANCH   2   3
BRANCH   2   7
ATOM      7  C   UNL     1      20.854  13.344  36.440  1.00  0.00     0.102 C 
ATOM      8  O   UNL     1      20.030  13.271  35.491  1.00  0.00    -0.544 OA
ATOM      9  O   UNL     1      21.695  14.447  36.533  1.00  0.00    -0.544 OA
ENDBRANCH   2   7
ENDBRANCH   1   2
BRANCH   1  10
ATOM     10  O   UNL     1      19.340  13.796  38.558  1.00  0.00    -0.390 OA
ATOM     11  H   UNL     1      18.597  13.423  38.015  1.00  0.00     0.210 HD
ENDBRANCH   1  10
TORSDOF 4
ENDMDL
MODEL 8
REMARK VINA RESULT:    -3.719      1.645      2.649
REMARK INTER + INTRA:          -4.580
REMARK INTER:                  -4.363
REMARK INTRA:                  -0.217
REMARK UNBOUND:                -0.209
REMARK SMILES [NH3+][C@H](CO)C(=O)[O-]
REMARK SMILES IDX 3 1 2 2 1 3 5 7 6 8 7 9 4 10
REMARK H PARENT 1 4 1 5 1 6 4 11
REMARK Flexibility Score: inf
ROOT
ATOM      1  C   UNL     1      36.907  26.274  35.415  1.00  0.00     0.227 C 
ENDROOT
BRANCH   1   2
ATOM      2  C   UNL     1      36.570  26.419  33.920  1.00  0.00     0.253 C 
BRANCH   2   3
ATOM      3  N   UNL     1      37.477  27.361  33.253  1.00  0.00    -0.348 N 
ATOM      4  H   UNL     1      37.176  28.350  33.412  1.00  0.00     0.345 HD
ATOM      5  H   UNL     1      38.446  27.239  33.626  1.00  0.00     0.345 HD
ATOM      6  H   UNL     1      37.495  27.170  32.226  1.00  0.00     0.345 HD
ENDBRANCH   2   3
BRANCH   2   7
ATOM      7  C   UNL     1      36.583  25.077  33.234  1.00  0.00     0.102 C 
ATOM      8  O   UNL     1      35.568  24.332  33.262  1.00  0.00    -0.544 OA
ATOM      9  O   UNL     1      37.711  24.671  32.532  1.00  0.00    -0.544 OA
ENDBRANCH   2   7
ENDBRANCH   1   2
BRANCH   1  10
ATOM     10  O   UNL     1      35.958  25.483  36.081  1.00  0.00    -0.390 OA
ATOM     11  H   UNL     1      35.123  25.521  35.545  1.00  0.00     0.210 HD
ENDBRANCH   1  10
TORSDOF 4
ENDMDL
