MODEL 1
REMARK VINA RESULT:    -4.847      0.000      0.000
REMARK INTER + INTRA:          -7.388
REMARK INTER:                  -6.547
REMARK INTRA:                  -0.841
REMARK UNBOUND:                -0.841
REMARK SMILES C=CC(C)=CCC=C(C)CCC=C(C)C
REMARK SMILES IDX 8 1 7 2 9 3 10 4 11 5 12 6 14 7 13 8 15 9 6 10 5 11 3 12
REMARK SMILES IDX 4 13 2 14 1 15
REMARK H PARENT
REMARK Flexibility Score: inf
ROOT
ATOM      1  C   UNL     1     139.047 139.391 135.230  1.00  0.00    -0.077 C 
ATOM      2  C   UNL     1     138.145 139.857 134.336  1.00  0.00    -0.024 C 
ATOM      3  C   UNL     1     138.993 139.776 136.690  1.00  0.00     0.039 C 
ENDROOT
BRANCH   1   4
ATOM      4  C   UNL     1     140.140 138.461 134.753  1.00  0.00     0.034 C 
BRANCH   4   5
ATOM      5  C   UNL     1     140.622 137.553 135.891  1.00  0.00     0.032 C 
BRANCH   5   6
ATOM      6  C   UNL     1     139.839 136.265 135.917  1.00  0.00    -0.028 C 
ATOM      7  C   UNL     1     141.100 135.273 133.993  1.00  0.00     0.039 C 
ATOM      8  C   UNL     1     140.066 135.219 135.090  1.00  0.00    -0.080 C 
ATOM      9  C   UNL     1     139.237 133.967 135.220  1.00  0.00     0.039 C 
ENDBRANCH   5   6
ENDBRANCH   4   5
ENDBRANCH   1   4
BRANCH   2  10
ATOM     10  C   UNL     1     137.010 140.792 134.676  1.00  0.00     0.055 C 
BRANCH  10  11
ATOM     11  C   UNL     1     135.668 140.149 134.448  1.00  0.00    -0.020 C 
ATOM     12  C   UNL     1     134.685 140.062 135.370  1.00  0.00    -0.055 C 
ATOM     13  C   UNL     1     133.413 139.338 135.003  1.00  0.00     0.044 C 
BRANCH  12  14
ATOM     14  C   UNL     1     134.846 140.631 136.737  1.00  0.00    -0.005 C 
ATOM     15  C   UNL     1     135.167 139.893 137.801  1.00  0.00     0.009 C 
ENDBRANCH  12  14
ENDBRANCH  10  11
ENDBRANCH   2  10
TORSDOF 6
ENDMDL
MODEL 2
REMARK VINA RESULT:    -4.808      1.283      5.814
REMARK INTER + INTRA:          -7.335
REMARK INTER:                  -6.329
REMARK INTRA:                  -1.007
REMARK UNBOUND:                -0.841
REMARK SMILES C=CC(C)=CCC=C(C)CCC=C(C)C
REMARK SMILES IDX 8 1 7 2 9 3 10 4 11 5 12 6 14 7 13 8 15 9 6 10 5 11 3 12
REMARK SMILES IDX 4 13 2 14 1 15
REMARK H PARENT
REMARK Flexibility Score: inf
ROOT
ATOM      1  C   UNL     1     136.637 140.356 134.567  1.00  0.00    -0.077 C 
ATOM      2  C   UNL     1     137.516 139.857 135.467  1.00  0.00    -0.024 C 
ATOM      3  C   UNL     1     137.090 140.919 133.240  1.00  0.00     0.039 C 
ENDROOT
BRANCH   1   4
ATOM      4  C   UNL     1     135.163 140.352 134.902  1.00  0.00     0.034 C 
BRANCH   4   5
ATOM      5  C   UNL     1     134.934 140.736 136.369  1.00  0.00     0.032 C 
BRANCH   5   6
ATOM      6  C   UNL     1     134.177 139.653 137.095  1.00  0.00    -0.028 C 
ATOM      7  C   UNL     1     136.002 139.278 138.770  1.00  0.00     0.039 C 
ATOM      8  C   UNL     1     134.632 139.012 138.195  1.00  0.00    -0.080 C 
ATOM      9  C   UNL     1     133.779 137.960 138.857  1.00  0.00     0.039 C 
ENDBRANCH   5   6
ENDBRANCH   4   5
ENDBRANCH   1   4
BRANCH   2  10
ATOM     10  C   UNL     1     139.011 139.805 135.262  1.00  0.00     0.055 C 
BRANCH  10  11
ATOM     11  C   UNL     1     139.460 138.458 134.761  1.00  0.00    -0.020 C 
ATOM     12  C   UNL     1     140.162 137.559 135.482  1.00  0.00    -0.055 C 
ATOM     13  C   UNL     1     140.584 136.272 134.818  1.00  0.00     0.044 C 
BRANCH  12  14
ATOM     14  C   UNL     1     140.553 137.827 136.894  1.00  0.00    -0.005 C 
ATOM     15  C   UNL     1     139.823 137.436 137.940  1.00  0.00     0.009 C 
ENDBRANCH  12  14
ENDBRANCH  10  11
ENDBRANCH   2  10
TORSDOF 6
ENDMDL
MODEL 3
REMARK VINA RESULT:    -4.802      1.998      5.675
REMARK INTER + INTRA:          -7.328
REMARK INTER:                  -6.314
REMARK INTRA:                  -1.013
REMARK UNBOUND:                -0.841
REMARK SMILES C=CC(C)=CCC=C(C)CCC=C(C)C
REMARK SMILES IDX 8 1 7 2 9 3 10 4 11 5 12 6 14 7 13 8 15 9 6 10 5 11 3 12
REMARK SMILES IDX 4 13 2 14 1 15
REMARK H PARENT
REMARK Flexibility Score: inf
ROOT
ATOM      1  C   UNL     1     134.418 139.975 135.613  1.00  0.00    -0.077 C 
ATOM      2  C   UNL     1     135.199 140.022 134.509  1.00  0.00    -0.024 C 
ATOM      3  C   UNL     1     134.892 140.505 136.946  1.00  0.00     0.039 C 
ENDROOT
BRANCH   1   4
ATOM      4  C   UNL     1     133.036 139.371 135.507  1.00  0.00     0.034 C 
BRANCH   4   5
ATOM      5  C   UNL     1     133.005 138.253 134.458  1.00  0.00     0.032 C 
BRANCH   5   6
ATOM      6  C   UNL     1     132.204 137.076 134.953  1.00  0.00    -0.028 C 
ATOM      7  C   UNL     1     134.173 136.000 136.067  1.00  0.00     0.039 C 
ATOM      8  C   UNL     1     132.710 136.072 135.705  1.00  0.00    -0.080 C 
ATOM      9  C   UNL     1     131.811 134.954 136.167  1.00  0.00     0.039 C 
ENDBRANCH   5   6
ENDBRANCH   4   5
ENDBRANCH   1   4
BRANCH   2  10
ATOM     10  C   UNL     1     136.597 140.592 134.476  1.00  0.00     0.055 C 
BRANCH  10  11
ATOM     11  C   UNL     1     137.604 139.577 134.001  1.00  0.00    -0.020 C 
ATOM     12  C   UNL     1     138.710 139.210 134.680  1.00  0.00    -0.055 C 
ATOM     13  C   UNL     1     139.651 138.216 134.044  1.00  0.00     0.044 C 
BRANCH  12  14
ATOM     14  C   UNL     1     139.033 139.786 136.015  1.00  0.00    -0.005 C 
ATOM     15  C   UNL     1     139.015 139.073 137.142  1.00  0.00     0.009 C 
ENDBRANCH  12  14
ENDBRANCH  10  11
ENDBRANCH   2  10
TORSDOF 6
ENDMDL
MODEL 4
REMARK VINA RESULT:    -4.795      3.480      6.044
REMARK INTER + INTRA:          -7.317
REMARK INTER:                  -6.344
REMARK INTRA:                  -0.974
REMARK UNBOUND:                -0.841
REMARK SMILES C=CC(C)=CCC=C(C)CCC=C(C)C
REMARK SMILES IDX 8 1 7 2 9 3 10 4 11 5 12 6 14 7 13 8 15 9 6 10 5 11 3 12
REMARK SMILES IDX 4 13 2 14 1 15
REMARK H PARENT
REMARK Flexibility Score: inf
ROOT
ATOM      1  C   UNL     1     138.404 132.702 135.196  1.00  0.00    -0.077 C 
ATOM      2  C   UNL     1     137.766 132.844 134.011  1.00  0.00    -0.024 C 
ATOM      3  C   UNL     1     137.844 131.840 136.303  1.00  0.00     0.039 C 
ENDROOT
BRANCH   1   4
ATOM      4  C   UNL     1     139.712 133.429 135.416  1.00  0.00     0.034 C 
BRANCH   4   5
ATOM      5  C   UNL     1     139.917 134.519 134.357  1.00  0.00     0.032 C 
BRANCH   5   6
ATOM      6  C   UNL     1     140.648 135.701 134.940  1.00  0.00    -0.028 C 
ATOM      7  C   UNL     1     138.560 136.750 135.843  1.00  0.00     0.039 C 
ATOM      8  C   UNL     1     140.054 136.695 135.638  1.00  0.00    -0.080 C 
ATOM      9  C   UNL     1     140.887 137.820 136.198  1.00  0.00     0.039 C 
ENDBRANCH   5   6
ENDBRANCH   4   5
ENDBRANCH   1   4
BRANCH   2  10
ATOM     10  C   UNL     1     136.456 132.181 133.663  1.00  0.00     0.055 C 
BRANCH  10  11
ATOM     11  C   UNL     1     135.374 133.190 133.383  1.00  0.00    -0.020 C 
ATOM     12  C   UNL     1     134.286 133.392 134.155  1.00  0.00    -0.055 C 
ATOM     13  C   UNL     1     133.263 134.408 133.710  1.00  0.00     0.044 C 
BRANCH  12  14
ATOM     14  C   UNL     1     134.062 132.615 135.406  1.00  0.00    -0.005 C 
ATOM     15  C   UNL     1     133.313 133.058 136.417  1.00  0.00     0.009 C 
ENDBRANCH  12  14
ENDBRANCH  10  11
ENDBRANCH   2  10
TORSDOF 6
ENDMDL
MODEL 5
REMARK VINA RESULT:    -4.781      3.719      5.800
REMARK INTER + INTRA:          -7.299
REMARK INTER:                  -6.304
REMARK INTRA:                  -0.995
REMARK UNBOUND:                -0.841
REMARK SMILES C=CC(C)=CCC=C(C)CCC=C(C)C
REMARK SMILES IDX 8 1 7 2 9 3 10 4 11 5 12 6 14 7 13 8 15 9 6 10 5 11 3 12
REMARK SMILES IDX 4 13 2 14 1 15
REMARK H PARENT
REMARK Flexibility Score: inf
ROOT
ATOM      1  C   UNL     1     132.672 134.284 135.226  1.00  0.00    -0.077 C 
ATOM      2  C   UNL     1     132.790 134.941 134.049  1.00  0.00    -0.024 C 
ATOM      3  C   UNL     1     131.852 134.838 136.368  1.00  0.00     0.039 C 
ENDROOT
BRANCH   1   4
ATOM      4  C   UNL     1     133.383 132.961 135.401  1.00  0.00     0.034 C 
BRANCH   4   5
ATOM      5  C   UNL     1     134.479 132.785 134.344  1.00  0.00     0.032 C 
BRANCH   5   6
ATOM      6  C   UNL     1     135.653 132.028 134.910  1.00  0.00    -0.028 C 
ATOM      7  C   UNL     1     136.815 134.103 135.698  1.00  0.00     0.039 C 
ATOM      8  C   UNL     1     136.695 132.606 135.551  1.00  0.00    -0.080 C 
ATOM      9  C   UNL     1     137.806 131.749 136.100  1.00  0.00     0.039 C 
ENDBRANCH   5   6
ENDBRANCH   4   5
ENDBRANCH   1   4
BRANCH   2  10
ATOM     10  C   UNL     1     132.138 136.268 133.743  1.00  0.00     0.055 C 
BRANCH  10  11
ATOM     11  C   UNL     1     133.157 137.339 133.454  1.00  0.00    -0.020 C 
ATOM     12  C   UNL     1     133.379 138.424 134.225  1.00  0.00    -0.055 C 
ATOM     13  C   UNL     1     134.402 139.436 133.771  1.00  0.00     0.044 C 
BRANCH  12  14
ATOM     14  C   UNL     1     132.616 138.655 135.483  1.00  0.00    -0.005 C 
ATOM     15  C   UNL     1     133.122 139.300 136.535  1.00  0.00     0.009 C 
ENDBRANCH  12  14
ENDBRANCH  10  11
ENDBRANCH   2  10
TORSDOF 6
ENDMDL
MODEL 6
REMARK VINA RESULT:    -4.774      1.297      5.582
REMARK INTER + INTRA:          -7.289
REMARK INTER:                  -5.609
REMARK INTRA:                  -1.680
REMARK UNBOUND:                -0.841
REMARK SMILES C=CC(C)=CCC=C(C)CCC=C(C)C
REMARK SMILES IDX 8 1 7 2 9 3 10 4 11 5 12 6 14 7 13 8 15 9 6 10 5 11 3 12
REMARK SMILES IDX 4 13 2 14 1 15
REMARK H PARENT
REMARK Flexibility Score: inf
ROOT
ATOM      1  C   UNL     1     138.283 139.750 134.514  1.00  0.00    -0.077 C 
ATOM      2  C   UNL     1     139.070 139.781 135.613  1.00  0.00    -0.024 C 
ATOM      3  C   UNL     1     138.407 138.659 133.477  1.00  0.00     0.039 C 
ENDROOT
BRANCH   1   4
ATOM      4  C   UNL     1     137.253 140.840 134.318  1.00  0.00     0.034 C 
BRANCH   4   5
ATOM      5  C   UNL     1     135.840 140.314 134.595  1.00  0.00     0.032 C 
BRANCH   5   6
ATOM      6  C   UNL     1     135.484 140.473 136.051  1.00  0.00    -0.028 C 
ATOM      7  C   UNL     1     135.840 138.048 136.568  1.00  0.00     0.039 C 
ATOM      8  C   UNL     1     135.512 139.469 136.956  1.00  0.00    -0.080 C 
ATOM      9  C   UNL     1     135.160 139.746 138.395  1.00  0.00     0.039 C 
ENDBRANCH   5   6
ENDBRANCH   4   5
ENDBRANCH   1   4
BRANCH   2  10
ATOM     10  C   UNL     1     140.138 138.761 135.928  1.00  0.00     0.055 C 
BRANCH  10  11
ATOM     11  C   UNL     1     139.818 137.983 137.177  1.00  0.00    -0.020 C 
ATOM     12  C   UNL     1     139.297 136.738 137.200  1.00  0.00    -0.055 C 
ATOM     13  C   UNL     1     138.983 136.111 138.536  1.00  0.00     0.044 C 
BRANCH  12  14
ATOM     14  C   UNL     1     139.000 135.994 135.945  1.00  0.00    -0.005 C 
ATOM     15  C   UNL     1     139.831 135.096 135.414  1.00  0.00     0.009 C 
ENDBRANCH  12  14
ENDBRANCH  10  11
ENDBRANCH   2  10
TORSDOF 6
ENDMDL
MODEL 7
REMARK VINA RESULT:    -4.765      3.475      6.021
REMARK INTER + INTRA:          -7.277
REMARK INTER:                  -5.793
REMARK INTRA:                  -1.484
REMARK UNBOUND:                -0.841
REMARK SMILES C=CC(C)=CCC=C(C)CCC=C(C)C
REMARK SMILES IDX 8 1 7 2 9 3 10 4 11 5 12 6 14 7 13 8 15 9 6 10 5 11 3 12
REMARK SMILES IDX 4 13 2 14 1 15
REMARK H PARENT
REMARK Flexibility Score: inf
ROOT
ATOM      1  C   UNL     1     139.741 134.279 134.450  1.00  0.00    -0.077 C 
ATOM      2  C   UNL     1     139.677 133.445 135.513  1.00  0.00    -0.024 C 
ATOM      3  C   UNL     1     138.715 134.235 133.341  1.00  0.00     0.039 C 
ENDROOT
BRANCH   1   4
ATOM      4  C   UNL     1     140.872 135.280 134.370  1.00  0.00     0.034 C 
BRANCH   4   5
ATOM      5  C   UNL     1     140.351 136.710 134.553  1.00  0.00     0.032 C 
BRANCH   5   6
ATOM      6  C   UNL     1     140.483 137.148 135.989  1.00  0.00    -0.028 C 
ATOM      7  C   UNL     1     138.077 136.693 136.516  1.00  0.00     0.039 C 
ATOM      8  C   UNL     1     139.476 137.115 136.891  1.00  0.00    -0.080 C 
ATOM      9  C   UNL     1     139.725 137.554 138.311  1.00  0.00     0.039 C 
ENDBRANCH   5   6
ENDBRANCH   4   5
ENDBRANCH   1   4
BRANCH   2  10
ATOM     10  C   UNL     1     138.606 132.400 135.715  1.00  0.00     0.055 C 
BRANCH  10  11
ATOM     11  C   UNL     1     137.486 132.906 136.584  1.00  0.00    -0.020 C 
ATOM     12  C   UNL     1     136.225 133.142 136.162  1.00  0.00    -0.055 C 
ATOM     13  C   UNL     1     135.227 133.700 137.146  1.00  0.00     0.044 C 
BRANCH  12  14
ATOM     14  C   UNL     1     135.817 132.896 134.751  1.00  0.00    -0.005 C 
ATOM     15  C   UNL     1     135.241 131.763 134.345  1.00  0.00     0.009 C 
ENDBRANCH  12  14
ENDBRANCH  10  11
ENDBRANCH   2  10
TORSDOF 6
ENDMDL
MODEL 8
REMARK VINA RESULT:    -4.746      1.234      5.979
REMARK INTER + INTRA:          -7.252
REMARK INTER:                  -6.156
REMARK INTRA:                  -1.096
REMARK UNBOUND:                -0.841
REMARK SMILES C=CC(C)=CCC=C(C)CCC=C(C)C
REMARK SMILES IDX 8 1 7 2 9 3 10 4 11 5 12 6 14 7 13 8 15 9 6 10 5 11 3 12
REMARK SMILES IDX 4 13 2 14 1 15
REMARK H PARENT
REMARK Flexibility Score: inf
ROOT
ATOM      1  C   UNL     1     139.852 138.114 135.875  1.00  0.00    -0.077 C 
ATOM      2  C   UNL     1     140.129 137.419 134.747  1.00  0.00    -0.024 C 
ATOM      3  C   UNL     1     140.067 137.522 137.248  1.00  0.00     0.039 C 
ENDROOT
BRANCH   1   4
ATOM      4  C   UNL     1     139.310 139.521 135.754  1.00  0.00     0.034 C 
BRANCH   4   5
ATOM      5  C   UNL     1     138.241 139.603 134.658  1.00  0.00     0.032 C 
BRANCH   5   6
ATOM      6  C   UNL     1     137.073 140.442 135.111  1.00  0.00    -0.028 C 
ATOM      7  C   UNL     1     135.872 138.500 136.140  1.00  0.00     0.039 C 
ATOM      8  C   UNL     1     136.017 139.964 135.807  1.00  0.00    -0.080 C 
ATOM      9  C   UNL     1     134.913 140.898 136.231  1.00  0.00     0.039 C 
ENDBRANCH   5   6
ENDBRANCH   4   5
ENDBRANCH   1   4
BRANCH   2  10
ATOM     10  C   UNL     1     140.668 136.009 134.724  1.00  0.00     0.055 C 
BRANCH  10  11
ATOM     11  C   UNL     1     139.661 135.033 134.176  1.00  0.00    -0.020 C 
ATOM     12  C   UNL     1     139.225 133.929 134.819  1.00  0.00    -0.055 C 
ATOM     13  C   UNL     1     138.250 133.021 134.112  1.00  0.00     0.044 C 
BRANCH  12  14
ATOM     14  C   UNL     1     139.711 133.578 136.182  1.00  0.00    -0.005 C 
ATOM     15  C   UNL     1     138.971 133.729 137.282  1.00  0.00     0.009 C 
ENDBRANCH  12  14
ENDBRANCH  10  11
ENDBRANCH   2  10
TORSDOF 6
ENDMDL
