MODEL 1
REMARK VINA RESULT:    -3.241      0.000      0.000
REMARK INTER + INTRA:          -4.378
REMARK INTER:                  -4.189
REMARK INTRA:                  -0.190
REMARK UNBOUND:                -0.190
REMARK SMILES CCCCCCC(=O)[O-]
REMARK SMILES IDX 5 1 6 2 7 3 8 4 9 5 4 6 3 7 2 8 1 9
REMARK H PARENT
REMARK Flexibility Score: inf
ROOT
ATOM      1  C   UNL     1      61.546  33.768  60.262  1.00  0.00     0.006 C 
ENDROOT
BRANCH   1   2
ATOM      2  C   UNL     1      62.120  32.359  60.434  1.00  0.00     0.053 C 
BRANCH   2   3
ATOM      3  C   UNL     1      61.018  31.358  60.581  1.00  0.00     0.041 C 
ATOM      4  O   UNL     1      60.316  31.040  59.584  1.00  0.00    -0.550 OA
ATOM      5  O   UNL     1      60.733  30.813  61.826  1.00  0.00    -0.550 OA
ENDBRANCH   2   3
ENDBRANCH   1   2
BRANCH   1   6
ATOM      6  C   UNL     1      62.635  34.834  60.465  1.00  0.00     0.000 C 
BRANCH   6   7
ATOM      7  C   UNL     1      63.991  34.228  60.856  1.00  0.00    -0.000 C 
BRANCH   7   8
ATOM      8  C   UNL     1      64.934  35.255  61.499  1.00  0.00    -0.003 C 
ATOM      9  C   UNL     1      64.303  36.645  61.512  1.00  0.00     0.004 C 
ENDBRANCH   7   8
ENDBRANCH   6   7
ENDBRANCH   1   6
TORSDOF 5
ENDMDL
MODEL 2
REMARK VINA RESULT:    -3.211      1.465      2.067
REMARK INTER + INTRA:          -4.339
REMARK INTER:                  -4.170
REMARK INTRA:                  -0.169
REMARK UNBOUND:                -0.190
REMARK SMILES CCCCCCC(=O)[O-]
REMARK SMILES IDX 5 1 6 2 7 3 8 4 9 5 4 6 3 7 2 8 1 9
REMARK H PARENT
REMARK Flexibility Score: inf
ROOT
ATOM      1  C   UNL     1      62.408  32.238  60.300  1.00  0.00     0.006 C 
ENDROOT
BRANCH   1   2
ATOM      2  C   UNL     1      61.513  31.143  60.887  1.00  0.00     0.053 C 
BRANCH   2   3
ATOM      3  C   UNL     1      62.324  29.935  61.236  1.00  0.00     0.041 C 
ATOM      4  O   UNL     1      63.566  30.037  61.418  1.00  0.00    -0.550 OA
ATOM      5  O   UNL     1      61.717  28.687  61.312  1.00  0.00    -0.550 OA
ENDBRANCH   2   3
ENDBRANCH   1   2
BRANCH   1   6
ATOM      6  C   UNL     1      61.695  33.598  60.317  1.00  0.00     0.000 C 
BRANCH   6   7
ATOM      7  C   UNL     1      62.657  34.769  60.572  1.00  0.00    -0.000 C 
BRANCH   7   8
ATOM      8  C   UNL     1      64.087  34.302  60.882  1.00  0.00    -0.003 C 
ATOM      9  C   UNL     1      64.883  35.399  61.582  1.00  0.00     0.004 C 
ENDBRANCH   7   8
ENDBRANCH   6   7
ENDBRANCH   1   6
TORSDOF 5
ENDMDL
MODEL 3
REMARK VINA RESULT:    -3.192      1.899      2.481
REMARK INTER + INTRA:          -4.314
REMARK INTER:                  -4.091
REMARK INTRA:                  -0.224
REMARK UNBOUND:                -0.190
REMARK SMILES CCCCCCC(=O)[O-]
REMARK SMILES IDX 5 1 6 2 7 3 8 4 9 5 4 6 3 7 2 8 1 9
REMARK H PARENT
REMARK Flexibility Score: inf
ROOT
ATOM      1  C   UNL     1      61.189  31.499  60.019  1.00  0.00     0.006 C 
ENDROOT
BRANCH   1   2
ATOM      2  C   UNL     1      61.208  30.772  61.366  1.00  0.00     0.053 C 
BRANCH   2   3
ATOM      3  C   UNL     1      62.261  29.709  61.374  1.00  0.00     0.041 C 
ATOM      4  O   UNL     1      61.932  28.493  61.423  1.00  0.00    -0.550 OA
ATOM      5  O   UNL     1      63.605  30.059  61.377  1.00  0.00    -0.550 OA
ENDBRANCH   2   3
ENDBRANCH   1   2
BRANCH   1   6
ATOM      6  C   UNL     1      61.411  33.007  60.205  1.00  0.00     0.000 C 
BRANCH   6   7
ATOM      7  C   UNL     1      62.893  33.371  60.382  1.00  0.00    -0.000 C 
BRANCH   7   8
ATOM      8  C   UNL     1      63.108  34.869  60.643  1.00  0.00    -0.003 C 
ATOM      9  C   UNL     1      61.780  35.622  60.639  1.00  0.00     0.004 C 
ENDBRANCH   7   8
ENDBRANCH   6   7
ENDBRANCH   1   6
TORSDOF 5
ENDMDL
MODEL 4
REMARK VINA RESULT:    -3.149     12.793     14.061
REMARK INTER + INTRA:          -4.259
REMARK INTER:                  -4.033
REMARK INTRA:                  -0.226
REMARK UNBOUND:                -0.190
REMARK SMILES CCCCCCC(=O)[O-]
REMARK SMILES IDX 5 1 6 2 7 3 8 4 9 5 4 6 3 7 2 8 1 9
REMARK H PARENT
REMARK Flexibility Score: inf
ROOT
ATOM      1  C   UNL     1      57.844  28.217  50.641  1.00  0.00     0.006 C 
ENDROOT
BRANCH   1   2
ATOM      2  C   UNL     1      58.888  28.795  49.681  1.00  0.00     0.053 C 
BRANCH   2   3
ATOM      3  C   UNL     1      59.891  27.750  49.305  1.00  0.00     0.041 C 
ATOM      4  O   UNL     1      61.053  28.086  48.953  1.00  0.00    -0.550 OA
ATOM      5  O   UNL     1      59.529  26.409  49.295  1.00  0.00    -0.550 OA
ENDBRANCH   2   3
ENDBRANCH   1   2
BRANCH   1   6
ATOM      6  C   UNL     1      56.490  28.921  50.470  1.00  0.00     0.000 C 
BRANCH   6   7
ATOM      7  C   UNL     1      55.358  27.949  50.103  1.00  0.00    -0.000 C 
BRANCH   7   8
ATOM      8  C   UNL     1      55.873  26.538  49.782  1.00  0.00    -0.003 C 
ATOM      9  C   UNL     1      54.799  25.709  49.083  1.00  0.00     0.004 C 
ENDBRANCH   7   8
ENDBRANCH   6   7
ENDBRANCH   1   6
TORSDOF 5
ENDMDL
MODEL 5
REMARK VINA RESULT:    -3.133     13.078     13.989
REMARK INTER + INTRA:          -4.239
REMARK INTER:                  -4.091
REMARK INTRA:                  -0.148
REMARK UNBOUND:                -0.190
REMARK SMILES CCCCCCC(=O)[O-]
REMARK SMILES IDX 5 1 6 2 7 3 8 4 9 5 4 6 3 7 2 8 1 9
REMARK H PARENT
REMARK Flexibility Score: inf
ROOT
ATOM      1  C   UNL     1      56.396  27.713  50.165  1.00  0.00     0.006 C 
ENDROOT
BRANCH   1   2
ATOM      2  C   UNL     1      55.993  26.252  49.944  1.00  0.00     0.053 C 
BRANCH   2   3
ATOM      3  C   UNL     1      54.600  26.167  49.407  1.00  0.00     0.041 C 
ATOM      4  O   UNL     1      53.907  27.211  49.277  1.00  0.00    -0.550 OA
ATOM      5  O   UNL     1      54.047  24.931  49.094  1.00  0.00    -0.550 OA
ENDBRANCH   2   3
ENDBRANCH   1   2
BRANCH   1   6
ATOM      6  C   UNL     1      57.924  27.859  50.222  1.00  0.00     0.000 C 
BRANCH   6   7
ATOM      7  C   UNL     1      58.391  29.299  49.959  1.00  0.00    -0.000 C 
BRANCH   7   8
ATOM      8  C   UNL     1      59.605  29.365  49.021  1.00  0.00    -0.003 C 
ATOM      9  C   UNL     1      60.364  28.041  49.012  1.00  0.00     0.004 C 
ENDBRANCH   7   8
ENDBRANCH   6   7
ENDBRANCH   1   6
TORSDOF 5
ENDMDL
MODEL 6
REMARK VINA RESULT:    -3.097     12.202     14.325
REMARK INTER + INTRA:          -4.192
REMARK INTER:                  -4.025
REMARK INTRA:                  -0.167
REMARK UNBOUND:                -0.190
REMARK SMILES CCCCCCC(=O)[O-]
REMARK SMILES IDX 5 1 6 2 7 3 8 4 9 5 4 6 3 7 2 8 1 9
REMARK H PARENT
REMARK Flexibility Score: inf
ROOT
ATOM      1  C   UNL     1      56.679  28.427  50.778  1.00  0.00     0.006 C 
ENDROOT
BRANCH   1   2
ATOM      2  C   UNL     1      57.983  28.104  50.043  1.00  0.00     0.053 C 
BRANCH   2   3
ATOM      3  C   UNL     1      58.815  29.337  49.882  1.00  0.00     0.041 C 
ATOM      4  O   UNL     1      59.225  29.679  48.741  1.00  0.00    -0.550 OA
ATOM      5  O   UNL     1      59.178  30.082  50.997  1.00  0.00    -0.550 OA
ENDBRANCH   2   3
ENDBRANCH   1   2
BRANCH   1   6
ATOM      6  C   UNL     1      55.478  27.773  50.079  1.00  0.00     0.000 C 
BRANCH   6   7
ATOM      7  C   UNL     1      55.761  26.327  49.644  1.00  0.00    -0.000 C 
BRANCH   7   8
ATOM      8  C   UNL     1      54.518  25.628  49.072  1.00  0.00    -0.003 C 
ATOM      9  C   UNL     1      53.307  26.556  49.097  1.00  0.00     0.004 C 
ENDBRANCH   7   8
ENDBRANCH   6   7
ENDBRANCH   1   6
TORSDOF 5
ENDMDL
MODEL 7
REMARK VINA RESULT:    -3.059      2.918      4.775
REMARK INTER + INTRA:          -4.143
REMARK INTER:                  -3.926
REMARK INTRA:                  -0.217
REMARK UNBOUND:                -0.190
REMARK SMILES CCCCCCC(=O)[O-]
REMARK SMILES IDX 5 1 6 2 7 3 8 4 9 5 4 6 3 7 2 8 1 9
REMARK H PARENT
REMARK Flexibility Score: inf
ROOT
ATOM      1  C   UNL     1      61.677  33.255  60.238  1.00  0.00     0.006 C 
ENDROOT
BRANCH   1   2
ATOM      2  C   UNL     1      63.203  33.345  60.336  1.00  0.00     0.053 C 
BRANCH   2   3
ATOM      3  C   UNL     1      63.614  34.667  60.902  1.00  0.00     0.041 C 
ATOM      4  O   UNL     1      64.771  34.819  61.377  1.00  0.00    -0.550 OA
ATOM      5  O   UNL     1      62.707  35.717  60.951  1.00  0.00    -0.550 OA
ENDBRANCH   2   3
ENDBRANCH   1   2
BRANCH   1   6
ATOM      6  C   UNL     1      61.223  31.799  60.054  1.00  0.00     0.000 C 
BRANCH   6   7
ATOM      7  C   UNL     1      61.069  31.054  61.389  1.00  0.00    -0.000 C 
BRANCH   7   8
ATOM      8  C   UNL     1      61.764  29.684  61.386  1.00  0.00    -0.003 C 
ATOM      9  C   UNL     1      63.273  29.836  61.214  1.00  0.00     0.004 C 
ENDBRANCH   7   8
ENDBRANCH   6   7
ENDBRANCH   1   6
TORSDOF 5
ENDMDL
MODEL 8
REMARK VINA RESULT:    -3.015     12.343     13.764
REMARK INTER + INTRA:          -4.086
REMARK INTER:                  -3.925
REMARK INTRA:                  -0.161
REMARK UNBOUND:                -0.190
REMARK SMILES CCCCCCC(=O)[O-]
REMARK SMILES IDX 5 1 6 2 7 3 8 4 9 5 4 6 3 7 2 8 1 9
REMARK H PARENT
REMARK Flexibility Score: inf
ROOT
ATOM      1  C   UNL     1      57.742  28.123  50.013  1.00  0.00     0.006 C 
ENDROOT
BRANCH   1   2
ATOM      2  C   UNL     1      58.560  29.417  50.067  1.00  0.00     0.053 C 
BRANCH   2   3
ATOM      3  C   UNL     1      59.917  29.205  49.474  1.00  0.00     0.041 C 
ATOM      4  O   UNL     1      60.151  28.178  48.783  1.00  0.00    -0.550 OA
ATOM      5  O   UNL     1      60.936  30.115  49.724  1.00  0.00    -0.550 OA
ENDBRANCH   2   3
ENDBRANCH   1   2
BRANCH   1   6
ATOM      6  C   UNL     1      56.318  28.350  50.543  1.00  0.00     0.000 C 
BRANCH   6   7
ATOM      7  C   UNL     1      55.296  27.381  49.930  1.00  0.00    -0.000 C 
BRANCH   7   8
ATOM      8  C   UNL     1      53.948  28.054  49.632  1.00  0.00    -0.003 C 
ATOM      9  C   UNL     1      53.934  29.497  50.129  1.00  0.00     0.004 C 
ENDBRANCH   7   8
ENDBRANCH   6   7
ENDBRANCH   1   6
TORSDOF 5
ENDMDL
MODEL 9
REMARK VINA RESULT:    -2.994      3.249      4.791
REMARK INTER + INTRA:          -4.058
REMARK INTER:                  -3.876
REMARK INTRA:                  -0.182
REMARK UNBOUND:                -0.190
REMARK SMILES CCCCCCC(=O)[O-]
REMARK SMILES IDX 5 1 6 2 7 3 8 4 9 5 4 6 3 7 2 8 1 9
REMARK H PARENT
REMARK Flexibility Score: inf
ROOT
ATOM      1  C   UNL     1      62.681  33.587  60.479  1.00  0.00     0.006 C 
ENDROOT
BRANCH   1   2
ATOM      2  C   UNL     1      61.611  34.667  60.296  1.00  0.00     0.053 C 
BRANCH   2   3
ATOM      3  C   UNL     1      62.121  35.995  60.761  1.00  0.00     0.041 C 
ATOM      4  O   UNL     1      61.352  36.993  60.788  1.00  0.00    -0.550 OA
ATOM      5  O   UNL     1      63.455  36.143  61.117  1.00  0.00    -0.550 OA
ENDBRANCH   2   3
ENDBRANCH   1   2
BRANCH   1   6
ATOM      6  C   UNL     1      62.176  32.223  59.986  1.00  0.00     0.000 C 
BRANCH   6   7
ATOM      7  C   UNL     1      62.943  31.047  60.609  1.00  0.00    -0.000 C 
BRANCH   7   8
ATOM      8  C   UNL     1      62.020  30.062  61.342  1.00  0.00    -0.003 C 
ATOM      9  C   UNL     1      60.670  30.702  61.651  1.00  0.00     0.004 C 
ENDBRANCH   7   8
ENDBRANCH   6   7
ENDBRANCH   1   6
TORSDOF 5
ENDMDL
