MODEL 1
REMARK VINA RESULT:    -4.747      0.000      0.000
REMARK INTER + INTRA:          -6.951
REMARK INTER:                  -5.996
REMARK INTRA:                  -0.955
REMARK UNBOUND:                -0.955
REMARK SMILES O=C(C=Cc1ccc(O)cc1)c1ccc(O)cc1O
REMARK SMILES IDX 4 1 3 2 5 3 6 4 7 5 8 6 11 7 10 8 9 9 2 11 1 12 12 13 18 14
REMARK SMILES IDX 13 15 17 16 14 17 15 18 19 19 16 21
REMARK H PARENT 9 10 19 20 16 22
REMARK Flexibility Score: inf
ROOT
ATOM      1  C   UNL     1       9.481   8.884   8.047  1.00  0.00     0.012 C 
ATOM      2  C   UNL     1       9.121  10.046   8.613  1.00  0.00     0.053 C 
ENDROOT
BRANCH   1   3
ATOM      3  C   UNL     1       9.670   8.659   6.599  1.00  0.00    -0.025 A 
ATOM      4  C   UNL     1       8.550   8.446   5.784  1.00  0.00     0.012 A 
ATOM      5  C   UNL     1       8.708   8.185   4.419  1.00  0.00     0.047 A 
ATOM      6  C   UNL     1       9.988   8.111   3.860  1.00  0.00     0.115 A 
ATOM      7  C   UNL     1      10.958   8.554   6.040  1.00  0.00     0.012 A 
ATOM      8  C   UNL     1      11.113   8.293   4.675  1.00  0.00     0.047 A 
BRANCH   6   9
ATOM      9  O   UNL     1      10.131   7.851   2.499  1.00  0.00    -0.508 OA
ATOM     10  H   UNL     1      10.757   8.397   1.919  1.00  0.00     0.293 HD
ENDBRANCH   6   9
ENDBRANCH   1   3
BRANCH   2  11
ATOM     11  C   UNL     1       8.669  11.255   7.878  1.00  0.00     0.189 C 
ATOM     12  O   UNL     1       9.509  11.971   7.268  1.00  0.00    -0.289 OA
BRANCH  11  13
ATOM     13  C   UNL     1       7.235  11.620   7.814  1.00  0.00     0.064 A 
ATOM     14  C   UNL     1       6.844  12.977   7.808  1.00  0.00     0.130 A 
ATOM     15  C   UNL     1       6.244  10.623   7.738  1.00  0.00     0.020 A 
ATOM     16  C   UNL     1       5.484  13.314   7.732  1.00  0.00     0.093 A 
ATOM     17  C   UNL     1       4.892  10.970   7.666  1.00  0.00     0.047 A 
ATOM     18  C   UNL     1       4.508  12.313   7.664  1.00  0.00     0.119 A 
BRANCH  14  19
ATOM     19  O   UNL     1       7.802  13.986   7.891  1.00  0.00    -0.507 OA
ATOM     20  H   UNL     1       8.745  13.800   8.215  1.00  0.00     0.293 HD
ENDBRANCH  14  19
BRANCH  18  21
ATOM     21  O   UNL     1       3.156  12.641   7.591  1.00  0.00    -0.508 OA
ATOM     22  H   UNL     1       2.487  12.033   7.132  1.00  0.00     0.293 HD
ENDBRANCH  18  21
ENDBRANCH  11  13
ENDBRANCH   2  11
TORSDOF 6
ENDMDL
MODEL 2
REMARK VINA RESULT:    -4.746      0.408      1.172
REMARK INTER + INTRA:          -6.950
REMARK INTER:                  -5.896
REMARK INTRA:                  -1.054
REMARK UNBOUND:                -0.955
REMARK SMILES O=C(C=Cc1ccc(O)cc1)c1ccc(O)cc1O
REMARK SMILES IDX 4 1 3 2 5 3 6 4 7 5 8 6 11 7 10 8 9 9 2 11 1 12 12 13 18 14
REMARK SMILES IDX 13 15 17 16 14 17 15 18 19 19 16 21
REMARK H PARENT 9 10 19 20 16 22
REMARK Flexibility Score: inf
ROOT
ATOM      1  C   UNL     1       9.268   9.028   8.399  1.00  0.00     0.012 C 
ATOM      2  C   UNL     1       8.905  10.226   8.884  1.00  0.00     0.053 C 
ENDROOT
BRANCH   1   3
ATOM      3  C   UNL     1       9.424   8.694   6.968  1.00  0.00    -0.025 A 
ATOM      4  C   UNL     1      10.663   8.895   6.346  1.00  0.00     0.012 A 
ATOM      5  C   UNL     1      10.821   8.630   4.982  1.00  0.00     0.047 A 
ATOM      6  C   UNL     1       9.734   8.185   4.221  1.00  0.00     0.115 A 
ATOM      7  C   UNL     1       8.325   8.276   6.194  1.00  0.00     0.012 A 
ATOM      8  C   UNL     1       8.484   8.012   4.830  1.00  0.00     0.047 A 
BRANCH   6   9
ATOM      9  O   UNL     1       9.905   7.924   2.864  1.00  0.00    -0.508 OA
ATOM     10  H   UNL     1      10.781   8.118   2.393  1.00  0.00     0.293 HD
ENDBRANCH   6   9
ENDBRANCH   1   3
BRANCH   2  11
ATOM     11  C   UNL     1       8.416  11.367   8.070  1.00  0.00     0.189 C 
ATOM     12  O   UNL     1       9.238  12.102   7.457  1.00  0.00    -0.289 OA
BRANCH  11  13
ATOM     13  C   UNL     1       6.967  11.643   7.932  1.00  0.00     0.064 A 
ATOM     14  C   UNL     1       6.496  12.973   7.877  1.00  0.00     0.130 A 
ATOM     15  C   UNL     1       6.042  10.587   7.832  1.00  0.00     0.020 A 
ATOM     16  C   UNL     1       5.123  13.225   7.731  1.00  0.00     0.093 A 
ATOM     17  C   UNL     1       4.677  10.849   7.690  1.00  0.00     0.047 A 
ATOM     18  C   UNL     1       4.213  12.165   7.640  1.00  0.00     0.119 A 
BRANCH  14  19
ATOM     19  O   UNL     1       7.387  14.041   7.982  1.00  0.00    -0.507 OA
ATOM     20  H   UNL     1       8.294  14.023   7.530  1.00  0.00     0.293 HD
ENDBRANCH  14  19
BRANCH  18  21
ATOM     21  O   UNL     1       2.850  12.409   7.497  1.00  0.00    -0.508 OA
ATOM     22  H   UNL     1       2.192  12.193   8.238  1.00  0.00     0.293 HD
ENDBRANCH  18  21
ENDBRANCH  11  13
ENDBRANCH   2  11
TORSDOF 6
ENDMDL
MODEL 3
REMARK VINA RESULT:    -4.680      1.547      6.005
REMARK INTER + INTRA:          -6.867
REMARK INTER:                  -5.765
REMARK INTRA:                  -1.102
REMARK UNBOUND:                -0.955
REMARK SMILES O=C(C=Cc1ccc(O)cc1)c1ccc(O)cc1O
REMARK SMILES IDX 4 1 3 2 5 3 6 4 7 5 8 6 11 7 10 8 9 9 2 11 1 12 12 13 18 14
REMARK SMILES IDX 13 15 17 16 14 17 15 18 19 19 16 21
REMARK H PARENT 9 10 19 20 16 22
REMARK Flexibility Score: inf
ROOT
ATOM      1  C   UNL     1       8.046  11.734   9.221  1.00  0.00     0.012 C 
ATOM      2  C   UNL     1       9.027  11.085   8.573  1.00  0.00     0.053 C 
ENDROOT
BRANCH   1   3
ATOM      3  C   UNL     1       6.811  12.258   8.602  1.00  0.00    -0.025 A 
ATOM      4  C   UNL     1       6.720  13.624   8.300  1.00  0.00     0.012 A 
ATOM      5  C   UNL     1       5.543  14.150   7.757  1.00  0.00     0.047 A 
ATOM      6  C   UNL     1       4.439  13.321   7.533  1.00  0.00     0.115 A 
ATOM      7  C   UNL     1       5.688  11.433   8.404  1.00  0.00     0.012 A 
ATOM      8  C   UNL     1       4.513  11.961   7.861  1.00  0.00     0.047 A 
BRANCH   6   9
ATOM      9  O   UNL     1       3.274  13.858   6.990  1.00  0.00    -0.508 OA
ATOM     10  H   UNL     1       2.381  13.769   7.460  1.00  0.00     0.293 HD
ENDBRANCH   6   9
ENDBRANCH   1   3
BRANCH   2  11
ATOM     11  C   UNL     1       9.132  10.943   7.099  1.00  0.00     0.189 C 
ATOM     12  O   UNL     1       9.540  11.910   6.400  1.00  0.00    -0.289 OA
BRANCH  11  13
ATOM     13  C   UNL     1       8.800   9.664   6.428  1.00  0.00     0.064 A 
ATOM     14  C   UNL     1       9.665   9.126   5.450  1.00  0.00     0.130 A 
ATOM     15  C   UNL     1       7.632   8.958   6.770  1.00  0.00     0.020 A 
ATOM     16  C   UNL     1       9.349   7.907   4.831  1.00  0.00     0.093 A 
ATOM     17  C   UNL     1       7.326   7.746   6.145  1.00  0.00     0.047 A 
ATOM     18  C   UNL     1       8.181   7.218   5.175  1.00  0.00     0.119 A 
BRANCH  14  19
ATOM     19  O   UNL     1      10.825   9.808   5.084  1.00  0.00    -0.507 OA
ATOM     20  H   UNL     1      11.733   9.551   5.455  1.00  0.00     0.293 HD
ENDBRANCH  14  19
BRANCH  18  21
ATOM     21  O   UNL     1       7.862   6.009   4.562  1.00  0.00    -0.508 OA
ATOM     22  H   UNL     1       7.002   5.517   4.776  1.00  0.00     0.293 HD
ENDBRANCH  18  21
ENDBRANCH  11  13
ENDBRANCH   2  11
TORSDOF 6
ENDMDL
MODEL 4
REMARK VINA RESULT:    -4.665      1.937      2.274
REMARK INTER + INTRA:          -6.848
REMARK INTER:                  -6.140
REMARK INTRA:                  -0.708
REMARK UNBOUND:                -0.955
REMARK SMILES O=C(C=Cc1ccc(O)cc1)c1ccc(O)cc1O
REMARK SMILES IDX 4 1 3 2 5 3 6 4 7 5 8 6 11 7 10 8 9 9 2 11 1 12 12 13 18 14
REMARK SMILES IDX 13 15 17 16 14 17 15 18 19 19 16 21
REMARK H PARENT 9 10 19 20 16 22
REMARK Flexibility Score: inf
ROOT
ATOM      1  C   UNL     1       8.087   8.913   8.863  1.00  0.00     0.012 C 
ATOM      2  C   UNL     1       7.787   9.918   9.701  1.00  0.00     0.053 C 
ENDROOT
BRANCH   1   3
ATOM      3  C   UNL     1       9.069   8.982   7.760  1.00  0.00    -0.025 A 
ATOM      4  C   UNL     1       8.847   9.868   6.697  1.00  0.00     0.012 A 
ATOM      5  C   UNL     1       9.739   9.916   5.620  1.00  0.00     0.047 A 
ATOM      6  C   UNL     1      10.846   9.063   5.585  1.00  0.00     0.115 A 
ATOM      7  C   UNL     1      10.167   8.104   7.707  1.00  0.00     0.012 A 
ATOM      8  C   UNL     1      11.057   8.154   6.630  1.00  0.00     0.047 A 
BRANCH   6   9
ATOM      9  O   UNL     1      11.727   9.123   4.507  1.00  0.00    -0.508 OA
ATOM     10  H   UNL     1      12.608   9.619   4.570  1.00  0.00     0.293 HD
ENDBRANCH   6   9
ENDBRANCH   1   3
BRANCH   2  11
ATOM     11  C   UNL     1       8.247  11.322   9.556  1.00  0.00     0.189 C 
ATOM     12  O   UNL     1       9.467  11.605   9.707  1.00  0.00    -0.289 OA
BRANCH  11  13
ATOM     13  C   UNL     1       7.300  12.404   9.197  1.00  0.00     0.064 A 
ATOM     14  C   UNL     1       7.070  13.475  10.087  1.00  0.00     0.130 A 
ATOM     15  C   UNL     1       6.634  12.391   7.957  1.00  0.00     0.020 A 
ATOM     16  C   UNL     1       6.183  14.503   9.732  1.00  0.00     0.093 A 
ATOM     17  C   UNL     1       5.751  13.418   7.615  1.00  0.00     0.047 A 
ATOM     18  C   UNL     1       5.521  14.475   8.499  1.00  0.00     0.119 A 
BRANCH  14  19
ATOM     19  O   UNL     1       7.709  13.511  11.326  1.00  0.00    -0.507 OA
ATOM     20  H   UNL     1       7.632  12.746  11.987  1.00  0.00     0.293 HD
ENDBRANCH  14  19
BRANCH  18  21
ATOM     21  O   UNL     1       4.639  15.491   8.142  1.00  0.00    -0.508 OA
ATOM     22  H   UNL     1       4.564  15.817   7.185  1.00  0.00     0.293 HD
ENDBRANCH  18  21
ENDBRANCH  11  13
ENDBRANCH   2  11
TORSDOF 6
ENDMDL
MODEL 5
REMARK VINA RESULT:    -4.610      1.910      5.863
REMARK INTER + INTRA:          -6.778
REMARK INTER:                  -5.425
REMARK INTRA:                  -1.353
REMARK UNBOUND:                -0.955
REMARK SMILES O=C(C=Cc1ccc(O)cc1)c1ccc(O)cc1O
REMARK SMILES IDX 4 1 3 2 5 3 6 4 7 5 8 6 11 7 10 8 9 9 2 11 1 12 12 13 18 14
REMARK SMILES IDX 13 15 17 16 14 17 15 18 19 19 16 21
REMARK H PARENT 9 10 19 20 16 22
REMARK Flexibility Score: inf
ROOT
ATOM      1  C   UNL     1       6.366  10.942  10.749  1.00  0.00     0.012 C 
ATOM      2  C   UNL     1       7.627  10.489  10.826  1.00  0.00     0.053 C 
ENDROOT
BRANCH   1   3
ATOM      3  C   UNL     1       5.875  11.949   9.784  1.00  0.00    -0.025 A 
ATOM      4  C   UNL     1       5.382  11.527   8.542  1.00  0.00     0.012 A 
ATOM      5  C   UNL     1       4.955  12.464   7.596  1.00  0.00     0.047 A 
ATOM      6  C   UNL     1       5.039  13.832   7.873  1.00  0.00     0.115 A 
ATOM      7  C   UNL     1       5.987  13.327  10.048  1.00  0.00     0.012 A 
ATOM      8  C   UNL     1       5.559  14.262   9.101  1.00  0.00     0.047 A 
BRANCH   6   9
ATOM      9  O   UNL     1       4.609  14.755   6.922  1.00  0.00    -0.508 OA
ATOM     10  H   UNL     1       5.244  15.138   6.231  1.00  0.00     0.293 HD
ENDBRANCH   6   9
ENDBRANCH   1   3
BRANCH   2  11
ATOM     11  C   UNL     1       8.786  11.050  10.086  1.00  0.00     0.189 C 
ATOM     12  O   UNL     1       9.530  11.907  10.636  1.00  0.00    -0.289 OA
BRANCH  11  13
ATOM     13  C   UNL     1       9.112  10.592   8.715  1.00  0.00     0.064 A 
ATOM     14  C   UNL     1       9.060  11.495   7.630  1.00  0.00     0.130 A 
ATOM     15  C   UNL     1       9.499   9.260   8.476  1.00  0.00     0.020 A 
ATOM     16  C   UNL     1       9.385  11.056   6.338  1.00  0.00     0.093 A 
ATOM     17  C   UNL     1       9.817   8.833   7.185  1.00  0.00     0.047 A 
ATOM     18  C   UNL     1       9.761   9.727   6.113  1.00  0.00     0.119 A 
BRANCH  14  19
ATOM     19  O   UNL     1       8.672  12.819   7.834  1.00  0.00    -0.507 OA
ATOM     20  H   UNL     1       7.969  13.263   7.255  1.00  0.00     0.293 HD
ENDBRANCH  14  19
BRANCH  18  21
ATOM     21  O   UNL     1      10.083   9.286   4.832  1.00  0.00    -0.508 OA
ATOM     22  H   UNL     1      10.701   8.496   4.683  1.00  0.00     0.293 HD
ENDBRANCH  18  21
ENDBRANCH  11  13
ENDBRANCH   2  11
TORSDOF 6
ENDMDL
MODEL 6
REMARK VINA RESULT:    -4.607      1.618      5.917
REMARK INTER + INTRA:          -6.775
REMARK INTER:                  -5.668
REMARK INTRA:                  -1.107
REMARK UNBOUND:                -0.955
REMARK SMILES O=C(C=Cc1ccc(O)cc1)c1ccc(O)cc1O
REMARK SMILES IDX 4 1 3 2 5 3 6 4 7 5 8 6 11 7 10 8 9 9 2 11 1 12 12 13 18 14
REMARK SMILES IDX 13 15 17 16 14 17 15 18 19 19 16 21
REMARK H PARENT 9 10 19 20 16 22
REMARK Flexibility Score: inf
ROOT
ATOM      1  C   UNL     1       8.778  10.620   8.666  1.00  0.00     0.012 C 
ATOM      2  C   UNL     1       9.471   9.799   7.861  1.00  0.00     0.053 C 
ENDROOT
BRANCH   1   3
ATOM      3  C   UNL     1       7.670  11.501   8.243  1.00  0.00    -0.025 A 
ATOM      4  C   UNL     1       7.930  12.852   7.976  1.00  0.00     0.012 A 
ATOM      5  C   UNL     1       6.889  13.715   7.618  1.00  0.00     0.047 A 
ATOM      6  C   UNL     1       5.575  13.241   7.548  1.00  0.00     0.115 A 
ATOM      7  C   UNL     1       6.343  11.034   8.201  1.00  0.00     0.012 A 
ATOM      8  C   UNL     1       5.303  11.898   7.844  1.00  0.00     0.047 A 
BRANCH   6   9
ATOM      9  O   UNL     1       4.547  14.111   7.190  1.00  0.00    -0.508 OA
ATOM     10  H   UNL     1       4.670  15.116   7.218  1.00  0.00     0.293 HD
ENDBRANCH   6   9
ENDBRANCH   1   3
BRANCH   2  11
ATOM     11  C   UNL     1       9.373   9.768   6.380  1.00  0.00     0.189 C 
ATOM     12  O   UNL     1       9.950  10.653   5.691  1.00  0.00    -0.289 OA
BRANCH  11  13
ATOM     13  C   UNL     1       8.636   8.687   5.684  1.00  0.00     0.064 A 
ATOM     14  C   UNL     1       9.132   8.147   4.478  1.00  0.00     0.130 A 
ATOM     15  C   UNL     1       7.445   8.168   6.226  1.00  0.00     0.020 A 
ATOM     16  C   UNL     1       8.435   7.113   3.834  1.00  0.00     0.093 A 
ATOM     17  C   UNL     1       6.758   7.140   5.575  1.00  0.00     0.047 A 
ATOM     18  C   UNL     1       7.248   6.611   4.380  1.00  0.00     0.119 A 
BRANCH  14  19
ATOM     19  O   UNL     1      10.305   8.646   3.913  1.00  0.00    -0.507 OA
ATOM     20  H   UNL     1      10.687   8.265   3.054  1.00  0.00     0.293 HD
ENDBRANCH  14  19
BRANCH  18  21
ATOM     21  O   UNL     1       6.551   5.586   3.744  1.00  0.00    -0.508 OA
ATOM     22  H   UNL     1       6.991   5.004   3.040  1.00  0.00     0.293 HD
ENDBRANCH  18  21
ENDBRANCH  11  13
ENDBRANCH   2  11
TORSDOF 6
ENDMDL
MODEL 7
REMARK VINA RESULT:    -4.593      1.821      2.218
REMARK INTER + INTRA:          -6.756
REMARK INTER:                  -5.667
REMARK INTRA:                  -1.090
REMARK UNBOUND:                -0.955
REMARK SMILES O=C(C=Cc1ccc(O)cc1)c1ccc(O)cc1O
REMARK SMILES IDX 4 1 3 2 5 3 6 4 7 5 8 6 11 7 10 8 9 9 2 11 1 12 12 13 18 14
REMARK SMILES IDX 13 15 17 16 14 17 15 18 19 19 16 21
REMARK H PARENT 9 10 19 20 16 22
REMARK Flexibility Score: inf
ROOT
ATOM      1  C   UNL     1       9.900  10.245   5.978  1.00  0.00     0.012 C 
ATOM      2  C   UNL     1       9.473  11.380   6.552  1.00  0.00     0.053 C 
ENDROOT
BRANCH   1   3
ATOM      3  C   UNL     1       9.512   8.879   6.387  1.00  0.00    -0.025 A 
ATOM      4  C   UNL     1       8.443   8.245   5.738  1.00  0.00     0.012 A 
ATOM      5  C   UNL     1       8.028   6.971   6.140  1.00  0.00     0.047 A 
ATOM      6  C   UNL     1       8.662   6.329   7.208  1.00  0.00     0.115 A 
ATOM      7  C   UNL     1      10.127   8.243   7.481  1.00  0.00     0.012 A 
ATOM      8  C   UNL     1       9.711   6.970   7.881  1.00  0.00     0.047 A 
BRANCH   6   9
ATOM      9  O   UNL     1       8.240   5.060   7.597  1.00  0.00    -0.508 OA
ATOM     10  H   UNL     1       7.352   4.679   7.290  1.00  0.00     0.293 HD
ENDBRANCH   6   9
ENDBRANCH   1   3
BRANCH   2  11
ATOM     11  C   UNL     1       8.687  11.462   7.809  1.00  0.00     0.189 C 
ATOM     12  O   UNL     1       9.280  11.507   8.922  1.00  0.00    -0.289 OA
BRANCH  11  13
ATOM     13  C   UNL     1       7.207  11.529   7.783  1.00  0.00     0.064 A 
ATOM     14  C   UNL     1       6.549  12.778   7.807  1.00  0.00     0.130 A 
ATOM     15  C   UNL     1       6.437  10.353   7.712  1.00  0.00     0.020 A 
ATOM     16  C   UNL     1       5.147  12.833   7.767  1.00  0.00     0.093 A 
ATOM     17  C   UNL     1       5.042  10.419   7.675  1.00  0.00     0.047 A 
ATOM     18  C   UNL     1       4.393  11.655   7.703  1.00  0.00     0.119 A 
BRANCH  14  19
ATOM     19  O   UNL     1       7.285  13.960   7.886  1.00  0.00    -0.507 OA
ATOM     20  H   UNL     1       8.290  13.954   8.015  1.00  0.00     0.293 HD
ENDBRANCH  14  19
BRANCH  18  21
ATOM     21  O   UNL     1       3.002  11.703   7.665  1.00  0.00    -0.508 OA
ATOM     22  H   UNL     1       2.463  12.060   8.446  1.00  0.00     0.293 HD
ENDBRANCH  18  21
ENDBRANCH  11  13
ENDBRANCH   2  11
TORSDOF 6
ENDMDL
MODEL 8
REMARK VINA RESULT:    -4.562      1.664      2.763
REMARK INTER + INTRA:          -6.717
REMARK INTER:                  -5.632
REMARK INTRA:                  -1.086
REMARK UNBOUND:                -0.955
REMARK SMILES O=C(C=Cc1ccc(O)cc1)c1ccc(O)cc1O
REMARK SMILES IDX 4 1 3 2 5 3 6 4 7 5 8 6 11 7 10 8 9 9 2 11 1 12 12 13 18 14
REMARK SMILES IDX 13 15 17 16 14 17 15 18 19 19 16 21
REMARK H PARENT 9 10 19 20 16 22
REMARK Flexibility Score: inf
ROOT
ATOM      1  C   UNL     1       8.103  11.379   9.204  1.00  0.00     0.012 C 
ATOM      2  C   UNL     1       7.316  12.465   9.255  1.00  0.00     0.053 C 
ENDROOT
BRANCH   1   3
ATOM      3  C   UNL     1       8.480  10.651   7.974  1.00  0.00    -0.025 A 
ATOM      4  C   UNL     1       9.474  11.181   7.139  1.00  0.00     0.012 A 
ATOM      5  C   UNL     1       9.815  10.534   5.947  1.00  0.00     0.047 A 
ATOM      6  C   UNL     1       9.148   9.365   5.566  1.00  0.00     0.115 A 
ATOM      7  C   UNL     1       7.790   9.492   7.572  1.00  0.00     0.012 A 
ATOM      8  C   UNL     1       8.133   8.847   6.380  1.00  0.00     0.047 A 
BRANCH   6   9
ATOM      9  O   UNL     1       9.498   8.730   4.376  1.00  0.00    -0.508 OA
ATOM     10  H   UNL     1       8.908   8.018   3.962  1.00  0.00     0.293 HD
ENDBRANCH   6   9
ENDBRANCH   1   3
BRANCH   2  11
ATOM     11  C   UNL     1       6.538  13.015   8.116  1.00  0.00     0.189 C 
ATOM     12  O   UNL     1       7.090  13.800   7.297  1.00  0.00    -0.289 OA
BRANCH  11  13
ATOM     13  C   UNL     1       5.125  12.627   7.896  1.00  0.00     0.064 A 
ATOM     14  C   UNL     1       4.133  13.617   7.723  1.00  0.00     0.130 A 
ATOM     15  C   UNL     1       4.754  11.271   7.835  1.00  0.00     0.020 A 
ATOM     16  C   UNL     1       2.799  13.241   7.501  1.00  0.00     0.093 A 
ATOM     17  C   UNL     1       3.423  10.908   7.616  1.00  0.00     0.047 A 
ATOM     18  C   UNL     1       2.443  11.888   7.450  1.00  0.00     0.119 A 
BRANCH  14  19
ATOM     19  O   UNL     1       4.469  14.969   7.787  1.00  0.00    -0.507 OA
ATOM     20  H   UNL     1       5.173  15.313   8.429  1.00  0.00     0.293 HD
ENDBRANCH  14  19
BRANCH  18  21
ATOM     21  O   UNL     1       1.121  11.510   7.231  1.00  0.00    -0.508 OA
ATOM     22  H   UNL     1       0.351  12.144   7.413  1.00  0.00     0.293 HD
ENDBRANCH  18  21
ENDBRANCH  11  13
ENDBRANCH   2  11
TORSDOF 6
ENDMDL
MODEL 9
REMARK VINA RESULT:    -4.527      3.400      6.015
REMARK INTER + INTRA:          -6.673
REMARK INTER:                  -5.373
REMARK INTRA:                  -1.300
REMARK UNBOUND:                -0.955
REMARK SMILES O=C(C=Cc1ccc(O)cc1)c1ccc(O)cc1O
REMARK SMILES IDX 4 1 3 2 5 3 6 4 7 5 8 6 11 7 10 8 9 9 2 11 1 12 12 13 18 14
REMARK SMILES IDX 13 15 17 16 14 17 15 18 19 19 16 21
REMARK H PARENT 9 10 19 20 16 22
REMARK Flexibility Score: inf
ROOT
ATOM      1  C   UNL     1       8.569  10.783   7.869  1.00  0.00     0.012 C 
ATOM      2  C   UNL     1       9.158  10.392   9.011  1.00  0.00     0.053 C 
ENDROOT
BRANCH   1   3
ATOM      3  C   UNL     1       7.340  11.598   7.775  1.00  0.00    -0.025 A 
ATOM      4  C   UNL     1       7.439  12.996   7.787  1.00  0.00     0.012 A 
ATOM      5  C   UNL     1       6.286  13.787   7.746  1.00  0.00     0.047 A 
ATOM      6  C   UNL     1       5.023  13.188   7.717  1.00  0.00     0.115 A 
ATOM      7  C   UNL     1       6.066  10.999   7.777  1.00  0.00     0.012 A 
ATOM      8  C   UNL     1       4.915  11.791   7.736  1.00  0.00     0.047 A 
BRANCH   6   9
ATOM      9  O   UNL     1       3.883  13.988   7.675  1.00  0.00    -0.508 OA
ATOM     10  H   UNL     1       3.007  13.642   7.300  1.00  0.00     0.293 HD
ENDBRANCH   6   9
ENDBRANCH   1   3
BRANCH   2  11
ATOM     11  C   UNL     1       8.581  10.548  10.370  1.00  0.00     0.189 C 
ATOM     12  O   UNL     1       7.843   9.645  10.849  1.00  0.00    -0.289 OA
BRANCH  11  13
ATOM     13  C   UNL     1       8.887  11.738  11.198  1.00  0.00     0.064 A 
ATOM     14  C   UNL     1       7.860  12.637  11.562  1.00  0.00     0.130 A 
ATOM     15  C   UNL     1      10.197  11.978  11.652  1.00  0.00     0.020 A 
ATOM     16  C   UNL     1       8.157  13.753  12.359  1.00  0.00     0.093 A 
ATOM     17  C   UNL     1      10.481  13.094  12.443  1.00  0.00     0.047 A 
ATOM     18  C   UNL     1       9.466  13.984  12.799  1.00  0.00     0.119 A 
BRANCH  14  19
ATOM     19  O   UNL     1       6.554  12.430  11.120  1.00  0.00    -0.507 OA
ATOM     20  H   UNL     1       5.759  12.540  11.739  1.00  0.00     0.293 HD
ENDBRANCH  14  19
BRANCH  18  21
ATOM     21  O   UNL     1       9.765  15.091  13.588  1.00  0.00    -0.508 OA
ATOM     22  H   UNL     1       9.464  16.024  13.330  1.00  0.00     0.293 HD
ENDBRANCH  18  21
ENDBRANCH  11  13
ENDBRANCH   2  11
TORSDOF 6
ENDMDL
