MODEL 1
REMARK VINA RESULT:    -5.405      0.000      0.000
REMARK INTER + INTRA:          -5.739
REMARK INTER:                  -5.720
REMARK INTRA:                  -0.019
REMARK UNBOUND:                -0.019
REMARK SMILES O=C([O-])c1cccnc1
REMARK SMILES IDX 4 1 5 2 9 3 6 4 8 5 7 6 2 7 1 8 3 9
REMARK H PARENT
REMARK Flexibility Score: inf
ROOT
ATOM      1  C   UNL     1       7.817   8.914  30.933  1.00  0.00     0.016 A 
ATOM      2  C   UNL     1       8.579  10.079  30.739  1.00  0.00     0.013 A 
ATOM      3  C   UNL     1       6.993   8.835  32.068  1.00  0.00     0.120 A 
ATOM      4  C   UNL     1       8.508  11.124  31.662  1.00  0.00     0.021 A 
ATOM      5  N   UNL     1       6.943   9.869  32.952  1.00  0.00    -0.264 NA
ATOM      6  C   UNL     1       7.676  10.999  32.773  1.00  0.00     0.111 A 
ENDROOT
BRANCH   1   7
ATOM      7  C   UNL     1       7.878   7.795  29.967  1.00  0.00     0.073 C 
ATOM      8  O   UNL     1       6.820   7.274  29.524  1.00  0.00    -0.545 OA
ATOM      9  O   UNL     1       9.104   7.304  29.534  1.00  0.00    -0.545 OA
ENDBRANCH   1   7
TORSDOF 1
ENDMDL
MODEL 2
REMARK VINA RESULT:    -5.038      0.888      1.938
REMARK INTER + INTRA:          -5.352
REMARK INTER:                  -5.331
REMARK INTRA:                  -0.020
REMARK UNBOUND:                -0.019
REMARK SMILES O=C([O-])c1cccnc1
REMARK SMILES IDX 4 1 5 2 9 3 6 4 8 5 7 6 2 7 1 8 3 9
REMARK H PARENT
REMARK Flexibility Score: inf
ROOT
ATOM      1  C   UNL     1       7.734   8.914  31.091  1.00  0.00     0.016 A 
ATOM      2  C   UNL     1       6.839   8.805  32.169  1.00  0.00     0.013 A 
ATOM      3  C   UNL     1       8.546  10.058  31.009  1.00  0.00     0.120 A 
ATOM      4  C   UNL     1       6.771   9.818  33.128  1.00  0.00     0.021 A 
ATOM      5  N   UNL     1       8.459  11.029  31.957  1.00  0.00    -0.264 NA
ATOM      6  C   UNL     1       7.598  10.933  33.004  1.00  0.00     0.111 A 
ENDROOT
BRANCH   1   7
ATOM      7  C   UNL     1       7.822   7.853  30.064  1.00  0.00     0.073 C 
ATOM      8  O   UNL     1       8.935   7.524  29.577  1.00  0.00    -0.545 OA
ATOM      9  O   UNL     1       6.675   7.203  29.623  1.00  0.00    -0.545 OA
ENDBRANCH   1   7
TORSDOF 1
ENDMDL
MODEL 3
REMARK VINA RESULT:    -4.978      3.096      3.697
REMARK INTER + INTRA:          -5.288
REMARK INTER:                  -5.270
REMARK INTRA:                  -0.018
REMARK UNBOUND:                -0.019
REMARK SMILES O=C([O-])c1cccnc1
REMARK SMILES IDX 4 1 5 2 9 3 6 4 8 5 7 6 2 7 1 8 3 9
REMARK H PARENT
REMARK Flexibility Score: inf
ROOT
ATOM      1  C   UNL     1       7.039   9.684  32.774  1.00  0.00     0.016 A 
ATOM      2  C   UNL     1       8.027  10.605  32.386  1.00  0.00     0.013 A 
ATOM      3  C   UNL     1       6.770   8.595  31.928  1.00  0.00     0.120 A 
ATOM      4  C   UNL     1       8.717  10.428  31.185  1.00  0.00     0.021 A 
ATOM      5  N   UNL     1       7.457   8.447  30.763  1.00  0.00    -0.264 NA
ATOM      6  C   UNL     1       8.415   9.331  30.379  1.00  0.00     0.111 A 
ENDROOT
BRANCH   1   7
ATOM      7  C   UNL     1       6.296   9.854  34.042  1.00  0.00     0.073 C 
ATOM      8  O   UNL     1       5.037   9.864  34.050  1.00  0.00    -0.545 OA
ATOM      9  O   UNL     1       6.979  10.004  35.244  1.00  0.00    -0.545 OA
ENDBRANCH   1   7
TORSDOF 1
ENDMDL
MODEL 4
REMARK VINA RESULT:    -4.871      2.110      2.878
REMARK INTER + INTRA:          -5.175
REMARK INTER:                  -5.154
REMARK INTRA:                  -0.021
REMARK UNBOUND:                -0.019
REMARK SMILES O=C([O-])c1cccnc1
REMARK SMILES IDX 4 1 5 2 9 3 6 4 8 5 7 6 2 7 1 8 3 9
REMARK H PARENT
REMARK Flexibility Score: inf
ROOT
ATOM      1  C   UNL     1       7.662   9.767  32.221  1.00  0.00     0.016 A 
ATOM      2  C   UNL     1       7.360  10.608  33.305  1.00  0.00     0.013 A 
ATOM      3  C   UNL     1       6.916   8.586  32.062  1.00  0.00     0.120 A 
ATOM      4  C   UNL     1       6.339  10.265  34.194  1.00  0.00     0.021 A 
ATOM      5  N   UNL     1       5.927   8.277  32.943  1.00  0.00    -0.264 NA
ATOM      6  C   UNL     1       5.626   9.084  33.994  1.00  0.00     0.111 A 
ENDROOT
BRANCH   1   7
ATOM      7  C   UNL     1       8.739  10.111  31.268  1.00  0.00     0.073 C 
ATOM      8  O   UNL     1       9.430   9.206  30.729  1.00  0.00    -0.545 OA
ATOM      9  O   UNL     1       9.004  11.438  30.953  1.00  0.00    -0.545 OA
ENDBRANCH   1   7
TORSDOF 1
ENDMDL
MODEL 5
REMARK VINA RESULT:    -4.721      2.433      3.153
REMARK INTER + INTRA:          -5.016
REMARK INTER:                  -5.000
REMARK INTRA:                  -0.016
REMARK UNBOUND:                -0.019
REMARK SMILES O=C([O-])c1cccnc1
REMARK SMILES IDX 4 1 5 2 9 3 6 4 8 5 7 6 2 7 1 8 3 9
REMARK H PARENT
REMARK Flexibility Score: inf
ROOT
ATOM      1  C   UNL     1       7.360   9.395  32.763  1.00  0.00     0.016 A 
ATOM      2  C   UNL     1       8.075   9.027  31.611  1.00  0.00     0.013 A 
ATOM      3  C   UNL     1       7.353  10.748  33.142  1.00  0.00     0.120 A 
ATOM      4  C   UNL     1       8.757   9.995  30.871  1.00  0.00     0.021 A 
ATOM      5  N   UNL     1       8.026  11.670  32.402  1.00  0.00    -0.264 NA
ATOM      6  C   UNL     1       8.720  11.325  31.286  1.00  0.00     0.111 A 
ENDROOT
BRANCH   1   7
ATOM      7  C   UNL     1       6.631   8.386  33.562  1.00  0.00     0.073 C 
ATOM      8  O   UNL     1       7.108   7.962  34.648  1.00  0.00    -0.545 OA
ATOM      9  O   UNL     1       5.408   7.891  33.125  1.00  0.00    -0.545 OA
ENDBRANCH   1   7
TORSDOF 1
ENDMDL
MODEL 6
REMARK VINA RESULT:    -4.716      3.064      3.909
REMARK INTER + INTRA:          -5.010
REMARK INTER:                  -4.991
REMARK INTRA:                  -0.019
REMARK UNBOUND:                -0.019
REMARK SMILES O=C([O-])c1cccnc1
REMARK SMILES IDX 4 1 5 2 9 3 6 4 8 5 7 6 2 7 1 8 3 9
REMARK H PARENT
REMARK Flexibility Score: inf
ROOT
ATOM      1  C   UNL     1       7.234   9.596  32.605  1.00  0.00     0.016 A 
ATOM      2  C   UNL     1       6.738   8.526  31.840  1.00  0.00     0.013 A 
ATOM      3  C   UNL     1       8.297  10.353  32.085  1.00  0.00     0.120 A 
ATOM      4  C   UNL     1       7.300   8.236  30.595  1.00  0.00     0.021 A 
ATOM      5  N   UNL     1       8.826  10.048  30.870  1.00  0.00    -0.264 NA
ATOM      6  C   UNL     1       8.354   9.017  30.122  1.00  0.00     0.111 A 
ENDROOT
BRANCH   1   7
ATOM      7  C   UNL     1       6.653   9.920  33.926  1.00  0.00     0.073 C 
ATOM      8  O   UNL     1       5.405   9.995  34.076  1.00  0.00    -0.545 OA
ATOM      9  O   UNL     1       7.478  10.145  35.022  1.00  0.00    -0.545 OA
ENDBRANCH   1   7
TORSDOF 1
ENDMDL
MODEL 7
REMARK VINA RESULT:    -4.650      1.292      1.883
REMARK INTER + INTRA:          -4.941
REMARK INTER:                  -4.918
REMARK INTRA:                  -0.023
REMARK UNBOUND:                -0.019
REMARK SMILES O=C([O-])c1cccnc1
REMARK SMILES IDX 4 1 5 2 9 3 6 4 8 5 7 6 2 7 1 8 3 9
REMARK H PARENT
REMARK Flexibility Score: inf
ROOT
ATOM      1  C   UNL     1       7.125   8.920  31.869  1.00  0.00     0.016 A 
ATOM      2  C   UNL     1       7.714  10.104  32.342  1.00  0.00     0.013 A 
ATOM      3  C   UNL     1       6.164   8.284  32.673  1.00  0.00     0.120 A 
ATOM      4  C   UNL     1       7.342  10.625  33.583  1.00  0.00     0.021 A 
ATOM      5  N   UNL     1       5.820   8.813  33.878  1.00  0.00    -0.264 NA
ATOM      6  C   UNL     1       6.383   9.958  34.345  1.00  0.00     0.111 A 
ENDROOT
BRANCH   1   7
ATOM      7  C   UNL     1       7.505   8.351  30.557  1.00  0.00     0.073 C 
ATOM      8  O   UNL     1       8.567   8.713  29.986  1.00  0.00    -0.545 OA
ATOM      9  O   UNL     1       6.694   7.408  29.937  1.00  0.00    -0.545 OA
ENDBRANCH   1   7
TORSDOF 1
ENDMDL
MODEL 8
REMARK VINA RESULT:    -4.361      1.472      2.541
REMARK INTER + INTRA:          -4.635
REMARK INTER:                  -4.612
REMARK INTRA:                  -0.023
REMARK UNBOUND:                -0.019
REMARK SMILES O=C([O-])c1cccnc1
REMARK SMILES IDX 4 1 5 2 9 3 6 4 8 5 7 6 2 7 1 8 3 9
REMARK H PARENT
REMARK Flexibility Score: inf
ROOT
ATOM      1  C   UNL     1       7.113   8.991  32.053  1.00  0.00     0.016 A 
ATOM      2  C   UNL     1       6.121   8.268  32.736  1.00  0.00     0.013 A 
ATOM      3  C   UNL     1       7.597  10.175  32.635  1.00  0.00     0.120 A 
ATOM      4  C   UNL     1       5.638   8.728  33.963  1.00  0.00     0.021 A 
ATOM      5  N   UNL     1       7.108  10.600  33.831  1.00  0.00    -0.264 NA
ATOM      6  C   UNL     1       6.149   9.908  34.500  1.00  0.00     0.111 A 
ENDROOT
BRANCH   1   7
ATOM      7  C   UNL     1       7.638   8.522  30.752  1.00  0.00     0.073 C 
ATOM      8  O   UNL     1       8.752   8.928  30.327  1.00  0.00    -0.545 OA
ATOM      9  O   UNL     1       6.909   7.624  29.981  1.00  0.00    -0.545 OA
ENDBRANCH   1   7
TORSDOF 1
ENDMDL
MODEL 9
REMARK VINA RESULT:    -3.740      3.185      4.137
REMARK INTER + INTRA:          -3.978
REMARK INTER:                  -3.957
REMARK INTRA:                  -0.021
REMARK UNBOUND:                -0.019
REMARK SMILES O=C([O-])c1cccnc1
REMARK SMILES IDX 4 1 5 2 9 3 6 4 8 5 7 6 2 7 1 8 3 9
REMARK H PARENT
REMARK Flexibility Score: inf
ROOT
ATOM      1  C   UNL     1       6.707   9.384  33.743  1.00  0.00     0.016 A 
ATOM      2  C   UNL     1       6.011   8.231  33.343  1.00  0.00     0.013 A 
ATOM      3  C   UNL     1       6.594   9.804  35.079  1.00  0.00     0.120 A 
ATOM      4  C   UNL     1       5.229   7.529  34.263  1.00  0.00     0.021 A 
ATOM      5  N   UNL     1       5.825   9.101  35.955  1.00  0.00    -0.264 NA
ATOM      6  C   UNL     1       5.149   7.985  35.579  1.00  0.00     0.111 A 
ENDROOT
BRANCH   1   7
ATOM      7  C   UNL     1       7.540  10.142  32.784  1.00  0.00     0.073 C 
ATOM      8  O   UNL     1       7.670  11.389  32.895  1.00  0.00    -0.545 OA
ATOM      9  O   UNL     1       8.192   9.486  31.746  1.00  0.00    -0.545 OA
ENDBRANCH   1   7
TORSDOF 1
ENDMDL
