MODEL 1
REMARK VINA RESULT:    -3.829      0.000      0.000
REMARK INTER + INTRA:          -5.161
REMARK INTER:                  -5.060
REMARK INTRA:                  -0.101
REMARK UNBOUND:                -0.101
REMARK SMILES C=C[C@H](O)CCCCC
REMARK SMILES IDX 6 1 7 2 8 3 9 4 5 5 3 6 2 7 1 8 4 9
REMARK H PARENT 4 10
REMARK Flexibility Score: inf
ROOT
ATOM      1  C   UNL     1     -37.953  23.981   7.279  1.00  0.00     0.003 C 
ENDROOT
BRANCH   1   2
ATOM      2  C   UNL     1     -38.352  22.762   8.125  1.00  0.00    -0.000 C 
BRANCH   2   3
ATOM      3  C   UNL     1     -37.240  21.707   8.125  1.00  0.00    -0.003 C 
ATOM      4  C   UNL     1     -35.891  22.325   7.771  1.00  0.00     0.004 C 
ENDBRANCH   2   3
ENDBRANCH   1   2
BRANCH   1   5
ATOM      5  C   UNL     1     -39.121  24.539   6.445  1.00  0.00     0.036 C 
BRANCH   5   6
ATOM      6  C   UNL     1     -39.108  24.098   4.961  1.00  0.00     0.136 C 
BRANCH   6   7
ATOM      7  C   UNL     1     -38.189  22.925   4.700  1.00  0.00    -0.004 C 
ATOM      8  C   UNL     1     -38.569  21.654   4.869  1.00  0.00     0.007 C 
ENDBRANCH   6   7
BRANCH   6   9
ATOM      9  O   UNL     1     -38.780  25.177   4.121  1.00  0.00    -0.389 OA
ATOM     10  H   UNL     1     -39.057  26.016   4.575  1.00  0.00     0.211 HD
ENDBRANCH   6   9
ENDBRANCH   5   6
ENDBRANCH   1   5
TORSDOF 6
ENDMDL
MODEL 2
REMARK VINA RESULT:    -3.320      2.297      4.149
REMARK INTER + INTRA:          -4.488
REMARK INTER:                  -4.304
REMARK INTRA:                  -0.184
REMARK UNBOUND:                -0.101
REMARK SMILES C=C[C@H](O)CCCCC
REMARK SMILES IDX 6 1 7 2 8 3 9 4 5 5 3 6 2 7 1 8 4 9
REMARK H PARENT 4 10
REMARK Flexibility Score: inf
ROOT
ATOM      1  C   UNL     1     -37.711  22.617   5.127  1.00  0.00     0.003 C 
ENDROOT
BRANCH   1   2
ATOM      2  C   UNL     1     -38.991  23.331   4.669  1.00  0.00    -0.000 C 
BRANCH   2   3
ATOM      3  C   UNL     1     -38.993  24.797   5.117  1.00  0.00    -0.003 C 
ATOM      4  C   UNL     1     -39.122  24.911   6.633  1.00  0.00     0.004 C 
ENDBRANCH   2   3
ENDBRANCH   1   2
BRANCH   1   5
ATOM      5  C   UNL     1     -37.993  21.292   5.860  1.00  0.00     0.036 C 
BRANCH   5   6
ATOM      6  C   UNL     1     -38.261  21.451   7.377  1.00  0.00     0.136 C 
BRANCH   6   7
ATOM      7  C   UNL     1     -37.333  22.445   8.041  1.00  0.00    -0.004 C 
ATOM      8  C   UNL     1     -36.011  22.258   8.125  1.00  0.00     0.007 C 
ENDBRANCH   6   7
BRANCH   6   9
ATOM      9  O   UNL     1     -38.197  20.206   8.028  1.00  0.00    -0.389 OA
ATOM     10  H   UNL     1     -37.434  20.230   8.663  1.00  0.00     0.211 HD
ENDBRANCH   6   9
ENDBRANCH   5   6
ENDBRANCH   1   5
TORSDOF 6
ENDMDL
MODEL 3
REMARK VINA RESULT:    -2.991      1.077      2.240
REMARK INTER + INTRA:          -4.054
REMARK INTER:                  -3.663
REMARK INTRA:                  -0.391
REMARK UNBOUND:                -0.101
REMARK SMILES C=C[C@H](O)CCCCC
REMARK SMILES IDX 6 1 7 2 8 3 9 4 5 5 3 6 2 7 1 8 4 9
REMARK H PARENT 4 10
REMARK Flexibility Score: inf
ROOT
ATOM      1  C   UNL     1     -38.255  21.681   5.773  1.00  0.00     0.003 C 
ENDROOT
BRANCH   1   2
ATOM      2  C   UNL     1     -39.062  21.065   6.925  1.00  0.00    -0.000 C 
BRANCH   2   3
ATOM      3  C   UNL     1     -38.159  20.759   8.125  1.00  0.00    -0.003 C 
ATOM      4  C   UNL     1     -36.896  21.613   8.098  1.00  0.00     0.004 C 
ENDBRANCH   2   3
ENDBRANCH   1   2
BRANCH   1   5
ATOM      5  C   UNL     1     -39.054  22.728   4.975  1.00  0.00     0.036 C 
BRANCH   5   6
ATOM      6  C   UNL     1     -38.492  24.167   5.074  1.00  0.00     0.136 C 
BRANCH   6   7
ATOM      7  C   UNL     1     -39.120  24.972   6.190  1.00  0.00    -0.004 C 
ATOM      8  C   UNL     1     -38.977  24.655   7.482  1.00  0.00     0.007 C 
ENDBRANCH   6   7
BRANCH   6   9
ATOM      9  O   UNL     1     -38.623  24.841   3.847  1.00  0.00    -0.389 OA
ATOM     10  H   UNL     1     -39.515  24.622   3.469  1.00  0.00     0.211 HD
ENDBRANCH   6   9
ENDBRANCH   5   6
ENDBRANCH   1   5
TORSDOF 6
ENDMDL
MODEL 4
REMARK VINA RESULT:    -2.908      0.853      1.257
REMARK INTER + INTRA:          -3.943
REMARK INTER:                  -3.620
REMARK INTRA:                  -0.324
REMARK UNBOUND:                -0.101
REMARK SMILES C=C[C@H](O)CCCCC
REMARK SMILES IDX 6 1 7 2 8 3 9 4 5 5 3 6 2 7 1 8 4 9
REMARK H PARENT 4 10
REMARK Flexibility Score: inf
ROOT
ATOM      1  C   UNL     1     -38.070  23.932   7.145  1.00  0.00     0.003 C 
ENDROOT
BRANCH   1   2
ATOM      2  C   UNL     1     -38.725  22.948   8.125  1.00  0.00    -0.000 C 
BRANCH   2   3
ATOM      3  C   UNL     1     -38.004  21.595   8.108  1.00  0.00    -0.003 C 
ATOM      4  C   UNL     1     -38.948  20.470   7.694  1.00  0.00     0.004 C 
ENDBRANCH   2   3
ENDBRANCH   1   2
BRANCH   1   5
ATOM      5  C   UNL     1     -39.076  24.554   6.158  1.00  0.00     0.036 C 
BRANCH   5   6
ATOM      6  C   UNL     1     -38.953  24.025   4.709  1.00  0.00     0.136 C 
BRANCH   6   7
ATOM      7  C   UNL     1     -38.143  22.751   4.610  1.00  0.00    -0.004 C 
ATOM      8  C   UNL     1     -38.704  21.544   4.469  1.00  0.00     0.007 C 
ENDBRANCH   6   7
BRANCH   6   9
ATOM      9  O   UNL     1     -38.423  25.012   3.859  1.00  0.00    -0.389 OA
ATOM     10  H   UNL     1     -39.131  25.276   3.215  1.00  0.00     0.211 HD
ENDBRANCH   6   9
ENDBRANCH   5   6
ENDBRANCH   1   5
TORSDOF 6
ENDMDL
MODEL 5
REMARK VINA RESULT:    -2.572      1.641      2.350
REMARK INTER + INTRA:          -3.500
REMARK INTER:                  -3.044
REMARK INTRA:                  -0.456
REMARK UNBOUND:                -0.101
REMARK SMILES C=C[C@H](O)CCCCC
REMARK SMILES IDX 6 1 7 2 8 3 9 4 5 5 3 6 2 7 1 8 4 9
REMARK H PARENT 4 10
REMARK Flexibility Score: inf
ROOT
ATOM      1  C   UNL     1     -37.789  21.799   6.851  1.00  0.00     0.003 C 
ENDROOT
BRANCH   1   2
ATOM      2  C   UNL     1     -36.963  21.509   8.112  1.00  0.00    -0.000 C 
BRANCH   2   3
ATOM      3  C   UNL     1     -35.613  22.233   8.061  1.00  0.00    -0.003 C 
ATOM      4  C   UNL     1     -35.380  22.874   6.697  1.00  0.00     0.004 C 
ENDBRANCH   2   3
ENDBRANCH   1   2
BRANCH   1   5
ATOM      5  C   UNL     1     -39.114  22.523   7.155  1.00  0.00     0.036 C 
BRANCH   5   6
ATOM      6  C   UNL     1     -39.124  24.020   6.760  1.00  0.00     0.136 C 
BRANCH   6   7
ATOM      7  C   UNL     1     -38.629  24.263   5.351  1.00  0.00    -0.004 C 
ATOM      8  C   UNL     1     -39.075  25.268   4.589  1.00  0.00     0.007 C 
ENDBRANCH   6   7
BRANCH   6   9
ATOM      9  O   UNL     1     -38.387  24.785   7.680  1.00  0.00    -0.389 OA
ATOM     10  H   UNL     1     -37.504  24.348   7.807  1.00  0.00     0.211 HD
ENDBRANCH   6   9
ENDBRANCH   5   6
ENDBRANCH   1   5
TORSDOF 6
ENDMDL
MODEL 6
REMARK VINA RESULT:    -2.189      1.443      2.431
REMARK INTER + INTRA:          -2.994
REMARK INTER:                  -3.190
REMARK INTRA:                   0.196
REMARK UNBOUND:                -0.101
REMARK SMILES C=C[C@H](O)CCCCC
REMARK SMILES IDX 6 1 7 2 8 3 9 4 5 5 3 6 2 7 1 8 4 9
REMARK H PARENT 4 10
REMARK Flexibility Score: inf
ROOT
ATOM      1  C   UNL     1     -37.315  22.311   7.785  1.00  0.00     0.003 C 
ENDROOT
BRANCH   1   2
ATOM      2  C   UNL     1     -38.645  21.623   8.124  1.00  0.00    -0.000 C 
BRANCH   2   3
ATOM      3  C   UNL     1     -38.865  20.388   7.244  1.00  0.00    -0.003 C 
ATOM      4  C   UNL     1     -39.070  20.779   5.784  1.00  0.00     0.004 C 
ENDBRANCH   2   3
ENDBRANCH   1   2
BRANCH   1   5
ATOM      5  C   UNL     1     -37.481  23.803   7.444  1.00  0.00     0.036 C 
BRANCH   5   6
ATOM      6  C   UNL     1     -38.838  24.157   6.789  1.00  0.00     0.136 C 
BRANCH   6   7
ATOM      7  C   UNL     1     -38.914  23.756   5.332  1.00  0.00    -0.004 C 
ATOM      8  C   UNL     1     -38.848  24.643   4.332  1.00  0.00     0.007 C 
ENDBRANCH   6   7
BRANCH   6   9
ATOM      9  O   UNL     1     -39.123  25.526   6.938  1.00  0.00    -0.389 OA
ATOM     10  H   UNL     1     -39.820  25.621   7.639  1.00  0.00     0.211 HD
ENDBRANCH   6   9
ENDBRANCH   5   6
ENDBRANCH   1   5
TORSDOF 6
ENDMDL
MODEL 7
REMARK VINA RESULT:    -1.610     19.648     20.582
REMARK INTER + INTRA:          -2.229
REMARK INTER:                  -2.594
REMARK INTRA:                   0.365
REMARK UNBOUND:                -0.101
REMARK SMILES C=C[C@H](O)CCCCC
REMARK SMILES IDX 6 1 7 2 8 3 9 4 5 5 3 6 2 7 1 8 4 9
REMARK H PARENT 4 10
REMARK Flexibility Score: inf
ROOT
ATOM      1  C   UNL     1     -37.224  34.090  -9.590  1.00  0.00     0.003 C 
ENDROOT
BRANCH   1   2
ATOM      2  C   UNL     1     -38.701  34.359  -9.914  1.00  0.00    -0.000 C 
BRANCH   2   3
ATOM      3  C   UNL     1     -39.067  35.820  -9.628  1.00  0.00    -0.003 C 
ATOM      4  C   UNL     1     -39.125  36.093  -8.128  1.00  0.00     0.004 C 
ENDBRANCH   2   3
ENDBRANCH   1   2
BRANCH   1   5
ATOM      5  C   UNL     1     -36.305  35.268  -9.960  1.00  0.00     0.036 C 
BRANCH   5   6
ATOM      6  C   UNL     1     -35.739  35.204 -11.399  1.00  0.00     0.136 C 
BRANCH   6   7
ATOM      7  C   UNL     1     -35.359  33.802 -11.823  1.00  0.00    -0.004 C 
ATOM      8  C   UNL     1     -36.266  32.865 -12.125  1.00  0.00     0.007 C 
ENDBRANCH   6   7
BRANCH   6   9
ATOM      9  O   UNL     1     -34.645  36.075 -11.545  1.00  0.00    -0.389 OA
ATOM     10  H   UNL     1     -33.822  35.582 -11.290  1.00  0.00     0.211 HD
ENDBRANCH   6   9
ENDBRANCH   5   6
ENDBRANCH   1   5
TORSDOF 6
ENDMDL
