MODEL 1
REMARK VINA RESULT:    24.504      0.000      0.000
REMARK INTER + INTRA:          30.578
REMARK INTER:                  29.517
REMARK INTRA:                   1.061
REMARK UNBOUND:                 1.061
REMARK SMILES O=c1c(O)c(-c2ccc(O)cc2O)oc2cc(O)cc(O)c12
REMARK SMILES IDX 5 1 3 2 2 3 1 4 22 5 20 6 19 7 17 8 16 9 15 10 14 11 6 12
REMARK SMILES IDX 8 13 7 14 9 15 11 16 12 17 10 18 13 20 4 22 21 24 18 26
REMARK H PARENT 10 19 13 21 4 23 21 25 18 27
REMARK Flexibility Score: inf
ROOT
ATOM      1  C   UNL     1      28.747 -14.097 -24.129  1.00  0.00     0.184 A 
ATOM      2  C   UNL     1      28.774 -14.584 -25.446  1.00  0.00     0.208 A 
ATOM      3  C   UNL     1      29.099 -15.932 -25.665  1.00  0.00     0.238 A 
ATOM      4  O   UNL     1      29.137 -16.378 -26.844  1.00  0.00    -0.285 OA
ATOM      5  C   UNL     1      29.371 -16.769 -24.564  1.00  0.00     0.111 A 
ATOM      6  C   UNL     1      29.703 -18.139 -24.696  1.00  0.00     0.134 A 
ATOM      7  C   UNL     1      29.952 -18.908 -23.550  1.00  0.00     0.093 A 
ATOM      8  C   UNL     1      29.874 -18.338 -22.277  1.00  0.00     0.123 A 
ATOM      9  C   UNL     1      29.546 -16.985 -22.139  1.00  0.00     0.094 A 
ATOM     10  C   UNL     1      29.298 -16.200 -23.269  1.00  0.00     0.146 A 
ATOM     11  O   UNL     1      28.993 -14.917 -23.111  1.00  0.00    -0.451 OA
ENDROOT
BRANCH   1  12
ATOM     12  C   UNL     1      28.424 -12.687 -23.829  1.00  0.00     0.063 A 
ATOM     13  C   UNL     1      28.900 -10.673 -22.553  1.00  0.00     0.047 A 
ATOM     14  C   UNL     1      29.176 -12.008 -22.857  1.00  0.00     0.020 A 
ATOM     15  C   UNL     1      27.878  -9.994 -23.227  1.00  0.00     0.119 A 
ATOM     16  C   UNL     1      27.140 -10.655 -24.213  1.00  0.00     0.093 A 
ATOM     17  C   UNL     1      27.413 -11.994 -24.529  1.00  0.00     0.130 A 
BRANCH  15  18
ATOM     18  O   UNL     1      27.592  -8.664 -22.929  1.00  0.00    -0.508 OA
ATOM     19  H   UNL     1      27.250  -8.386 -22.017  1.00  0.00     0.293 HD
ENDBRANCH  15  18
BRANCH  17  20
ATOM     20  O   UNL     1      26.702 -12.626 -25.548  1.00  0.00    -0.507 OA
ATOM     21  H   UNL     1      27.120 -12.811 -26.453  1.00  0.00     0.293 HD
ENDBRANCH  17  20
ENDBRANCH   1  12
BRANCH   2  22
ATOM     22  O   UNL     1      28.455 -13.740 -26.513  1.00  0.00    -0.502 OA
ATOM     23  H   UNL     1      27.702 -13.065 -26.464  1.00  0.00     0.293 HD
ENDBRANCH   2  22
BRANCH   6  24
ATOM     24  O   UNL     1      29.788 -18.739 -25.953  1.00  0.00    -0.507 OA
ATOM     25  H   UNL     1      28.998 -19.218 -26.369  1.00  0.00     0.293 HD
ENDBRANCH   6  24
BRANCH   8  26
ATOM     26  O   UNL     1      30.124 -19.125 -21.155  1.00  0.00    -0.508 OA
ATOM     27  H   UNL     1      30.860 -18.892 -20.498  1.00  0.00     0.293 HD
ENDBRANCH   8  26
TORSDOF 6
ENDMDL
MODEL 2
REMARK VINA RESULT:    24.507      1.522      6.579
REMARK INTER + INTRA:          30.583
REMARK INTER:                  30.851
REMARK INTRA:                  -0.268
REMARK UNBOUND:                 1.061
REMARK SMILES O=c1c(O)c(-c2ccc(O)cc2O)oc2cc(O)cc(O)c12
REMARK SMILES IDX 5 1 3 2 2 3 1 4 22 5 20 6 19 7 17 8 16 9 15 10 14 11 6 12
REMARK SMILES IDX 8 13 7 14 9 15 11 16 12 17 10 18 13 20 4 22 21 24 18 26
REMARK H PARENT 10 19 13 21 4 23 21 25 18 27
REMARK Flexibility Score: inf
ROOT
ATOM      1  C   UNL     1      28.590 -13.876 -24.550  1.00  0.00     0.184 A 
ATOM      2  C   UNL     1      27.591 -13.173 -25.244  1.00  0.00     0.208 A 
ATOM      3  C   UNL     1      27.261 -11.874 -24.825  1.00  0.00     0.238 A 
ATOM      4  O   UNL     1      26.358 -11.236 -25.434  1.00  0.00    -0.285 OA
ATOM      5  C   UNL     1      27.948 -11.298 -23.738  1.00  0.00     0.111 A 
ATOM      6  C   UNL     1      27.680  -9.994 -23.255  1.00  0.00     0.134 A 
ATOM      7  C   UNL     1      28.414  -9.489 -22.172  1.00  0.00     0.093 A 
ATOM      8  C   UNL     1      29.410 -10.257 -21.564  1.00  0.00     0.123 A 
ATOM      9  C   UNL     1      29.679 -11.546 -22.036  1.00  0.00     0.094 A 
ATOM     10  C   UNL     1      28.957 -12.070 -23.112  1.00  0.00     0.146 A 
ATOM     11  O   UNL     1      29.230 -13.298 -23.538  1.00  0.00    -0.451 OA
ENDROOT
BRANCH   1  12
ATOM     12  C   UNL     1      28.978 -15.250 -24.931  1.00  0.00     0.063 A 
ATOM     13  C   UNL     1      29.779 -16.785 -26.638  1.00  0.00     0.047 A 
ATOM     14  C   UNL     1      29.401 -15.498 -26.246  1.00  0.00     0.020 A 
ATOM     15  C   UNL     1      29.753 -17.838 -25.714  1.00  0.00     0.119 A 
ATOM     16  C   UNL     1      29.356 -17.595 -24.397  1.00  0.00     0.093 A 
ATOM     17  C   UNL     1      28.980 -16.305 -23.994  1.00  0.00     0.130 A 
BRANCH  15  18
ATOM     18  O   UNL     1      30.125 -19.125 -26.096  1.00  0.00    -0.508 OA
ATOM     19  H   UNL     1      30.520 -19.781 -25.433  1.00  0.00     0.293 HD
ENDBRANCH  15  18
BRANCH  17  20
ATOM     20  O   UNL     1      28.633 -16.067 -22.664  1.00  0.00    -0.507 OA
ATOM     21  H   UNL     1      28.621 -16.811 -21.976  1.00  0.00     0.293 HD
ENDBRANCH  17  20
ENDBRANCH   1  12
BRANCH   2  22
ATOM     22  O   UNL     1      26.960 -13.754 -26.347  1.00  0.00    -0.502 OA
ATOM     23  H   UNL     1      27.295 -14.609 -26.774  1.00  0.00     0.293 HD
ENDBRANCH   2  22
BRANCH   6  24
ATOM     24  O   UNL     1      26.693  -9.201 -23.841  1.00  0.00    -0.507 OA
ATOM     25  H   UNL     1      26.713  -8.190 -23.775  1.00  0.00     0.293 HD
ENDBRANCH   6  24
BRANCH   8  26
ATOM     26  O   UNL     1      30.125  -9.731 -20.491  1.00  0.00    -0.508 OA
ATOM     27  H   UNL     1      29.662  -9.235 -19.738  1.00  0.00     0.293 HD
ENDBRANCH   8  26
TORSDOF 6
ENDMDL
