MODEL 1
REMARK VINA RESULT:    -3.326      0.000      0.000
REMARK INTER + INTRA:          -5.365
REMARK INTER:                  -4.881
REMARK INTRA:                  -0.484
REMARK UNBOUND:                -0.484
REMARK SMILES O=C([O-])CCCCCCCC(=O)[O-]
REMARK SMILES IDX 7 1 6 2 5 3 4 4 2 5 1 6 3 7 8 8 9 9 10 10 11 11 12 12 13 13
REMARK H PARENT
REMARK Flexibility Score: inf
ROOT
ATOM      1  C   UNL     1       6.249  10.298 -13.276  1.00  0.00     0.000 C 
ENDROOT
BRANCH   1   2
ATOM      2  C   UNL     1       5.778   9.942 -14.699  1.00  0.00     0.000 C 
BRANCH   2   3
ATOM      3  C   UNL     1       4.820  10.985 -15.319  1.00  0.00     0.006 C 
BRANCH   3   4
ATOM      4  C   UNL     1       4.013  11.774 -14.275  1.00  0.00     0.053 C 
BRANCH   4   5
ATOM      5  C   UNL     1       3.513  13.076 -14.824  1.00  0.00     0.041 C 
ATOM      6  O   UNL     1       2.645  13.736 -14.195  1.00  0.00    -0.550 OA
ATOM      7  O   UNL     1       3.989  13.548 -16.040  1.00  0.00    -0.550 OA
ENDBRANCH   4   5
ENDBRANCH   3   4
ENDBRANCH   2   3
ENDBRANCH   1   2
BRANCH   1   8
ATOM      8  C   UNL     1       6.815   9.118 -12.468  1.00  0.00     0.000 C 
BRANCH   8   9
ATOM      9  C   UNL     1       5.724   8.155 -11.976  1.00  0.00     0.006 C 
BRANCH   9  10
ATOM     10  C   UNL     1       4.525   8.926 -11.417  1.00  0.00     0.053 C 
BRANCH  10  11
ATOM     11  C   UNL     1       4.392   8.694  -9.945  1.00  0.00     0.041 C 
ATOM     12  O   UNL     1       5.413   8.709  -9.208  1.00  0.00    -0.550 OA
ATOM     13  O   UNL     1       3.150   8.410  -9.395  1.00  0.00    -0.550 OA
ENDBRANCH  10  11
ENDBRANCH   9  10
ENDBRANCH   8   9
ENDBRANCH   1   8
TORSDOF 8
ENDMDL
MODEL 2
REMARK VINA RESULT:    -3.267      0.264      5.621
REMARK INTER + INTRA:          -5.279
REMARK INTER:                  -4.745
REMARK INTRA:                  -0.534
REMARK UNBOUND:                -0.484
REMARK SMILES O=C([O-])CCCCCCCC(=O)[O-]
REMARK SMILES IDX 7 1 6 2 5 3 4 4 2 5 1 6 3 7 8 8 9 9 10 10 11 11 12 12 13 13
REMARK H PARENT
REMARK Flexibility Score: inf
ROOT
ATOM      1  C   UNL     1       6.452  10.234 -13.387  1.00  0.00     0.000 C 
ENDROOT
BRANCH   1   2
ATOM      2  C   UNL     1       6.814   9.101 -12.407  1.00  0.00     0.000 C 
BRANCH   2   3
ATOM      3  C   UNL     1       5.615   8.209 -12.013  1.00  0.00     0.006 C 
BRANCH   3   4
ATOM      4  C   UNL     1       4.450   8.990 -11.383  1.00  0.00     0.053 C 
BRANCH   4   5
ATOM      5  C   UNL     1       4.304   8.693  -9.922  1.00  0.00     0.041 C 
ATOM      6  O   UNL     1       5.325   8.525  -9.205  1.00  0.00    -0.550 OA
ATOM      7  O   UNL     1       3.041   8.581  -9.356  1.00  0.00    -0.550 OA
ENDBRANCH   4   5
ENDBRANCH   3   4
ENDBRANCH   2   3
ENDBRANCH   1   2
BRANCH   1   8
ATOM      8  C   UNL     1       5.780   9.770 -14.690  1.00  0.00     0.000 C 
BRANCH   8   9
ATOM      9  C   UNL     1       4.824  10.820 -15.275  1.00  0.00     0.006 C 
BRANCH   9  10
ATOM     10  C   UNL     1       4.154  11.631 -14.162  1.00  0.00     0.053 C 
BRANCH  10  11
ATOM     11  C   UNL     1       3.441  12.816 -14.732  1.00  0.00     0.041 C 
ATOM     12  O   UNL     1       3.944  13.454 -15.694  1.00  0.00    -0.550 OA
ATOM     13  O   UNL     1       2.247  13.245 -14.169  1.00  0.00    -0.550 OA
ENDBRANCH  10  11
ENDBRANCH   9  10
ENDBRANCH   8   9
ENDBRANCH   1   8
TORSDOF 8
ENDMDL
MODEL 3
REMARK VINA RESULT:    -3.050     14.875     16.588
REMARK INTER + INTRA:          -4.961
REMARK INTER:                  -4.560
REMARK INTRA:                  -0.400
REMARK UNBOUND:                -0.484
REMARK SMILES O=C([O-])CCCCCCCC(=O)[O-]
REMARK SMILES IDX 7 1 6 2 5 3 4 4 2 5 1 6 3 7 8 8 9 9 10 10 11 11 12 12 13 13
REMARK H PARENT
REMARK Flexibility Score: inf
ROOT
ATOM      1  C   UNL     1      18.541  11.719 -13.540  1.00  0.00     0.000 C 
ENDROOT
BRANCH   1   2
ATOM      2  C   UNL     1      18.581  10.178 -13.543  1.00  0.00     0.000 C 
BRANCH   2   3
ATOM      3  C   UNL     1      18.086   9.543 -14.862  1.00  0.00     0.006 C 
BRANCH   3   4
ATOM      4  C   UNL     1      19.019   9.803 -16.056  1.00  0.00     0.053 C 
BRANCH   4   5
ATOM      5  C   UNL     1      20.348   9.132 -15.883  1.00  0.00     0.041 C 
ATOM      6  O   UNL     1      20.437   7.878 -15.943  1.00  0.00    -0.550 OA
ATOM      7  O   UNL     1      21.484   9.891 -15.632  1.00  0.00    -0.550 OA
ENDBRANCH   4   5
ENDBRANCH   3   4
ENDBRANCH   2   3
ENDBRANCH   1   2
BRANCH   1   8
ATOM      8  C   UNL     1      19.861  12.399 -13.938  1.00  0.00     0.000 C 
BRANCH   8   9
ATOM      9  C   UNL     1      19.720  13.298 -15.176  1.00  0.00     0.006 C 
BRANCH   9  10
ATOM     10  C   UNL     1      21.091  13.632 -15.770  1.00  0.00     0.053 C 
BRANCH  10  11
ATOM     11  C   UNL     1      21.687  14.817 -15.078  1.00  0.00     0.041 C 
ATOM     12  O   UNL     1      22.124  14.710 -13.902  1.00  0.00    -0.550 OA
ATOM     13  O   UNL     1      21.715  16.051 -15.713  1.00  0.00    -0.550 OA
ENDBRANCH  10  11
ENDBRANCH   9  10
ENDBRANCH   8   9
ENDBRANCH   1   8
TORSDOF 8
ENDMDL
MODEL 4
REMARK VINA RESULT:    -2.712     13.204     14.957
REMARK INTER + INTRA:          -4.465
REMARK INTER:                  -4.266
REMARK INTRA:                  -0.199
REMARK UNBOUND:                -0.484
REMARK SMILES O=C([O-])CCCCCCCC(=O)[O-]
REMARK SMILES IDX 7 1 6 2 5 3 4 4 2 5 1 6 3 7 8 8 9 9 10 10 11 11 12 12 13 13
REMARK H PARENT
REMARK Flexibility Score: inf
ROOT
ATOM      1  C   UNL     1      18.267  11.625 -13.559  1.00  0.00     0.000 C 
ENDROOT
BRANCH   1   2
ATOM      2  C   UNL     1      18.287  10.085 -13.493  1.00  0.00     0.000 C 
BRANCH   2   3
ATOM      3  C   UNL     1      17.533   9.401 -14.657  1.00  0.00     0.006 C 
BRANCH   3   4
ATOM      4  C   UNL     1      16.624   8.246 -14.204  1.00  0.00     0.053 C 
BRANCH   4   5
ATOM      5  C   UNL     1      15.173   8.602 -14.316  1.00  0.00     0.041 C 
ATOM      6  O   UNL     1      14.393   7.876 -14.986  1.00  0.00    -0.550 OA
ATOM      7  O   UNL     1      14.686   9.746 -13.697  1.00  0.00    -0.550 OA
ENDBRANCH   4   5
ENDBRANCH   3   4
ENDBRANCH   2   3
ENDBRANCH   1   2
BRANCH   1   8
ATOM      8  C   UNL     1      19.326  12.245 -14.485  1.00  0.00     0.000 C 
BRANCH   8   9
ATOM      9  C   UNL     1      20.714  11.609 -14.314  1.00  0.00     0.006 C 
BRANCH   9  10
ATOM     10  C   UNL     1      21.792  12.455 -14.998  1.00  0.00     0.053 C 
BRANCH  10  11
ATOM     11  C   UNL     1      21.626  13.900 -14.647  1.00  0.00     0.041 C 
ATOM     12  O   UNL     1      22.043  14.333 -13.540  1.00  0.00    -0.550 OA
ATOM     13  O   UNL     1      20.968  14.756 -15.518  1.00  0.00    -0.550 OA
ENDBRANCH  10  11
ENDBRANCH   9  10
ENDBRANCH   8   9
ENDBRANCH   1   8
TORSDOF 8
ENDMDL
MODEL 5
REMARK VINA RESULT:    -2.682     13.204     14.485
REMARK INTER + INTRA:          -4.420
REMARK INTER:                  -4.097
REMARK INTRA:                  -0.323
REMARK UNBOUND:                -0.484
REMARK SMILES O=C([O-])CCCCCCCC(=O)[O-]
REMARK SMILES IDX 7 1 6 2 5 3 4 4 2 5 1 6 3 7 8 8 9 9 10 10 11 11 12 12 13 13
REMARK H PARENT
REMARK Flexibility Score: inf
ROOT
ATOM      1  C   UNL     1      18.092  11.615 -13.498  1.00  0.00     0.000 C 
ENDROOT
BRANCH   1   2
ATOM      2  C   UNL     1      18.911  12.314 -14.600  1.00  0.00     0.000 C 
BRANCH   2   3
ATOM      3  C   UNL     1      20.437  12.099 -14.474  1.00  0.00     0.006 C 
BRANCH   3   4
ATOM      4  C   UNL     1      21.263  13.008 -15.399  1.00  0.00     0.053 C 
BRANCH   4   5
ATOM      5  C   UNL     1      21.710  14.256 -14.700  1.00  0.00     0.041 C 
ATOM      6  O   UNL     1      22.037  14.219 -13.485  1.00  0.00    -0.550 OA
ATOM      7  O   UNL     1      21.744  15.464 -15.385  1.00  0.00    -0.550 OA
ENDBRANCH   4   5
ENDBRANCH   3   4
ENDBRANCH   2   3
ENDBRANCH   1   2
BRANCH   1   8
ATOM      8  C   UNL     1      18.222  10.083 -13.469  1.00  0.00     0.000 C 
BRANCH   8   9
ATOM      9  C   UNL     1      17.476   9.399 -14.624  1.00  0.00     0.006 C 
BRANCH   9  10
ATOM     10  C   UNL     1      16.586   8.265 -14.106  1.00  0.00     0.053 C 
BRANCH  10  11
ATOM     11  C   UNL     1      15.141   8.623 -14.253  1.00  0.00     0.041 C 
ATOM     12  O   UNL     1      14.368   7.875 -14.907  1.00  0.00    -0.550 OA
ATOM     13  O   UNL     1      14.660   9.807 -13.712  1.00  0.00    -0.550 OA
ENDBRANCH  10  11
ENDBRANCH   9  10
ENDBRANCH   8   9
ENDBRANCH   1   8
TORSDOF 8
ENDMDL
MODEL 6
REMARK VINA RESULT:    -2.503     14.340     15.586
REMARK INTER + INTRA:          -4.158
REMARK INTER:                  -3.740
REMARK INTRA:                  -0.418
REMARK UNBOUND:                -0.484
REMARK SMILES O=C([O-])CCCCCCCC(=O)[O-]
REMARK SMILES IDX 7 1 6 2 5 3 4 4 2 5 1 6 3 7 8 8 9 9 10 10 11 11 12 12 13 13
REMARK H PARENT
REMARK Flexibility Score: inf
ROOT
ATOM      1  C   UNL     1      20.025  12.249 -14.933  1.00  0.00     0.000 C 
ENDROOT
BRANCH   1   2
ATOM      2  C   UNL     1      20.894  12.753 -13.764  1.00  0.00     0.000 C 
BRANCH   2   3
ATOM      3  C   UNL     1      21.959  13.793 -14.181  1.00  0.00     0.006 C 
BRANCH   3   4
ATOM      4  C   UNL     1      21.937  14.126 -15.682  1.00  0.00     0.053 C 
BRANCH   4   5
ATOM      5  C   UNL     1      21.273  15.442 -15.952  1.00  0.00     0.041 C 
ATOM      6  O   UNL     1      21.957  16.497 -16.003  1.00  0.00    -0.550 OA
ATOM      7  O   UNL     1      19.896  15.505 -16.125  1.00  0.00    -0.550 OA
ENDBRANCH   4   5
ENDBRANCH   3   4
ENDBRANCH   2   3
ENDBRANCH   1   2
BRANCH   1   8
ATOM      8  C   UNL     1      18.521  12.157 -14.626  1.00  0.00     0.000 C 
BRANCH   8   9
ATOM      9  C   UNL     1      18.197  11.129 -13.531  1.00  0.00     0.006 C 
BRANCH   9  10
ATOM     10  C   UNL     1      18.747   9.748 -13.897  1.00  0.00     0.053 C 
BRANCH  10  11
ATOM     11  C   UNL     1      17.733   8.967 -14.671  1.00  0.00     0.041 C 
ATOM     12  O   UNL     1      18.060   8.395 -15.744  1.00  0.00    -0.550 OA
ATOM     13  O   UNL     1      16.416   8.915 -14.236  1.00  0.00    -0.550 OA
ENDBRANCH  10  11
ENDBRANCH   9  10
ENDBRANCH   8   9
ENDBRANCH   1   8
TORSDOF 8
ENDMDL
MODEL 7
REMARK VINA RESULT:    -2.071     14.120     15.941
REMARK INTER + INTRA:          -3.523
REMARK INTER:                  -3.384
REMARK INTRA:                  -0.138
REMARK UNBOUND:                -0.484
REMARK SMILES O=C([O-])CCCCCCCC(=O)[O-]
REMARK SMILES IDX 7 1 6 2 5 3 4 4 2 5 1 6 3 7 8 8 9 9 10 10 11 11 12 12 13 13
REMARK H PARENT
REMARK Flexibility Score: inf
ROOT
ATOM      1  C   UNL     1      18.858  11.779 -14.871  1.00  0.00     0.000 C 
ENDROOT
BRANCH   1   2
ATOM      2  C   UNL     1      19.510  10.822 -15.888  1.00  0.00     0.000 C 
BRANCH   2   3
ATOM      3  C   UNL     1      19.551   9.349 -15.422  1.00  0.00     0.006 C 
BRANCH   3   4
ATOM      4  C   UNL     1      18.385   8.502 -15.957  1.00  0.00     0.053 C 
BRANCH   4   5
ATOM      5  C   UNL     1      17.228   8.481 -15.005  1.00  0.00     0.041 C 
ATOM      6  O   UNL     1      16.167   7.875 -15.311  1.00  0.00    -0.550 OA
ATOM      7  O   UNL     1      17.312   9.150 -13.791  1.00  0.00    -0.550 OA
ENDBRANCH   4   5
ENDBRANCH   3   4
ENDBRANCH   2   3
ENDBRANCH   1   2
BRANCH   1   8
ATOM      8  C   UNL     1      19.826  12.381 -13.839  1.00  0.00     0.000 C 
BRANCH   8   9
ATOM      9  C   UNL     1      21.247  12.568 -14.392  1.00  0.00     0.006 C 
BRANCH   9  10
ATOM     10  C   UNL     1      21.753  13.990 -14.132  1.00  0.00     0.053 C 
BRANCH  10  11
ATOM     11  C   UNL     1      21.398  14.890 -15.274  1.00  0.00     0.041 C 
ATOM     12  O   UNL     1      22.107  15.899 -15.528  1.00  0.00    -0.550 OA
ATOM     13  O   UNL     1      20.257  14.643 -16.024  1.00  0.00    -0.550 OA
ENDBRANCH  10  11
ENDBRANCH   9  10
ENDBRANCH   8   9
ENDBRANCH   1   8
TORSDOF 8
ENDMDL
