MODEL 1
REMARK VINA RESULT:    -3.463      0.000      0.000
REMARK INTER + INTRA:          -5.870
REMARK INTER:                  -5.083
REMARK INTRA:                  -0.787
REMARK UNBOUND:                -0.787
REMARK SMILES O=C([O-])CCCCCCCC(=O)[O-]
REMARK SMILES IDX 7 1 6 2 5 3 4 4 2 5 1 6 3 7 8 8 9 9 10 10 11 11 12 12 13 13
REMARK H PARENT
REMARK Flexibility Score: inf
ROOT
ATOM      1  C   UNL     1     161.624 153.931 163.826  1.00  0.00     0.000 C 
ENDROOT
BRANCH   1   2
ATOM      2  C   UNL     1     161.239 155.197 164.601  1.00  0.00     0.000 C 
BRANCH   2   3
ATOM      3  C   UNL     1     161.632 156.460 163.827  1.00  0.00     0.006 C 
BRANCH   3   4
ATOM      4  C   UNL     1     161.965 157.609 164.783  1.00  0.00     0.053 C 
BRANCH   4   5
ATOM      5  C   UNL     1     160.876 158.635 164.767  1.00  0.00     0.041 C 
ATOM      6  O   UNL     1     161.031 159.733 165.364  1.00  0.00    -0.550 OA
ATOM      7  O   UNL     1     159.671 158.359 164.135  1.00  0.00    -0.550 OA
ENDBRANCH   4   5
ENDBRANCH   3   4
ENDBRANCH   2   3
ENDBRANCH   1   2
BRANCH   1   8
ATOM      8  C   UNL     1     163.058 154.030 163.286  1.00  0.00     0.000 C 
BRANCH   8   9
ATOM      9  C   UNL     1     164.080 153.283 164.161  1.00  0.00     0.006 C 
BRANCH   9  10
ATOM     10  C   UNL     1     165.344 154.094 164.491  1.00  0.00     0.053 C 
BRANCH  10  11
ATOM     11  C   UNL     1     165.018 155.396 165.158  1.00  0.00     0.041 C 
ATOM     12  O   UNL     1     165.336 156.485 164.612  1.00  0.00    -0.550 OA
ATOM     13  O   UNL     1     164.332 155.405 166.366  1.00  0.00    -0.550 OA
ENDBRANCH  10  11
ENDBRANCH   9  10
ENDBRANCH   8   9
ENDBRANCH   1   8
TORSDOF 8
ENDMDL
MODEL 2
REMARK VINA RESULT:    -3.395      1.965      2.869
REMARK INTER + INTRA:          -5.769
REMARK INTER:                  -5.118
REMARK INTRA:                  -0.651
REMARK UNBOUND:                -0.787
REMARK SMILES O=C([O-])CCCCCCCC(=O)[O-]
REMARK SMILES IDX 7 1 6 2 5 3 4 4 2 5 1 6 3 7 8 8 9 9 10 10 11 11 12 12 13 13
REMARK H PARENT
REMARK Flexibility Score: inf
ROOT
ATOM      1  C   UNL     1     162.803 156.178 166.396  1.00  0.00     0.000 C 
ENDROOT
BRANCH   1   2
ATOM      2  C   UNL     1     162.769 157.709 166.478  1.00  0.00     0.000 C 
BRANCH   2   3
ATOM      3  C   UNL     1     162.428 158.327 165.118  1.00  0.00     0.006 C 
BRANCH   3   4
ATOM      4  C   UNL     1     161.045 157.875 164.639  1.00  0.00     0.053 C 
BRANCH   4   5
ATOM      5  C   UNL     1     160.079 159.016 164.678  1.00  0.00     0.041 C 
ATOM      6  O   UNL     1     160.186 159.907 165.560  1.00  0.00    -0.550 OA
ATOM      7  O   UNL     1     159.029 159.069 163.770  1.00  0.00    -0.550 OA
ENDBRANCH   4   5
ENDBRANCH   3   4
ENDBRANCH   2   3
ENDBRANCH   1   2
BRANCH   1   8
ATOM      8  C   UNL     1     164.172 155.682 165.908  1.00  0.00     0.000 C 
BRANCH   8   9
ATOM      9  C   UNL     1     164.063 154.600 164.820  1.00  0.00     0.006 C 
BRANCH   9  10
ATOM     10  C   UNL     1     162.691 154.531 164.132  1.00  0.00     0.053 C 
BRANCH  10  11
ATOM     11  C   UNL     1     162.785 154.803 162.662  1.00  0.00     0.041 C 
ATOM     12  O   UNL     1     161.814 155.321 162.049  1.00  0.00    -0.550 OA
ATOM     13  O   UNL     1     163.959 154.518 161.975  1.00  0.00    -0.550 OA
ENDBRANCH  10  11
ENDBRANCH   9  10
ENDBRANCH   8   9
ENDBRANCH   1   8
TORSDOF 8
ENDMDL
MODEL 3
REMARK VINA RESULT:    -3.329      1.943      2.496
REMARK INTER + INTRA:          -5.673
REMARK INTER:                  -4.973
REMARK INTRA:                  -0.700
REMARK UNBOUND:                -0.787
REMARK SMILES O=C([O-])CCCCCCCC(=O)[O-]
REMARK SMILES IDX 7 1 6 2 5 3 4 4 2 5 1 6 3 7 8 8 9 9 10 10 11 11 12 12 13 13
REMARK H PARENT
REMARK Flexibility Score: inf
ROOT
ATOM      1  C   UNL     1     163.032 155.219 163.873  1.00  0.00     0.000 C 
ENDROOT
BRANCH   1   2
ATOM      2  C   UNL     1     161.735 155.388 164.673  1.00  0.00     0.000 C 
BRANCH   2   3
ATOM      3  C   UNL     1     161.306 156.858 164.726  1.00  0.00     0.006 C 
BRANCH   3   4
ATOM      4  C   UNL     1     162.524 157.784 164.804  1.00  0.00     0.053 C 
BRANCH   4   5
ATOM      5  C   UNL     1     162.702 158.299 166.198  1.00  0.00     0.041 C 
ATOM      6  O   UNL     1     162.791 159.537 166.409  1.00  0.00    -0.550 OA
ATOM      7  O   UNL     1     162.818 157.409 167.258  1.00  0.00    -0.550 OA
ENDBRANCH   4   5
ENDBRANCH   3   4
ENDBRANCH   2   3
ENDBRANCH   1   2
BRANCH   1   8
ATOM      8  C   UNL     1     164.051 154.370 164.646  1.00  0.00     0.000 C 
BRANCH   8   9
ATOM      9  C   UNL     1     165.122 155.218 165.354  1.00  0.00     0.006 C 
BRANCH   9  10
ATOM     10  C   UNL     1     165.896 156.165 164.423  1.00  0.00     0.053 C 
BRANCH  10  11
ATOM     11  C   UNL     1     166.893 155.431 163.579  1.00  0.00     0.041 C 
ATOM     12  O   UNL     1     167.061 155.752 162.373  1.00  0.00    -0.550 OA
ATOM     13  O   UNL     1     167.663 154.417 164.135  1.00  0.00    -0.550 OA
ENDBRANCH  10  11
ENDBRANCH   9  10
ENDBRANCH   8   9
ENDBRANCH   1   8
TORSDOF 8
ENDMDL
MODEL 4
REMARK VINA RESULT:    -3.314     13.797     15.365
REMARK INTER + INTRA:          -5.651
REMARK INTER:                  -4.781
REMARK INTRA:                  -0.871
REMARK UNBOUND:                -0.787
REMARK SMILES O=C([O-])CCCCCCCC(=O)[O-]
REMARK SMILES IDX 7 1 6 2 5 3 4 4 2 5 1 6 3 7 8 8 9 9 10 10 11 11 12 12 13 13
REMARK H PARENT
REMARK Flexibility Score: inf
ROOT
ATOM      1  C   UNL     1     159.220 157.434 150.114  1.00  0.00     0.000 C 
ENDROOT
BRANCH   1   2
ATOM      2  C   UNL     1     160.222 156.777 151.070  1.00  0.00     0.000 C 
BRANCH   2   3
ATOM      3  C   UNL     1     159.857 155.312 151.331  1.00  0.00     0.006 C 
BRANCH   3   4
ATOM      4  C   UNL     1     159.405 154.619 150.041  1.00  0.00     0.053 C 
BRANCH   4   5
ATOM      5  C   UNL     1     158.597 153.400 150.357  1.00  0.00     0.041 C 
ATOM      6  O   UNL     1     157.442 153.264 149.875  1.00  0.00    -0.550 OA
ATOM      7  O   UNL     1     159.101 152.438 151.222  1.00  0.00    -0.550 OA
ENDBRANCH   4   5
ENDBRANCH   3   4
ENDBRANCH   2   3
ENDBRANCH   1   2
BRANCH   1   8
ATOM      8  C   UNL     1     158.470 158.582 150.804  1.00  0.00     0.000 C 
BRANCH   8   9
ATOM      9  C   UNL     1     156.972 158.289 150.994  1.00  0.00     0.006 C 
BRANCH   9  10
ATOM     10  C   UNL     1     156.502 156.966 150.370  1.00  0.00     0.053 C 
BRANCH  10  11
ATOM     11  C   UNL     1     156.018 155.997 151.405  1.00  0.00     0.041 C 
ATOM     12  O   UNL     1     156.697 155.787 152.444  1.00  0.00    -0.550 OA
ATOM     13  O   UNL     1     154.799 155.351 151.237  1.00  0.00    -0.550 OA
ENDBRANCH  10  11
ENDBRANCH   9  10
ENDBRANCH   8   9
ENDBRANCH   1   8
TORSDOF 8
ENDMDL
MODEL 5
REMARK VINA RESULT:    -3.281      1.900      4.926
REMARK INTER + INTRA:          -5.603
REMARK INTER:                  -4.823
REMARK INTRA:                  -0.780
REMARK UNBOUND:                -0.787
REMARK SMILES O=C([O-])CCCCCCCC(=O)[O-]
REMARK SMILES IDX 7 1 6 2 5 3 4 4 2 5 1 6 3 7 8 8 9 9 10 10 11 11 12 12 13 13
REMARK H PARENT
REMARK Flexibility Score: inf
ROOT
ATOM      1  C   UNL     1     163.281 154.809 163.700  1.00  0.00     0.000 C 
ENDROOT
BRANCH   1   2
ATOM      2  C   UNL     1     164.412 154.186 164.528  1.00  0.00     0.000 C 
BRANCH   2   3
ATOM      3  C   UNL     1     165.146 155.252 165.349  1.00  0.00     0.006 C 
BRANCH   3   4
ATOM      4  C   UNL     1     165.719 156.346 164.443  1.00  0.00     0.053 C 
BRANCH   4   5
ATOM      5  C   UNL     1     166.926 155.844 163.714  1.00  0.00     0.041 C 
ATOM      6  O   UNL     1     166.931 155.798 162.456  1.00  0.00    -0.550 OA
ATOM      7  O   UNL     1     168.025 155.382 164.426  1.00  0.00    -0.550 OA
ENDBRANCH   4   5
ENDBRANCH   3   4
ENDBRANCH   2   3
ENDBRANCH   1   2
BRANCH   1   8
ATOM      8  C   UNL     1     161.941 154.723 164.445  1.00  0.00     0.000 C 
BRANCH   8   9
ATOM      9  C   UNL     1     161.578 156.027 165.176  1.00  0.00     0.006 C 
BRANCH   9  10
ATOM     10  C   UNL     1     161.991 157.306 164.430  1.00  0.00     0.053 C 
BRANCH  10  11
ATOM     11  C   UNL     1     162.682 158.283 165.332  1.00  0.00     0.041 C 
ATOM     12  O   UNL     1     162.732 158.076 166.573  1.00  0.00    -0.550 OA
ATOM     13  O   UNL     1     163.302 159.406 164.797  1.00  0.00    -0.550 OA
ENDBRANCH  10  11
ENDBRANCH   9  10
ENDBRANCH   8   9
ENDBRANCH   1   8
TORSDOF 8
ENDMDL
MODEL 6
REMARK VINA RESULT:    -3.257      2.065      3.179
REMARK INTER + INTRA:          -5.567
REMARK INTER:                  -4.819
REMARK INTRA:                  -0.748
REMARK UNBOUND:                -0.787
REMARK SMILES O=C([O-])CCCCCCCC(=O)[O-]
REMARK SMILES IDX 7 1 6 2 5 3 4 4 2 5 1 6 3 7 8 8 9 9 10 10 11 11 12 12 13 13
REMARK H PARENT
REMARK Flexibility Score: inf
ROOT
ATOM      1  C   UNL     1     164.480 155.930 165.147  1.00  0.00     0.000 C 
ENDROOT
BRANCH   1   2
ATOM      2  C   UNL     1     163.483 156.138 166.293  1.00  0.00     0.000 C 
BRANCH   2   3
ATOM      3  C   UNL     1     162.100 156.527 165.757  1.00  0.00     0.006 C 
BRANCH   3   4
ATOM      4  C   UNL     1     162.206 157.654 164.726  1.00  0.00     0.053 C 
BRANCH   4   5
ATOM      5  C   UNL     1     161.864 158.970 165.351  1.00  0.00     0.041 C 
ATOM      6  O   UNL     1     160.758 159.518 165.106  1.00  0.00    -0.550 OA
ATOM      7  O   UNL     1     162.787 159.613 166.166  1.00  0.00    -0.550 OA
ENDBRANCH   4   5
ENDBRANCH   3   4
ENDBRANCH   2   3
ENDBRANCH   1   2
BRANCH   1   8
ATOM      8  C   UNL     1     164.702 154.435 164.874  1.00  0.00     0.000 C 
BRANCH   8   9
ATOM      9  C   UNL     1     164.065 153.967 163.554  1.00  0.00     0.006 C 
BRANCH   9  10
ATOM     10  C   UNL     1     162.716 153.250 163.722  1.00  0.00     0.053 C 
BRANCH  10  11
ATOM     11  C   UNL     1     161.579 154.057 163.173  1.00  0.00     0.041 C 
ATOM     12  O   UNL     1     160.396 153.810 163.529  1.00  0.00    -0.550 OA
ATOM     13  O   UNL     1     161.829 155.104 162.296  1.00  0.00    -0.550 OA
ENDBRANCH  10  11
ENDBRANCH   9  10
ENDBRANCH   8   9
ENDBRANCH   1   8
TORSDOF 8
ENDMDL
MODEL 7
REMARK VINA RESULT:    -3.234      1.123      4.491
REMARK INTER + INTRA:          -5.533
REMARK INTER:                  -4.822
REMARK INTRA:                  -0.711
REMARK UNBOUND:                -0.787
REMARK SMILES O=C([O-])CCCCCCCC(=O)[O-]
REMARK SMILES IDX 7 1 6 2 5 3 4 4 2 5 1 6 3 7 8 8 9 9 10 10 11 11 12 12 13 13
REMARK H PARENT
REMARK Flexibility Score: inf
ROOT
ATOM      1  C   UNL     1     162.104 155.402 162.866  1.00  0.00     0.000 C 
ENDROOT
BRANCH   1   2
ATOM      2  C   UNL     1     163.149 154.354 162.464  1.00  0.00     0.000 C 
BRANCH   2   3
ATOM      3  C   UNL     1     163.849 153.771 163.696  1.00  0.00     0.006 C 
BRANCH   3   4
ATOM      4  C   UNL     1     165.288 154.283 163.805  1.00  0.00     0.053 C 
BRANCH   4   5
ATOM      5  C   UNL     1     165.367 155.422 164.772  1.00  0.00     0.041 C 
ATOM      6  O   UNL     1     166.049 156.442 164.495  1.00  0.00    -0.550 OA
ATOM      7  O   UNL     1     164.726 155.334 166.002  1.00  0.00    -0.550 OA
ENDBRANCH   4   5
ENDBRANCH   3   4
ENDBRANCH   2   3
ENDBRANCH   1   2
BRANCH   1   8
ATOM      8  C   UNL     1     161.413 155.015 164.182  1.00  0.00     0.000 C 
BRANCH   8   9
ATOM      9  C   UNL     1     161.390 156.164 165.205  1.00  0.00     0.006 C 
BRANCH   9  10
ATOM     10  C   UNL     1     160.963 157.521 164.624  1.00  0.00     0.053 C 
BRANCH  10  11
ATOM     11  C   UNL     1     161.948 158.604 164.943  1.00  0.00     0.041 C 
ATOM     12  O   UNL     1     161.547 159.729 165.344  1.00  0.00    -0.550 OA
ATOM     13  O   UNL     1     163.312 158.358 164.833  1.00  0.00    -0.550 OA
ENDBRANCH  10  11
ENDBRANCH   9  10
ENDBRANCH   8   9
ENDBRANCH   1   8
TORSDOF 8
ENDMDL
MODEL 8
REMARK VINA RESULT:    -3.221     13.565     14.874
REMARK INTER + INTRA:          -5.515
REMARK INTER:                  -4.625
REMARK INTRA:                  -0.890
REMARK UNBOUND:                -0.787
REMARK SMILES O=C([O-])CCCCCCCC(=O)[O-]
REMARK SMILES IDX 7 1 6 2 5 3 4 4 2 5 1 6 3 7 8 8 9 9 10 10 11 11 12 12 13 13
REMARK H PARENT
REMARK Flexibility Score: inf
ROOT
ATOM      1  C   UNL     1     156.873 158.133 151.244  1.00  0.00     0.000 C 
ENDROOT
BRANCH   1   2
ATOM      2  C   UNL     1     158.272 158.688 150.951  1.00  0.00     0.000 C 
BRANCH   2   3
ATOM      3  C   UNL     1     159.004 157.824 149.918  1.00  0.00     0.006 C 
BRANCH   3   4
ATOM      4  C   UNL     1     160.244 157.167 150.531  1.00  0.00     0.053 C 
BRANCH   4   5
ATOM      5  C   UNL     1     159.890 155.851 151.147  1.00  0.00     0.041 C 
ATOM      6  O   UNL     1     159.467 154.908 150.428  1.00  0.00    -0.550 OA
ATOM      7  O   UNL     1     159.979 155.681 152.523  1.00  0.00    -0.550 OA
ENDBRANCH   4   5
ENDBRANCH   3   4
ENDBRANCH   2   3
ENDBRANCH   1   2
BRANCH   1   8
ATOM      8  C   UNL     1     156.472 157.072 150.208  1.00  0.00     0.000 C 
BRANCH   8   9
ATOM      9  C   UNL     1     155.717 155.885 150.829  1.00  0.00     0.006 C 
BRANCH   9  10
ATOM     10  C   UNL     1     156.355 155.330 152.113  1.00  0.00     0.053 C 
BRANCH  10  11
ATOM     11  C   UNL     1     156.471 153.836 152.082  1.00  0.00     0.041 C 
ATOM     12  O   UNL     1     155.583 153.143 151.519  1.00  0.00    -0.550 OA
ATOM     13  O   UNL     1     157.576 153.212 152.646  1.00  0.00    -0.550 OA
ENDBRANCH  10  11
ENDBRANCH   9  10
ENDBRANCH   8   9
ENDBRANCH   1   8
TORSDOF 8
ENDMDL
MODEL 9
REMARK VINA RESULT:    -3.212     13.575     14.658
REMARK INTER + INTRA:          -5.501
REMARK INTER:                  -4.603
REMARK INTRA:                  -0.897
REMARK UNBOUND:                -0.787
REMARK SMILES O=C([O-])CCCCCCCC(=O)[O-]
REMARK SMILES IDX 7 1 6 2 5 3 4 4 2 5 1 6 3 7 8 8 9 9 10 10 11 11 12 12 13 13
REMARK H PARENT
REMARK Flexibility Score: inf
ROOT
ATOM      1  C   UNL     1     156.891 157.984 151.365  1.00  0.00     0.000 C 
ENDROOT
BRANCH   1   2
ATOM      2  C   UNL     1     156.361 157.069 150.255  1.00  0.00     0.000 C 
BRANCH   2   3
ATOM      3  C   UNL     1     155.729 155.801 150.840  1.00  0.00     0.006 C 
BRANCH   3   4
ATOM      4  C   UNL     1     156.391 155.417 152.166  1.00  0.00     0.053 C 
BRANCH   4   5
ATOM      5  C   UNL     1     156.682 153.950 152.201  1.00  0.00     0.041 C 
ATOM      6  O   UNL     1     156.114 153.173 151.389  1.00  0.00    -0.550 OA
ATOM      7  O   UNL     1     157.542 153.434 153.161  1.00  0.00    -0.550 OA
ENDBRANCH   4   5
ENDBRANCH   3   4
ENDBRANCH   2   3
ENDBRANCH   1   2
BRANCH   1   8
ATOM      8  C   UNL     1     158.188 158.683 150.933  1.00  0.00     0.000 C 
BRANCH   8   9
ATOM      9  C   UNL     1     158.980 157.879 149.886  1.00  0.00     0.006 C 
BRANCH   9  10
ATOM     10  C   UNL     1     160.228 157.175 150.440  1.00  0.00     0.053 C 
BRANCH  10  11
ATOM     11  C   UNL     1     159.895 155.862 151.081  1.00  0.00     0.041 C 
ATOM     12  O   UNL     1     159.505 154.893 150.376  1.00  0.00    -0.550 OA
ATOM     13  O   UNL     1     160.049 155.698 152.452  1.00  0.00    -0.550 OA
ENDBRANCH  10  11
ENDBRANCH   9  10
ENDBRANCH   8   9
ENDBRANCH   1   8
TORSDOF 8
ENDMDL
