MODEL 1
REMARK VINA RESULT:     0.953      0.000      0.000
REMARK INTER + INTRA:           2.016
REMARK INTER:                   1.120
REMARK INTRA:                   0.896
REMARK UNBOUND:                 0.896
REMARK SMILES C=C(C)[C@H]1CC[C@@]2(CO)CC[C@@]3(C)[C@H](CC[C@H]4[C@]5(C)CC[C@H](O)C(C)(C)[C@@H]5CC[C@@]43C)[C@@H]12
REMARK SMILES IDX 4 1 5 2 6 3 7 4 32 5 14 6 15 7 16 8 17 9 18 10 20 11 21 12
REMARK SMILES IDX 22 13 24 14 27 15 28 16 29 17 30 18 12 19 11 20 10 21 13 22
REMARK SMILES IDX 31 23 25 24 26 25 19 26 2 27 3 28 1 29 8 30 9 31 23 33
REMARK H PARENT 9 32 23 34
REMARK Flexibility Score: inf
ROOT
ATOM      1  C   UNL     1     -11.901  13.877 -33.509  1.00  0.00     0.018 C 
ATOM      2  C   UNL     1     -11.415  15.312 -33.380  1.00  0.00     0.009 C 
ATOM      3  C   UNL     1     -10.509  15.301 -32.158  1.00  0.00     0.010 C 
ATOM      4  C   UNL     1     -11.053  14.206 -31.193  1.00  0.00    -0.003 C 
ATOM      5  C   UNL     1     -12.032  13.333 -32.056  1.00  0.00     0.008 C 
ATOM      6  C   UNL     1     -13.479  13.118 -31.435  1.00  0.00    -0.000 C 
ATOM      7  C   UNL     1     -13.424  11.880 -30.519  1.00  0.00     0.005 C 
ATOM      8  C   UNL     1     -14.776  11.454 -29.927  1.00  0.00     0.005 C 
ATOM      9  C   UNL     1     -15.825  12.593 -29.801  1.00  0.00     0.002 C 
ATOM     10  C   UNL     1     -17.126  12.149 -28.969  1.00  0.00    -0.026 C 
ATOM     11  C   UNL     1     -17.869  11.045 -29.800  1.00  0.00     0.010 C 
ATOM     12  C   UNL     1     -19.326  10.879 -29.388  1.00  0.00     0.033 C 
ATOM     13  C   UNL     1     -20.166  12.130 -29.694  1.00  0.00     0.120 C 
ATOM     14  C   UNL     1     -19.365  13.501 -29.649  1.00  0.00    -0.006 C 
ATOM     15  C   UNL     1     -18.116  13.354 -28.669  1.00  0.00     0.003 C 
ATOM     16  C   UNL     1     -17.361  14.654 -28.277  1.00  0.00     0.005 C 
ATOM     17  C   UNL     1     -16.241  15.055 -29.240  1.00  0.00     0.008 C 
ATOM     18  C   UNL     1     -15.135  13.973 -29.472  1.00  0.00    -0.024 C 
ATOM     19  C   UNL     1     -14.169  14.385 -30.741  1.00  0.00    -0.024 C 
ATOM     20  C   UNL     1     -13.104  15.460 -30.336  1.00  0.00     0.008 C 
ATOM     21  C   UNL     1     -11.749  14.859 -29.970  1.00  0.00     0.010 C 
ATOM     22  C   UNL     1     -15.005  15.066 -31.873  1.00  0.00     0.012 C 
ATOM     23  C   UNL     1     -14.325  13.875 -28.130  1.00  0.00     0.012 C 
ATOM     24  C   UNL     1     -18.961  13.970 -31.076  1.00  0.00     0.014 C 
ATOM     25  C   UNL     1     -20.353  14.571 -29.102  1.00  0.00     0.014 C 
ATOM     26  C   UNL     1     -16.750  11.483 -27.601  1.00  0.00     0.012 C 
ENDROOT
BRANCH   1  27
ATOM     27  C   UNL     1     -13.047  13.636 -34.489  1.00  0.00    -0.077 C 
ATOM     28  C   UNL     1     -14.406  14.270 -34.283  1.00  0.00     0.039 C 
ATOM     29  C   UNL     1     -12.770  13.111 -35.701  1.00  0.00     0.008 C 
ENDBRANCH   1  27
BRANCH   4  30
ATOM     30  C   UNL     1      -9.875  13.332 -30.680  1.00  0.00     0.163 C 
BRANCH  30  31
ATOM     31  O   UNL     1     -10.261  12.598 -29.547  1.00  0.00    -0.396 OA
ATOM     32  H   UNL     1      -9.472  12.577 -28.944  1.00  0.00     0.210 HD
ENDBRANCH  30  31
ENDBRANCH   4  30
BRANCH  13  33
ATOM     33  O   UNL     1     -20.823  11.941 -30.926  1.00  0.00    -0.393 OA
ATOM     34  H   UNL     1     -20.888  12.829 -31.362  1.00  0.00     0.210 HD
ENDBRANCH  13  33
TORSDOF 4
ENDMDL
MODEL 2
REMARK VINA RESULT:     0.976      2.280      7.248
REMARK INTER + INTRA:           2.044
REMARK INTER:                   0.680
REMARK INTRA:                   1.363
REMARK UNBOUND:                 0.896
REMARK SMILES C=C(C)[C@H]1CC[C@@]2(CO)CC[C@@]3(C)[C@H](CC[C@H]4[C@]5(C)CC[C@H](O)C(C)(C)[C@@H]5CC[C@@]43C)[C@@H]12
REMARK SMILES IDX 4 1 5 2 6 3 7 4 32 5 14 6 15 7 16 8 17 9 18 10 20 11 21 12
REMARK SMILES IDX 22 13 24 14 27 15 28 16 29 17 30 18 12 19 11 20 10 21 13 22
REMARK SMILES IDX 31 23 25 24 26 25 19 26 2 27 3 28 1 29 8 30 9 31 23 33
REMARK H PARENT 9 32 23 34
REMARK Flexibility Score: inf
ROOT
ATOM      1  C   UNL     1     -17.696  12.983 -29.027  1.00  0.00     0.018 C 
ATOM      2  C   UNL     1     -18.038  11.505 -29.134  1.00  0.00     0.009 C 
ATOM      3  C   UNL     1     -17.430  10.880 -27.888  1.00  0.00     0.010 C 
ATOM      4  C   UNL     1     -16.171  11.720 -27.521  1.00  0.00    -0.003 C 
ATOM      5  C   UNL     1     -16.302  13.054 -28.337  1.00  0.00     0.008 C 
ATOM      6  C   UNL     1     -15.027  13.452 -29.199  1.00  0.00    -0.000 C 
ATOM      7  C   UNL     1     -14.081  14.271 -28.300  1.00  0.00     0.005 C 
ATOM      8  C   UNL     1     -12.847  14.844 -29.013  1.00  0.00     0.005 C 
ATOM      9  C   UNL     1     -12.396  14.059 -30.276  1.00  0.00     0.002 C 
ATOM     10  C   UNL     1     -10.978  14.557 -30.843  1.00  0.00    -0.026 C 
ATOM     11  C   UNL     1     -11.162  16.027 -31.360  1.00  0.00     0.010 C 
ATOM     12  C   UNL     1     -10.070  16.449 -32.335  1.00  0.00     0.033 C 
ATOM     13  C   UNL     1     -10.109  15.642 -33.642  1.00  0.00     0.120 C 
ATOM     14  C   UNL     1     -10.668  14.162 -33.498  1.00  0.00    -0.006 C 
ATOM     15  C   UNL     1     -10.417  13.641 -32.012  1.00  0.00     0.003 C 
ATOM     16  C   UNL     1     -10.645  12.130 -31.738  1.00  0.00     0.005 C 
ATOM     17  C   UNL     1     -12.081  11.761 -31.357  1.00  0.00     0.008 C 
ATOM     18  C   UNL     1     -12.659  12.512 -30.112  1.00  0.00    -0.024 C 
ATOM     19  C   UNL     1     -14.283  12.272 -29.986  1.00  0.00    -0.024 C 
ATOM     20  C   UNL     1     -14.618  10.875 -29.362  1.00  0.00     0.008 C 
ATOM     21  C   UNL     1     -14.878  10.932 -27.858  1.00  0.00     0.010 C 
ATOM     22  C   UNL     1     -14.949  12.242 -31.401  1.00  0.00     0.012 C 
ATOM     23  C   UNL     1     -11.888  11.954 -28.863  1.00  0.00     0.012 C 
ATOM     24  C   UNL     1     -12.163  14.075 -33.922  1.00  0.00     0.014 C 
ATOM     25  C   UNL     1      -9.875  13.290 -34.514  1.00  0.00     0.014 C 
ATOM     26  C   UNL     1      -9.887  14.627 -29.719  1.00  0.00     0.012 C 
ENDROOT
BRANCH   1  27
ATOM     27  C   UNL     1     -17.940  13.827 -30.276  1.00  0.00    -0.077 C 
ATOM     28  C   UNL     1     -16.920  13.895 -31.393  1.00  0.00     0.039 C 
ATOM     29  C   UNL     1     -19.189  14.269 -30.531  1.00  0.00     0.008 C 
ENDBRANCH   1  27
BRANCH   4  30
ATOM     30  C   UNL     1     -16.175  12.026 -25.997  1.00  0.00     0.163 C 
BRANCH  30  31
ATOM     31  O   UNL     1     -15.036  11.484 -25.380  1.00  0.00    -0.396 OA
ATOM     32  H   UNL     1     -14.252  11.892 -25.833  1.00  0.00     0.210 HD
ENDBRANCH  30  31
ENDBRANCH   4  30
BRANCH  13  33
ATOM     33  O   UNL     1     -10.817  16.383 -34.609  1.00  0.00    -0.393 OA
ATOM     34  H   UNL     1     -11.773  16.130 -34.529  1.00  0.00     0.210 HD
ENDBRANCH  13  33
TORSDOF 4
ENDMDL
MODEL 3
REMARK VINA RESULT:     3.031      2.111      3.802
REMARK INTER + INTRA:           4.459
REMARK INTER:                   4.892
REMARK INTRA:                  -0.433
REMARK UNBOUND:                 0.896
REMARK SMILES C=C(C)[C@H]1CC[C@@]2(CO)CC[C@@]3(C)[C@H](CC[C@H]4[C@]5(C)CC[C@H](O)C(C)(C)[C@@H]5CC[C@@]43C)[C@@H]12
REMARK SMILES IDX 4 1 5 2 6 3 7 4 32 5 14 6 15 7 16 8 17 9 18 10 20 11 21 12
REMARK SMILES IDX 22 13 24 14 27 15 28 16 29 17 30 18 12 19 11 20 10 21 13 22
REMARK SMILES IDX 31 23 25 24 26 25 19 26 2 27 3 28 1 29 8 30 9 31 23 33
REMARK H PARENT 9 32 23 34
REMARK Flexibility Score: inf
ROOT
ATOM      1  C   UNL     1     -10.037  13.918 -32.343  1.00  0.00     0.018 C 
ATOM      2  C   UNL     1     -10.134  13.554 -33.816  1.00  0.00     0.009 C 
ATOM      3  C   UNL     1     -10.571  14.840 -34.501  1.00  0.00     0.010 C 
ATOM      4  C   UNL     1     -11.437  15.633 -33.478  1.00  0.00    -0.003 C 
ATOM      5  C   UNL     1     -11.156  14.970 -32.085  1.00  0.00     0.008 C 
ATOM      6  C   UNL     1     -12.448  14.543 -31.260  1.00  0.00    -0.000 C 
ATOM      7  C   UNL     1     -12.900  15.755 -30.424  1.00  0.00     0.005 C 
ATOM      8  C   UNL     1     -14.071  15.481 -29.469  1.00  0.00     0.005 C 
ATOM      9  C   UNL     1     -15.002  14.311 -29.893  1.00  0.00     0.002 C 
ATOM     10  C   UNL     1     -16.330  14.218 -28.994  1.00  0.00    -0.026 C 
ATOM     11  C   UNL     1     -15.892  13.840 -27.536  1.00  0.00     0.010 C 
ATOM     12  C   UNL     1     -17.034  13.259 -26.710  1.00  0.00     0.033 C 
ATOM     13  C   UNL     1     -17.523  11.909 -27.258  1.00  0.00     0.120 C 
ATOM     14  C   UNL     1     -17.358  11.724 -28.827  1.00  0.00    -0.006 C 
ATOM     15  C   UNL     1     -17.376  13.153 -29.535  1.00  0.00     0.003 C 
ATOM     16  C   UNL     1     -17.498  13.180 -31.083  1.00  0.00     0.005 C 
ATOM     17  C   UNL     1     -16.163  13.106 -31.828  1.00  0.00     0.008 C 
ATOM     18  C   UNL     1     -15.127  14.219 -31.463  1.00  0.00    -0.024 C 
ATOM     19  C   UNL     1     -13.643  13.864 -32.082  1.00  0.00    -0.024 C 
ATOM     20  C   UNL     1     -13.551  14.209 -33.607  1.00  0.00     0.008 C 
ATOM     21  C   UNL     1     -12.934  15.579 -33.881  1.00  0.00     0.010 C 
ATOM     22  C   UNL     1     -13.367  12.326 -32.008  1.00  0.00     0.012 C 
ATOM     23  C   UNL     1     -15.696  15.561 -32.047  1.00  0.00     0.012 C 
ATOM     24  C   UNL     1     -16.086  10.897 -29.172  1.00  0.00     0.014 C 
ATOM     25  C   UNL     1     -18.573  10.875 -29.302  1.00  0.00     0.014 C 
ATOM     26  C   UNL     1     -17.063  15.600 -28.883  1.00  0.00     0.012 C 
ENDROOT
BRANCH   1  27
ATOM     27  C   UNL     1      -9.884  12.754 -31.367  1.00  0.00    -0.077 C 
ATOM     28  C   UNL     1      -9.959  12.967 -29.869  1.00  0.00     0.039 C 
ATOM     29  C   UNL     1      -9.988  11.492 -31.833  1.00  0.00     0.008 C 
ENDBRANCH   1  27
BRANCH   4  30
ATOM     30  C   UNL     1     -10.988  17.121 -33.459  1.00  0.00     0.163 C 
BRANCH  30  31
ATOM     31  O   UNL     1      -9.914  17.325 -34.340  1.00  0.00    -0.396 OA
ATOM     32  H   UNL     1      -9.403  18.099 -33.984  1.00  0.00     0.210 HD
ENDBRANCH  30  31
ENDBRANCH   4  30
BRANCH  13  33
ATOM     33  O   UNL     1     -16.896  10.875 -26.535  1.00  0.00    -0.393 OA
ATOM     34  H   UNL     1     -17.139  10.021 -26.976  1.00  0.00     0.210 HD
ENDBRANCH  13  33
TORSDOF 4
ENDMDL
