MODEL 1
REMARK VINA RESULT:    -3.797      0.000      0.000
REMARK INTER + INTRA:          -5.631
REMARK INTER:                  -5.241
REMARK INTRA:                  -0.390
REMARK UNBOUND:                -0.390
REMARK SMILES OC[C@@H](O)[C@@H](O)[C@@H](O)CO
REMARK SMILES IDX 5 1 7 2 9 3 10 4 8 6 3 8 2 9 1 10 4 12 6 14
REMARK H PARENT 10 5 8 7 1 11 4 13 6 15
REMARK Flexibility Score: inf
ROOT
ATOM      1  C   UNL     1     176.587 159.791 164.834  1.00  0.00     0.176 C 
ENDROOT
BRANCH   1   2
ATOM      2  C   UNL     1     175.974 159.442 163.445  1.00  0.00     0.171 C 
BRANCH   2   3
ATOM      3  C   UNL     1     175.107 160.588 162.881  1.00  0.00     0.190 C 
BRANCH   3   4
ATOM      4  O   UNL     1     173.778 160.181 162.705  1.00  0.00    -0.394 OA
ATOM      5  H   UNL     1     173.550 159.606 163.481  1.00  0.00     0.210 HD
ENDBRANCH   3   4
ENDBRANCH   2   3
BRANCH   2   6
ATOM      6  O   UNL     1     175.204 158.268 163.517  1.00  0.00    -0.388 OA
ATOM      7  H   UNL     1     175.555 157.637 162.833  1.00  0.00     0.211 HD
ENDBRANCH   2   6
ENDBRANCH   1   2
BRANCH   1   8
ATOM      8  C   UNL     1     177.654 158.751 165.284  1.00  0.00     0.171 C 
BRANCH   8   9
ATOM      9  C   UNL     1     177.211 157.945 166.521  1.00  0.00     0.190 C 
BRANCH   9  10
ATOM     10  O   UNL     1     175.889 158.248 166.881  1.00  0.00    -0.394 OA
ATOM     11  H   UNL     1     175.935 158.842 167.674  1.00  0.00     0.210 HD
ENDBRANCH   9  10
ENDBRANCH   8   9
BRANCH   8  12
ATOM     12  O   UNL     1     178.000 157.875 164.238  1.00  0.00    -0.388 OA
ATOM     13  H   UNL     1     177.986 156.951 164.599  1.00  0.00     0.211 HD
ENDBRANCH   8  12
ENDBRANCH   1   8
BRANCH   1  14
ATOM     14  O   UNL     1     177.148 161.081 164.810  1.00  0.00    -0.388 OA
ATOM     15  H   UNL     1     177.606 161.193 163.935  1.00  0.00     0.211 HD
ENDBRANCH   1  14
TORSDOF 9
ENDMDL
MODEL 2
REMARK VINA RESULT:    -3.768      1.366      3.999
REMARK INTER + INTRA:          -5.590
REMARK INTER:                  -4.796
REMARK INTRA:                  -0.794
REMARK UNBOUND:                -0.390
REMARK SMILES OC[C@@H](O)[C@@H](O)[C@@H](O)CO
REMARK SMILES IDX 5 1 7 2 9 3 10 4 8 6 3 8 2 9 1 10 4 12 6 14
REMARK H PARENT 10 5 8 7 1 11 4 13 6 15
REMARK Flexibility Score: inf
ROOT
ATOM      1  C   UNL     1     175.270 159.517 164.331  1.00  0.00     0.176 C 
ENDROOT
BRANCH   1   2
ATOM      2  C   UNL     1     176.158 159.214 165.574  1.00  0.00     0.171 C 
BRANCH   2   3
ATOM      3  C   UNL     1     176.915 157.876 165.443  1.00  0.00     0.190 C 
BRANCH   3   4
ATOM      4  O   UNL     1     177.823 157.908 164.376  1.00  0.00    -0.394 OA
ATOM      5  H   UNL     1     177.391 158.428 163.649  1.00  0.00     0.210 HD
ENDBRANCH   3   4
ENDBRANCH   2   3
BRANCH   2   6
ATOM      6  O   UNL     1     175.387 159.200 166.750  1.00  0.00    -0.388 OA
ATOM      7  H   UNL     1     175.031 158.279 166.865  1.00  0.00     0.211 HD
ENDBRANCH   2   6
ENDBRANCH   1   2
BRANCH   1   8
ATOM      8  C   UNL     1     175.744 160.788 163.565  1.00  0.00     0.171 C 
BRANCH   8   9
ATOM      9  C   UNL     1     176.439 160.451 162.231  1.00  0.00     0.190 C 
BRANCH   9  10
ATOM     10  O   UNL     1     177.685 159.840 162.445  1.00  0.00    -0.394 OA
ATOM     11  H   UNL     1     178.295 160.173 161.736  1.00  0.00     0.210 HD
ENDBRANCH   9  10
ENDBRANCH   8   9
BRANCH   8  12
ATOM     12  O   UNL     1     174.684 161.685 163.341  1.00  0.00    -0.388 OA
ATOM     13  H   UNL     1     174.533 162.193 164.179  1.00  0.00     0.211 HD
ENDBRANCH   8  12
ENDBRANCH   1   8
BRANCH   1  14
ATOM     14  O   UNL     1     175.248 158.410 163.464  1.00  0.00    -0.388 OA
ATOM     15  H   UNL     1     174.364 158.402 163.010  1.00  0.00     0.211 HD
ENDBRANCH   1  14
TORSDOF 9
ENDMDL
MODEL 3
REMARK VINA RESULT:    -3.630      1.305      2.466
REMARK INTER + INTRA:          -5.400
REMARK INTER:                  -4.707
REMARK INTRA:                  -0.693
REMARK UNBOUND:                -0.390
REMARK SMILES OC[C@@H](O)[C@@H](O)[C@@H](O)CO
REMARK SMILES IDX 5 1 7 2 9 3 10 4 8 6 3 8 2 9 1 10 4 12 6 14
REMARK H PARENT 10 5 8 7 1 11 4 13 6 15
REMARK Flexibility Score: inf
ROOT
ATOM      1  C   UNL     1     175.516 159.667 163.923  1.00  0.00     0.176 C 
ENDROOT
BRANCH   1   2
ATOM      2  C   UNL     1     174.249 160.495 164.293  1.00  0.00     0.171 C 
BRANCH   2   3
ATOM      3  C   UNL     1     173.657 161.237 163.076  1.00  0.00     0.190 C 
BRANCH   3   4
ATOM      4  O   UNL     1     173.440 160.363 162.003  1.00  0.00    -0.394 OA
ATOM      5  H   UNL     1     173.148 159.498 162.393  1.00  0.00     0.210 HD
ENDBRANCH   3   4
ENDBRANCH   2   3
BRANCH   2   6
ATOM      6  O   UNL     1     174.534 161.421 165.312  1.00  0.00    -0.388 OA
ATOM      7  H   UNL     1     174.416 160.955 166.182  1.00  0.00     0.211 HD
ENDBRANCH   2   6
ENDBRANCH   1   2
BRANCH   1   8
ATOM      8  C   UNL     1     176.467 159.470 165.140  1.00  0.00     0.171 C 
BRANCH   8   9
ATOM      9  C   UNL     1     177.116 158.073 165.165  1.00  0.00     0.190 C 
BRANCH   9  10
ATOM     10  O   UNL     1     177.949 157.877 164.052  1.00  0.00    -0.394 OA
ATOM     11  H   UNL     1     178.383 158.749 163.860  1.00  0.00     0.210 HD
ENDBRANCH   9  10
ENDBRANCH   8   9
BRANCH   8  12
ATOM     12  O   UNL     1     177.462 160.463 165.188  1.00  0.00    -0.388 OA
ATOM     13  H   UNL     1     177.999 160.396 164.357  1.00  0.00     0.211 HD
ENDBRANCH   8  12
ENDBRANCH   1   8
BRANCH   1  14
ATOM     14  O   UNL     1     175.146 158.419 163.390  1.00  0.00    -0.388 OA
ATOM     15  H   UNL     1     174.231 158.513 163.014  1.00  0.00     0.211 HD
ENDBRANCH   1  14
TORSDOF 9
ENDMDL
MODEL 4
REMARK VINA RESULT:    -3.544      1.598      3.398
REMARK INTER + INTRA:          -5.281
REMARK INTER:                  -4.494
REMARK INTRA:                  -0.787
REMARK UNBOUND:                -0.390
REMARK SMILES OC[C@@H](O)[C@@H](O)[C@@H](O)CO
REMARK SMILES IDX 5 1 7 2 9 3 10 4 8 6 3 8 2 9 1 10 4 12 6 14
REMARK H PARENT 10 5 8 7 1 11 4 13 6 15
REMARK Flexibility Score: inf
ROOT
ATOM      1  C   UNL     1     175.882 158.755 164.743  1.00  0.00     0.176 C 
ENDROOT
BRANCH   1   2
ATOM      2  C   UNL     1     177.407 158.975 164.519  1.00  0.00     0.171 C 
BRANCH   2   3
ATOM      3  C   UNL     1     177.704 160.264 163.723  1.00  0.00     0.190 C 
BRANCH   3   4
ATOM      4  O   UNL     1     177.174 160.195 162.427  1.00  0.00    -0.394 OA
ATOM      5  H   UNL     1     177.845 159.723 161.868  1.00  0.00     0.210 HD
ENDBRANCH   3   4
ENDBRANCH   2   3
BRANCH   2   6
ATOM      6  O   UNL     1     177.982 157.876 163.857  1.00  0.00    -0.388 OA
ATOM      7  H   UNL     1     178.832 158.186 163.443  1.00  0.00     0.211 HD
ENDBRANCH   2   6
ENDBRANCH   1   2
BRANCH   1   8
ATOM      8  C   UNL     1     175.197 159.992 165.392  1.00  0.00     0.171 C 
BRANCH   8   9
ATOM      9  C   UNL     1     174.024 160.531 164.550  1.00  0.00     0.190 C 
BRANCH   9  10
ATOM     10  O   UNL     1     174.484 161.215 163.413  1.00  0.00    -0.394 OA
ATOM     11  H   UNL     1     174.107 162.132 163.456  1.00  0.00     0.210 HD
ENDBRANCH   9  10
ENDBRANCH   8   9
BRANCH   8  12
ATOM     12  O   UNL     1     174.761 159.717 166.701  1.00  0.00    -0.388 OA
ATOM     13  H   UNL     1     174.962 158.766 166.895  1.00  0.00     0.211 HD
ENDBRANCH   8  12
ENDBRANCH   1   8
BRANCH   1  14
ATOM     14  O   UNL     1     175.251 158.434 163.527  1.00  0.00    -0.388 OA
ATOM     15  H   UNL     1     174.946 159.285 163.115  1.00  0.00     0.211 HD
ENDBRANCH   1  14
TORSDOF 9
ENDMDL
MODEL 5
REMARK VINA RESULT:    -3.537     24.256     26.172
REMARK INTER + INTRA:          -5.271
REMARK INTER:                  -4.599
REMARK INTRA:                  -0.672
REMARK UNBOUND:                -0.390
REMARK SMILES OC[C@@H](O)[C@@H](O)[C@@H](O)CO
REMARK SMILES IDX 5 1 7 2 9 3 10 4 8 6 3 8 2 9 1 10 4 12 6 14
REMARK H PARENT 10 5 8 7 1 11 4 13 6 15
REMARK Flexibility Score: inf
ROOT
ATOM      1  C   UNL     1     160.146 175.855 152.723  1.00  0.00     0.176 C 
ENDROOT
BRANCH   1   2
ATOM      2  C   UNL     1     160.633 175.133 154.014  1.00  0.00     0.171 C 
BRANCH   2   3
ATOM      3  C   UNL     1     160.609 173.596 153.873  1.00  0.00     0.190 C 
BRANCH   3   4
ATOM      4  O   UNL     1     159.392 173.154 153.338  1.00  0.00    -0.394 OA
ATOM      5  H   UNL     1     159.305 173.571 152.441  1.00  0.00     0.210 HD
ENDBRANCH   3   4
ENDBRANCH   2   3
BRANCH   2   6
ATOM      6  O   UNL     1     159.858 175.512 155.124  1.00  0.00    -0.388 OA
ATOM      7  H   UNL     1     158.903 175.486 154.846  1.00  0.00     0.211 HD
ENDBRANCH   2   6
ENDBRANCH   1   2
BRANCH   1   8
ATOM      8  C   UNL     1     160.553 177.358 152.699  1.00  0.00     0.171 C 
BRANCH   8   9
ATOM      9  C   UNL     1     160.209 178.043 151.362  1.00  0.00     0.190 C 
BRANCH   9  10
ATOM     10  O   UNL     1     161.051 177.600 150.330  1.00  0.00    -0.394 OA
ATOM     11  H   UNL     1     161.471 178.407 149.933  1.00  0.00     0.210 HD
ENDBRANCH   9  10
ENDBRANCH   8   9
BRANCH   8  12
ATOM     12  O   UNL     1     159.974 178.069 153.766  1.00  0.00    -0.388 OA
ATOM     13  H   UNL     1     159.116 177.628 153.996  1.00  0.00     0.211 HD
ENDBRANCH   8  12
ENDBRANCH   1   8
BRANCH   1  14
ATOM     14  O   UNL     1     160.642 175.201 151.580  1.00  0.00    -0.388 OA
ATOM     15  H   UNL     1     160.228 175.630 150.786  1.00  0.00     0.211 HD
ENDBRANCH   1  14
TORSDOF 9
ENDMDL
MODEL 6
REMARK VINA RESULT:    -3.516     11.154     12.870
REMARK INTER + INTRA:          -5.243
REMARK INTER:                  -4.608
REMARK INTRA:                  -0.635
REMARK UNBOUND:                -0.390
REMARK SMILES OC[C@@H](O)[C@@H](O)[C@@H](O)CO
REMARK SMILES IDX 5 1 7 2 9 3 10 4 8 6 3 8 2 9 1 10 4 12 6 14
REMARK H PARENT 10 5 8 7 1 11 4 13 6 15
REMARK Flexibility Score: inf
ROOT
ATOM      1  C   UNL     1     174.614 160.894 151.849  1.00  0.00     0.176 C 
ENDROOT
BRANCH   1   2
ATOM      2  C   UNL     1     175.914 161.628 151.403  1.00  0.00     0.171 C 
BRANCH   2   3
ATOM      3  C   UNL     1     176.668 160.865 150.293  1.00  0.00     0.190 C 
BRANCH   3   4
ATOM      4  O   UNL     1     175.781 160.351 149.338  1.00  0.00    -0.394 OA
ATOM      5  H   UNL     1     174.883 160.337 149.760  1.00  0.00     0.210 HD
ENDBRANCH   3   4
ENDBRANCH   2   3
BRANCH   2   6
ATOM      6  O   UNL     1     176.775 161.832 152.496  1.00  0.00    -0.388 OA
ATOM      7  H   UNL     1     177.051 162.788 152.485  1.00  0.00     0.211 HD
ENDBRANCH   2   6
ENDBRANCH   1   2
BRANCH   1   8
ATOM      8  C   UNL     1     174.421 160.926 153.393  1.00  0.00     0.171 C 
BRANCH   8   9
ATOM      9  C   UNL     1     172.960 160.669 153.813  1.00  0.00     0.190 C 
BRANCH   9  10
ATOM     10  O   UNL     1     172.523 159.404 153.391  1.00  0.00    -0.394 OA
ATOM     11  H   UNL     1     172.577 158.802 154.179  1.00  0.00     0.210 HD
ENDBRANCH   9  10
ENDBRANCH   8   9
BRANCH   8  12
ATOM     12  O   UNL     1     175.274 160.015 154.043  1.00  0.00    -0.388 OA
ATOM     13  H   UNL     1     174.816 159.135 154.068  1.00  0.00     0.211 HD
ENDBRANCH   8  12
ENDBRANCH   1   8
BRANCH   1  14
ATOM     14  O   UNL     1     173.494 161.453 151.209  1.00  0.00    -0.388 OA
ATOM     15  H   UNL     1     173.241 162.274 151.709  1.00  0.00     0.211 HD
ENDBRANCH   1  14
TORSDOF 9
ENDMDL
MODEL 7
REMARK VINA RESULT:    -3.501      7.760      9.357
REMARK INTER + INTRA:          -5.222
REMARK INTER:                  -4.663
REMARK INTRA:                  -0.558
REMARK UNBOUND:                -0.390
REMARK SMILES OC[C@@H](O)[C@@H](O)[C@@H](O)CO
REMARK SMILES IDX 5 1 7 2 9 3 10 4 8 6 3 8 2 9 1 10 4 12 6 14
REMARK H PARENT 10 5 8 7 1 11 4 13 6 15
REMARK Flexibility Score: inf
ROOT
ATOM      1  C   UNL     1     175.928 161.598 155.412  1.00  0.00     0.176 C 
ENDROOT
BRANCH   1   2
ATOM      2  C   UNL     1     175.320 160.892 154.163  1.00  0.00     0.171 C 
BRANCH   2   3
ATOM      3  C   UNL     1     173.796 161.109 154.050  1.00  0.00     0.190 C 
BRANCH   3   4
ATOM      4  O   UNL     1     173.152 159.954 153.585  1.00  0.00    -0.394 OA
ATOM      5  H   UNL     1     173.169 159.997 152.593  1.00  0.00     0.210 HD
ENDBRANCH   3   4
ENDBRANCH   2   3
BRANCH   2   6
ATOM      6  O   UNL     1     175.595 159.513 154.182  1.00  0.00    -0.388 OA
ATOM      7  H   UNL     1     176.006 159.278 153.307  1.00  0.00     0.211 HD
ENDBRANCH   2   6
ENDBRANCH   1   2
BRANCH   1   8
ATOM      8  C   UNL     1     175.741 160.760 156.710  1.00  0.00     0.171 C 
BRANCH   8   9
ATOM      9  C   UNL     1     177.071 160.190 157.244  1.00  0.00     0.190 C 
BRANCH   9  10
ATOM     10  O   UNL     1     177.538 159.143 156.436  1.00  0.00    -0.394 OA
ATOM     11  H   UNL     1     178.232 158.663 156.959  1.00  0.00     0.210 HD
ENDBRANCH   9  10
ENDBRANCH   8   9
BRANCH   8  12
ATOM     12  O   UNL     1     175.097 161.500 157.719  1.00  0.00    -0.388 OA
ATOM     13  H   UNL     1     174.435 162.095 157.282  1.00  0.00     0.211 HD
ENDBRANCH   8  12
ENDBRANCH   1   8
BRANCH   1  14
ATOM     14  O   UNL     1     177.292 161.871 155.203  1.00  0.00    -0.388 OA
ATOM     15  H   UNL     1     177.812 161.131 155.615  1.00  0.00     0.211 HD
ENDBRANCH   1  14
TORSDOF 9
ENDMDL
MODEL 8
REMARK VINA RESULT:    -3.474      1.408      2.067
REMARK INTER + INTRA:          -5.184
REMARK INTER:                  -4.373
REMARK INTRA:                  -0.811
REMARK UNBOUND:                -0.390
REMARK SMILES OC[C@@H](O)[C@@H](O)[C@@H](O)CO
REMARK SMILES IDX 5 1 7 2 9 3 10 4 8 6 3 8 2 9 1 10 4 12 6 14
REMARK H PARENT 10 5 8 7 1 11 4 13 6 15
REMARK Flexibility Score: inf
ROOT
ATOM      1  C   UNL     1     176.264 159.393 163.537  1.00  0.00     0.176 C 
ENDROOT
BRANCH   1   2
ATOM      2  C   UNL     1     176.114 160.922 163.795  1.00  0.00     0.171 C 
BRANCH   2   3
ATOM      3  C   UNL     1     174.648 161.335 164.040  1.00  0.00     0.190 C 
BRANCH   3   4
ATOM      4  O   UNL     1     174.207 160.924 165.306  1.00  0.00    -0.394 OA
ATOM      5  H   UNL     1     174.218 161.729 165.887  1.00  0.00     0.210 HD
ENDBRANCH   3   4
ENDBRANCH   2   3
BRANCH   2   6
ATOM      6  O   UNL     1     176.636 161.666 162.723  1.00  0.00    -0.388 OA
ATOM      7  H   UNL     1     177.480 162.091 163.035  1.00  0.00     0.211 HD
ENDBRANCH   2   6
ENDBRANCH   1   2
BRANCH   1   8
ATOM      8  C   UNL     1     177.126 158.693 164.628  1.00  0.00     0.171 C 
BRANCH   8   9
ATOM      9  C   UNL     1     176.275 157.875 165.620  1.00  0.00     0.190 C 
BRANCH   9  10
ATOM     10  O   UNL     1     175.605 158.710 166.527  1.00  0.00    -0.394 OA
ATOM     11  H   UNL     1     176.004 158.544 167.421  1.00  0.00     0.210 HD
ENDBRANCH   9  10
ENDBRANCH   8   9
BRANCH   8  12
ATOM     12  O   UNL     1     178.119 157.875 164.060  1.00  0.00    -0.388 OA
ATOM     13  H   UNL     1     177.822 157.625 163.147  1.00  0.00     0.211 HD
ENDBRANCH   8  12
ENDBRANCH   1   8
BRANCH   1  14
ATOM     14  O   UNL     1     174.998 158.785 163.455  1.00  0.00    -0.388 OA
ATOM     15  H   UNL     1     174.341 159.405 163.867  1.00  0.00     0.211 HD
ENDBRANCH   1  14
TORSDOF 9
ENDMDL
MODEL 9
REMARK VINA RESULT:    -2.319      1.278      3.882
REMARK INTER + INTRA:          -3.591
REMARK INTER:                  -2.861
REMARK INTRA:                  -0.730
REMARK UNBOUND:                -0.390
REMARK SMILES OC[C@@H](O)[C@@H](O)[C@@H](O)CO
REMARK SMILES IDX 5 1 7 2 9 3 10 4 8 6 3 8 2 9 1 10 4 12 6 14
REMARK H PARENT 10 5 8 7 1 11 4 13 6 15
REMARK Flexibility Score: inf
ROOT
ATOM      1  C   UNL     1     176.544 159.696 164.967  1.00  0.00     0.176 C 
ENDROOT
BRANCH   1   2
ATOM      2  C   UNL     1     177.091 158.272 165.279  1.00  0.00     0.171 C 
BRANCH   2   3
ATOM      3  C   UNL     1     177.717 158.179 166.687  1.00  0.00     0.190 C 
BRANCH   3   4
ATOM      4  O   UNL     1     176.749 157.875 167.654  1.00  0.00    -0.394 OA
ATOM      5  H   UNL     1     176.038 158.564 167.573  1.00  0.00     0.210 HD
ENDBRANCH   3   4
ENDBRANCH   2   3
BRANCH   2   6
ATOM      6  O   UNL     1     178.040 157.876 164.320  1.00  0.00    -0.388 OA
ATOM      7  H   UNL     1     178.942 158.064 164.696  1.00  0.00     0.211 HD
ENDBRANCH   2   6
ENDBRANCH   1   2
BRANCH   1   8
ATOM      8  C   UNL     1     175.639 159.715 163.700  1.00  0.00     0.171 C 
BRANCH   8   9
ATOM      9  C   UNL     1     176.328 160.375 162.489  1.00  0.00     0.190 C 
BRANCH   9  10
ATOM     10  O   UNL     1     177.611 159.846 162.281  1.00  0.00    -0.394 OA
ATOM     11  H   UNL     1     177.768 159.178 162.998  1.00  0.00     0.210 HD
ENDBRANCH   9  10
ENDBRANCH   8   9
BRANCH   8  12
ATOM     12  O   UNL     1     175.200 158.423 163.356  1.00  0.00    -0.388 OA
ATOM     13  H   UNL     1     174.746 158.036 164.149  1.00  0.00     0.211 HD
ENDBRANCH   8  12
ENDBRANCH   1   8
BRANCH   1  14
ATOM     14  O   UNL     1     175.838 160.203 166.073  1.00  0.00    -0.388 OA
ATOM     15  H   UNL     1     176.138 161.139 166.216  1.00  0.00     0.211 HD
ENDBRANCH   1  14
TORSDOF 9
ENDMDL
