MODEL 1
REMARK VINA RESULT:    -4.028      0.000      0.000
REMARK INTER + INTRA:          -5.149
REMARK INTER:                  -4.970
REMARK INTRA:                  -0.180
REMARK UNBOUND:                -0.180
REMARK SMILES COC(=O)c1ccccc1C(=O)OC
REMARK SMILES IDX 5 1 6 2 7 3 8 4 9 5 10 6 3 7 4 8 2 9 1 10 11 11 12 12 13 13
REMARK SMILES IDX 14 14
REMARK H PARENT
REMARK Flexibility Score: inf
ROOT
ATOM      1  C   UNL     1       8.173 -33.402  16.158  1.00  0.00     0.074 A 
ATOM      2  C   UNL     1       9.023 -32.657  15.320  1.00  0.00     0.016 A 
ATOM      3  C   UNL     1       9.675 -33.262  14.245  1.00  0.00     0.001 A 
ATOM      4  C   UNL     1       9.488 -34.618  13.988  1.00  0.00     0.001 A 
ATOM      5  C   UNL     1       8.666 -35.381  14.819  1.00  0.00     0.016 A 
ATOM      6  C   UNL     1       8.017 -34.797  15.922  1.00  0.00     0.074 A 
ENDROOT
BRANCH   1   7
ATOM      7  C   UNL     1       7.426 -32.674  17.209  1.00  0.00     0.338 C 
ATOM      8  O   UNL     1       6.291 -32.184  16.961  1.00  0.00    -0.246 OA
BRANCH   7   9
ATOM      9  O   UNL     1       8.014 -32.481  18.464  1.00  0.00    -0.465 OA
ATOM     10  C   UNL     1       9.207 -31.727  18.644  1.00  0.00     0.282 C 
ENDBRANCH   7   9
ENDBRANCH   1   7
BRANCH   6  11
ATOM     11  C   UNL     1       7.253 -35.688  16.825  1.00  0.00     0.338 C 
ATOM     12  O   UNL     1       7.674 -35.928  17.990  1.00  0.00    -0.246 OA
BRANCH  11  13
ATOM     13  O   UNL     1       6.090 -36.309  16.358  1.00  0.00    -0.465 OA
ATOM     14  C   UNL     1       5.932 -37.722  16.333  1.00  0.00     0.282 C 
ENDBRANCH  11  13
ENDBRANCH   6  11
TORSDOF 4
ENDMDL
MODEL 2
REMARK VINA RESULT:    -3.986      0.138      4.020
REMARK INTER + INTRA:          -5.097
REMARK INTER:                  -4.904
REMARK INTRA:                  -0.194
REMARK UNBOUND:                -0.180
REMARK SMILES COC(=O)c1ccccc1C(=O)OC
REMARK SMILES IDX 5 1 6 2 7 3 8 4 9 5 10 6 3 7 4 8 2 9 1 10 11 11 12 12 13 13
REMARK SMILES IDX 14 14
REMARK H PARENT
REMARK Flexibility Score: inf
ROOT
ATOM      1  C   UNL     1       8.007 -34.719  15.850  1.00  0.00     0.074 A 
ATOM      2  C   UNL     1       8.620 -35.278  14.714  1.00  0.00     0.016 A 
ATOM      3  C   UNL     1       9.433 -34.503  13.886  1.00  0.00     0.001 A 
ATOM      4  C   UNL     1       9.648 -33.159  14.180  1.00  0.00     0.001 A 
ATOM      5  C   UNL     1       9.032 -32.577  15.289  1.00  0.00     0.016 A 
ATOM      6  C   UNL     1       8.190 -33.334  16.124  1.00  0.00     0.074 A 
ENDROOT
BRANCH   1   7
ATOM      7  C   UNL     1       7.251 -35.625  16.745  1.00  0.00     0.338 C 
ATOM      8  O   UNL     1       7.711 -35.930  17.879  1.00  0.00    -0.246 OA
BRANCH   7   9
ATOM      9  O   UNL     1       6.050 -36.188  16.301  1.00  0.00    -0.465 OA
ATOM     10  C   UNL     1       5.903 -37.581  16.049  1.00  0.00     0.282 C 
ENDBRANCH   7   9
ENDBRANCH   1   7
BRANCH   6  11
ATOM     11  C   UNL     1       7.481 -32.627  17.215  1.00  0.00     0.338 C 
ATOM     12  O   UNL     1       6.346 -32.115  17.010  1.00  0.00    -0.246 OA
BRANCH  11  13
ATOM     13  O   UNL     1       8.104 -32.478  18.459  1.00  0.00    -0.465 OA
ATOM     14  C   UNL     1       9.290 -31.714  18.636  1.00  0.00     0.282 C 
ENDBRANCH  11  13
ENDBRANCH   6  11
TORSDOF 4
ENDMDL
MODEL 3
REMARK VINA RESULT:    -3.925      1.912      3.698
REMARK INTER + INTRA:          -5.023
REMARK INTER:                  -4.779
REMARK INTRA:                  -0.243
REMARK UNBOUND:                -0.180
REMARK SMILES COC(=O)c1ccccc1C(=O)OC
REMARK SMILES IDX 5 1 6 2 7 3 8 4 9 5 10 6 3 7 4 8 2 9 1 10 11 11 12 12 13 13
REMARK SMILES IDX 14 14
REMARK H PARENT
REMARK Flexibility Score: inf
ROOT
ATOM      1  C   UNL     1       7.390 -34.119  16.173  1.00  0.00     0.074 A 
ATOM      2  C   UNL     1       6.747 -35.218  16.772  1.00  0.00     0.016 A 
ATOM      3  C   UNL     1       6.636 -36.435  16.099  1.00  0.00     0.001 A 
ATOM      4  C   UNL     1       7.166 -36.576  14.819  1.00  0.00     0.001 A 
ATOM      5  C   UNL     1       7.789 -35.493  14.196  1.00  0.00     0.016 A 
ATOM      6  C   UNL     1       7.892 -34.250  14.847  1.00  0.00     0.074 A 
ENDROOT
BRANCH   1   7
ATOM      7  C   UNL     1       7.572 -32.896  16.987  1.00  0.00     0.338 C 
ATOM      8  O   UNL     1       6.597 -32.127  17.208  1.00  0.00    -0.246 OA
BRANCH   7   9
ATOM      9  O   UNL     1       8.847 -32.567  17.461  1.00  0.00    -0.465 OA
ATOM     10  C   UNL     1       9.051 -31.739  18.600  1.00  0.00     0.282 C 
ENDBRANCH   7   9
ENDBRANCH   1   7
BRANCH   6  11
ATOM     11  C   UNL     1       8.462 -33.116  14.085  1.00  0.00     0.338 C 
ATOM     12  O   UNL     1       7.779 -32.537  13.197  1.00  0.00    -0.246 OA
BRANCH  11  13
ATOM     13  O   UNL     1       9.786 -32.728  14.316  1.00  0.00    -0.465 OA
ATOM     14  C   UNL     1      10.752 -32.642  13.275  1.00  0.00     0.282 C 
ENDBRANCH  11  13
ENDBRANCH   6  11
TORSDOF 4
ENDMDL
MODEL 4
REMARK VINA RESULT:    -3.918      1.870      4.083
REMARK INTER + INTRA:          -5.014
REMARK INTER:                  -4.777
REMARK INTRA:                  -0.237
REMARK UNBOUND:                -0.180
REMARK SMILES COC(=O)c1ccccc1C(=O)OC
REMARK SMILES IDX 5 1 6 2 7 3 8 4 9 5 10 6 3 7 4 8 2 9 1 10 11 11 12 12 13 13
REMARK SMILES IDX 14 14
REMARK H PARENT
REMARK Flexibility Score: inf
ROOT
ATOM      1  C   UNL     1       7.864 -34.258  14.987  1.00  0.00     0.074 A 
ATOM      2  C   UNL     1       7.751 -35.508  14.351  1.00  0.00     0.016 A 
ATOM      3  C   UNL     1       7.137 -36.584  14.994  1.00  0.00     0.001 A 
ATOM      4  C   UNL     1       6.625 -36.429  16.279  1.00  0.00     0.001 A 
ATOM      5  C   UNL     1       6.745 -35.204  16.938  1.00  0.00     0.016 A 
ATOM      6  C   UNL     1       7.380 -34.113  16.318  1.00  0.00     0.074 A 
ENDROOT
BRANCH   1   7
ATOM      7  C   UNL     1       8.423 -33.132  14.204  1.00  0.00     0.338 C 
ATOM      8  O   UNL     1       7.709 -32.525  13.361  1.00  0.00    -0.246 OA
BRANCH   7   9
ATOM      9  O   UNL     1       9.768 -32.783  14.365  1.00  0.00    -0.465 OA
ATOM     10  C   UNL     1      10.681 -32.726  13.275  1.00  0.00     0.282 C 
ENDBRANCH   7   9
ENDBRANCH   1   7
BRANCH   6  11
ATOM     11  C   UNL     1       7.574 -32.880  17.116  1.00  0.00     0.338 C 
ATOM     12  O   UNL     1       6.591 -32.140  17.393  1.00  0.00    -0.246 OA
BRANCH  11  13
ATOM     13  O   UNL     1       8.864 -32.511  17.511  1.00  0.00    -0.465 OA
ATOM     14  C   UNL     1       9.113 -31.702  18.653  1.00  0.00     0.282 C 
ENDBRANCH  11  13
ENDBRANCH   6  11
TORSDOF 4
ENDMDL
MODEL 5
REMARK VINA RESULT:    -3.714      2.392      3.566
REMARK INTER + INTRA:          -4.762
REMARK INTER:                  -4.381
REMARK INTRA:                  -0.381
REMARK UNBOUND:                -0.180
REMARK SMILES COC(=O)c1ccccc1C(=O)OC
REMARK SMILES IDX 5 1 6 2 7 3 8 4 9 5 10 6 3 7 4 8 2 9 1 10 11 11 12 12 13 13
REMARK SMILES IDX 14 14
REMARK H PARENT
REMARK Flexibility Score: inf
ROOT
ATOM      1  C   UNL     1       8.188 -33.371  15.595  1.00  0.00     0.074 A 
ATOM      2  C   UNL     1       8.415 -32.444  16.629  1.00  0.00     0.016 A 
ATOM      3  C   UNL     1       8.016 -32.720  17.937  1.00  0.00     0.001 A 
ATOM      4  C   UNL     1       7.385 -33.925  18.235  1.00  0.00     0.001 A 
ATOM      5  C   UNL     1       7.129 -34.850  17.222  1.00  0.00     0.016 A 
ATOM      6  C   UNL     1       7.503 -34.583  15.892  1.00  0.00     0.074 A 
ENDROOT
BRANCH   1   7
ATOM      7  C   UNL     1       8.738 -33.063  14.256  1.00  0.00     0.338 C 
ATOM      8  O   UNL     1       8.003 -32.555  13.366  1.00  0.00    -0.246 OA
BRANCH   7   9
ATOM      9  O   UNL     1      10.066 -33.393  13.965  1.00  0.00    -0.465 OA
ATOM     10  C   UNL     1      11.016 -32.431  13.520  1.00  0.00     0.282 C 
ENDBRANCH   7   9
ENDBRANCH   1   7
BRANCH   6  11
ATOM     11  C   UNL     1       7.099 -35.557  14.852  1.00  0.00     0.338 C 
ATOM     12  O   UNL     1       5.946 -35.505  14.343  1.00  0.00    -0.246 OA
BRANCH  11  13
ATOM     13  O   UNL     1       7.986 -36.573  14.479  1.00  0.00    -0.465 OA
ATOM     14  C   UNL     1       8.502 -36.694  13.159  1.00  0.00     0.282 C 
ENDBRANCH  11  13
ENDBRANCH   6  11
TORSDOF 4
ENDMDL
MODEL 6
REMARK VINA RESULT:    -3.708      2.515      4.895
REMARK INTER + INTRA:          -4.755
REMARK INTER:                  -4.476
REMARK INTRA:                  -0.279
REMARK UNBOUND:                -0.180
REMARK SMILES COC(=O)c1ccccc1C(=O)OC
REMARK SMILES IDX 5 1 6 2 7 3 8 4 9 5 10 6 3 7 4 8 2 9 1 10 11 11 12 12 13 13
REMARK SMILES IDX 14 14
REMARK H PARENT
REMARK Flexibility Score: inf
ROOT
ATOM      1  C   UNL     1       7.630 -34.629  15.546  1.00  0.00     0.074 A 
ATOM      2  C   UNL     1       7.196 -35.066  16.812  1.00  0.00     0.016 A 
ATOM      3  C   UNL     1       7.339 -34.252  17.936  1.00  0.00     0.001 A 
ATOM      4  C   UNL     1       7.914 -32.990  17.816  1.00  0.00     0.001 A 
ATOM      5  C   UNL     1       8.371 -32.544  16.575  1.00  0.00     0.016 A 
ATOM      6  C   UNL     1       8.258 -33.357  15.432  1.00  0.00     0.074 A 
ENDROOT
BRANCH   1   7
ATOM      7  C   UNL     1       7.345 -35.495  14.380  1.00  0.00     0.338 C 
ATOM      8  O   UNL     1       6.341 -35.271  13.650  1.00  0.00    -0.246 OA
BRANCH   7   9
ATOM      9  O   UNL     1       8.163 -36.602  14.128  1.00  0.00    -0.465 OA
ATOM     10  C   UNL     1       9.297 -36.537  13.270  1.00  0.00     0.282 C 
ENDBRANCH   7   9
ENDBRANCH   1   7
BRANCH   6  11
ATOM     11  C   UNL     1       8.867 -32.868  14.173  1.00  0.00     0.338 C 
ATOM     12  O   UNL     1       8.137 -32.544  13.197  1.00  0.00    -0.246 OA
BRANCH  11  13
ATOM     13  O   UNL     1      10.260 -32.824  14.053  1.00  0.00    -0.465 OA
ATOM     14  C   UNL     1      10.941 -33.238  12.876  1.00  0.00     0.282 C 
ENDBRANCH  11  13
ENDBRANCH   6  11
TORSDOF 4
ENDMDL
MODEL 7
REMARK VINA RESULT:    -3.576      1.857      3.941
REMARK INTER + INTRA:          -4.592
REMARK INTER:                  -4.234
REMARK INTRA:                  -0.357
REMARK UNBOUND:                -0.180
REMARK SMILES COC(=O)c1ccccc1C(=O)OC
REMARK SMILES IDX 5 1 6 2 7 3 8 4 9 5 10 6 3 7 4 8 2 9 1 10 11 11 12 12 13 13
REMARK SMILES IDX 14 14
REMARK H PARENT
REMARK Flexibility Score: inf
ROOT
ATOM      1  C   UNL     1       8.054 -32.895  17.131  1.00  0.00     0.074 A 
ATOM      2  C   UNL     1       8.188 -32.381  18.434  1.00  0.00     0.016 A 
ATOM      3  C   UNL     1       9.197 -31.468  18.742  1.00  0.00     0.001 A 
ATOM      4  C   UNL     1      10.086 -31.051  17.754  1.00  0.00     0.001 A 
ATOM      5  C   UNL     1       9.986 -31.564  16.460  1.00  0.00     0.016 A 
ATOM      6  C   UNL     1       8.991 -32.503  16.133  1.00  0.00     0.074 A 
ENDROOT
BRANCH   1   7
ATOM      7  C   UNL     1       6.894 -33.771  16.848  1.00  0.00     0.338 C 
ATOM      8  O   UNL     1       5.901 -33.327  16.210  1.00  0.00    -0.246 OA
BRANCH   7   9
ATOM      9  O   UNL     1       6.882 -35.078  17.345  1.00  0.00    -0.465 OA
ATOM     10  C   UNL     1       6.647 -36.211  16.517  1.00  0.00     0.282 C 
ENDBRANCH   7   9
ENDBRANCH   1   7
BRANCH   6  11
ATOM     11  C   UNL     1       9.014 -33.090  14.773  1.00  0.00     0.338 C 
ATOM     12  O   UNL     1       8.419 -32.515  13.821  1.00  0.00    -0.246 OA
BRANCH  11  13
ATOM     13  O   UNL     1       9.651 -34.317  14.564  1.00  0.00    -0.465 OA
ATOM     14  C   UNL     1       9.075 -35.357  13.784  1.00  0.00     0.282 C 
ENDBRANCH  11  13
ENDBRANCH   6  11
TORSDOF 4
ENDMDL
MODEL 8
REMARK VINA RESULT:    -3.512      1.999      4.339
REMARK INTER + INTRA:          -4.513
REMARK INTER:                  -4.279
REMARK INTRA:                  -0.234
REMARK UNBOUND:                -0.180
REMARK SMILES COC(=O)c1ccccc1C(=O)OC
REMARK SMILES IDX 5 1 6 2 7 3 8 4 9 5 10 6 3 7 4 8 2 9 1 10 11 11 12 12 13 13
REMARK SMILES IDX 14 14
REMARK H PARENT
REMARK Flexibility Score: inf
ROOT
ATOM      1  C   UNL     1       9.236 -35.134  13.783  1.00  0.00     0.074 A 
ATOM      2  C   UNL     1      10.467 -35.681  13.376  1.00  0.00     0.016 A 
ATOM      3  C   UNL     1      11.508 -34.858  12.946  1.00  0.00     0.001 A 
ATOM      4  C   UNL     1      11.338 -33.476  12.916  1.00  0.00     0.001 A 
ATOM      5  C   UNL     1      10.118 -32.912  13.294  1.00  0.00     0.016 A 
ATOM      6  C   UNL     1       9.048 -33.725  13.709  1.00  0.00     0.074 A 
ENDROOT
BRANCH   1   7
ATOM      7  C   UNL     1       8.218 -36.056  14.334  1.00  0.00     0.338 C 
ATOM      8  O   UNL     1       7.691 -36.936  13.600  1.00  0.00    -0.246 OA
BRANCH   7   9
ATOM      9  O   UNL     1       7.800 -35.907  15.661  1.00  0.00    -0.465 OA
ATOM     10  C   UNL     1       6.477 -36.213  16.088  1.00  0.00     0.282 C 
ENDBRANCH   7   9
ENDBRANCH   1   7
BRANCH   6  11
ATOM     11  C   UNL     1       7.749 -33.070  13.986  1.00  0.00     0.338 C 
ATOM     12  O   UNL     1       6.940 -32.834  13.046  1.00  0.00    -0.246 OA
BRANCH  11  13
ATOM     13  O   UNL     1       7.449 -32.659  15.289  1.00  0.00    -0.465 OA
ATOM     14  C   UNL     1       8.412 -32.663  16.335  1.00  0.00     0.282 C 
ENDBRANCH  11  13
ENDBRANCH   6  11
TORSDOF 4
ENDMDL
MODEL 9
REMARK VINA RESULT:    -3.332      1.575      2.220
REMARK INTER + INTRA:          -4.291
REMARK INTER:                  -3.893
REMARK INTRA:                  -0.398
REMARK UNBOUND:                -0.180
REMARK SMILES COC(=O)c1ccccc1C(=O)OC
REMARK SMILES IDX 5 1 6 2 7 3 8 4 9 5 10 6 3 7 4 8 2 9 1 10 11 11 12 12 13 13
REMARK SMILES IDX 14 14
REMARK H PARENT
REMARK Flexibility Score: inf
ROOT
ATOM      1  C   UNL     1       8.495 -33.346  15.185  1.00  0.00     0.074 A 
ATOM      2  C   UNL     1       9.621 -32.507  15.094  1.00  0.00     0.016 A 
ATOM      3  C   UNL     1      10.417 -32.501  13.949  1.00  0.00     0.001 A 
ATOM      4  C   UNL     1      10.102 -33.331  12.875  1.00  0.00     0.001 A 
ATOM      5  C   UNL     1       9.003 -34.186  12.951  1.00  0.00     0.016 A 
ATOM      6  C   UNL     1       8.199 -34.225  14.105  1.00  0.00     0.074 A 
ENDROOT
BRANCH   1   7
ATOM      7  C   UNL     1       7.631 -33.218  16.381  1.00  0.00     0.338 C 
ATOM      8  O   UNL     1       6.595 -32.499  16.345  1.00  0.00    -0.246 OA
BRANCH   7   9
ATOM      9  O   UNL     1       8.004 -33.852  17.571  1.00  0.00    -0.465 OA
ATOM     10  C   UNL     1       7.357 -35.026  18.049  1.00  0.00     0.282 C 
ENDBRANCH   7   9
ENDBRANCH   1   7
BRANCH   6  11
ATOM     11  C   UNL     1       7.119 -35.237  14.162  1.00  0.00     0.338 C 
ATOM     12  O   UNL     1       5.985 -34.987  13.670  1.00  0.00    -0.246 OA
BRANCH  11  13
ATOM     13  O   UNL     1       7.346 -36.451  14.819  1.00  0.00    -0.465 OA
ATOM     14  C   UNL     1       6.299 -37.358  15.138  1.00  0.00     0.282 C 
ENDBRANCH  11  13
ENDBRANCH   6  11
TORSDOF 4
ENDMDL
