MODEL 1
REMARK VINA RESULT:    -7.572      0.000      0.000
REMARK INTER + INTRA:          -9.979
REMARK INTER:                  -9.564
REMARK INTRA:                  -0.415
REMARK UNBOUND:                -0.415
REMARK SMILES Oc1cc(O)cc(CCc2ccccc2O)c1
REMARK SMILES IDX 9 1 10 2 12 3 13 4 11 5 14 6 15 7 16 8 8 10 7 11 6 12 17 13
REMARK SMILES IDX 4 14 2 15 3 16 5 17 1 19
REMARK H PARENT 16 9 5 18 1 20
REMARK Flexibility Score: inf
ROOT
ATOM      1  C   UNL     1      -7.023  -4.643  14.753  1.00  0.00     0.044 C 
ENDROOT
BRANCH   1   2
ATOM      2  C   UNL     1      -7.029  -5.641  15.883  1.00  0.00    -0.006 A 
ATOM      3  C   UNL     1      -5.861  -7.325  17.193  1.00  0.00     0.001 A 
ATOM      4  C   UNL     1      -6.978  -7.461  18.022  1.00  0.00     0.004 A 
ATOM      5  C   UNL     1      -5.884  -6.417  16.132  1.00  0.00     0.007 A 
ATOM      6  C   UNL     1      -8.116  -6.684  17.795  1.00  0.00     0.046 A 
ATOM      7  C   UNL     1      -8.148  -5.770  16.732  1.00  0.00     0.118 A 
BRANCH   7   8
ATOM      8  O   UNL     1      -9.283  -4.988  16.519  1.00  0.00    -0.508 OA
ATOM      9  H   UNL     1      -9.302  -4.003  16.757  1.00  0.00     0.293 HD
ENDBRANCH   7   8
ENDBRANCH   1   2
BRANCH   1  10
ATOM     10  C   UNL     1      -5.587  -4.271  14.372  1.00  0.00     0.040 C 
BRANCH  10  11
ATOM     11  C   UNL     1      -5.559  -2.957  13.636  1.00  0.00    -0.040 A 
ATOM     12  C   UNL     1      -4.716  -1.922  14.070  1.00  0.00     0.050 A 
ATOM     13  C   UNL     1      -6.418  -2.739  12.547  1.00  0.00     0.050 A 
ATOM     14  C   UNL     1      -4.713  -0.689  13.407  1.00  0.00     0.119 A 
ATOM     15  C   UNL     1      -6.416  -1.505  11.882  1.00  0.00     0.119 A 
ATOM     16  C   UNL     1      -5.562  -0.484  12.311  1.00  0.00     0.092 A 
BRANCH  14  17
ATOM     17  O   UNL     1      -3.864   0.324  13.847  1.00  0.00    -0.508 OA
ATOM     18  H   UNL     1      -3.583   0.395  14.818  1.00  0.00     0.293 HD
ENDBRANCH  14  17
BRANCH  15  19
ATOM     19  O   UNL     1      -7.260  -1.282  10.795  1.00  0.00    -0.508 OA
ATOM     20  H   UNL     1      -6.933  -1.385   9.842  1.00  0.00     0.293 HD
ENDBRANCH  15  19
ENDBRANCH  10  11
ENDBRANCH   1  10
TORSDOF 6
ENDMDL
MODEL 2
REMARK VINA RESULT:    -7.518      0.056      2.035
REMARK INTER + INTRA:          -9.911
REMARK INTER:                  -9.503
REMARK INTRA:                  -0.408
REMARK UNBOUND:                -0.415
REMARK SMILES Oc1cc(O)cc(CCc2ccccc2O)c1
REMARK SMILES IDX 9 1 10 2 12 3 13 4 11 5 14 6 15 7 16 8 8 10 7 11 6 12 17 13
REMARK SMILES IDX 4 14 2 15 3 16 5 17 1 19
REMARK H PARENT 16 9 5 18 1 20
REMARK Flexibility Score: inf
ROOT
ATOM      1  C   UNL     1      -7.046  -4.674  14.723  1.00  0.00     0.044 C 
ENDROOT
BRANCH   1   2
ATOM      2  C   UNL     1      -7.055  -5.651  15.872  1.00  0.00    -0.006 A 
ATOM      3  C   UNL     1      -5.896  -7.323  17.206  1.00  0.00     0.001 A 
ATOM      4  C   UNL     1      -7.007  -7.431  18.045  1.00  0.00     0.004 A 
ATOM      5  C   UNL     1      -5.916  -6.434  16.127  1.00  0.00     0.007 A 
ATOM      6  C   UNL     1      -8.139  -6.647  17.811  1.00  0.00     0.046 A 
ATOM      7  C   UNL     1      -8.169  -5.752  16.731  1.00  0.00     0.118 A 
BRANCH   7   8
ATOM      8  O   UNL     1      -9.297  -4.962  16.511  1.00  0.00    -0.508 OA
ATOM      9  H   UNL     1      -9.220  -3.989  16.239  1.00  0.00     0.293 HD
ENDBRANCH   7   8
ENDBRANCH   1   2
BRANCH   1  10
ATOM     10  C   UNL     1      -5.611  -4.278  14.365  1.00  0.00     0.040 C 
BRANCH  10  11
ATOM     11  C   UNL     1      -5.591  -2.952  13.652  1.00  0.00    -0.040 A 
ATOM     12  C   UNL     1      -6.432  -2.731  12.549  1.00  0.00     0.050 A 
ATOM     13  C   UNL     1      -4.692  -1.949  14.046  1.00  0.00     0.050 A 
ATOM     14  C   UNL     1      -6.392  -1.511  11.864  1.00  0.00     0.119 A 
ATOM     15  C   UNL     1      -4.650  -0.727  13.361  1.00  0.00     0.119 A 
ATOM     16  C   UNL     1      -5.502  -0.509  12.273  1.00  0.00     0.092 A 
BRANCH  14  17
ATOM     17  O   UNL     1      -7.239  -1.307  10.776  1.00  0.00    -0.508 OA
ATOM     18  H   UNL     1      -7.470  -2.058  10.137  1.00  0.00     0.293 HD
ENDBRANCH  14  17
BRANCH  15  19
ATOM     19  O   UNL     1      -3.765   0.277  13.751  1.00  0.00    -0.508 OA
ATOM     20  H   UNL     1      -2.852   0.371  13.325  1.00  0.00     0.293 HD
ENDBRANCH  15  19
ENDBRANCH  10  11
ENDBRANCH   1  10
TORSDOF 6
ENDMDL
MODEL 3
REMARK VINA RESULT:    -7.487      1.817      2.412
REMARK INTER + INTRA:          -9.871
REMARK INTER:                  -9.389
REMARK INTRA:                  -0.482
REMARK UNBOUND:                -0.415
REMARK SMILES Oc1cc(O)cc(CCc2ccccc2O)c1
REMARK SMILES IDX 9 1 10 2 12 3 13 4 11 5 14 6 15 7 16 8 8 10 7 11 6 12 17 13
REMARK SMILES IDX 4 14 2 15 3 16 5 17 1 19
REMARK H PARENT 16 9 5 18 1 20
REMARK Flexibility Score: inf
ROOT
ATOM      1  C   UNL     1      -7.057  -4.779  14.662  1.00  0.00     0.044 C 
ENDROOT
BRANCH   1   2
ATOM      2  C   UNL     1      -7.083  -5.748  15.817  1.00  0.00    -0.006 A 
ATOM      3  C   UNL     1      -5.976  -7.472  17.127  1.00  0.00     0.001 A 
ATOM      4  C   UNL     1      -7.067  -7.518  17.998  1.00  0.00     0.004 A 
ATOM      5  C   UNL     1      -5.980  -6.589  16.044  1.00  0.00     0.007 A 
ATOM      6  C   UNL     1      -8.162  -6.675  17.792  1.00  0.00     0.046 A 
ATOM      7  C   UNL     1      -8.176  -5.785  16.708  1.00  0.00     0.118 A 
BRANCH   7   8
ATOM      8  O   UNL     1      -9.267  -4.938  16.516  1.00  0.00    -0.508 OA
ATOM      9  H   UNL     1      -9.791  -4.563  17.297  1.00  0.00     0.293 HD
ENDBRANCH   7   8
ENDBRANCH   1   2
BRANCH   1  10
ATOM     10  C   UNL     1      -5.885  -3.803  14.805  1.00  0.00     0.040 C 
BRANCH  10  11
ATOM     11  C   UNL     1      -5.283  -3.499  13.459  1.00  0.00    -0.040 A 
ATOM     12  C   UNL     1      -5.940  -2.634  12.570  1.00  0.00     0.050 A 
ATOM     13  C   UNL     1      -4.091  -4.125  13.060  1.00  0.00     0.050 A 
ATOM     14  C   UNL     1      -5.399  -2.375  11.306  1.00  0.00     0.119 A 
ATOM     15  C   UNL     1      -3.547  -3.867  11.793  1.00  0.00     0.119 A 
ATOM     16  C   UNL     1      -4.200  -2.992  10.920  1.00  0.00     0.092 A 
BRANCH  14  17
ATOM     17  O   UNL     1      -6.061  -1.508  10.440  1.00  0.00    -0.508 OA
ATOM     18  H   UNL     1      -6.283  -1.776   9.488  1.00  0.00     0.293 HD
ENDBRANCH  14  17
BRANCH  15  19
ATOM     19  O   UNL     1      -2.360  -4.478  11.393  1.00  0.00    -0.508 OA
ATOM     20  H   UNL     1      -2.326  -5.460  11.152  1.00  0.00     0.293 HD
ENDBRANCH  15  19
ENDBRANCH  10  11
ENDBRANCH   1  10
TORSDOF 6
ENDMDL
MODEL 4
REMARK VINA RESULT:    -7.463      1.862      2.025
REMARK INTER + INTRA:          -9.842
REMARK INTER:                  -9.354
REMARK INTRA:                  -0.488
REMARK UNBOUND:                -0.415
REMARK SMILES Oc1cc(O)cc(CCc2ccccc2O)c1
REMARK SMILES IDX 9 1 10 2 12 3 13 4 11 5 14 6 15 7 16 8 8 10 7 11 6 12 17 13
REMARK SMILES IDX 4 14 2 15 3 16 5 17 1 19
REMARK H PARENT 16 9 5 18 1 20
REMARK Flexibility Score: inf
ROOT
ATOM      1  C   UNL     1      -7.063  -4.711  14.690  1.00  0.00     0.044 C 
ENDROOT
BRANCH   1   2
ATOM      2  C   UNL     1      -7.081  -5.683  15.843  1.00  0.00    -0.006 A 
ATOM      3  C   UNL     1      -5.944  -7.370  17.176  1.00  0.00     0.001 A 
ATOM      4  C   UNL     1      -7.051  -7.454  18.023  1.00  0.00     0.004 A 
ATOM      5  C   UNL     1      -5.955  -6.486  16.094  1.00  0.00     0.007 A 
ATOM      6  C   UNL     1      -8.170  -6.650  17.794  1.00  0.00     0.046 A 
ATOM      7  C   UNL     1      -8.191  -5.759  16.711  1.00  0.00     0.118 A 
BRANCH   7   8
ATOM      8  O   UNL     1      -9.305  -4.949  16.497  1.00  0.00    -0.508 OA
ATOM      9  H   UNL     1     -10.247  -5.288  16.656  1.00  0.00     0.293 HD
ENDBRANCH   7   8
ENDBRANCH   1   2
BRANCH   1  10
ATOM     10  C   UNL     1      -5.868  -3.761  14.807  1.00  0.00     0.040 C 
BRANCH  10  11
ATOM     11  C   UNL     1      -5.251  -3.520  13.455  1.00  0.00    -0.040 A 
ATOM     12  C   UNL     1      -4.066  -4.179  13.091  1.00  0.00     0.050 A 
ATOM     13  C   UNL     1      -5.823  -2.591  12.571  1.00  0.00     0.050 A 
ATOM     14  C   UNL     1      -3.473  -3.932  11.848  1.00  0.00     0.119 A 
ATOM     15  C   UNL     1      -5.231  -2.342  11.325  1.00  0.00     0.119 A 
ATOM     16  C   UNL     1      -4.058  -3.015  10.965  1.00  0.00     0.092 A 
BRANCH  14  17
ATOM     17  O   UNL     1      -2.300  -4.601  11.502  1.00  0.00    -0.508 OA
ATOM     18  H   UNL     1      -2.313  -5.413  10.896  1.00  0.00     0.293 HD
ENDBRANCH  14  17
BRANCH  15  19
ATOM     19  O   UNL     1      -5.797  -1.427  10.439  1.00  0.00    -0.508 OA
ATOM     20  H   UNL     1      -5.719  -1.545   9.437  1.00  0.00     0.293 HD
ENDBRANCH  15  19
ENDBRANCH  10  11
ENDBRANCH   1  10
TORSDOF 6
ENDMDL
MODEL 5
REMARK VINA RESULT:    -7.425      2.348      2.695
REMARK INTER + INTRA:          -9.793
REMARK INTER:                  -9.374
REMARK INTRA:                  -0.419
REMARK UNBOUND:                -0.415
REMARK SMILES Oc1cc(O)cc(CCc2ccccc2O)c1
REMARK SMILES IDX 9 1 10 2 12 3 13 4 11 5 14 6 15 7 16 8 8 10 7 11 6 12 17 13
REMARK SMILES IDX 4 14 2 15 3 16 5 17 1 19
REMARK H PARENT 16 9 5 18 1 20
REMARK Flexibility Score: inf
ROOT
ATOM      1  C   UNL     1      -5.636  -5.269  14.983  1.00  0.00     0.044 C 
ENDROOT
BRANCH   1   2
ATOM      2  C   UNL     1      -6.578  -5.773  16.047  1.00  0.00    -0.006 A 
ATOM      3  C   UNL     1      -7.979  -5.324  17.984  1.00  0.00     0.001 A 
ATOM      4  C   UNL     1      -8.390  -6.660  18.002  1.00  0.00     0.004 A 
ATOM      5  C   UNL     1      -7.082  -4.881  17.009  1.00  0.00     0.007 A 
ATOM      6  C   UNL     1      -7.909  -7.552  17.042  1.00  0.00     0.046 A 
ATOM      7  C   UNL     1      -7.008  -7.116  16.059  1.00  0.00     0.118 A 
BRANCH   7   8
ATOM      8  O   UNL     1      -6.542  -8.010  15.095  1.00  0.00    -0.508 OA
ATOM      9  H   UNL     1      -5.808  -8.677  15.300  1.00  0.00     0.293 HD
ENDBRANCH   7   8
ENDBRANCH   1   2
BRANCH   1  10
ATOM     10  C   UNL     1      -6.018  -3.849  14.556  1.00  0.00     0.040 C 
BRANCH  10  11
ATOM     11  C   UNL     1      -5.097  -3.358  13.470  1.00  0.00    -0.040 A 
ATOM     12  C   UNL     1      -5.263  -2.073  12.929  1.00  0.00     0.050 A 
ATOM     13  C   UNL     1      -4.103  -4.203  12.950  1.00  0.00     0.050 A 
ATOM     14  C   UNL     1      -4.429  -1.628  11.898  1.00  0.00     0.119 A 
ATOM     15  C   UNL     1      -3.267  -3.758  11.917  1.00  0.00     0.119 A 
ATOM     16  C   UNL     1      -3.430  -2.471  11.394  1.00  0.00     0.092 A 
BRANCH  14  17
ATOM     17  O   UNL     1      -4.605  -0.347  11.378  1.00  0.00    -0.508 OA
ATOM     18  H   UNL     1      -4.859   0.435  11.971  1.00  0.00     0.293 HD
ENDBRANCH  14  17
BRANCH  15  19
ATOM     19  O   UNL     1      -2.273  -4.588  11.400  1.00  0.00    -0.508 OA
ATOM     20  H   UNL     1      -1.292  -4.412  11.578  1.00  0.00     0.293 HD
ENDBRANCH  15  19
ENDBRANCH  10  11
ENDBRANCH   1  10
TORSDOF 6
ENDMDL
MODEL 6
REMARK VINA RESULT:    -7.405      2.355      2.685
REMARK INTER + INTRA:          -9.768
REMARK INTER:                  -9.350
REMARK INTRA:                  -0.418
REMARK UNBOUND:                -0.415
REMARK SMILES Oc1cc(O)cc(CCc2ccccc2O)c1
REMARK SMILES IDX 9 1 10 2 12 3 13 4 11 5 14 6 15 7 16 8 8 10 7 11 6 12 17 13
REMARK SMILES IDX 4 14 2 15 3 16 5 17 1 19
REMARK H PARENT 16 9 5 18 1 20
REMARK Flexibility Score: inf
ROOT
ATOM      1  C   UNL     1      -5.591  -5.265  14.996  1.00  0.00     0.044 C 
ENDROOT
BRANCH   1   2
ATOM      2  C   UNL     1      -6.546  -5.771  16.047  1.00  0.00    -0.006 A 
ATOM      3  C   UNL     1      -7.954  -5.329  17.981  1.00  0.00     0.001 A 
ATOM      4  C   UNL     1      -8.380  -6.659  17.981  1.00  0.00     0.004 A 
ATOM      5  C   UNL     1      -7.045  -4.885  17.017  1.00  0.00     0.007 A 
ATOM      6  C   UNL     1      -7.904  -7.546  17.012  1.00  0.00     0.046 A 
ATOM      7  C   UNL     1      -6.991  -7.109  16.040  1.00  0.00     0.118 A 
BRANCH   7   8
ATOM      8  O   UNL     1      -6.531  -7.997  15.068  1.00  0.00    -0.508 OA
ATOM      9  H   UNL     1      -6.669  -7.821  14.080  1.00  0.00     0.293 HD
ENDBRANCH   7   8
ENDBRANCH   1   2
BRANCH   1  10
ATOM     10  C   UNL     1      -5.995  -3.863  14.532  1.00  0.00     0.040 C 
BRANCH  10  11
ATOM     11  C   UNL     1      -5.082  -3.386  13.433  1.00  0.00    -0.040 A 
ATOM     12  C   UNL     1      -4.068  -4.225  12.944  1.00  0.00     0.050 A 
ATOM     13  C   UNL     1      -5.201  -2.080  12.932  1.00  0.00     0.050 A 
ATOM     14  C   UNL     1      -3.198  -3.772  11.945  1.00  0.00     0.119 A 
ATOM     15  C   UNL     1      -4.330  -1.625  11.932  1.00  0.00     0.119 A 
ATOM     16  C   UNL     1      -3.332  -2.472  11.439  1.00  0.00     0.092 A 
BRANCH  14  17
ATOM     17  O   UNL     1      -2.202  -4.620  11.467  1.00  0.00    -0.508 OA
ATOM     18  H   UNL     1      -2.050  -4.752  10.474  1.00  0.00     0.293 HD
ENDBRANCH  14  17
BRANCH  15  19
ATOM     19  O   UNL     1      -4.446  -0.332  11.424  1.00  0.00    -0.508 OA
ATOM     20  H   UNL     1      -4.238   0.480  11.991  1.00  0.00     0.293 HD
ENDBRANCH  15  19
ENDBRANCH  10  11
ENDBRANCH   1  10
TORSDOF 6
ENDMDL
MODEL 7
REMARK VINA RESULT:    -7.325      6.191      8.172
REMARK INTER + INTRA:          -9.668
REMARK INTER:                  -9.047
REMARK INTRA:                  -0.620
REMARK UNBOUND:                -0.415
REMARK SMILES Oc1cc(O)cc(CCc2ccccc2O)c1
REMARK SMILES IDX 9 1 10 2 12 3 13 4 11 5 14 6 15 7 16 8 8 10 7 11 6 12 17 13
REMARK SMILES IDX 4 14 2 15 3 16 5 17 1 19
REMARK H PARENT 16 9 5 18 1 20
REMARK Flexibility Score: inf
ROOT
ATOM      1  C   UNL     1      -2.617   0.664  11.649  1.00  0.00     0.044 C 
ENDROOT
BRANCH   1   2
ATOM      2  C   UNL     1      -4.102   0.796  11.875  1.00  0.00    -0.006 A 
ATOM      3  C   UNL     1      -6.321  -0.200  11.837  1.00  0.00     0.001 A 
ATOM      4  C   UNL     1      -6.865   0.980  12.348  1.00  0.00     0.004 A 
ATOM      5  C   UNL     1      -4.946  -0.295  11.605  1.00  0.00     0.007 A 
ATOM      6  C   UNL     1      -6.034   2.066  12.635  1.00  0.00     0.046 A 
ATOM      7  C   UNL     1      -4.653   1.980  12.406  1.00  0.00     0.118 A 
BRANCH   7   8
ATOM      8  O   UNL     1      -3.829   3.064  12.708  1.00  0.00    -0.508 OA
ATOM      9  H   UNL     1      -2.837   2.945  12.877  1.00  0.00     0.293 HD
ENDBRANCH   7   8
ENDBRANCH   1   2
BRANCH   1  10
ATOM     10  C   UNL     1      -2.332   0.126  10.244  1.00  0.00     0.040 C 
BRANCH  10  11
ATOM     11  C   UNL     1      -2.110   1.260   9.279  1.00  0.00    -0.040 A 
ATOM     12  C   UNL     1      -1.805   2.545   9.757  1.00  0.00     0.050 A 
ATOM     13  C   UNL     1      -2.263   1.055   7.899  1.00  0.00     0.050 A 
ATOM     14  C   UNL     1      -1.630   3.608   8.864  1.00  0.00     0.119 A 
ATOM     15  C   UNL     1      -2.088   2.118   7.002  1.00  0.00     0.119 A 
ATOM     16  C   UNL     1      -1.769   3.391   7.486  1.00  0.00     0.092 A 
BRANCH  14  17
ATOM     17  O   UNL     1      -1.320   4.874   9.356  1.00  0.00    -0.508 OA
ATOM     18  H   UNL     1      -2.043   5.515   9.660  1.00  0.00     0.293 HD
ENDBRANCH  14  17
BRANCH  15  19
ATOM     19  O   UNL     1      -2.231   1.921   5.630  1.00  0.00    -0.508 OA
ATOM     20  H   UNL     1      -3.094   1.573   5.233  1.00  0.00     0.293 HD
ENDBRANCH  15  19
ENDBRANCH  10  11
ENDBRANCH   1  10
TORSDOF 6
ENDMDL
MODEL 8
REMARK VINA RESULT:    -7.303      6.566      8.488
REMARK INTER + INTRA:          -9.640
REMARK INTER:                  -9.067
REMARK INTRA:                  -0.573
REMARK UNBOUND:                -0.415
REMARK SMILES Oc1cc(O)cc(CCc2ccccc2O)c1
REMARK SMILES IDX 9 1 10 2 12 3 13 4 11 5 14 6 15 7 16 8 8 10 7 11 6 12 17 13
REMARK SMILES IDX 4 14 2 15 3 16 5 17 1 19
REMARK H PARENT 16 9 5 18 1 20
REMARK Flexibility Score: inf
ROOT
ATOM      1  C   UNL     1      -3.168  -0.594  10.286  1.00  0.00     0.044 C 
ENDROOT
BRANCH   1   2
ATOM      2  C   UNL     1      -2.261  -0.935  11.442  1.00  0.00    -0.006 A 
ATOM      3  C   UNL     1      -1.923  -1.162  13.840  1.00  0.00     0.001 A 
ATOM      4  C   UNL     1      -0.624  -1.625  13.618  1.00  0.00     0.004 A 
ATOM      5  C   UNL     1      -2.740  -0.823  12.759  1.00  0.00     0.007 A 
ATOM      6  C   UNL     1      -0.141  -1.755  12.313  1.00  0.00     0.046 A 
ATOM      7  C   UNL     1      -0.954  -1.417  11.221  1.00  0.00     0.118 A 
BRANCH   7   8
ATOM      8  O   UNL     1      -0.471  -1.563   9.921  1.00  0.00    -0.508 OA
ATOM      9  H   UNL     1      -1.000  -2.052   9.209  1.00  0.00     0.293 HD
ENDBRANCH   7   8
ENDBRANCH   1   2
BRANCH   1  10
ATOM     10  C   UNL     1      -3.384   0.920  10.200  1.00  0.00     0.040 C 
BRANCH  10  11
ATOM     11  C   UNL     1      -2.778   1.468   8.935  1.00  0.00    -0.040 A 
ATOM     12  C   UNL     1      -3.587   1.714   7.814  1.00  0.00     0.050 A 
ATOM     13  C   UNL     1      -1.393   1.682   8.848  1.00  0.00     0.050 A 
ATOM     14  C   UNL     1      -3.021   2.193   6.627  1.00  0.00     0.119 A 
ATOM     15  C   UNL     1      -0.825   2.161   7.660  1.00  0.00     0.119 A 
ATOM     16  C   UNL     1      -1.640   2.418   6.553  1.00  0.00     0.092 A 
BRANCH  14  17
ATOM     17  O   UNL     1      -3.840   2.438   5.526  1.00  0.00    -0.508 OA
ATOM     18  H   UNL     1      -3.885   3.352   5.093  1.00  0.00     0.293 HD
ENDBRANCH  14  17
BRANCH  15  19
ATOM     19  O   UNL     1       0.548   2.383   7.568  1.00  0.00    -0.508 OA
ATOM     20  H   UNL     1       1.160   1.723   7.106  1.00  0.00     0.293 HD
ENDBRANCH  15  19
ENDBRANCH  10  11
ENDBRANCH   1  10
TORSDOF 6
ENDMDL
MODEL 9
REMARK VINA RESULT:    -7.202      6.383      8.412
REMARK INTER + INTRA:          -9.512
REMARK INTER:                  -8.905
REMARK INTRA:                  -0.607
REMARK UNBOUND:                -0.415
REMARK SMILES Oc1cc(O)cc(CCc2ccccc2O)c1
REMARK SMILES IDX 9 1 10 2 12 3 13 4 11 5 14 6 15 7 16 8 8 10 7 11 6 12 17 13
REMARK SMILES IDX 4 14 2 15 3 16 5 17 1 19
REMARK H PARENT 16 9 5 18 1 20
REMARK Flexibility Score: inf
ROOT
ATOM      1  C   UNL     1      -4.688   0.306   9.960  1.00  0.00     0.044 C 
ENDROOT
BRANCH   1   2
ATOM      2  C   UNL     1      -4.620  -1.156   9.597  1.00  0.00    -0.006 A 
ATOM      3  C   UNL     1      -3.886  -3.413  10.131  1.00  0.00     0.001 A 
ATOM      4  C   UNL     1      -4.529  -3.898   8.990  1.00  0.00     0.004 A 
ATOM      5  C   UNL     1      -3.934  -2.050  10.437  1.00  0.00     0.007 A 
ATOM      6  C   UNL     1      -5.227  -3.021   8.155  1.00  0.00     0.046 A 
ATOM      7  C   UNL     1      -5.281  -1.652   8.454  1.00  0.00     0.118 A 
BRANCH   7   8
ATOM      8  O   UNL     1      -5.991  -0.785   7.624  1.00  0.00    -0.508 OA
ATOM      9  H   UNL     1      -6.688  -0.149   7.992  1.00  0.00     0.293 HD
ENDBRANCH   7   8
ENDBRANCH   1   2
BRANCH   1  10
ATOM     10  C   UNL     1      -3.286   0.858  10.233  1.00  0.00     0.040 C 
BRANCH  10  11
ATOM     11  C   UNL     1      -2.676   1.399   8.968  1.00  0.00    -0.040 A 
ATOM     12  C   UNL     1      -3.487   1.685   7.858  1.00  0.00     0.050 A 
ATOM     13  C   UNL     1      -1.285   1.567   8.869  1.00  0.00     0.050 A 
ATOM     14  C   UNL     1      -2.918   2.158   6.670  1.00  0.00     0.119 A 
ATOM     15  C   UNL     1      -0.713   2.040   7.679  1.00  0.00     0.119 A 
ATOM     16  C   UNL     1      -1.531   2.337   6.584  1.00  0.00     0.092 A 
BRANCH  14  17
ATOM     17  O   UNL     1      -3.739   2.443   5.582  1.00  0.00    -0.508 OA
ATOM     18  H   UNL     1      -4.717   2.179   5.573  1.00  0.00     0.293 HD
ENDBRANCH  14  17
BRANCH  15  19
ATOM     19  O   UNL     1       0.665   2.217   7.575  1.00  0.00    -0.508 OA
ATOM     20  H   UNL     1       1.305   1.435   7.643  1.00  0.00     0.293 HD
ENDBRANCH  15  19
ENDBRANCH  10  11
ENDBRANCH   1  10
TORSDOF 6
ENDMDL
