MODEL 1
REMARK VINA RESULT:    -2.712      0.000      0.000
REMARK INTER + INTRA:          -4.262
REMARK INTER:                  -3.664
REMARK INTRA:                  -0.598
REMARK UNBOUND:                -0.598
REMARK SMILES CCCCCCC=CC(=O)[O-]
REMARK SMILES IDX 5 1 6 2 7 3 8 4 9 5 10 6 11 7 4 8 3 9 2 10 1 11
REMARK H PARENT
REMARK Flexibility Score: inf
ROOT
ATOM      1  C   UNL     1     141.527 -49.556  68.527  1.00  0.00     0.004 C 
ENDROOT
BRANCH   1   2
ATOM      2  C   UNL     1     141.741 -48.494  67.436  1.00  0.00     0.027 C 
BRANCH   2   3
ATOM      3  C   UNL     1     140.428 -47.937  66.958  1.00  0.00    -0.025 C 
ATOM      4  C   UNL     1     140.179 -46.649  66.663  1.00  0.00     0.020 C 
BRANCH   4   5
ATOM      5  C   UNL     1     141.146 -45.533  66.703  1.00  0.00     0.064 C 
ATOM      6  O   UNL     1     141.557 -45.042  67.787  1.00  0.00    -0.545 OA
ATOM      7  O   UNL     1     141.635 -45.026  65.507  1.00  0.00    -0.545 OA
ENDBRANCH   4   5
ENDBRANCH   2   3
ENDBRANCH   1   2
BRANCH   1   8
ATOM      8  C   UNL     1     140.042 -49.743  68.889  1.00  0.00     0.000 C 
BRANCH   8   9
ATOM      9  C   UNL     1     139.532 -51.190  68.750  1.00  0.00    -0.000 C 
BRANCH   9  10
ATOM     10  C   UNL     1     139.333 -51.611  67.287  1.00  0.00    -0.003 C 
ATOM     11  C   UNL     1     138.079 -50.972  66.697  1.00  0.00     0.004 C 
ENDBRANCH   9  10
ENDBRANCH   8   9
ENDBRANCH   1   8
TORSDOF 6
ENDMDL
MODEL 2
REMARK VINA RESULT:    -2.687      1.477      2.193
REMARK INTER + INTRA:          -4.228
REMARK INTER:                  -3.438
REMARK INTRA:                  -0.790
REMARK UNBOUND:                -0.598
REMARK SMILES CCCCCCC=CC(=O)[O-]
REMARK SMILES IDX 5 1 6 2 7 3 8 4 9 5 10 6 11 7 4 8 3 9 2 10 1 11
REMARK H PARENT
REMARK Flexibility Score: inf
ROOT
ATOM      1  C   UNL     1     139.887 -49.155  70.379  1.00  0.00     0.004 C 
ENDROOT
BRANCH   1   2
ATOM      2  C   UNL     1     141.318 -48.697  70.053  1.00  0.00     0.027 C 
BRANCH   2   3
ATOM      3  C   UNL     1     141.830 -49.366  68.805  1.00  0.00    -0.025 C 
ATOM      4  C   UNL     1     141.824 -48.838  67.569  1.00  0.00     0.020 C 
BRANCH   4   5
ATOM      5  C   UNL     1     141.360 -47.488  67.189  1.00  0.00     0.064 C 
ATOM      6  O   UNL     1     140.162 -47.253  66.881  1.00  0.00    -0.545 OA
ATOM      7  O   UNL     1     142.270 -46.439  67.198  1.00  0.00    -0.545 OA
ENDBRANCH   4   5
ENDBRANCH   2   3
ENDBRANCH   1   2
BRANCH   1   8
ATOM      8  C   UNL     1     139.763 -50.687  70.478  1.00  0.00     0.000 C 
BRANCH   8   9
ATOM      9  C   UNL     1     138.624 -51.287  69.633  1.00  0.00    -0.000 C 
BRANCH   9  10
ATOM     10  C   UNL     1     139.099 -51.769  68.253  1.00  0.00    -0.003 C 
ATOM     11  C   UNL     1     138.741 -50.759  67.166  1.00  0.00     0.004 C 
ENDBRANCH   9  10
ENDBRANCH   8   9
ENDBRANCH   1   8
TORSDOF 6
ENDMDL
MODEL 3
REMARK VINA RESULT:    -2.682      1.419      2.104
REMARK INTER + INTRA:          -4.222
REMARK INTER:                  -3.329
REMARK INTRA:                  -0.892
REMARK UNBOUND:                -0.598
REMARK SMILES CCCCCCC=CC(=O)[O-]
REMARK SMILES IDX 5 1 6 2 7 3 8 4 9 5 10 6 11 7 4 8 3 9 2 10 1 11
REMARK H PARENT
REMARK Flexibility Score: inf
ROOT
ATOM      1  C   UNL     1     140.202 -50.054  69.040  1.00  0.00     0.004 C 
ENDROOT
BRANCH   1   2
ATOM      2  C   UNL     1     141.577 -49.374  68.933  1.00  0.00     0.027 C 
BRANCH   2   3
ATOM      3  C   UNL     1     141.762 -48.736  67.583  1.00  0.00    -0.025 C 
ATOM      4  C   UNL     1     141.470 -47.462  67.266  1.00  0.00     0.020 C 
BRANCH   4   5
ATOM      5  C   UNL     1     140.956 -46.422  68.181  1.00  0.00     0.064 C 
ATOM      6  O   UNL     1     141.697 -45.523  68.657  1.00  0.00    -0.545 OA
ATOM      7  O   UNL     1     139.606 -46.423  68.505  1.00  0.00    -0.545 OA
ENDBRANCH   4   5
ENDBRANCH   2   3
ENDBRANCH   1   2
BRANCH   1   8
ATOM      8  C   UNL     1     139.927 -51.022  67.875  1.00  0.00     0.000 C 
BRANCH   8   9
ATOM      9  C   UNL     1     138.559 -50.824  67.196  1.00  0.00    -0.000 C 
BRANCH   9  10
ATOM     10  C   UNL     1     138.035 -49.385  67.321  1.00  0.00    -0.003 C 
ATOM     11  C   UNL     1     138.205 -48.624  66.009  1.00  0.00     0.004 C 
ENDBRANCH   9  10
ENDBRANCH   8   9
ENDBRANCH   1   8
TORSDOF 6
ENDMDL
MODEL 4
REMARK VINA RESULT:    -2.672     23.780     24.793
REMARK INTER + INTRA:          -4.208
REMARK INTER:                  -3.405
REMARK INTRA:                  -0.803
REMARK UNBOUND:                -0.598
REMARK SMILES CCCCCCC=CC(=O)[O-]
REMARK SMILES IDX 5 1 6 2 7 3 8 4 9 5 10 6 11 7 4 8 3 9 2 10 1 11
REMARK H PARENT
REMARK Flexibility Score: inf
ROOT
ATOM      1  C   UNL     1     129.146 -35.333  82.313  1.00  0.00     0.004 C 
ENDROOT
BRANCH   1   2
ATOM      2  C   UNL     1     128.780 -36.111  83.587  1.00  0.00     0.027 C 
BRANCH   2   3
ATOM      3  C   UNL     1     127.709 -35.400  84.368  1.00  0.00    -0.025 C 
ATOM      4  C   UNL     1     126.395 -35.685  84.343  1.00  0.00     0.020 C 
BRANCH   4   5
ATOM      5  C   UNL     1     125.744 -36.774  83.587  1.00  0.00     0.064 C 
ATOM      6  O   UNL     1     125.356 -36.625  82.399  1.00  0.00    -0.545 OA
ATOM      7  O   UNL     1     125.576 -38.009  84.200  1.00  0.00    -0.545 OA
ENDBRANCH   4   5
ENDBRANCH   2   3
ENDBRANCH   1   2
BRANCH   1   8
ATOM      8  C   UNL     1     129.184 -33.811  82.538  1.00  0.00     0.000 C 
BRANCH   8   9
ATOM      9  C   UNL     1     128.349 -32.999  81.530  1.00  0.00    -0.000 C 
BRANCH   9  10
ATOM     10  C   UNL     1     126.974 -32.599  82.086  1.00  0.00    -0.003 C 
ATOM     11  C   UNL     1     125.849 -33.270  81.302  1.00  0.00     0.004 C 
ENDBRANCH   9  10
ENDBRANCH   8   9
ENDBRANCH   1   8
TORSDOF 6
ENDMDL
MODEL 5
REMARK VINA RESULT:    -2.669     23.628     24.551
REMARK INTER + INTRA:          -4.203
REMARK INTER:                  -3.319
REMARK INTRA:                  -0.884
REMARK UNBOUND:                -0.598
REMARK SMILES CCCCCCC=CC(=O)[O-]
REMARK SMILES IDX 5 1 6 2 7 3 8 4 9 5 10 6 11 7 4 8 3 9 2 10 1 11
REMARK H PARENT
REMARK Flexibility Score: inf
ROOT
ATOM      1  C   UNL     1     127.784 -34.474  82.757  1.00  0.00     0.004 C 
ENDROOT
BRANCH   1   2
ATOM      2  C   UNL     1     127.666 -35.258  84.074  1.00  0.00     0.027 C 
BRANCH   2   3
ATOM      3  C   UNL     1     126.280 -35.818  84.248  1.00  0.00    -0.025 C 
ATOM      4  C   UNL     1     125.885 -37.060  83.921  1.00  0.00     0.020 C 
BRANCH   4   5
ATOM      5  C   UNL     1     126.732 -38.138  83.369  1.00  0.00     0.064 C 
ATOM      6  O   UNL     1     127.223 -39.042  84.094  1.00  0.00    -0.545 OA
ATOM      7  O   UNL     1     126.972 -38.167  82.001  1.00  0.00    -0.545 OA
ENDBRANCH   4   5
ENDBRANCH   2   3
ENDBRANCH   1   2
BRANCH   1   8
ATOM      8  C   UNL     1     126.694 -33.397  82.608  1.00  0.00     0.000 C 
BRANCH   8   9
ATOM      9  C   UNL     1     125.877 -33.497  81.306  1.00  0.00    -0.000 C 
BRANCH   9  10
ATOM     10  C   UNL     1     125.983 -34.878  80.643  1.00  0.00    -0.003 C 
ATOM     11  C   UNL     1     124.663 -35.637  80.743  1.00  0.00     0.004 C 
ENDBRANCH   9  10
ENDBRANCH   8   9
ENDBRANCH   1   8
TORSDOF 6
ENDMDL
MODEL 6
REMARK VINA RESULT:    -2.634     23.693     24.668
REMARK INTER + INTRA:          -4.156
REMARK INTER:                  -3.612
REMARK INTRA:                  -0.544
REMARK UNBOUND:                -0.598
REMARK SMILES CCCCCCC=CC(=O)[O-]
REMARK SMILES IDX 5 1 6 2 7 3 8 4 9 5 10 6 11 7 4 8 3 9 2 10 1 11
REMARK H PARENT
REMARK Flexibility Score: inf
ROOT
ATOM      1  C   UNL     1     128.336 -36.433  84.372  1.00  0.00     0.004 C 
ENDROOT
BRANCH   1   2
ATOM      2  C   UNL     1     127.782 -37.752  83.810  1.00  0.00     0.027 C 
BRANCH   2   3
ATOM      3  C   UNL     1     126.677 -38.289  84.678  1.00  0.00    -0.025 C 
ATOM      4  C   UNL     1     125.435 -38.603  84.270  1.00  0.00     0.020 C 
BRANCH   4   5
ATOM      5  C   UNL     1     124.916 -38.528  82.889  1.00  0.00     0.064 C 
ATOM      6  O   UNL     1     124.962 -39.510  82.103  1.00  0.00    -0.545 OA
ATOM      7  O   UNL     1     124.337 -37.344  82.454  1.00  0.00    -0.545 OA
ENDBRANCH   4   5
ENDBRANCH   2   3
ENDBRANCH   1   2
BRANCH   1   8
ATOM      8  C   UNL     1     127.280 -35.313  84.406  1.00  0.00     0.000 C 
BRANCH   8   9
ATOM      9  C   UNL     1     126.737 -34.911  83.022  1.00  0.00    -0.000 C 
BRANCH   9  10
ATOM     10  C   UNL     1     127.102 -33.469  82.637  1.00  0.00    -0.003 C 
ATOM     11  C   UNL     1     128.558 -33.372  82.190  1.00  0.00     0.004 C 
ENDBRANCH   9  10
ENDBRANCH   8   9
ENDBRANCH   1   8
TORSDOF 6
ENDMDL
MODEL 7
REMARK VINA RESULT:    -2.603     23.849     24.481
REMARK INTER + INTRA:          -4.115
REMARK INTER:                  -3.244
REMARK INTRA:                  -0.871
REMARK UNBOUND:                -0.598
REMARK SMILES CCCCCCC=CC(=O)[O-]
REMARK SMILES IDX 5 1 6 2 7 3 8 4 9 5 10 6 11 7 4 8 3 9 2 10 1 11
REMARK H PARENT
REMARK Flexibility Score: inf
ROOT
ATOM      1  C   UNL     1     128.034 -34.901  82.909  1.00  0.00     0.004 C 
ENDROOT
BRANCH   1   2
ATOM      2  C   UNL     1     127.907 -33.424  82.500  1.00  0.00     0.027 C 
BRANCH   2   3
ATOM      3  C   UNL     1     126.464 -33.026  82.354  1.00  0.00    -0.025 C 
ATOM      4  C   UNL     1     125.758 -33.028  81.210  1.00  0.00     0.020 C 
BRANCH   4   5
ATOM      5  C   UNL     1     126.236 -33.460  79.880  1.00  0.00     0.064 C 
ATOM      6  O   UNL     1     126.585 -32.637  78.994  1.00  0.00    -0.545 OA
ATOM      7  O   UNL     1     126.325 -34.819  79.609  1.00  0.00    -0.545 OA
ENDBRANCH   4   5
ENDBRANCH   2   3
ENDBRANCH   1   2
BRANCH   1   8
ATOM      8  C   UNL     1     127.278 -35.223  84.211  1.00  0.00     0.000 C 
BRANCH   8   9
ATOM      9  C   UNL     1     126.163 -36.273  84.054  1.00  0.00    -0.000 C 
BRANCH   9  10
ATOM     10  C   UNL     1     126.023 -36.780  82.611  1.00  0.00    -0.003 C 
ATOM     11  C   UNL     1     124.588 -36.627  82.113  1.00  0.00     0.004 C 
ENDBRANCH   9  10
ENDBRANCH   8   9
ENDBRANCH   1   8
TORSDOF 6
ENDMDL
MODEL 8
REMARK VINA RESULT:    -2.578     23.250     24.154
REMARK INTER + INTRA:          -4.081
REMARK INTER:                  -3.122
REMARK INTRA:                  -0.959
REMARK UNBOUND:                -0.598
REMARK SMILES CCCCCCC=CC(=O)[O-]
REMARK SMILES IDX 5 1 6 2 7 3 8 4 9 5 10 6 11 7 4 8 3 9 2 10 1 11
REMARK H PARENT
REMARK Flexibility Score: inf
ROOT
ATOM      1  C   UNL     1     126.465 -35.613  84.342  1.00  0.00     0.004 C 
ENDROOT
BRANCH   1   2
ATOM      2  C   UNL     1     125.959 -37.008  83.940  1.00  0.00     0.027 C 
BRANCH   2   3
ATOM      3  C   UNL     1     125.085 -36.935  82.718  1.00  0.00    -0.025 C 
ATOM      4  C   UNL     1     125.458 -37.238  81.463  1.00  0.00     0.020 C 
BRANCH   4   5
ATOM      5  C   UNL     1     126.779 -37.742  81.033  1.00  0.00     0.064 C 
ATOM      6  O   UNL     1     127.073 -38.965  81.072  1.00  0.00    -0.545 OA
ATOM      7  O   UNL     1     127.715 -36.840  80.547  1.00  0.00    -0.545 OA
ENDBRANCH   4   5
ENDBRANCH   2   3
ENDBRANCH   1   2
BRANCH   1   8
ATOM      8  C   UNL     1     127.888 -35.327  83.827  1.00  0.00     0.000 C 
BRANCH   8   9
ATOM      9  C   UNL     1     127.977 -34.169  82.816  1.00  0.00    -0.000 C 
BRANCH   9  10
ATOM     10  C   UNL     1     126.636 -33.445  82.623  1.00  0.00    -0.003 C 
ATOM     11  C   UNL     1     126.130 -33.599  81.192  1.00  0.00     0.004 C 
ENDBRANCH   9  10
ENDBRANCH   8   9
ENDBRANCH   1   8
TORSDOF 6
ENDMDL
MODEL 9
REMARK VINA RESULT:    -2.557      3.224      4.855
REMARK INTER + INTRA:          -4.052
REMARK INTER:                  -3.209
REMARK INTRA:                  -0.843
REMARK UNBOUND:                -0.598
REMARK SMILES CCCCCCC=CC(=O)[O-]
REMARK SMILES IDX 5 1 6 2 7 3 8 4 9 5 10 6 11 7 4 8 3 9 2 10 1 11
REMARK H PARENT
REMARK Flexibility Score: inf
ROOT
ATOM      1  C   UNL     1     140.385 -49.624  69.096  1.00  0.00     0.004 C 
ENDROOT
BRANCH   1   2
ATOM      2  C   UNL     1     139.666 -50.971  68.919  1.00  0.00     0.027 C 
BRANCH   2   3
ATOM      3  C   UNL     1     139.489 -51.303  67.462  1.00  0.00    -0.025 C 
ATOM      4  C   UNL     1     138.368 -51.122  66.743  1.00  0.00     0.020 C 
BRANCH   4   5
ATOM      5  C   UNL     1     137.103 -50.523  67.218  1.00  0.00     0.064 C 
ATOM      6  O   UNL     1     136.846 -49.300  67.073  1.00  0.00    -0.545 OA
ATOM      7  O   UNL     1     136.159 -51.343  67.821  1.00  0.00    -0.545 OA
ENDBRANCH   4   5
ENDBRANCH   2   3
ENDBRANCH   1   2
BRANCH   1   8
ATOM      8  C   UNL     1     141.528 -49.423  68.084  1.00  0.00     0.000 C 
BRANCH   8   9
ATOM      9  C   UNL     1     141.559 -48.030  67.430  1.00  0.00    -0.000 C 
BRANCH   9  10
ATOM     10  C   UNL     1     140.161 -47.412  67.280  1.00  0.00    -0.003 C 
ATOM     11  C   UNL     1     139.633 -47.585  65.859  1.00  0.00     0.004 C 
ENDBRANCH   9  10
ENDBRANCH   8   9
ENDBRANCH   1   8
TORSDOF 6
ENDMDL
