MODEL 1
REMARK VINA RESULT:    -3.068      0.000      0.000
REMARK INTER + INTRA:          -9.616
REMARK INTER:                  -6.654
REMARK INTRA:                  -2.962
REMARK UNBOUND:                -2.962
REMARK SMILES CCCCCCCCCCCCCCCCCCCCCC(=O)[O-]
REMARK SMILES IDX 12 1 11 2 10 3 9 4 8 5 7 6 6 7 5 8 4 9 3 10 2 11 1 12 13 13
REMARK SMILES IDX 14 14 15 15 16 16 17 17 18 18 19 19 20 20 21 21 22 22 23 23
REMARK SMILES IDX 24 24
REMARK H PARENT
REMARK Flexibility Score: inf
ROOT
ATOM      1  C   UNL     1       6.340   2.586   4.932  1.00  0.00     0.000 C 
ENDROOT
BRANCH   1   2
ATOM      2  C   UNL     1       7.023   3.470   5.996  1.00  0.00     0.000 C 
BRANCH   2   3
ATOM      3  C   UNL     1       6.404   4.870   6.182  1.00  0.00     0.000 C 
BRANCH   3   4
ATOM      4  C   UNL     1       5.709   5.094   7.539  1.00  0.00    -0.000 C 
BRANCH   4   5
ATOM      5  C   UNL     1       5.902   3.956   8.561  1.00  0.00    -0.000 C 
BRANCH   5   6
ATOM      6  C   UNL     1       4.636   3.638   9.383  1.00  0.00    -0.000 C 
BRANCH   6   7
ATOM      7  C   UNL     1       3.764   2.552   8.734  1.00  0.00    -0.000 C 
BRANCH   7   8
ATOM      8  C   UNL     1       4.629   1.393   8.216  1.00  0.00    -0.000 C 
BRANCH   8   9
ATOM      9  C   UNL     1       5.071   0.436   9.334  1.00  0.00    -0.000 C 
BRANCH   9  10
ATOM     10  C   UNL     1       6.286  -0.417   8.937  1.00  0.00    -0.000 C 
BRANCH  10  11
ATOM     11  C   UNL     1       7.123   0.293   7.866  1.00  0.00    -0.003 C 
ATOM     12  C   UNL     1       8.330   0.995   8.486  1.00  0.00     0.004 C 
ENDBRANCH  10  11
ENDBRANCH   9  10
ENDBRANCH   8   9
ENDBRANCH   7   8
ENDBRANCH   6   7
ENDBRANCH   5   6
ENDBRANCH   4   5
ENDBRANCH   3   4
ENDBRANCH   2   3
ENDBRANCH   1   2
BRANCH   1  13
ATOM     13  C   UNL     1       7.234   1.495   4.314  1.00  0.00     0.000 C 
BRANCH  13  14
ATOM     14  C   UNL     1       8.708   1.629   4.732  1.00  0.00     0.000 C 
BRANCH  14  15
ATOM     15  C   UNL     1       9.510   0.333   4.530  1.00  0.00     0.000 C 
BRANCH  15  16
ATOM     16  C   UNL     1       8.629  -0.927   4.595  1.00  0.00     0.000 C 
BRANCH  16  17
ATOM     17  C   UNL     1       9.374  -2.149   5.163  1.00  0.00     0.000 C 
BRANCH  17  18
ATOM     18  C   UNL     1       9.148  -2.423   6.665  1.00  0.00     0.000 C 
BRANCH  18  19
ATOM     19  C   UNL     1       9.051  -3.909   7.055  1.00  0.00     0.000 C 
BRANCH  19  20
ATOM     20  C   UNL     1       9.007  -4.845   5.839  1.00  0.00     0.006 C 
BRANCH  20  21
ATOM     21  C   UNL     1       7.961  -5.950   6.036  1.00  0.00     0.053 C 
BRANCH  21  22
ATOM     22  C   UNL     1       8.161  -7.068   5.059  1.00  0.00     0.041 C 
ATOM     23  O   UNL     1       8.042  -8.266   5.431  1.00  0.00    -0.550 OA
ATOM     24  O   UNL     1       8.549  -6.789   3.752  1.00  0.00    -0.550 OA
ENDBRANCH  21  22
ENDBRANCH  20  21
ENDBRANCH  19  20
ENDBRANCH  18  19
ENDBRANCH  17  18
ENDBRANCH  16  17
ENDBRANCH  15  16
ENDBRANCH  14  15
ENDBRANCH  13  14
ENDBRANCH   1  13
TORSDOF 20
ENDMDL
MODEL 2
REMARK VINA RESULT:    -3.050      2.530      3.933
REMARK INTER + INTRA:          -9.578
REMARK INTER:                  -5.948
REMARK INTRA:                  -3.631
REMARK UNBOUND:                -2.962
REMARK SMILES CCCCCCCCCCCCCCCCCCCCCC(=O)[O-]
REMARK SMILES IDX 12 1 11 2 10 3 9 4 8 5 7 6 6 7 5 8 4 9 3 10 2 11 1 12 13 13
REMARK SMILES IDX 14 14 15 15 16 16 17 17 18 18 19 19 20 20 21 21 22 22 23 23
REMARK SMILES IDX 24 24
REMARK H PARENT
REMARK Flexibility Score: inf
ROOT
ATOM      1  C   UNL     1       6.098   2.263   4.317  1.00  0.00     0.000 C 
ENDROOT
BRANCH   1   2
ATOM      2  C   UNL     1       5.956   3.690   3.748  1.00  0.00     0.000 C 
BRANCH   2   3
ATOM      3  C   UNL     1       6.572   4.807   4.614  1.00  0.00     0.000 C 
BRANCH   3   4
ATOM      4  C   UNL     1       6.330   4.657   6.129  1.00  0.00    -0.000 C 
BRANCH   4   5
ATOM      5  C   UNL     1       6.766   5.868   6.977  1.00  0.00    -0.000 C 
BRANCH   5   6
ATOM      6  C   UNL     1       6.210   5.849   8.417  1.00  0.00    -0.000 C 
BRANCH   6   7
ATOM      7  C   UNL     1       4.675   5.885   8.460  1.00  0.00    -0.000 C 
BRANCH   7   8
ATOM      8  C   UNL     1       4.123   4.720   9.295  1.00  0.00    -0.000 C 
BRANCH   8   9
ATOM      9  C   UNL     1       5.219   3.738   9.741  1.00  0.00    -0.000 C 
BRANCH   9  10
ATOM     10  C   UNL     1       4.788   2.269   9.604  1.00  0.00    -0.000 C 
BRANCH  10  11
ATOM     11  C   UNL     1       4.434   1.938   8.150  1.00  0.00    -0.003 C 
ATOM     12  C   UNL     1       3.007   1.406   8.037  1.00  0.00     0.004 C 
ENDBRANCH  10  11
ENDBRANCH   9  10
ENDBRANCH   8   9
ENDBRANCH   7   8
ENDBRANCH   6   7
ENDBRANCH   5   6
ENDBRANCH   4   5
ENDBRANCH   3   4
ENDBRANCH   2   3
ENDBRANCH   1   2
BRANCH   1  13
ATOM     13  C   UNL     1       7.483   1.617   4.129  1.00  0.00     0.000 C 
BRANCH  13  14
ATOM     14  C   UNL     1       8.197   1.345   5.464  1.00  0.00     0.000 C 
BRANCH  14  15
ATOM     15  C   UNL     1       9.364   2.311   5.730  1.00  0.00     0.000 C 
BRANCH  15  16
ATOM     16  C   UNL     1       9.356   2.873   7.163  1.00  0.00     0.000 C 
BRANCH  16  17
ATOM     17  C   UNL     1       8.150   2.389   7.988  1.00  0.00     0.000 C 
BRANCH  17  18
ATOM     18  C   UNL     1       8.485   1.834   9.389  1.00  0.00     0.000 C 
BRANCH  18  19
ATOM     19  C   UNL     1       8.469   0.300   9.508  1.00  0.00     0.000 C 
BRANCH  19  20
ATOM     20  C   UNL     1       7.389  -0.358   8.638  1.00  0.00     0.006 C 
BRANCH  20  21
ATOM     21  C   UNL     1       7.595  -1.876   8.562  1.00  0.00     0.053 C 
BRANCH  21  22
ATOM     22  C   UNL     1       8.396  -2.257   7.354  1.00  0.00     0.041 C 
ATOM     23  O   UNL     1       7.974  -1.980   6.199  1.00  0.00    -0.550 OA
ATOM     24  O   UNL     1       9.575  -2.980   7.501  1.00  0.00    -0.550 OA
ENDBRANCH  21  22
ENDBRANCH  20  21
ENDBRANCH  19  20
ENDBRANCH  18  19
ENDBRANCH  17  18
ENDBRANCH  16  17
ENDBRANCH  15  16
ENDBRANCH  14  15
ENDBRANCH  13  14
ENDBRANCH   1  13
TORSDOF 20
ENDMDL
MODEL 3
REMARK VINA RESULT:    -2.994      3.530      6.871
REMARK INTER + INTRA:          -9.456
REMARK INTER:                  -6.898
REMARK INTRA:                  -2.558
REMARK UNBOUND:                -2.962
REMARK SMILES CCCCCCCCCCCCCCCCCCCCCC(=O)[O-]
REMARK SMILES IDX 12 1 11 2 10 3 9 4 8 5 7 6 6 7 5 8 4 9 3 10 2 11 1 12 13 13
REMARK SMILES IDX 14 14 15 15 16 16 17 17 18 18 19 19 20 20 21 21 22 22 23 23
REMARK SMILES IDX 24 24
REMARK H PARENT
REMARK Flexibility Score: inf
ROOT
ATOM      1  C   UNL     1       6.396   3.916   4.259  1.00  0.00     0.000 C 
ENDROOT
BRANCH   1   2
ATOM      2  C   UNL     1       6.154   2.434   4.615  1.00  0.00     0.000 C 
BRANCH   2   3
ATOM      3  C   UNL     1       7.202   1.447   4.061  1.00  0.00     0.000 C 
BRANCH   3   4
ATOM      4  C   UNL     1       8.638   1.677   4.569  1.00  0.00    -0.000 C 
BRANCH   4   5
ATOM      5  C   UNL     1       9.177   0.580   5.508  1.00  0.00    -0.000 C 
BRANCH   5   6
ATOM      6  C   UNL     1       8.596  -0.821   5.224  1.00  0.00    -0.000 C 
BRANCH   6   7
ATOM      7  C   UNL     1       8.077  -1.515   6.492  1.00  0.00    -0.000 C 
BRANCH   7   8
ATOM      8  C   UNL     1       9.130  -2.479   7.060  1.00  0.00    -0.000 C 
BRANCH   8   9
ATOM      9  C   UNL     1       8.740  -3.955   6.884  1.00  0.00    -0.000 C 
BRANCH   9  10
ATOM     10  C   UNL     1       9.401  -4.599   5.655  1.00  0.00    -0.000 C 
BRANCH  10  11
ATOM     11  C   UNL     1       8.836  -6.002   5.405  1.00  0.00    -0.003 C 
ATOM     12  C   UNL     1       7.547  -6.225   6.194  1.00  0.00     0.004 C 
ENDBRANCH  10  11
ENDBRANCH   9  10
ENDBRANCH   8   9
ENDBRANCH   7   8
ENDBRANCH   6   7
ENDBRANCH   5   6
ENDBRANCH   4   5
ENDBRANCH   3   4
ENDBRANCH   2   3
ENDBRANCH   1   2
BRANCH   1  13
ATOM     13  C   UNL     1       6.866   4.802   5.427  1.00  0.00     0.000 C 
BRANCH  13  14
ATOM     14  C   UNL     1       6.602   4.162   6.801  1.00  0.00     0.000 C 
BRANCH  14  15
ATOM     15  C   UNL     1       7.873   4.029   7.656  1.00  0.00     0.000 C 
BRANCH  15  16
ATOM     16  C   UNL     1       7.938   2.695   8.421  1.00  0.00     0.000 C 
BRANCH  16  17
ATOM     17  C   UNL     1       6.823   1.715   8.010  1.00  0.00     0.000 C 
BRANCH  17  18
ATOM     18  C   UNL     1       6.531   0.584   9.019  1.00  0.00     0.000 C 
BRANCH  18  19
ATOM     19  C   UNL     1       5.041   0.338   9.317  1.00  0.00     0.000 C 
BRANCH  19  20
ATOM     20  C   UNL     1       4.224   1.635   9.395  1.00  0.00     0.006 C 
BRANCH  20  21
ATOM     21  C   UNL     1       3.527   1.925   8.059  1.00  0.00     0.053 C 
BRANCH  21  22
ATOM     22  C   UNL     1       2.102   1.460   8.078  1.00  0.00     0.041 C 
ATOM     23  O   UNL     1       1.548   1.067   7.017  1.00  0.00    -0.550 OA
ATOM     24  O   UNL     1       1.363   1.528   9.255  1.00  0.00    -0.550 OA
ENDBRANCH  21  22
ENDBRANCH  20  21
ENDBRANCH  19  20
ENDBRANCH  18  19
ENDBRANCH  17  18
ENDBRANCH  16  17
ENDBRANCH  15  16
ENDBRANCH  14  15
ENDBRANCH  13  14
ENDBRANCH   1  13
TORSDOF 20
ENDMDL
MODEL 4
REMARK VINA RESULT:    -2.988      1.170      2.389
REMARK INTER + INTRA:          -9.444
REMARK INTER:                  -6.004
REMARK INTRA:                  -3.440
REMARK UNBOUND:                -2.962
REMARK SMILES CCCCCCCCCCCCCCCCCCCCCC(=O)[O-]
REMARK SMILES IDX 12 1 11 2 10 3 9 4 8 5 7 6 6 7 5 8 4 9 3 10 2 11 1 12 13 13
REMARK SMILES IDX 14 14 15 15 16 16 17 17 18 18 19 19 20 20 21 21 22 22 23 23
REMARK SMILES IDX 24 24
REMARK H PARENT
REMARK Flexibility Score: inf
ROOT
ATOM      1  C   UNL     1       6.355   2.679   4.727  1.00  0.00     0.000 C 
ENDROOT
BRANCH   1   2
ATOM      2  C   UNL     1       7.074   3.980   5.143  1.00  0.00     0.000 C 
BRANCH   2   3
ATOM      3  C   UNL     1       6.471   4.701   6.366  1.00  0.00     0.000 C 
BRANCH   3   4
ATOM      4  C   UNL     1       7.339   4.652   7.638  1.00  0.00    -0.000 C 
BRANCH   4   5
ATOM      5  C   UNL     1       8.716   3.983   7.457  1.00  0.00    -0.000 C 
BRANCH   5   6
ATOM      6  C   UNL     1       8.989   2.843   8.461  1.00  0.00    -0.000 C 
BRANCH   6   7
ATOM      7  C   UNL     1       8.250   1.546   8.102  1.00  0.00    -0.000 C 
BRANCH   7   8
ATOM      8  C   UNL     1       7.258   1.156   9.208  1.00  0.00    -0.000 C 
BRANCH   8   9
ATOM      9  C   UNL     1       6.160   0.202   8.711  1.00  0.00    -0.000 C 
BRANCH   9  10
ATOM     10  C   UNL     1       4.745   0.730   8.996  1.00  0.00    -0.000 C 
BRANCH  10  11
ATOM     11  C   UNL     1       4.417   1.923   8.090  1.00  0.00    -0.003 C 
ATOM     12  C   UNL     1       4.137   3.179   8.913  1.00  0.00     0.004 C 
ENDBRANCH  10  11
ENDBRANCH   9  10
ENDBRANCH   8   9
ENDBRANCH   7   8
ENDBRANCH   6   7
ENDBRANCH   5   6
ENDBRANCH   4   5
ENDBRANCH   3   4
ENDBRANCH   2   3
ENDBRANCH   1   2
BRANCH   1  13
ATOM     13  C   UNL     1       7.272   1.459   4.528  1.00  0.00     0.000 C 
BRANCH  13  14
ATOM     14  C   UNL     1       8.758   1.843   4.430  1.00  0.00     0.000 C 
BRANCH  14  15
ATOM     15  C   UNL     1       9.668   0.647   4.103  1.00  0.00     0.000 C 
BRANCH  15  16
ATOM     16  C   UNL     1       8.912  -0.693   4.104  1.00  0.00     0.000 C 
BRANCH  16  17
ATOM     17  C   UNL     1       9.303  -1.599   5.285  1.00  0.00     0.000 C 
BRANCH  17  18
ATOM     18  C   UNL     1       8.250  -1.717   6.407  1.00  0.00     0.000 C 
BRANCH  18  19
ATOM     19  C   UNL     1       8.758  -2.329   7.725  1.00  0.00     0.000 C 
BRANCH  19  20
ATOM     20  C   UNL     1       9.411  -3.705   7.533  1.00  0.00     0.006 C 
BRANCH  20  21
ATOM     21  C   UNL     1       8.363  -4.823   7.606  1.00  0.00     0.053 C 
BRANCH  21  22
ATOM     22  C   UNL     1       8.166  -5.471   6.268  1.00  0.00     0.041 C 
ATOM     23  O   UNL     1       8.837  -5.089   5.272  1.00  0.00    -0.550 OA
ATOM     24  O   UNL     1       7.191  -6.449   6.106  1.00  0.00    -0.550 OA
ENDBRANCH  21  22
ENDBRANCH  20  21
ENDBRANCH  19  20
ENDBRANCH  18  19
ENDBRANCH  17  18
ENDBRANCH  16  17
ENDBRANCH  15  16
ENDBRANCH  14  15
ENDBRANCH  13  14
ENDBRANCH   1  13
TORSDOF 20
ENDMDL
MODEL 5
REMARK VINA RESULT:    -2.985     13.909     16.115
REMARK INTER + INTRA:          -9.437
REMARK INTER:                  -7.258
REMARK INTRA:                  -2.178
REMARK UNBOUND:                -2.962
REMARK SMILES CCCCCCCCCCCCCCCCCCCCCC(=O)[O-]
REMARK SMILES IDX 12 1 11 2 10 3 9 4 8 5 7 6 6 7 5 8 4 9 3 10 2 11 1 12 13 13
REMARK SMILES IDX 14 14 15 15 16 16 17 17 18 18 19 19 20 20 21 21 22 22 23 23
REMARK SMILES IDX 24 24
REMARK H PARENT
REMARK Flexibility Score: inf
ROOT
ATOM      1  C   UNL     1      -4.922  -7.958   7.264  1.00  0.00     0.000 C 
ENDROOT
BRANCH   1   2
ATOM      2  C   UNL     1      -5.592  -7.589   8.604  1.00  0.00     0.000 C 
BRANCH   2   3
ATOM      3  C   UNL     1      -5.666  -6.078   8.907  1.00  0.00     0.000 C 
BRANCH   3   4
ATOM      4  C   UNL     1      -6.569  -5.701  10.096  1.00  0.00    -0.000 C 
BRANCH   4   5
ATOM      5  C   UNL     1      -7.110  -4.258  10.068  1.00  0.00    -0.000 C 
BRANCH   5   6
ATOM      6  C   UNL     1      -7.618  -3.813   8.681  1.00  0.00    -0.000 C 
BRANCH   6   7
ATOM      7  C   UNL     1      -9.151  -3.830   8.578  1.00  0.00    -0.000 C 
BRANCH   7   8
ATOM      8  C   UNL     1      -9.751  -2.529   9.132  1.00  0.00    -0.000 C 
BRANCH   8   9
ATOM      9  C   UNL     1      -9.520  -1.325   8.204  1.00  0.00    -0.000 C 
BRANCH   9  10
ATOM     10  C   UNL     1      -9.077  -0.067   8.968  1.00  0.00    -0.000 C 
BRANCH  10  11
ATOM     11  C   UNL     1      -7.684   0.383   8.514  1.00  0.00    -0.003 C 
ATOM     12  C   UNL     1      -7.776   1.413   7.390  1.00  0.00     0.004 C 
ENDBRANCH  10  11
ENDBRANCH   9  10
ENDBRANCH   8   9
ENDBRANCH   7   8
ENDBRANCH   6   7
ENDBRANCH   5   6
ENDBRANCH   4   5
ENDBRANCH   3   4
ENDBRANCH   2   3
ENDBRANCH   1   2
BRANCH   1  13
ATOM     13  C   UNL     1      -3.482  -8.491   7.376  1.00  0.00     0.000 C 
BRANCH  13  14
ATOM     14  C   UNL     1      -3.216  -9.204   8.713  1.00  0.00     0.000 C 
BRANCH  14  15
ATOM     15  C   UNL     1      -3.513 -10.712   8.658  1.00  0.00     0.000 C 
BRANCH  15  16
ATOM     16  C   UNL     1      -4.369 -11.193   9.843  1.00  0.00     0.000 C 
BRANCH  16  17
ATOM     17  C   UNL     1      -5.879 -11.140   9.549  1.00  0.00     0.000 C 
BRANCH  17  18
ATOM     18  C   UNL     1      -6.277 -11.383   8.078  1.00  0.00     0.000 C 
BRANCH  18  19
ATOM     19  C   UNL     1      -7.456 -10.536   7.567  1.00  0.00     0.000 C 
BRANCH  19  20
ATOM     20  C   UNL     1      -7.677 -10.667   6.054  1.00  0.00     0.006 C 
BRANCH  20  21
ATOM     21  C   UNL     1      -6.341 -10.833   5.318  1.00  0.00     0.053 C 
BRANCH  21  22
ATOM     22  C   UNL     1      -6.418 -11.922   4.290  1.00  0.00     0.041 C 
ATOM     23  O   UNL     1      -7.503 -12.158   3.695  1.00  0.00    -0.550 OA
ATOM     24  O   UNL     1      -5.308 -12.721   4.039  1.00  0.00    -0.550 OA
ENDBRANCH  21  22
ENDBRANCH  20  21
ENDBRANCH  19  20
ENDBRANCH  18  19
ENDBRANCH  17  18
ENDBRANCH  16  17
ENDBRANCH  15  16
ENDBRANCH  14  15
ENDBRANCH  13  14
ENDBRANCH   1  13
TORSDOF 20
ENDMDL
MODEL 6
REMARK VINA RESULT:    -2.948      3.627      7.936
REMARK INTER + INTRA:          -9.357
REMARK INTER:                  -6.476
REMARK INTRA:                  -2.880
REMARK UNBOUND:                -2.962
REMARK SMILES CCCCCCCCCCCCCCCCCCCCCC(=O)[O-]
REMARK SMILES IDX 12 1 11 2 10 3 9 4 8 5 7 6 6 7 5 8 4 9 3 10 2 11 1 12 13 13
REMARK SMILES IDX 14 14 15 15 16 16 17 17 18 18 19 19 20 20 21 21 22 22 23 23
REMARK SMILES IDX 24 24
REMARK H PARENT
REMARK Flexibility Score: inf
ROOT
ATOM      1  C   UNL     1       7.817  -1.239   7.255  1.00  0.00     0.000 C 
ENDROOT
BRANCH   1   2
ATOM      2  C   UNL     1       8.838  -1.919   6.318  1.00  0.00     0.000 C 
BRANCH   2   3
ATOM      3  C   UNL     1       8.945  -3.450   6.466  1.00  0.00     0.000 C 
BRANCH   3   4
ATOM      4  C   UNL     1       9.512  -3.931   7.815  1.00  0.00    -0.000 C 
BRANCH   4   5
ATOM      5  C   UNL     1       8.600  -4.900   8.593  1.00  0.00    -0.000 C 
BRANCH   5   6
ATOM      6  C   UNL     1       7.661  -4.199   9.596  1.00  0.00    -0.000 C 
BRANCH   6   7
ATOM      7  C   UNL     1       6.367  -4.987   9.848  1.00  0.00    -0.000 C 
BRANCH   7   8
ATOM      8  C   UNL     1       6.490  -6.425   9.321  1.00  0.00    -0.000 C 
BRANCH   8   9
ATOM      9  C   UNL     1       5.177  -6.950   8.717  1.00  0.00    -0.000 C 
BRANCH   9  10
ATOM     10  C   UNL     1       5.261  -7.137   7.194  1.00  0.00    -0.000 C 
BRANCH  10  11
ATOM     11  C   UNL     1       6.680  -7.534   6.771  1.00  0.00    -0.003 C 
ATOM     12  C   UNL     1       7.184  -6.647   5.634  1.00  0.00     0.004 C 
ENDBRANCH  10  11
ENDBRANCH   9  10
ENDBRANCH   8   9
ENDBRANCH   7   8
ENDBRANCH   6   7
ENDBRANCH   5   6
ENDBRANCH   4   5
ENDBRANCH   3   4
ENDBRANCH   2   3
ENDBRANCH   1   2
BRANCH   1  13
ATOM     13  C   UNL     1       8.428  -0.454   8.431  1.00  0.00     0.000 C 
BRANCH  13  14
ATOM     14  C   UNL     1       7.417  -0.197   9.561  1.00  0.00     0.000 C 
BRANCH  14  15
ATOM     15  C   UNL     1       6.003  -0.704   9.229  1.00  0.00     0.000 C 
BRANCH  15  16
ATOM     16  C   UNL     1       4.911   0.338   9.534  1.00  0.00     0.000 C 
BRANCH  16  17
ATOM     17  C   UNL     1       5.377   1.783   9.281  1.00  0.00     0.000 C 
BRANCH  17  18
ATOM     18  C   UNL     1       4.961   2.386   7.922  1.00  0.00     0.000 C 
BRANCH  18  19
ATOM     19  C   UNL     1       6.106   3.000   7.098  1.00  0.00     0.000 C 
BRANCH  19  20
ATOM     20  C   UNL     1       6.761   1.995   6.140  1.00  0.00     0.006 C 
BRANCH  20  21
ATOM     21  C   UNL     1       7.317   2.702   4.899  1.00  0.00     0.053 C 
BRANCH  21  22
ATOM     22  C   UNL     1       6.216   3.110   3.966  1.00  0.00     0.041 C 
ATOM     23  O   UNL     1       5.515   2.235   3.390  1.00  0.00    -0.550 OA
ATOM     24  O   UNL     1       6.009   4.455   3.680  1.00  0.00    -0.550 OA
ENDBRANCH  21  22
ENDBRANCH  20  21
ENDBRANCH  19  20
ENDBRANCH  18  19
ENDBRANCH  17  18
ENDBRANCH  16  17
ENDBRANCH  15  16
ENDBRANCH  14  15
ENDBRANCH  13  14
ENDBRANCH   1  13
TORSDOF 20
ENDMDL
MODEL 7
REMARK VINA RESULT:    -2.933      3.896      7.363
REMARK INTER + INTRA:          -9.323
REMARK INTER:                  -6.385
REMARK INTRA:                  -2.938
REMARK UNBOUND:                -2.962
REMARK SMILES CCCCCCCCCCCCCCCCCCCCCC(=O)[O-]
REMARK SMILES IDX 12 1 11 2 10 3 9 4 8 5 7 6 6 7 5 8 4 9 3 10 2 11 1 12 13 13
REMARK SMILES IDX 14 14 15 15 16 16 17 17 18 18 19 19 20 20 21 21 22 22 23 23
REMARK SMILES IDX 24 24
REMARK H PARENT
REMARK Flexibility Score: inf
ROOT
ATOM      1  C   UNL     1       8.661  -0.566   4.178  1.00  0.00     0.000 C 
ENDROOT
BRANCH   1   2
ATOM      2  C   UNL     1       9.542  -1.799   4.470  1.00  0.00     0.000 C 
BRANCH   2   3
ATOM      3  C   UNL     1       9.504  -2.302   5.927  1.00  0.00     0.000 C 
BRANCH   3   4
ATOM      4  C   UNL     1       8.201  -1.985   6.686  1.00  0.00    -0.000 C 
BRANCH   4   5
ATOM      5  C   UNL     1       8.387  -1.646   8.178  1.00  0.00    -0.000 C 
BRANCH   5   6
ATOM      6  C   UNL     1       8.596  -0.141   8.452  1.00  0.00    -0.000 C 
BRANCH   6   7
ATOM      7  C   UNL     1       7.327   0.548   8.974  1.00  0.00    -0.000 C 
BRANCH   7   8
ATOM      8  C   UNL     1       6.268  -0.488   9.380  1.00  0.00    -0.000 C 
BRANCH   8   9
ATOM      9  C   UNL     1       4.852   0.107   9.452  1.00  0.00    -0.000 C 
BRANCH   9  10
ATOM     10  C   UNL     1       4.639   1.249   8.446  1.00  0.00    -0.000 C 
BRANCH  10  11
ATOM     11  C   UNL     1       3.249   1.873   8.617  1.00  0.00    -0.003 C 
ATOM     12  C   UNL     1       2.245   1.257   7.645  1.00  0.00     0.004 C 
ENDBRANCH  10  11
ENDBRANCH   9  10
ENDBRANCH   8   9
ENDBRANCH   7   8
ENDBRANCH   6   7
ENDBRANCH   5   6
ENDBRANCH   4   5
ENDBRANCH   3   4
ENDBRANCH   2   3
ENDBRANCH   1   2
BRANCH   1  13
ATOM     13  C   UNL     1       9.409   0.779   4.141  1.00  0.00     0.000 C 
BRANCH  13  14
ATOM     14  C   UNL     1       8.803   1.821   5.097  1.00  0.00     0.000 C 
BRANCH  14  15
ATOM     15  C   UNL     1       7.380   1.459   5.556  1.00  0.00     0.000 C 
BRANCH  15  16
ATOM     16  C   UNL     1       6.350   2.552   5.218  1.00  0.00     0.000 C 
BRANCH  16  17
ATOM     17  C   UNL     1       6.922   3.650   4.304  1.00  0.00     0.000 C 
BRANCH  17  18
ATOM     18  C   UNL     1       6.364   5.069   4.543  1.00  0.00     0.000 C 
BRANCH  18  19
ATOM     19  C   UNL     1       7.319   6.038   5.262  1.00  0.00     0.000 C 
BRANCH  19  20
ATOM     20  C   UNL     1       8.708   5.434   5.513  1.00  0.00     0.006 C 
BRANCH  20  21
ATOM     21  C   UNL     1       9.194   5.748   6.933  1.00  0.00     0.053 C 
BRANCH  21  22
ATOM     22  C   UNL     1       8.402   4.994   7.958  1.00  0.00     0.041 C 
ATOM     23  O   UNL     1       8.441   3.735   7.991  1.00  0.00    -0.550 OA
ATOM     24  O   UNL     1       7.565   5.679   8.833  1.00  0.00    -0.550 OA
ENDBRANCH  21  22
ENDBRANCH  20  21
ENDBRANCH  19  20
ENDBRANCH  18  19
ENDBRANCH  17  18
ENDBRANCH  16  17
ENDBRANCH  15  16
ENDBRANCH  14  15
ENDBRANCH  13  14
ENDBRANCH   1  13
TORSDOF 20
ENDMDL
MODEL 8
REMARK VINA RESULT:    -2.919      1.109      3.266
REMARK INTER + INTRA:          -9.294
REMARK INTER:                  -5.855
REMARK INTRA:                  -3.439
REMARK UNBOUND:                -2.962
REMARK SMILES CCCCCCCCCCCCCCCCCCCCCC(=O)[O-]
REMARK SMILES IDX 12 1 11 2 10 3 9 4 8 5 7 6 6 7 5 8 4 9 3 10 2 11 1 12 13 13
REMARK SMILES IDX 14 14 15 15 16 16 17 17 18 18 19 19 20 20 21 21 22 22 23 23
REMARK SMILES IDX 24 24
REMARK H PARENT
REMARK Flexibility Score: inf
ROOT
ATOM      1  C   UNL     1       8.355   1.749   6.843  1.00  0.00     0.000 C 
ENDROOT
BRANCH   1   2
ATOM      2  C   UNL     1       8.138   1.146   8.246  1.00  0.00     0.000 C 
BRANCH   2   3
ATOM      3  C   UNL     1       6.930   0.195   8.372  1.00  0.00     0.000 C 
BRANCH   3   4
ATOM      4  C   UNL     1       5.786   0.718   9.262  1.00  0.00    -0.000 C 
BRANCH   4   5
ATOM      5  C   UNL     1       4.546   1.220   8.495  1.00  0.00    -0.000 C 
BRANCH   5   6
ATOM      6  C   UNL     1       4.498   2.753   8.328  1.00  0.00    -0.000 C 
BRANCH   6   7
ATOM      7  C   UNL     1       5.237   3.496   9.451  1.00  0.00    -0.000 C 
BRANCH   7   8
ATOM      8  C   UNL     1       6.268   4.477   8.873  1.00  0.00    -0.000 C 
BRANCH   8   9
ATOM      9  C   UNL     1       6.112   4.678   7.357  1.00  0.00    -0.000 C 
BRANCH   9  10
ATOM     10  C   UNL     1       7.197   5.593   6.767  1.00  0.00    -0.000 C 
BRANCH  10  11
ATOM     11  C   UNL     1       7.566   5.152   5.346  1.00  0.00    -0.003 C 
ATOM     12  C   UNL     1       6.319   4.987   4.479  1.00  0.00     0.004 C 
ENDBRANCH  10  11
ENDBRANCH   9  10
ENDBRANCH   8   9
ENDBRANCH   7   8
ENDBRANCH   6   7
ENDBRANCH   5   6
ENDBRANCH   4   5
ENDBRANCH   3   4
ENDBRANCH   2   3
ENDBRANCH   1   2
BRANCH   1  13
ATOM     13  C   UNL     1       7.225   1.481   5.832  1.00  0.00     0.000 C 
BRANCH  13  14
ATOM     14  C   UNL     1       7.701   1.570   4.372  1.00  0.00     0.000 C 
BRANCH  14  15
ATOM     15  C   UNL     1       9.030   0.835   4.128  1.00  0.00     0.000 C 
BRANCH  15  16
ATOM     16  C   UNL     1       8.871  -0.696   4.129  1.00  0.00     0.000 C 
BRANCH  16  17
ATOM     17  C   UNL     1      10.013  -1.414   4.872  1.00  0.00     0.000 C 
BRANCH  17  18
ATOM     18  C   UNL     1       9.777  -1.651   6.379  1.00  0.00     0.000 C 
BRANCH  18  19
ATOM     19  C   UNL     1       8.674  -2.669   6.720  1.00  0.00     0.000 C 
BRANCH  19  20
ATOM     20  C   UNL     1       9.022  -4.098   6.282  1.00  0.00     0.006 C 
BRANCH  20  21
ATOM     21  C   UNL     1       8.354  -5.130   7.200  1.00  0.00     0.053 C 
BRANCH  21  22
ATOM     22  C   UNL     1       7.864  -6.313   6.421  1.00  0.00     0.041 C 
ATOM     23  O   UNL     1       6.922  -6.183   5.594  1.00  0.00    -0.550 OA
ATOM     24  O   UNL     1       8.400  -7.574   6.660  1.00  0.00    -0.550 OA
ENDBRANCH  21  22
ENDBRANCH  20  21
ENDBRANCH  19  20
ENDBRANCH  18  19
ENDBRANCH  17  18
ENDBRANCH  16  17
ENDBRANCH  15  16
ENDBRANCH  14  15
ENDBRANCH  13  14
ENDBRANCH   1  13
TORSDOF 20
ENDMDL
MODEL 9
REMARK VINA RESULT:    -2.879      1.354      3.606
REMARK INTER + INTRA:          -9.207
REMARK INTER:                  -6.131
REMARK INTRA:                  -3.075
REMARK UNBOUND:                -2.962
REMARK SMILES CCCCCCCCCCCCCCCCCCCCCC(=O)[O-]
REMARK SMILES IDX 12 1 11 2 10 3 9 4 8 5 7 6 6 7 5 8 4 9 3 10 2 11 1 12 13 13
REMARK SMILES IDX 14 14 15 15 16 16 17 17 18 18 19 19 20 20 21 21 22 22 23 23
REMARK SMILES IDX 24 24
REMARK H PARENT
REMARK Flexibility Score: inf
ROOT
ATOM      1  C   UNL     1       7.412   0.364   9.109  1.00  0.00     0.000 C 
ENDROOT
BRANCH   1   2
ATOM      2  C   UNL     1       6.056  -0.361   8.978  1.00  0.00     0.000 C 
BRANCH   2   3
ATOM      3  C   UNL     1       4.848   0.396   9.568  1.00  0.00     0.000 C 
BRANCH   3   4
ATOM      4  C   UNL     1       3.970   1.120   8.529  1.00  0.00    -0.000 C 
BRANCH   4   5
ATOM      5  C   UNL     1       3.732   2.616   8.811  1.00  0.00    -0.000 C 
BRANCH   5   6
ATOM      6  C   UNL     1       5.020   3.399   9.139  1.00  0.00    -0.000 C 
BRANCH   6   7
ATOM      7  C   UNL     1       5.646   4.057   7.900  1.00  0.00    -0.000 C 
BRANCH   7   8
ATOM      8  C   UNL     1       7.157   3.789   7.841  1.00  0.00    -0.000 C 
BRANCH   8   9
ATOM      9  C   UNL     1       7.602   3.187   6.499  1.00  0.00    -0.000 C 
BRANCH   9  10
ATOM     10  C   UNL     1       6.528   2.283   5.872  1.00  0.00    -0.000 C 
BRANCH  10  11
ATOM     11  C   UNL     1       6.295   2.653   4.403  1.00  0.00    -0.003 C 
ATOM     12  C   UNL     1       6.371   4.164   4.196  1.00  0.00     0.004 C 
ENDBRANCH  10  11
ENDBRANCH   9  10
ENDBRANCH   8   9
ENDBRANCH   7   8
ENDBRANCH   6   7
ENDBRANCH   5   6
ENDBRANCH   4   5
ENDBRANCH   3   4
ENDBRANCH   2   3
ENDBRANCH   1   2
BRANCH   1  13
ATOM     13  C   UNL     1       8.492  -0.081   8.107  1.00  0.00     0.000 C 
BRANCH  13  14
ATOM     14  C   UNL     1       7.929  -0.968   6.983  1.00  0.00     0.000 C 
BRANCH  14  15
ATOM     15  C   UNL     1       8.670  -2.309   6.848  1.00  0.00     0.000 C 
BRANCH  15  16
ATOM     16  C   UNL     1       9.699  -2.536   7.969  1.00  0.00     0.000 C 
BRANCH  16  17
ATOM     17  C   UNL     1       9.288  -3.656   8.940  1.00  0.00     0.000 C 
BRANCH  17  18
ATOM     18  C   UNL     1       7.861  -4.212   8.747  1.00  0.00     0.000 C 
BRANCH  18  19
ATOM     19  C   UNL     1       7.782  -5.695   8.346  1.00  0.00     0.000 C 
BRANCH  19  20
ATOM     20  C   UNL     1       8.841  -6.093   7.308  1.00  0.00     0.006 C 
BRANCH  20  21
ATOM     21  C   UNL     1       8.365  -5.770   5.887  1.00  0.00     0.053 C 
BRANCH  21  22
ATOM     22  C   UNL     1       8.182  -7.018   5.078  1.00  0.00     0.041 C 
ATOM     23  O   UNL     1       7.856  -8.098   5.640  1.00  0.00    -0.550 OA
ATOM     24  O   UNL     1       8.439  -7.005   3.711  1.00  0.00    -0.550 OA
ENDBRANCH  21  22
ENDBRANCH  20  21
ENDBRANCH  19  20
ENDBRANCH  18  19
ENDBRANCH  17  18
ENDBRANCH  16  17
ENDBRANCH  15  16
ENDBRANCH  14  15
ENDBRANCH  13  14
ENDBRANCH   1  13
TORSDOF 20
ENDMDL
