MODEL 1
REMARK VINA RESULT:    -3.917      0.000      0.000
REMARK INTER + INTRA:          -5.308
REMARK INTER:                  -4.719
REMARK INTRA:                  -0.590
REMARK UNBOUND:                -0.590
REMARK SMILES O=c1ccn([C@H]2O[C@@H](CO)[C@@H](O)[C@@H]2O)c(=O)[nH]1
REMARK SMILES IDX 6 1 13 2 11 3 8 4 7 5 5 6 3 7 4 8 2 9 17 10 1 11 15 12 16 14
REMARK SMILES IDX 14 15 12 17 9 19 10 20
REMARK H PARENT 17 13 14 16 12 18 10 21
REMARK Flexibility Score: inf
ROOT
ATOM      1  C   UNL     1     128.940 128.691 139.546  1.00  0.00     0.255 C 
ATOM      2  C   UNL     1     127.560 128.791 140.192  1.00  0.00     0.196 C 
ATOM      3  C   UNL     1     127.653 130.113 140.917  1.00  0.00     0.179 C 
ATOM      4  C   UNL     1     128.646 130.909 140.052  1.00  0.00     0.178 C 
ATOM      5  O   UNL     1     129.409 129.999 139.280  1.00  0.00    -0.347 OA
ENDROOT
BRANCH   1   6
ATOM      6  N   UNL     1     128.884 127.888 138.307  1.00  0.00    -0.271 N 
ATOM      7  C   UNL     1     127.772 127.313 136.259  1.00  0.00     0.090 A 
ATOM      8  C   UNL     1     127.861 128.080 137.418  1.00  0.00     0.099 A 
ATOM      9  C   UNL     1     128.736 126.338 136.030  1.00  0.00     0.253 A 
ATOM     10  N   UNL     1     129.733 126.147 136.934  1.00  0.00    -0.274 N 
ATOM     11  O   UNL     1     128.681 125.630 134.989  1.00  0.00    -0.269 OA
ATOM     12  C   UNL     1     129.809 126.901 138.065  1.00  0.00     0.330 A 
ATOM     13  H   UNL     1     130.448 125.405 136.760  1.00  0.00     0.175 HD
ATOM     14  O   UNL     1     130.740 126.678 138.888  1.00  0.00    -0.248 OA
ENDBRANCH   1   6
BRANCH   2  15
ATOM     15  O   UNL     1     127.278 127.715 141.053  1.00  0.00    -0.386 OA
ATOM     16  H   UNL     1     128.081 127.131 141.100  1.00  0.00     0.211 HD
ENDBRANCH   2  15
BRANCH   3  17
ATOM     17  O   UNL     1     126.407 130.743 141.107  1.00  0.00    -0.387 OA
ATOM     18  H   UNL     1     126.314 131.480 140.449  1.00  0.00     0.211 HD
ENDBRANCH   3  17
BRANCH   4  19
ATOM     19  C   UNL     1     127.984 131.927 139.112  1.00  0.00     0.191 C 
BRANCH  19  20
ATOM     20  O   UNL     1     127.439 132.976 139.864  1.00  0.00    -0.394 OA
ATOM     21  H   UNL     1     127.049 133.611 139.208  1.00  0.00     0.210 HD
ENDBRANCH  19  20
ENDBRANCH   4  19
TORSDOF 5
ENDMDL
MODEL 2
REMARK VINA RESULT:    -3.892     13.429     15.340
REMARK INTER + INTRA:          -5.278
REMARK INTER:                  -4.669
REMARK INTRA:                  -0.609
REMARK UNBOUND:                -0.590
REMARK SMILES O=c1ccn([C@H]2O[C@@H](CO)[C@@H](O)[C@@H]2O)c(=O)[nH]1
REMARK SMILES IDX 6 1 13 2 11 3 8 4 7 5 5 6 3 7 4 8 2 9 17 10 1 11 15 12 16 14
REMARK SMILES IDX 14 15 12 17 9 19 10 20
REMARK H PARENT 17 13 14 16 12 18 10 21
REMARK Flexibility Score: inf
ROOT
ATOM      1  C   UNL     1     139.933 128.761 129.261  1.00  0.00     0.255 C 
ATOM      2  C   UNL     1     141.308 128.775 128.597  1.00  0.00     0.196 C 
ATOM      3  C   UNL     1     141.298 130.112 127.892  1.00  0.00     0.179 C 
ATOM      4  C   UNL     1     140.375 130.961 128.783  1.00  0.00     0.178 C 
ATOM      5  O   UNL     1     139.561 130.094 129.553  1.00  0.00    -0.347 OA
ENDROOT
BRANCH   1   6
ATOM      6  N   UNL     1     139.949 127.937 130.487  1.00  0.00    -0.271 N 
ATOM      7  C   UNL     1     141.016 127.298 132.539  1.00  0.00     0.090 A 
ATOM      8  C   UNL     1     140.966 128.086 131.393  1.00  0.00     0.099 A 
ATOM      9  C   UNL     1     140.023 126.346 132.739  1.00  0.00     0.253 A 
ATOM     10  N   UNL     1     139.034 126.198 131.819  1.00  0.00    -0.274 N 
ATOM     11  O   UNL     1     140.043 125.620 133.768  1.00  0.00    -0.269 OA
ATOM     12  C   UNL     1     138.994 126.972 130.700  1.00  0.00     0.330 A 
ATOM     13  H   UNL     1     138.296 125.473 131.971  1.00  0.00     0.175 HD
ATOM     14  O   UNL     1     138.070 126.789 129.860  1.00  0.00    -0.248 OA
ENDBRANCH   1   6
BRANCH   2  15
ATOM     15  O   UNL     1     141.502 127.695 127.715  1.00  0.00    -0.386 OA
ATOM     16  H   UNL     1     141.180 126.867 128.158  1.00  0.00     0.211 HD
ENDBRANCH   2  15
BRANCH   3  17
ATOM     17  O   UNL     1     142.583 130.656 127.694  1.00  0.00    -0.387 OA
ATOM     18  H   UNL     1     143.230 129.915 127.558  1.00  0.00     0.211 HD
ENDBRANCH   3  17
BRANCH   4  19
ATOM     19  C   UNL     1     141.121 131.915 129.729  1.00  0.00     0.191 C 
BRANCH  19  20
ATOM     20  O   UNL     1     141.460 133.088 129.042  1.00  0.00    -0.394 OA
ATOM     21  H   UNL     1     140.657 133.671 129.080  1.00  0.00     0.210 HD
ENDBRANCH  19  20
ENDBRANCH   4  19
TORSDOF 5
ENDMDL
MODEL 3
REMARK VINA RESULT:    -3.882      6.833     10.193
REMARK INTER + INTRA:          -5.266
REMARK INTER:                  -4.663
REMARK INTRA:                  -0.604
REMARK UNBOUND:                -0.590
REMARK SMILES O=c1ccn([C@H]2O[C@@H](CO)[C@@H](O)[C@@H]2O)c(=O)[nH]1
REMARK SMILES IDX 6 1 13 2 11 3 8 4 7 5 5 6 3 7 4 8 2 9 17 10 1 11 15 12 16 14
REMARK SMILES IDX 14 15 12 17 9 19 10 20
REMARK H PARENT 17 13 14 16 12 18 10 21
REMARK Flexibility Score: inf
ROOT
ATOM      1  C   UNL     1     128.707 128.887 129.193  1.00  0.00     0.255 C 
ATOM      2  C   UNL     1     128.768 127.498 128.562  1.00  0.00     0.196 C 
ATOM      3  C   UNL     1     130.088 127.549 127.829  1.00  0.00     0.179 C 
ATOM      4  C   UNL     1     130.914 128.530 128.679  1.00  0.00     0.178 C 
ATOM      5  O   UNL     1     130.028 129.324 129.448  1.00  0.00    -0.347 OA
ENDROOT
BRANCH   1   6
ATOM      6  N   UNL     1     127.909 128.865 130.436  1.00  0.00    -0.271 N 
ATOM      7  C   UNL     1     127.319 127.793 132.500  1.00  0.00     0.090 A 
ATOM      8  C   UNL     1     128.082 127.848 131.338  1.00  0.00     0.099 A 
ATOM      9  C   UNL     1     126.367 128.781 132.722  1.00  0.00     0.253 A 
ATOM     10  N   UNL     1     126.195 129.771 131.807  1.00  0.00    -0.274 N 
ATOM     11  O   UNL     1     125.663 128.756 133.767  1.00  0.00    -0.269 OA
ATOM     12  C   UNL     1     126.945 129.816 130.671  1.00  0.00     0.330 A 
ATOM     13  H   UNL     1     125.471 130.505 131.975  1.00  0.00     0.175 HD
ATOM     14  O   UNL     1     126.740 130.741 129.837  1.00  0.00    -0.248 OA
ENDBRANCH   1   6
BRANCH   2  15
ATOM     15  O   UNL     1     127.680 127.235 127.708  1.00  0.00    -0.386 OA
ATOM     16  H   UNL     1     127.458 128.070 127.217  1.00  0.00     0.211 HD
ENDBRANCH   2  15
BRANCH   3  17
ATOM     17  O   UNL     1     130.684 126.284 127.649  1.00  0.00    -0.387 OA
ATOM     18  H   UNL     1     129.999 125.649 127.316  1.00  0.00     0.211 HD
ENDBRANCH   3  17
BRANCH   4  19
ATOM     19  C   UNL     1     131.919 127.850 129.622  1.00  0.00     0.191 C 
BRANCH  19  20
ATOM     20  O   UNL     1     132.999 127.356 128.880  1.00  0.00    -0.394 OA
ATOM     21  H   UNL     1     132.622 126.674 128.266  1.00  0.00     0.210 HD
ENDBRANCH  19  20
ENDBRANCH   4  19
TORSDOF 5
ENDMDL
MODEL 4
REMARK VINA RESULT:    -3.875     17.723     19.148
REMARK INTER + INTRA:          -5.257
REMARK INTER:                  -4.651
REMARK INTRA:                  -0.606
REMARK UNBOUND:                -0.590
REMARK SMILES O=c1ccn([C@H]2O[C@@H](CO)[C@@H](O)[C@@H]2O)c(=O)[nH]1
REMARK SMILES IDX 6 1 13 2 11 3 8 4 7 5 5 6 3 7 4 8 2 9 17 10 1 11 15 12 16 14
REMARK SMILES IDX 14 15 12 17 9 19 10 20
REMARK H PARENT 17 13 14 16 12 18 10 21
REMARK Flexibility Score: inf
ROOT
ATOM      1  C   UNL     1     140.066 139.838 129.320  1.00  0.00     0.255 C 
ATOM      2  C   UNL     1     139.986 141.205 128.644  1.00  0.00     0.196 C 
ATOM      3  C   UNL     1     138.660 141.117 127.924  1.00  0.00     0.179 C 
ATOM      4  C   UNL     1     137.851 140.158 128.814  1.00  0.00     0.178 C 
ATOM      5  O   UNL     1     138.751 139.398 129.601  1.00  0.00    -0.347 OA
ENDROOT
BRANCH   1   6
ATOM      6  N   UNL     1     140.873 139.909 130.556  1.00  0.00    -0.271 N 
ATOM      7  C   UNL     1     141.435 141.030 132.602  1.00  0.00     0.090 A 
ATOM      8  C   UNL     1     140.664 140.928 131.448  1.00  0.00     0.099 A 
ATOM      9  C   UNL     1     142.431 140.087 132.825  1.00  0.00     0.253 A 
ATOM     10  N   UNL     1     142.637 139.095 131.920  1.00  0.00    -0.274 N 
ATOM     11  O   UNL     1     143.142 140.155 133.863  1.00  0.00    -0.269 OA
ATOM     12  C   UNL     1     141.879 139.004 130.792  1.00  0.00     0.330 A 
ATOM     13  H   UNL     1     143.395 138.395 132.089  1.00  0.00     0.175 HD
ATOM     14  O   UNL     1     142.117 138.079 129.967  1.00  0.00    -0.248 OA
ENDBRANCH   1   6
BRANCH   2  15
ATOM     15  O   UNL     1     141.064 141.449 127.773  1.00  0.00    -0.386 OA
ATOM     16  H   UNL     1     141.910 141.289 128.269  1.00  0.00     0.211 HD
ENDBRANCH   2  15
BRANCH   3  17
ATOM     17  O   UNL     1     138.051 142.369 127.707  1.00  0.00    -0.387 OA
ATOM     18  H   UNL     1     138.610 143.077 128.121  1.00  0.00     0.211 HD
ENDBRANCH   3  17
BRANCH   4  19
ATOM     19  C   UNL     1     136.847 140.859 129.741  1.00  0.00     0.191 C 
BRANCH  19  20
ATOM     20  O   UNL     1     135.762 141.328 128.991  1.00  0.00    -0.394 OA
ATOM     21  H   UNL     1     134.993 140.744 129.224  1.00  0.00     0.210 HD
ENDBRANCH  19  20
ENDBRANCH   4  19
TORSDOF 5
ENDMDL
MODEL 5
REMARK VINA RESULT:    -3.869     10.530     12.107
REMARK INTER + INTRA:          -5.250
REMARK INTER:                  -4.659
REMARK INTRA:                  -0.592
REMARK UNBOUND:                -0.590
REMARK SMILES O=c1ccn([C@H]2O[C@@H](CO)[C@@H](O)[C@@H]2O)c(=O)[nH]1
REMARK SMILES IDX 6 1 13 2 11 3 8 4 7 5 5 6 3 7 4 8 2 9 17 10 1 11 15 12 16 14
REMARK SMILES IDX 14 15 12 17 9 19 10 20
REMARK H PARENT 17 13 14 16 12 18 10 21
REMARK Flexibility Score: inf
ROOT
ATOM      1  C   UNL     1     128.670 139.798 139.531  1.00  0.00     0.255 C 
ATOM      2  C   UNL     1     128.711 141.178 140.182  1.00  0.00     0.196 C 
ATOM      3  C   UNL     1     130.033 141.138 140.911  1.00  0.00     0.179 C 
ATOM      4  C   UNL     1     130.872 140.182 140.045  1.00  0.00     0.178 C 
ATOM      5  O   UNL     1     129.997 139.385 139.268  1.00  0.00    -0.347 OA
ENDROOT
BRANCH   1   6
ATOM      6  N   UNL     1     127.869 139.825 138.289  1.00  0.00    -0.271 N 
ATOM      7  C   UNL     1     127.287 140.897 136.223  1.00  0.00     0.090 A 
ATOM      8  C   UNL     1     128.052 140.836 137.384  1.00  0.00     0.099 A 
ATOM      9  C   UNL     1     126.322 139.919 136.007  1.00  0.00     0.253 A 
ATOM     10  N   UNL     1     126.141 138.935 136.926  1.00  0.00    -0.274 N 
ATOM     11  O   UNL     1     125.617 139.949 134.964  1.00  0.00    -0.269 OA
ATOM     12  C   UNL     1     126.894 138.885 138.060  1.00  0.00     0.330 A 
ATOM     13  H   UNL     1     125.408 138.208 136.762  1.00  0.00     0.175 HD
ATOM     14  O   UNL     1     126.680 137.965 138.898  1.00  0.00    -0.248 OA
ENDBRANCH   1   6
BRANCH   2  15
ATOM     15  O   UNL     1     127.621 141.412 141.041  1.00  0.00    -0.386 OA
ATOM     16  H   UNL     1     127.729 140.843 141.847  1.00  0.00     0.211 HD
ENDBRANCH   2  15
BRANCH   3  17
ATOM     17  O   UNL     1     130.610 142.409 141.107  1.00  0.00    -0.387 OA
ATOM     18  H   UNL     1     129.913 143.031 141.443  1.00  0.00     0.211 HD
ENDBRANCH   3  17
BRANCH   4  19
ATOM     19  C   UNL     1     131.864 140.890 139.111  1.00  0.00     0.191 C 
BRANCH  19  20
ATOM     20  O   UNL     1     132.889 141.474 139.867  1.00  0.00    -0.394 OA
ATOM     21  H   UNL     1     132.846 141.048 140.763  1.00  0.00     0.210 HD
ENDBRANCH  19  20
ENDBRANCH   4  19
TORSDOF 5
ENDMDL
MODEL 6
REMARK VINA RESULT:    -3.868     12.995     15.422
REMARK INTER + INTRA:          -5.250
REMARK INTER:                  -4.652
REMARK INTRA:                  -0.598
REMARK UNBOUND:                -0.590
REMARK SMILES O=c1ccn([C@H]2O[C@@H](CO)[C@@H](O)[C@@H]2O)c(=O)[nH]1
REMARK SMILES IDX 6 1 13 2 11 3 8 4 7 5 5 6 3 7 4 8 2 9 17 10 1 11 15 12 16 14
REMARK SMILES IDX 14 15 12 17 9 19 10 20
REMARK H PARENT 17 13 14 16 12 18 10 21
REMARK Flexibility Score: inf
ROOT
ATOM      1  C   UNL     1     128.973 140.112 129.263  1.00  0.00     0.255 C 
ATOM      2  C   UNL     1     127.600 140.074 128.597  1.00  0.00     0.196 C 
ATOM      3  C   UNL     1     127.645 138.751 127.869  1.00  0.00     0.179 C 
ATOM      4  C   UNL     1     128.589 137.910 128.745  1.00  0.00     0.178 C 
ATOM      5  O   UNL     1     129.379 138.783 129.532  1.00  0.00    -0.347 OA
ENDROOT
BRANCH   1   6
ATOM      6  N   UNL     1     128.933 140.913 130.505  1.00  0.00    -0.271 N 
ATOM      7  C   UNL     1     127.837 141.501 132.557  1.00  0.00     0.090 A 
ATOM      8  C   UNL     1     127.909 140.735 131.397  1.00  0.00     0.099 A 
ATOM      9  C   UNL     1     128.817 142.460 132.785  1.00  0.00     0.253 A 
ATOM     10  N   UNL     1     129.814 142.636 131.879  1.00  0.00    -0.274 N 
ATOM     11  O   UNL     1     128.777 143.166 133.828  1.00  0.00    -0.269 OA
ATOM     12  C   UNL     1     129.875 141.883 130.746  1.00  0.00     0.330 A 
ATOM     13  H   UNL     1     130.542 143.366 132.053  1.00  0.00     0.175 HD
ATOM     14  O   UNL     1     130.807 142.093 129.921  1.00  0.00    -0.248 OA
ENDBRANCH   1   6
BRANCH   2  15
ATOM     15  O   UNL     1     127.378 141.164 127.736  1.00  0.00    -0.386 OA
ATOM     16  H   UNL     1     127.758 141.979 128.157  1.00  0.00     0.211 HD
ENDBRANCH   2  15
BRANCH   3  17
ATOM     17  O   UNL     1     126.375 138.177 127.658  1.00  0.00    -0.387 OA
ATOM     18  H   UNL     1     126.104 138.330 126.715  1.00  0.00     0.211 HD
ENDBRANCH   3  17
BRANCH   4  19
ATOM     19  C   UNL     1     127.868 136.920 129.672  1.00  0.00     0.191 C 
BRANCH  19  20
ATOM     20  O   UNL     1     127.324 135.876 128.913  1.00  0.00    -0.394 OA
ATOM     21  H   UNL     1     127.739 135.944 128.014  1.00  0.00     0.210 HD
ENDBRANCH  19  20
ENDBRANCH   4  19
TORSDOF 5
ENDMDL
MODEL 7
REMARK VINA RESULT:    -3.865     10.654     12.212
REMARK INTER + INTRA:          -5.246
REMARK INTER:                  -4.641
REMARK INTRA:                  -0.605
REMARK UNBOUND:                -0.590
REMARK SMILES O=c1ccn([C@H]2O[C@@H](CO)[C@@H](O)[C@@H]2O)c(=O)[nH]1
REMARK SMILES IDX 6 1 13 2 11 3 8 4 7 5 5 6 3 7 4 8 2 9 17 10 1 11 15 12 16 14
REMARK SMILES IDX 14 15 12 17 9 19 10 20
REMARK H PARENT 17 13 14 16 12 18 10 21
REMARK Flexibility Score: inf
ROOT
ATOM      1  C   UNL     1     140.110 128.973 139.551  1.00  0.00     0.255 C 
ATOM      2  C   UNL     1     140.061 127.580 140.174  1.00  0.00     0.196 C 
ATOM      3  C   UNL     1     138.738 127.614 140.905  1.00  0.00     0.179 C 
ATOM      4  C   UNL     1     137.906 128.592 140.057  1.00  0.00     0.178 C 
ATOM      5  O   UNL     1     138.786 129.398 139.295  1.00  0.00    -0.347 OA
ENDROOT
BRANCH   1   6
ATOM      6  N   UNL     1     140.911 128.965 138.309  1.00  0.00    -0.271 N 
ATOM      7  C   UNL     1     141.490 127.927 136.224  1.00  0.00     0.090 A 
ATOM      8  C   UNL     1     140.725 127.970 137.386  1.00  0.00     0.099 A 
ATOM      9  C   UNL     1     142.458 128.905 136.026  1.00  0.00     0.253 A 
ATOM     10  N   UNL     1     142.642 129.873 136.962  1.00  0.00    -0.274 N 
ATOM     11  O   UNL     1     143.163 128.891 134.982  1.00  0.00    -0.269 OA
ATOM     12  C   UNL     1     141.890 129.905 138.096  1.00  0.00     0.330 A 
ATOM     13  H   UNL     1     143.378 130.599 136.810  1.00  0.00     0.175 HD
ATOM     14  O   UNL     1     142.107 130.810 138.950  1.00  0.00    -0.248 OA
ENDBRANCH   1   6
BRANCH   2  15
ATOM     15  O   UNL     1     141.149 127.323 141.029  1.00  0.00    -0.386 OA
ATOM     16  H   UNL     1     140.838 126.731 141.763  1.00  0.00     0.211 HD
ENDBRANCH   2  15
BRANCH   3  17
ATOM     17  O   UNL     1     138.154 126.343 141.076  1.00  0.00    -0.387 OA
ATOM     18  H   UNL     1     137.676 126.323 141.946  1.00  0.00     0.211 HD
ENDBRANCH   3  17
BRANCH   4  19
ATOM     19  C   UNL     1     136.909 127.908 139.109  1.00  0.00     0.191 C 
BRANCH  19  20
ATOM     20  O   UNL     1     135.835 127.393 139.847  1.00  0.00    -0.394 OA
ATOM     21  H   UNL     1     135.015 127.634 139.344  1.00  0.00     0.210 HD
ENDBRANCH  19  20
ENDBRANCH   4  19
TORSDOF 5
ENDMDL
MODEL 8
REMARK VINA RESULT:    -3.865     15.334     17.219
REMARK INTER + INTRA:          -5.246
REMARK INTER:                  -4.658
REMARK INTRA:                  -0.587
REMARK UNBOUND:                -0.590
REMARK SMILES O=c1ccn([C@H]2O[C@@H](CO)[C@@H](O)[C@@H]2O)c(=O)[nH]1
REMARK SMILES IDX 6 1 13 2 11 3 8 4 7 5 5 6 3 7 4 8 2 9 17 10 1 11 15 12 16 14
REMARK SMILES IDX 14 15 12 17 9 19 10 20
REMARK H PARENT 17 13 14 16 12 18 10 21
REMARK Flexibility Score: inf
ROOT
ATOM      1  C   UNL     1     139.847 140.097 139.530  1.00  0.00     0.255 C 
ATOM      2  C   UNL     1     141.222 140.004 140.187  1.00  0.00     0.196 C 
ATOM      3  C   UNL     1     141.133 138.680 140.908  1.00  0.00     0.179 C 
ATOM      4  C   UNL     1     140.153 137.880 140.033  1.00  0.00     0.178 C 
ATOM      5  O   UNL     1     139.390 138.786 139.257  1.00  0.00    -0.347 OA
ENDROOT
BRANCH   1   6
ATOM      6  N   UNL     1     139.907 140.903 138.293  1.00  0.00    -0.271 N 
ATOM      7  C   UNL     1     141.028 141.485 136.253  1.00  0.00     0.090 A 
ATOM      8  C   UNL     1     140.936 140.715 137.408  1.00  0.00     0.099 A 
ATOM      9  C   UNL     1     140.064 142.460 136.021  1.00  0.00     0.253 A 
ATOM     10  N   UNL     1     139.062 142.645 136.921  1.00  0.00    -0.274 N 
ATOM     11  O   UNL     1     140.122 143.170 134.983  1.00  0.00    -0.269 OA
ATOM     12  C   UNL     1     138.981 141.888 138.050  1.00  0.00     0.330 A 
ATOM     13  H   UNL     1     138.346 143.387 136.745  1.00  0.00     0.175 HD
ATOM     14  O   UNL     1     138.046 142.107 138.869  1.00  0.00    -0.248 OA
ENDBRANCH   1   6
BRANCH   2  15
ATOM     15  O   UNL     1     141.490 141.081 141.053  1.00  0.00    -0.386 OA
ATOM     16  H   UNL     1     141.004 140.925 141.905  1.00  0.00     0.211 HD
ENDBRANCH   2  15
BRANCH   3  17
ATOM     17  O   UNL     1     142.383 138.059 141.107  1.00  0.00    -0.387 OA
ATOM     18  H   UNL     1     143.102 138.690 140.843  1.00  0.00     0.211 HD
ENDBRANCH   3  17
BRANCH   4  19
ATOM     19  C   UNL     1     140.831 136.869 139.096  1.00  0.00     0.191 C 
BRANCH  19  20
ATOM     20  O   UNL     1     141.388 135.829 139.850  1.00  0.00    -0.394 OA
ATOM     21  H   UNL     1     142.292 135.667 139.472  1.00  0.00     0.210 HD
ENDBRANCH  19  20
ENDBRANCH   4  19
TORSDOF 5
ENDMDL
MODEL 9
REMARK VINA RESULT:    -3.731     18.747     20.078
REMARK INTER + INTRA:          -5.084
REMARK INTER:                  -4.355
REMARK INTRA:                  -0.729
REMARK UNBOUND:                -0.590
REMARK SMILES O=c1ccn([C@H]2O[C@@H](CO)[C@@H](O)[C@@H]2O)c(=O)[nH]1
REMARK SMILES IDX 6 1 13 2 11 3 8 4 7 5 5 6 3 7 4 8 2 9 17 10 1 11 15 12 16 14
REMARK SMILES IDX 14 15 12 17 9 19 10 20
REMARK H PARENT 17 13 14 16 12 18 10 21
REMARK Flexibility Score: inf
ROOT
ATOM      1  C   UNL     1     140.034 141.083 131.265  1.00  0.00     0.255 C 
ATOM      2  C   UNL     1     140.623 140.904 129.868  1.00  0.00     0.196 C 
ATOM      3  C   UNL     1     139.380 140.729 129.027  1.00  0.00     0.179 C 
ATOM      4  C   UNL     1     138.327 141.538 129.803  1.00  0.00     0.178 C 
ATOM      5  O   UNL     1     138.761 141.687 131.142  1.00  0.00    -0.347 OA
ENDROOT
BRANCH   1   6
ATOM      6  N   UNL     1     140.928 141.900 132.112  1.00  0.00    -0.271 N 
ATOM      7  C   UNL     1     141.667 144.055 132.867  1.00  0.00     0.090 A 
ATOM      8  C   UNL     1     140.816 143.265 132.100  1.00  0.00     0.099 A 
ATOM      9  C   UNL     1     142.644 143.432 133.634  1.00  0.00     0.253 A 
ATOM     10  N   UNL     1     142.754 142.077 133.618  1.00  0.00    -0.274 N 
ATOM     11  O   UNL     1     143.428 144.122 134.339  1.00  0.00    -0.269 OA
ATOM     12  C   UNL     1     141.917 141.313 132.863  1.00  0.00     0.330 A 
ATOM     13  H   UNL     1     143.497 141.616 134.190  1.00  0.00     0.175 HD
ATOM     14  O   UNL     1     142.066 140.060 132.861  1.00  0.00    -0.248 OA
ENDBRANCH   1   6
BRANCH   2  15
ATOM     15  O   UNL     1     141.501 139.807 129.779  1.00  0.00    -0.386 OA
ATOM     16  H   UNL     1     141.562 139.381 130.674  1.00  0.00     0.211 HD
ENDBRANCH   2  15
BRANCH   3  17
ATOM     17  O   UNL     1     139.546 141.119 127.683  1.00  0.00    -0.387 OA
ATOM     18  H   UNL     1     140.278 141.787 127.629  1.00  0.00     0.211 HD
ENDBRANCH   3  17
BRANCH   4  19
ATOM     19  C   UNL     1     138.045 142.929 129.213  1.00  0.00     0.191 C 
BRANCH  19  20
ATOM     20  O   UNL     1     137.260 142.800 128.060  1.00  0.00    -0.394 OA
ATOM     21  H   UNL     1     136.821 143.680 127.926  1.00  0.00     0.210 HD
ENDBRANCH  19  20
ENDBRANCH   4  19
TORSDOF 5
ENDMDL
