MODEL 1
REMARK VINA RESULT:    -4.465      0.000      0.000
REMARK INTER + INTRA:         -10.179
REMARK INTER:                  -8.642
REMARK INTRA:                  -1.537
REMARK UNBOUND:                -1.537
REMARK SMILES CCCCCCCCCCCCCCCCCC(=O)[O-]
REMARK SMILES IDX 10 1 11 2 12 3 13 4 14 5 15 6 16 7 17 8 18 9 19 10 20 11
REMARK SMILES IDX 9 12 8 13 7 14 6 15 5 16 4 17 3 18 2 19 1 20
REMARK H PARENT
REMARK Flexibility Score: inf
ROOT
ATOM      1  C   UNL     1     -10.573 -12.300   6.255  1.00  0.00     0.000 C 
ENDROOT
BRANCH   1   2
ATOM      2  C   UNL     1      -9.090 -12.706   6.274  1.00  0.00     0.000 C 
BRANCH   2   3
ATOM      3  C   UNL     1      -8.738 -13.715   5.167  1.00  0.00     0.000 C 
BRANCH   3   4
ATOM      4  C   UNL     1      -7.228 -13.998   5.075  1.00  0.00     0.000 C 
BRANCH   4   5
ATOM      5  C   UNL     1      -6.830 -15.480   5.233  1.00  0.00     0.000 C 
BRANCH   5   6
ATOM      6  C   UNL     1      -5.416 -15.835   4.733  1.00  0.00     0.000 C 
BRANCH   6   7
ATOM      7  C   UNL     1      -4.921 -17.243   5.123  1.00  0.00     0.006 C 
BRANCH   7   8
ATOM      8  C   UNL     1      -3.446 -17.301   5.548  1.00  0.00     0.053 C 
BRANCH   8   9
ATOM      9  C   UNL     1      -2.557 -16.575   4.585  1.00  0.00     0.041 C 
ATOM     10  O   UNL     1      -1.936 -15.543   4.951  1.00  0.00    -0.550 OA
ATOM     11  O   UNL     1      -2.387 -17.059   3.295  1.00  0.00    -0.550 OA
ENDBRANCH   8   9
ENDBRANCH   7   8
ENDBRANCH   6   7
ENDBRANCH   5   6
ENDBRANCH   4   5
ENDBRANCH   3   4
ENDBRANCH   2   3
ENDBRANCH   1   2
BRANCH   1  12
ATOM     12  C   UNL     1     -10.770 -10.789   6.040  1.00  0.00     0.000 C 
BRANCH  12  13
ATOM     13  C   UNL     1     -12.254 -10.397   5.949  1.00  0.00    -0.000 C 
BRANCH  13  14
ATOM     14  C   UNL     1     -12.682  -9.436   7.073  1.00  0.00    -0.000 C 
BRANCH  14  15
ATOM     15  C   UNL     1     -13.672 -10.080   8.056  1.00  0.00    -0.000 C 
BRANCH  15  16
ATOM     16  C   UNL     1     -13.124 -10.138   9.492  1.00  0.00    -0.000 C 
BRANCH  16  17
ATOM     17  C   UNL     1     -11.644  -9.721   9.564  1.00  0.00    -0.000 C 
BRANCH  17  18
ATOM     18  C   UNL     1     -10.714 -10.856  10.049  1.00  0.00    -0.000 C 
BRANCH  18  19
ATOM     19  C   UNL     1      -9.294 -10.776   9.466  1.00  0.00    -0.003 C 
ATOM     20  C   UNL     1      -8.925  -9.373   8.989  1.00  0.00     0.004 C 
ENDBRANCH  18  19
ENDBRANCH  17  18
ENDBRANCH  16  17
ENDBRANCH  15  16
ENDBRANCH  14  15
ENDBRANCH  13  14
ENDBRANCH  12  13
ENDBRANCH   1  12
TORSDOF 16
ENDMDL
MODEL 2
REMARK VINA RESULT:    -4.339      6.339      9.667
REMARK INTER + INTRA:          -9.934
REMARK INTER:                  -7.258
REMARK INTRA:                  -2.677
REMARK UNBOUND:                -1.537
REMARK SMILES CCCCCCCCCCCCCCCCCC(=O)[O-]
REMARK SMILES IDX 10 1 11 2 12 3 13 4 14 5 15 6 16 7 17 8 18 9 19 10 20 11
REMARK SMILES IDX 9 12 8 13 7 14 6 15 5 16 4 17 3 18 2 19 1 20
REMARK H PARENT
REMARK Flexibility Score: inf
ROOT
ATOM      1  C   UNL     1      -2.185 -20.363   4.624  1.00  0.00     0.000 C 
ENDROOT
BRANCH   1   2
ATOM      2  C   UNL     1      -1.888 -19.948   6.075  1.00  0.00     0.000 C 
BRANCH   2   3
ATOM      3  C   UNL     1      -3.159 -19.557   6.849  1.00  0.00     0.000 C 
BRANCH   3   4
ATOM      4  C   UNL     1      -4.443 -19.736   6.019  1.00  0.00     0.000 C 
BRANCH   4   5
ATOM      5  C   UNL     1      -5.751 -19.763   6.835  1.00  0.00     0.000 C 
BRANCH   5   6
ATOM      6  C   UNL     1      -7.023 -20.076   6.023  1.00  0.00     0.000 C 
BRANCH   6   7
ATOM      7  C   UNL     1      -7.007 -19.570   4.565  1.00  0.00     0.006 C 
BRANCH   7   8
ATOM      8  C   UNL     1      -8.052 -20.232   3.653  1.00  0.00     0.053 C 
BRANCH   8   9
ATOM      9  C   UNL     1      -9.132 -19.275   3.253  1.00  0.00     0.041 C 
ATOM     10  O   UNL     1     -10.002 -19.617   2.410  1.00  0.00    -0.550 OA
ATOM     11  O   UNL     1      -9.199 -18.017   3.837  1.00  0.00    -0.550 OA
ENDBRANCH   8   9
ENDBRANCH   7   8
ENDBRANCH   6   7
ENDBRANCH   5   6
ENDBRANCH   4   5
ENDBRANCH   3   4
ENDBRANCH   2   3
ENDBRANCH   1   2
BRANCH   1  12
ATOM     12  C   UNL     1      -1.040 -20.003   3.661  1.00  0.00     0.000 C 
BRANCH  12  13
ATOM     13  C   UNL     1      -1.312 -18.704   2.883  1.00  0.00    -0.000 C 
BRANCH  13  14
ATOM     14  C   UNL     1      -2.763 -18.216   3.033  1.00  0.00    -0.000 C 
BRANCH  14  15
ATOM     15  C   UNL     1      -2.851 -16.737   3.439  1.00  0.00    -0.000 C 
BRANCH  15  16
ATOM     16  C   UNL     1      -2.570 -16.519   4.936  1.00  0.00    -0.000 C 
BRANCH  16  17
ATOM     17  C   UNL     1      -3.816 -16.027   5.694  1.00  0.00    -0.000 C 
BRANCH  17  18
ATOM     18  C   UNL     1      -5.108 -16.089   4.848  1.00  0.00    -0.000 C 
BRANCH  18  19
ATOM     19  C   UNL     1      -6.387 -16.219   5.692  1.00  0.00    -0.003 C 
ATOM     20  C   UNL     1      -6.127 -16.084   7.191  1.00  0.00     0.004 C 
ENDBRANCH  18  19
ENDBRANCH  17  18
ENDBRANCH  16  17
ENDBRANCH  15  16
ENDBRANCH  14  15
ENDBRANCH  13  14
ENDBRANCH  12  13
ENDBRANCH   1  12
TORSDOF 16
ENDMDL
MODEL 3
REMARK VINA RESULT:    -4.333      4.637      9.883
REMARK INTER + INTRA:          -9.923
REMARK INTER:                  -8.532
REMARK INTRA:                  -1.391
REMARK UNBOUND:                -1.537
REMARK SMILES CCCCCCCCCCCCCCCCCC(=O)[O-]
REMARK SMILES IDX 10 1 11 2 12 3 13 4 14 5 15 6 16 7 17 8 18 9 19 10 20 11
REMARK SMILES IDX 9 12 8 13 7 14 6 15 5 16 4 17 3 18 2 19 1 20
REMARK H PARENT
REMARK Flexibility Score: inf
ROOT
ATOM      1  C   UNL     1      -6.129 -15.472   4.881  1.00  0.00     0.000 C 
ENDROOT
BRANCH   1   2
ATOM      2  C   UNL     1      -6.765 -14.471   5.860  1.00  0.00     0.000 C 
BRANCH   2   3
ATOM      3  C   UNL     1      -8.036 -13.816   5.292  1.00  0.00     0.000 C 
BRANCH   3   4
ATOM      4  C   UNL     1      -8.830 -13.034   6.355  1.00  0.00     0.000 C 
BRANCH   4   5
ATOM      5  C   UNL     1     -10.194 -12.490   5.883  1.00  0.00     0.000 C 
BRANCH   5   6
ATOM      6  C   UNL     1     -10.530 -11.064   6.360  1.00  0.00     0.000 C 
BRANCH   6   7
ATOM      7  C   UNL     1     -11.874 -10.505   5.848  1.00  0.00     0.006 C 
BRANCH   7   8
ATOM      8  C   UNL     1     -12.539  -9.491   6.792  1.00  0.00     0.053 C 
BRANCH   8   9
ATOM      9  C   UNL     1     -13.621 -10.120   7.617  1.00  0.00     0.041 C 
ATOM     10  O   UNL     1     -13.446 -10.316   8.848  1.00  0.00    -0.550 OA
ATOM     11  O   UNL     1     -14.834 -10.457   7.032  1.00  0.00    -0.550 OA
ENDBRANCH   8   9
ENDBRANCH   7   8
ENDBRANCH   6   7
ENDBRANCH   5   6
ENDBRANCH   4   5
ENDBRANCH   3   4
ENDBRANCH   2   3
ENDBRANCH   1   2
BRANCH   1  12
ATOM     12  C   UNL     1      -5.399 -16.620   5.601  1.00  0.00     0.000 C 
BRANCH  12  13
ATOM     13  C   UNL     1      -4.527 -17.453   4.646  1.00  0.00    -0.000 C 
BRANCH  13  14
ATOM     14  C   UNL     1      -3.029 -17.370   4.987  1.00  0.00    -0.000 C 
BRANCH  14  15
ATOM     15  C   UNL     1      -2.366 -16.099   4.432  1.00  0.00    -0.000 C 
BRANCH  15  16
ATOM     16  C   UNL     1      -1.624 -15.300   5.517  1.00  0.00    -0.000 C 
BRANCH  16  17
ATOM     17  C   UNL     1      -1.482 -16.095   6.827  1.00  0.00    -0.000 C 
BRANCH  17  18
ATOM     18  C   UNL     1      -2.126 -15.389   8.041  1.00  0.00    -0.000 C 
BRANCH  18  19
ATOM     19  C   UNL     1      -3.229 -14.390   7.655  1.00  0.00    -0.003 C 
ATOM     20  C   UNL     1      -4.379 -14.355   8.659  1.00  0.00     0.004 C 
ENDBRANCH  18  19
ENDBRANCH  17  18
ENDBRANCH  16  17
ENDBRANCH  15  16
ENDBRANCH  14  15
ENDBRANCH  13  14
ENDBRANCH  12  13
ENDBRANCH   1  12
TORSDOF 16
ENDMDL
MODEL 4
REMARK VINA RESULT:    -4.332      4.983     10.120
REMARK INTER + INTRA:          -9.922
REMARK INTER:                  -8.805
REMARK INTRA:                  -1.116
REMARK UNBOUND:                -1.537
REMARK SMILES CCCCCCCCCCCCCCCCCC(=O)[O-]
REMARK SMILES IDX 10 1 11 2 12 3 13 4 14 5 15 6 16 7 17 8 18 9 19 10 20 11
REMARK SMILES IDX 9 12 8 13 7 14 6 15 5 16 4 17 3 18 2 19 1 20
REMARK H PARENT
REMARK Flexibility Score: inf
ROOT
ATOM      1  C   UNL     1      -8.795 -13.005   6.281  1.00  0.00     0.000 C 
ENDROOT
BRANCH   1   2
ATOM      2  C   UNL     1     -10.183 -12.688   5.700  1.00  0.00     0.000 C 
BRANCH   2   3
ATOM      3  C   UNL     1     -10.695 -11.299   6.119  1.00  0.00     0.000 C 
BRANCH   3   4
ATOM      4  C   UNL     1      -9.847 -10.661   7.233  1.00  0.00     0.000 C 
BRANCH   4   5
ATOM      5  C   UNL     1     -10.595  -9.653   8.129  1.00  0.00     0.000 C 
BRANCH   5   6
ATOM      6  C   UNL     1     -11.390 -10.276   9.293  1.00  0.00     0.000 C 
BRANCH   6   7
ATOM      7  C   UNL     1     -12.866  -9.835   9.384  1.00  0.00     0.006 C 
BRANCH   7   8
ATOM      8  C   UNL     1     -13.579  -9.728   8.027  1.00  0.00     0.053 C 
BRANCH   8   9
ATOM      9  C   UNL     1     -15.060  -9.913   8.157  1.00  0.00     0.041 C 
ATOM     10  O   UNL     1     -15.592  -9.984   9.296  1.00  0.00    -0.550 OA
ATOM     11  O   UNL     1     -15.856  -9.972   7.021  1.00  0.00    -0.550 OA
ENDBRANCH   8   9
ENDBRANCH   7   8
ENDBRANCH   6   7
ENDBRANCH   5   6
ENDBRANCH   4   5
ENDBRANCH   3   4
ENDBRANCH   2   3
ENDBRANCH   1   2
BRANCH   1  12
ATOM     12  C   UNL     1      -7.897 -13.764   5.288  1.00  0.00     0.000 C 
BRANCH  12  13
ATOM     13  C   UNL     1      -6.780 -14.554   5.990  1.00  0.00    -0.000 C 
BRANCH  13  14
ATOM     14  C   UNL     1      -6.113 -15.587   5.064  1.00  0.00    -0.000 C 
BRANCH  14  15
ATOM     15  C   UNL     1      -6.853 -16.933   5.050  1.00  0.00    -0.000 C 
BRANCH  15  16
ATOM     16  C   UNL     1      -5.892 -18.135   5.068  1.00  0.00    -0.000 C 
BRANCH  16  17
ATOM     17  C   UNL     1      -4.775 -17.967   6.114  1.00  0.00    -0.000 C 
BRANCH  17  18
ATOM     18  C   UNL     1      -3.366 -18.269   5.556  1.00  0.00    -0.000 C 
BRANCH  18  19
ATOM     19  C   UNL     1      -2.598 -17.012   5.118  1.00  0.00    -0.003 C 
ATOM     20  C   UNL     1      -2.725 -16.726   3.623  1.00  0.00     0.004 C 
ENDBRANCH  18  19
ENDBRANCH  17  18
ENDBRANCH  16  17
ENDBRANCH  15  16
ENDBRANCH  14  15
ENDBRANCH  13  14
ENDBRANCH  12  13
ENDBRANCH   1  12
TORSDOF 16
ENDMDL
MODEL 5
REMARK VINA RESULT:    -4.309      5.092     10.971
REMARK INTER + INTRA:          -9.877
REMARK INTER:                  -9.350
REMARK INTRA:                  -0.527
REMARK UNBOUND:                -1.537
REMARK SMILES CCCCCCCCCCCCCCCCCC(=O)[O-]
REMARK SMILES IDX 10 1 11 2 12 3 13 4 14 5 15 6 16 7 17 8 18 9 19 10 20 11
REMARK SMILES IDX 9 12 8 13 7 14 6 15 5 16 4 17 3 18 2 19 1 20
REMARK H PARENT
REMARK Flexibility Score: inf
ROOT
ATOM      1  C   UNL     1      -7.262 -13.690   4.983  1.00  0.00     0.000 C 
ENDROOT
BRANCH   1   2
ATOM      2  C   UNL     1      -8.747 -13.644   5.380  1.00  0.00     0.000 C 
BRANCH   2   3
ATOM      3  C   UNL     1      -9.084 -12.429   6.263  1.00  0.00     0.000 C 
BRANCH   3   4
ATOM      4  C   UNL     1     -10.593 -12.285   6.528  1.00  0.00     0.000 C 
BRANCH   4   5
ATOM      5  C   UNL     1     -11.304 -11.202   5.693  1.00  0.00     0.000 C 
BRANCH   5   6
ATOM      6  C   UNL     1     -11.292  -9.788   6.307  1.00  0.00     0.000 C 
BRANCH   6   7
ATOM      7  C   UNL     1     -12.611  -9.360   6.982  1.00  0.00     0.006 C 
BRANCH   7   8
ATOM      8  C   UNL     1     -13.553 -10.524   7.329  1.00  0.00     0.053 C 
BRANCH   8   9
ATOM      9  C   UNL     1     -14.809 -10.049   7.992  1.00  0.00     0.041 C 
ATOM     10  O   UNL     1     -14.895 -10.033   9.248  1.00  0.00    -0.550 OA
ATOM     11  O   UNL     1     -15.872  -9.594   7.224  1.00  0.00    -0.550 OA
ENDBRANCH   8   9
ENDBRANCH   7   8
ENDBRANCH   6   7
ENDBRANCH   5   6
ENDBRANCH   4   5
ENDBRANCH   3   4
ENDBRANCH   2   3
ENDBRANCH   1   2
BRANCH   1  12
ATOM     12  C   UNL     1      -6.434 -14.609   5.899  1.00  0.00     0.000 C 
BRANCH  12  13
ATOM     13  C   UNL     1      -6.263 -16.022   5.317  1.00  0.00    -0.000 C 
BRANCH  13  14
ATOM     14  C   UNL     1      -5.037 -16.755   5.889  1.00  0.00    -0.000 C 
BRANCH  14  15
ATOM     15  C   UNL     1      -3.710 -16.183   5.367  1.00  0.00    -0.000 C 
BRANCH  15  16
ATOM     16  C   UNL     1      -3.254 -16.851   4.058  1.00  0.00    -0.000 C 
BRANCH  16  17
ATOM     17  C   UNL     1      -1.736 -17.104   4.034  1.00  0.00    -0.000 C 
BRANCH  17  18
ATOM     18  C   UNL     1      -1.369 -18.603   3.952  1.00  0.00    -0.000 C 
BRANCH  18  19
ATOM     19  C   UNL     1      -1.613 -19.218   2.563  1.00  0.00    -0.003 C 
ATOM     20  C   UNL     1      -0.875 -20.540   2.361  1.00  0.00     0.004 C 
ENDBRANCH  18  19
ENDBRANCH  17  18
ENDBRANCH  16  17
ENDBRANCH  15  16
ENDBRANCH  14  15
ENDBRANCH  13  14
ENDBRANCH  12  13
ENDBRANCH   1  12
TORSDOF 16
ENDMDL
MODEL 6
REMARK VINA RESULT:    -4.253      6.149      8.816
REMARK INTER + INTRA:          -9.768
REMARK INTER:                  -7.108
REMARK INTRA:                  -2.660
REMARK UNBOUND:                -1.537
REMARK SMILES CCCCCCCCCCCCCCCCCC(=O)[O-]
REMARK SMILES IDX 10 1 11 2 12 3 13 4 14 5 15 6 16 7 17 8 18 9 19 10 20 11
REMARK SMILES IDX 9 12 8 13 7 14 6 15 5 16 4 17 3 18 2 19 1 20
REMARK H PARENT
REMARK Flexibility Score: inf
ROOT
ATOM      1  C   UNL     1      -4.515 -19.070   4.739  1.00  0.00     0.000 C 
ENDROOT
BRANCH   1   2
ATOM      2  C   UNL     1      -3.831 -19.781   5.918  1.00  0.00     0.000 C 
BRANCH   2   3
ATOM      3  C   UNL     1      -4.708 -19.807   7.183  1.00  0.00     0.000 C 
BRANCH   3   4
ATOM      4  C   UNL     1      -6.148 -19.332   6.919  1.00  0.00     0.000 C 
BRANCH   4   5
ATOM      5  C   UNL     1      -7.229 -20.426   7.033  1.00  0.00     0.000 C 
BRANCH   5   6
ATOM      6  C   UNL     1      -7.457 -21.257   5.755  1.00  0.00     0.000 C 
BRANCH   6   7
ATOM      7  C   UNL     1      -8.625 -20.780   4.868  1.00  0.00     0.006 C 
BRANCH   7   8
ATOM      8  C   UNL     1      -8.222 -19.781   3.772  1.00  0.00     0.053 C 
BRANCH   8   9
ATOM      9  C   UNL     1      -9.411 -19.088   3.181  1.00  0.00     0.041 C 
ATOM     10  O   UNL     1     -10.116 -19.668   2.313  1.00  0.00    -0.550 OA
ATOM     11  O   UNL     1      -9.761 -17.816   3.613  1.00  0.00    -0.550 OA
ENDBRANCH   8   9
ENDBRANCH   7   8
ENDBRANCH   6   7
ENDBRANCH   5   6
ENDBRANCH   4   5
ENDBRANCH   3   4
ENDBRANCH   2   3
ENDBRANCH   1   2
BRANCH   1  12
ATOM     12  C   UNL     1      -3.509 -18.398   3.789  1.00  0.00     0.000 C 
BRANCH  12  13
ATOM     13  C   UNL     1      -3.473 -16.870   3.955  1.00  0.00    -0.000 C 
BRANCH  13  14
ATOM     14  C   UNL     1      -2.088 -16.351   4.379  1.00  0.00    -0.000 C 
BRANCH  14  15
ATOM     15  C   UNL     1      -2.127 -15.582   5.709  1.00  0.00    -0.000 C 
BRANCH  15  16
ATOM     16  C   UNL     1      -3.092 -16.212   6.727  1.00  0.00    -0.000 C 
BRANCH  16  17
ATOM     17  C   UNL     1      -4.092 -15.186   7.289  1.00  0.00    -0.000 C 
BRANCH  17  18
ATOM     18  C   UNL     1      -5.565 -15.636   7.162  1.00  0.00    -0.000 C 
BRANCH  18  19
ATOM     19  C   UNL     1      -6.233 -15.184   5.853  1.00  0.00    -0.003 C 
ATOM     20  C   UNL     1      -6.928 -16.327   5.114  1.00  0.00     0.004 C 
ENDBRANCH  18  19
ENDBRANCH  17  18
ENDBRANCH  16  17
ENDBRANCH  15  16
ENDBRANCH  14  15
ENDBRANCH  13  14
ENDBRANCH  12  13
ENDBRANCH   1  12
TORSDOF 16
ENDMDL
MODEL 7
REMARK VINA RESULT:    -4.250      2.978      4.864
REMARK INTER + INTRA:          -9.762
REMARK INTER:                  -8.747
REMARK INTRA:                  -1.015
REMARK UNBOUND:                -1.537
REMARK SMILES CCCCCCCCCCCCCCCCCC(=O)[O-]
REMARK SMILES IDX 10 1 11 2 12 3 13 4 14 5 15 6 16 7 17 8 18 9 19 10 20 11
REMARK SMILES IDX 9 12 8 13 7 14 6 15 5 16 4 17 3 18 2 19 1 20
REMARK H PARENT
REMARK Flexibility Score: inf
ROOT
ATOM      1  C   UNL     1      -7.136 -14.332   4.787  1.00  0.00     0.000 C 
ENDROOT
BRANCH   1   2
ATOM      2  C   UNL     1      -6.587 -15.617   5.429  1.00  0.00     0.000 C 
BRANCH   2   3
ATOM      3  C   UNL     1      -5.307 -16.122   4.739  1.00  0.00     0.000 C 
BRANCH   3   4
ATOM      4  C   UNL     1      -4.317 -16.773   5.721  1.00  0.00     0.000 C 
BRANCH   4   5
ATOM      5  C   UNL     1      -4.350 -18.315   5.757  1.00  0.00     0.000 C 
BRANCH   5   6
ATOM      6  C   UNL     1      -5.290 -18.974   4.729  1.00  0.00     0.000 C 
BRANCH   6   7
ATOM      7  C   UNL     1      -6.583 -19.576   5.319  1.00  0.00     0.006 C 
BRANCH   7   8
ATOM      8  C   UNL     1      -7.855 -19.246   4.523  1.00  0.00     0.053 C 
BRANCH   8   9
ATOM      9  C   UNL     1      -8.533 -20.482   4.015  1.00  0.00     0.041 C 
ATOM     10  O   UNL     1      -8.126 -21.041   2.964  1.00  0.00    -0.550 OA
ATOM     11  O   UNL     1      -9.593 -21.035   4.722  1.00  0.00    -0.550 OA
ENDBRANCH   8   9
ENDBRANCH   7   8
ENDBRANCH   6   7
ENDBRANCH   5   6
ENDBRANCH   4   5
ENDBRANCH   3   4
ENDBRANCH   2   3
ENDBRANCH   1   2
BRANCH   1  12
ATOM     12  C   UNL     1      -7.790 -13.391   5.815  1.00  0.00     0.000 C 
BRANCH  12  13
ATOM     13  C   UNL     1      -9.301 -13.226   5.584  1.00  0.00    -0.000 C 
BRANCH  13  14
ATOM     14  C   UNL     1      -9.964 -12.311   6.629  1.00  0.00    -0.000 C 
BRANCH  14  15
ATOM     15  C   UNL     1     -11.107 -11.471   6.038  1.00  0.00    -0.000 C 
BRANCH  15  16
ATOM     16  C   UNL     1     -10.882  -9.960   6.219  1.00  0.00    -0.000 C 
BRANCH  16  17
ATOM     17  C   UNL     1     -12.182  -9.220   6.584  1.00  0.00    -0.000 C 
BRANCH  17  18
ATOM     18  C   UNL     1     -13.426 -10.136   6.578  1.00  0.00    -0.000 C 
BRANCH  18  19
ATOM     19  C   UNL     1     -14.272 -10.029   7.858  1.00  0.00    -0.003 C 
ATOM     20  C   UNL     1     -13.431 -10.067   9.132  1.00  0.00     0.004 C 
ENDBRANCH  18  19
ENDBRANCH  17  18
ENDBRANCH  16  17
ENDBRANCH  15  16
ENDBRANCH  14  15
ENDBRANCH  13  14
ENDBRANCH  12  13
ENDBRANCH   1  12
TORSDOF 16
ENDMDL
MODEL 8
REMARK VINA RESULT:    -4.248      3.941      9.996
REMARK INTER + INTRA:          -9.758
REMARK INTER:                  -7.577
REMARK INTRA:                  -2.180
REMARK UNBOUND:                -1.537
REMARK SMILES CCCCCCCCCCCCCCCCCC(=O)[O-]
REMARK SMILES IDX 10 1 11 2 12 3 13 4 14 5 15 6 16 7 17 8 18 9 19 10 20 11
REMARK SMILES IDX 9 12 8 13 7 14 6 15 5 16 4 17 3 18 2 19 1 20
REMARK H PARENT
REMARK Flexibility Score: inf
ROOT
ATOM      1  C   UNL     1      -2.898 -16.745   3.552  1.00  0.00     0.000 C 
ENDROOT
BRANCH   1   2
ATOM      2  C   UNL     1      -2.702 -16.090   4.930  1.00  0.00     0.000 C 
BRANCH   2   3
ATOM      3  C   UNL     1      -4.005 -16.031   5.746  1.00  0.00     0.000 C 
BRANCH   3   4
ATOM      4  C   UNL     1      -5.252 -15.833   4.867  1.00  0.00     0.000 C 
BRANCH   4   5
ATOM      5  C   UNL     1      -6.594 -15.826   5.626  1.00  0.00     0.000 C 
BRANCH   5   6
ATOM      6  C   UNL     1      -7.054 -14.444   6.130  1.00  0.00     0.000 C 
BRANCH   6   7
ATOM      7  C   UNL     1      -7.882 -13.624   5.119  1.00  0.00     0.006 C 
BRANCH   7   8
ATOM      8  C   UNL     1      -9.386 -13.567   5.430  1.00  0.00     0.053 C 
BRANCH   8   9
ATOM      9  C   UNL     1      -9.766 -12.297   6.128  1.00  0.00     0.041 C 
ATOM     10  O   UNL     1     -10.968 -12.076   6.431  1.00  0.00    -0.550 OA
ATOM     11  O   UNL     1      -8.789 -11.373   6.472  1.00  0.00    -0.550 OA
ENDBRANCH   8   9
ENDBRANCH   7   8
ENDBRANCH   6   7
ENDBRANCH   5   6
ENDBRANCH   4   5
ENDBRANCH   3   4
ENDBRANCH   2   3
ENDBRANCH   1   2
BRANCH   1  12
ATOM     12  C   UNL     1      -1.975 -17.957   3.336  1.00  0.00     0.000 C 
BRANCH  12  13
ATOM     13  C   UNL     1      -1.324 -18.441   4.643  1.00  0.00    -0.000 C 
BRANCH  13  14
ATOM     14  C   UNL     1      -1.472 -19.958   4.852  1.00  0.00    -0.000 C 
BRANCH  14  15
ATOM     15  C   UNL     1      -2.922 -20.376   5.142  1.00  0.00    -0.000 C 
BRANCH  15  16
ATOM     16  C   UNL     1      -3.483 -19.718   6.415  1.00  0.00    -0.000 C 
BRANCH  16  17
ATOM     17  C   UNL     1      -4.999 -19.470   6.319  1.00  0.00    -0.000 C 
BRANCH  17  18
ATOM     18  C   UNL     1      -5.513 -19.394   4.864  1.00  0.00    -0.000 C 
BRANCH  18  19
ATOM     19  C   UNL     1      -6.908 -20.014   4.674  1.00  0.00    -0.003 C 
ATOM     20  C   UNL     1      -7.972 -18.983   4.303  1.00  0.00     0.004 C 
ENDBRANCH  18  19
ENDBRANCH  17  18
ENDBRANCH  16  17
ENDBRANCH  15  16
ENDBRANCH  14  15
ENDBRANCH  13  14
ENDBRANCH  12  13
ENDBRANCH   1  12
TORSDOF 16
ENDMDL
MODEL 9
REMARK VINA RESULT:    -4.231      2.147      4.456
REMARK INTER + INTRA:          -9.725
REMARK INTER:                  -8.753
REMARK INTRA:                  -0.971
REMARK UNBOUND:                -1.537
REMARK SMILES CCCCCCCCCCCCCCCCCC(=O)[O-]
REMARK SMILES IDX 10 1 11 2 12 3 13 4 14 5 15 6 16 7 17 8 18 9 19 10 20 11
REMARK SMILES IDX 9 12 8 13 7 14 6 15 5 16 4 17 3 18 2 19 1 20
REMARK H PARENT
REMARK Flexibility Score: inf
ROOT
ATOM      1  C   UNL     1      -6.483 -15.179   6.318  1.00  0.00     0.000 C 
ENDROOT
BRANCH   1   2
ATOM      2  C   UNL     1      -5.192 -15.856   5.829  1.00  0.00     0.000 C 
BRANCH   2   3
ATOM      3  C   UNL     1      -5.450 -16.883   4.713  1.00  0.00     0.000 C 
BRANCH   3   4
ATOM      4  C   UNL     1      -4.473 -18.072   4.759  1.00  0.00     0.000 C 
BRANCH   4   5
ATOM      5  C   UNL     1      -3.425 -18.102   3.627  1.00  0.00     0.000 C 
BRANCH   5   6
ATOM      6  C   UNL     1      -2.447 -16.911   3.609  1.00  0.00     0.000 C 
BRANCH   6   7
ATOM      7  C   UNL     1      -1.641 -16.710   4.909  1.00  0.00     0.006 C 
BRANCH   7   8
ATOM      8  C   UNL     1      -1.598 -15.257   5.409  1.00  0.00     0.053 C 
BRANCH   8   9
ATOM      9  C   UNL     1      -1.690 -15.176   6.902  1.00  0.00     0.041 C 
ATOM     10  O   UNL     1      -1.063 -15.997   7.621  1.00  0.00    -0.550 OA
ATOM     11  O   UNL     1      -2.442 -14.172   7.498  1.00  0.00    -0.550 OA
ENDBRANCH   8   9
ENDBRANCH   7   8
ENDBRANCH   6   7
ENDBRANCH   5   6
ENDBRANCH   4   5
ENDBRANCH   3   4
ENDBRANCH   2   3
ENDBRANCH   1   2
BRANCH   1  12
ATOM     12  C   UNL     1      -7.446 -14.840   5.167  1.00  0.00     0.000 C 
BRANCH  12  13
ATOM     13  C   UNL     1      -7.940 -13.384   5.223  1.00  0.00    -0.000 C 
BRANCH  13  14
ATOM     14  C   UNL     1      -9.440 -13.279   5.546  1.00  0.00    -0.000 C 
BRANCH  14  15
ATOM     15  C   UNL     1      -9.747 -12.188   6.583  1.00  0.00    -0.000 C 
BRANCH  15  16
ATOM     16  C   UNL     1     -11.129 -11.545   6.372  1.00  0.00    -0.000 C 
BRANCH  16  17
ATOM     17  C   UNL     1     -11.051 -10.009   6.314  1.00  0.00    -0.000 C 
BRANCH  17  18
ATOM     18  C   UNL     1     -12.347  -9.315   6.789  1.00  0.00    -0.000 C 
BRANCH  18  19
ATOM     19  C   UNL     1     -13.585 -10.225   6.735  1.00  0.00    -0.003 C 
ATOM     20  C   UNL     1     -14.595  -9.921   7.840  1.00  0.00     0.004 C 
ENDBRANCH  18  19
ENDBRANCH  17  18
ENDBRANCH  16  17
ENDBRANCH  15  16
ENDBRANCH  14  15
ENDBRANCH  13  14
ENDBRANCH  12  13
ENDBRANCH   1  12
TORSDOF 16
ENDMDL
