MODEL 1
REMARK VINA RESULT:    -4.594      0.000      0.000
REMARK INTER + INTRA:          -9.113
REMARK INTER:                  -7.011
REMARK INTRA:                  -2.102
REMARK UNBOUND:                -2.102
REMARK SMILES CC(=O)CCC=C(C)CCC=C(C)CCC=C(C)C
REMARK SMILES IDX 10 1 11 2 12 3 13 4 14 5 15 6 16 7 18 8 17 9 19 10 9 11 7 12
REMARK SMILES IDX 6 13 8 14 5 15 4 16 2 17 3 18 1 19
REMARK H PARENT
REMARK Flexibility Score: inf
ROOT
ATOM      1  C   UNL     1      15.259  54.023  33.657  1.00  0.00     0.032 C 
ENDROOT
BRANCH   1   2
ATOM      2  C   UNL     1      14.866  53.422  34.988  1.00  0.00    -0.028 C 
ATOM      3  C   UNL     1      15.632  52.605  35.747  1.00  0.00    -0.077 C 
ATOM      4  C   UNL     1      15.082  52.157  37.077  1.00  0.00     0.039 C 
BRANCH   3   5
ATOM      5  C   UNL     1      17.008  52.121  35.327  1.00  0.00     0.034 C 
BRANCH   5   6
ATOM      6  C   UNL     1      18.089  53.162  35.642  1.00  0.00     0.032 C 
BRANCH   6   7
ATOM      7  C   UNL     1      19.360  52.856  34.886  1.00  0.00    -0.028 C 
ATOM      8  C   UNL     1      21.002  52.996  33.060  1.00  0.00     0.039 C 
ATOM      9  C   UNL     1      19.718  53.436  33.719  1.00  0.00    -0.080 C 
ATOM     10  C   UNL     1      18.892  54.525  33.079  1.00  0.00     0.039 C 
ENDBRANCH   6   7
ENDBRANCH   5   6
ENDBRANCH   3   5
ENDBRANCH   1   2
BRANCH   1  11
ATOM     11  C   UNL     1      14.571  53.296  32.491  1.00  0.00     0.034 C 
BRANCH  11  12
ATOM     12  C   UNL     1      15.223  51.959  32.182  1.00  0.00    -0.077 C 
ATOM     13  C   UNL     1      14.592  50.779  32.366  1.00  0.00    -0.028 C 
ATOM     14  C   UNL     1      16.629  51.943  31.635  1.00  0.00     0.039 C 
BRANCH  13  15
ATOM     15  C   UNL     1      13.217  50.644  32.982  1.00  0.00     0.035 C 
BRANCH  15  16
ATOM     16  C   UNL     1      13.134  49.459  33.953  1.00  0.00     0.079 C 
BRANCH  16  17
ATOM     17  C   UNL     1      12.578  48.223  33.292  1.00  0.00     0.130 C 
ATOM     18  O   UNL     1      11.370  48.110  33.138  1.00  0.00    -0.300 OA
ATOM     19  C   UNL     1      13.481  47.129  32.800  1.00  0.00     0.087 C 
ENDBRANCH  16  17
ENDBRANCH  15  16
ENDBRANCH  13  15
ENDBRANCH  11  12
ENDBRANCH   1  11
TORSDOF 9
ENDMDL
MODEL 2
REMARK VINA RESULT:    -4.476     13.768     16.068
REMARK INTER + INTRA:          -8.932
REMARK INTER:                  -6.735
REMARK INTRA:                  -2.197
REMARK UNBOUND:                -2.102
REMARK SMILES CC(=O)CCC=C(C)CCC=C(C)CCC=C(C)C
REMARK SMILES IDX 10 1 11 2 12 3 13 4 14 5 15 6 16 7 18 8 17 9 19 10 9 11 7 12
REMARK SMILES IDX 6 13 8 14 5 15 4 16 2 17 3 18 1 19
REMARK H PARENT
REMARK Flexibility Score: inf
ROOT
ATOM      1  C   UNL     1      12.973  59.280  21.986  1.00  0.00     0.032 C 
ENDROOT
BRANCH   1   2
ATOM      2  C   UNL     1      12.461  60.078  20.807  1.00  0.00    -0.028 C 
ATOM      3  C   UNL     1      13.145  61.034  20.138  1.00  0.00    -0.077 C 
ATOM      4  C   UNL     1      12.478  61.676  18.948  1.00  0.00     0.039 C 
BRANCH   3   5
ATOM      5  C   UNL     1      14.540  61.490  20.525  1.00  0.00     0.034 C 
BRANCH   5   6
ATOM      6  C   UNL     1      15.617  60.616  19.871  1.00  0.00     0.032 C 
BRANCH   6   7
ATOM      7  C   UNL     1      16.807  60.461  20.786  1.00  0.00    -0.028 C 
ATOM      8  C   UNL     1      18.316  59.344  22.376  1.00  0.00     0.039 C 
ATOM      9  C   UNL     1      17.114  59.333  21.465  1.00  0.00    -0.080 C 
ATOM     10  C   UNL     1      16.310  58.064  21.313  1.00  0.00     0.039 C 
ENDBRANCH   6   7
ENDBRANCH   5   6
ENDBRANCH   3   5
ENDBRANCH   1   2
BRANCH   1  11
ATOM     11  C   UNL     1      12.582  59.938  23.318  1.00  0.00     0.034 C 
BRANCH  11  12
ATOM     12  C   UNL     1      13.678  60.843  23.856  1.00  0.00    -0.077 C 
ATOM     13  C   UNL     1      13.542  62.185  23.940  1.00  0.00    -0.028 C 
ATOM     14  C   UNL     1      14.970  60.224  24.327  1.00  0.00     0.039 C 
BRANCH  13  15
ATOM     15  C   UNL     1      12.336  62.944  23.430  1.00  0.00     0.035 C 
BRANCH  15  16
ATOM     16  C   UNL     1      11.604  63.686  24.556  1.00  0.00     0.079 C 
BRANCH  16  17
ATOM     17  C   UNL     1      11.223  65.088  24.157  1.00  0.00     0.130 C 
ATOM     18  O   UNL     1      10.078  65.327  23.802  1.00  0.00    -0.300 OA
ATOM     19  C   UNL     1      12.221  66.209  24.201  1.00  0.00     0.087 C 
ENDBRANCH  16  17
ENDBRANCH  15  16
ENDBRANCH  13  15
ENDBRANCH  11  12
ENDBRANCH   1  11
TORSDOF 9
ENDMDL
MODEL 3
REMARK VINA RESULT:    -4.401     13.806     16.113
REMARK INTER + INTRA:          -8.818
REMARK INTER:                  -6.369
REMARK INTRA:                  -2.449
REMARK UNBOUND:                -2.102
REMARK SMILES CC(=O)CCC=C(C)CCC=C(C)CCC=C(C)C
REMARK SMILES IDX 10 1 11 2 12 3 13 4 14 5 15 6 16 7 18 8 17 9 19 10 9 11 7 12
REMARK SMILES IDX 6 13 8 14 5 15 4 16 2 17 3 18 1 19
REMARK H PARENT
REMARK Flexibility Score: inf
ROOT
ATOM      1  C   UNL     1      13.419  59.429  23.241  1.00  0.00     0.032 C 
ENDROOT
BRANCH   1   2
ATOM      2  C   UNL     1      14.228  60.473  23.978  1.00  0.00    -0.028 C 
ATOM      3  C   UNL     1      13.960  61.798  24.025  1.00  0.00    -0.077 C 
ATOM      4  C   UNL     1      14.858  62.670  24.867  1.00  0.00     0.039 C 
BRANCH   3   5
ATOM      5  C   UNL     1      12.809  62.445  23.278  1.00  0.00     0.034 C 
BRANCH   5   6
ATOM      6  C   UNL     1      11.721  62.937  24.240  1.00  0.00     0.032 C 
BRANCH   6   7
ATOM      7  C   UNL     1      11.157  64.258  23.778  1.00  0.00    -0.028 C 
ATOM      8  C   UNL     1      10.853  66.698  23.718  1.00  0.00     0.039 C 
ATOM      9  C   UNL     1      11.540  65.465  24.249  1.00  0.00    -0.080 C 
ATOM     10  C   UNL     1      12.651  65.613  25.261  1.00  0.00     0.039 C 
ENDBRANCH   6   7
ENDBRANCH   5   6
ENDBRANCH   3   5
ENDBRANCH   1   2
BRANCH   1  11
ATOM     11  C   UNL     1      14.061  59.075  21.891  1.00  0.00     0.034 C 
BRANCH  11  12
ATOM     12  C   UNL     1      13.591  59.990  20.773  1.00  0.00    -0.077 C 
ATOM     13  C   UNL     1      14.441  60.725  20.024  1.00  0.00    -0.028 C 
ATOM     14  C   UNL     1      12.115  60.076  20.474  1.00  0.00     0.039 C 
BRANCH  13  15
ATOM     15  C   UNL     1      15.933  60.797  20.266  1.00  0.00     0.035 C 
BRANCH  15  16
ATOM     16  C   UNL     1      16.316  61.990  21.151  1.00  0.00     0.079 C 
BRANCH  16  17
ATOM     17  C   UNL     1      17.291  61.603  22.234  1.00  0.00     0.130 C 
ATOM     18  O   UNL     1      17.785  62.469  22.941  1.00  0.00    -0.300 OA
ATOM     19  C   UNL     1      17.657  60.167  22.476  1.00  0.00     0.087 C 
ENDBRANCH  16  17
ENDBRANCH  15  16
ENDBRANCH  13  15
ENDBRANCH  11  12
ENDBRANCH   1  11
TORSDOF 9
ENDMDL
MODEL 4
REMARK VINA RESULT:    -4.351      1.467      4.061
REMARK INTER + INTRA:          -8.742
REMARK INTER:                  -6.516
REMARK INTRA:                  -2.225
REMARK UNBOUND:                -2.102
REMARK SMILES CC(=O)CCC=C(C)CCC=C(C)CCC=C(C)C
REMARK SMILES IDX 10 1 11 2 12 3 13 4 14 5 15 6 16 7 18 8 17 9 19 10 9 11 7 12
REMARK SMILES IDX 6 13 8 14 5 15 4 16 2 17 3 18 1 19
REMARK H PARENT
REMARK Flexibility Score: inf
ROOT
ATOM      1  C   UNL     1      18.151  52.998  35.511  1.00  0.00     0.032 C 
ENDROOT
BRANCH   1   2
ATOM      2  C   UNL     1      19.456  52.906  34.753  1.00  0.00    -0.028 C 
ATOM      3  C   UNL     1      19.606  53.022  33.414  1.00  0.00    -0.077 C 
ATOM      4  C   UNL     1      21.004  52.960  32.852  1.00  0.00     0.039 C 
BRANCH   3   5
ATOM      5  C   UNL     1      18.444  53.210  32.456  1.00  0.00     0.034 C 
BRANCH   5   6
ATOM      6  C   UNL     1      18.098  54.694  32.278  1.00  0.00     0.032 C 
BRANCH   6   7
ATOM      7  C   UNL     1      16.729  54.993  32.838  1.00  0.00    -0.028 C 
ATOM      8  C   UNL     1      15.072  55.926  34.398  1.00  0.00     0.039 C 
ATOM      9  C   UNL     1      16.496  55.750  33.934  1.00  0.00    -0.080 C 
ATOM     10  C   UNL     1      17.610  56.443  34.680  1.00  0.00     0.039 C 
ENDBRANCH   6   7
ENDBRANCH   5   6
ENDBRANCH   3   5
ENDBRANCH   1   2
BRANCH   1  11
ATOM     11  C   UNL     1      17.211  51.838  35.148  1.00  0.00     0.034 C 
BRANCH  11  12
ATOM     12  C   UNL     1      15.759  52.153  35.466  1.00  0.00    -0.077 C 
ATOM     13  C   UNL     1      14.778  52.095  34.538  1.00  0.00    -0.028 C 
ATOM     14  C   UNL     1      15.388  52.537  36.877  1.00  0.00     0.039 C 
BRANCH  13  15
ATOM     15  C   UNL     1      15.019  51.805  33.073  1.00  0.00     0.035 C 
BRANCH  15  16
ATOM     16  C   UNL     1      13.762  51.264  32.379  1.00  0.00     0.079 C 
BRANCH  16  17
ATOM     17  C   UNL     1      13.608  49.776  32.566  1.00  0.00     0.130 C 
ATOM     18  O   UNL     1      14.198  49.008  31.819  1.00  0.00    -0.300 OA
ATOM     19  C   UNL     1      12.755  49.213  33.666  1.00  0.00     0.087 C 
ENDBRANCH  16  17
ENDBRANCH  15  16
ENDBRANCH  13  15
ENDBRANCH  11  12
ENDBRANCH   1  11
TORSDOF 9
ENDMDL
MODEL 5
REMARK VINA RESULT:    -4.347      3.341      5.840
REMARK INTER + INTRA:          -8.736
REMARK INTER:                  -5.792
REMARK INTRA:                  -2.944
REMARK UNBOUND:                -2.102
REMARK SMILES CC(=O)CCC=C(C)CCC=C(C)CCC=C(C)C
REMARK SMILES IDX 10 1 11 2 12 3 13 4 14 5 15 6 16 7 18 8 17 9 19 10 9 11 7 12
REMARK SMILES IDX 6 13 8 14 5 15 4 16 2 17 3 18 1 19
REMARK H PARENT
REMARK Flexibility Score: inf
ROOT
ATOM      1  C   UNL     1      14.289  51.647  33.991  1.00  0.00     0.032 C 
ENDROOT
BRANCH   1   2
ATOM      2  C   UNL     1      13.334  52.431  33.119  1.00  0.00    -0.028 C 
ATOM      3  C   UNL     1      12.801  53.639  33.411  1.00  0.00    -0.077 C 
ATOM      4  C   UNL     1      11.911  54.286  32.380  1.00  0.00     0.039 C 
BRANCH   3   5
ATOM      5  C   UNL     1      13.051  54.369  34.718  1.00  0.00     0.034 C 
BRANCH   5   6
ATOM      6  C   UNL     1      13.567  55.792  34.475  1.00  0.00     0.032 C 
BRANCH   6   7
ATOM      7  C   UNL     1      15.016  55.912  34.880  1.00  0.00    -0.028 C 
ATOM      8  C   UNL     1      17.459  55.917  34.591  1.00  0.00     0.039 C 
ATOM      9  C   UNL     1      16.062  55.818  34.029  1.00  0.00    -0.080 C 
ATOM     10  C   UNL     1      15.872  55.651  32.541  1.00  0.00     0.039 C 
ENDBRANCH   6   7
ENDBRANCH   5   6
ENDBRANCH   3   5
ENDBRANCH   1   2
BRANCH   1  11
ATOM     11  C   UNL     1      15.741  52.102  33.779  1.00  0.00     0.034 C 
BRANCH  11  12
ATOM     12  C   UNL     1      16.485  52.282  35.091  1.00  0.00    -0.077 C 
ATOM     13  C   UNL     1      17.834  52.330  35.165  1.00  0.00    -0.028 C 
ATOM     14  C   UNL     1      15.692  52.425  36.366  1.00  0.00     0.039 C 
BRANCH  13  15
ATOM     15  C   UNL     1      18.752  52.120  33.981  1.00  0.00     0.035 C 
BRANCH  15  16
ATOM     16  C   UNL     1      19.949  53.080  34.004  1.00  0.00     0.079 C 
BRANCH  16  17
ATOM     17  C   UNL     1      20.017  53.929  32.760  1.00  0.00     0.130 C 
ATOM     18  O   UNL     1      20.926  54.737  32.627  1.00  0.00    -0.300 OA
ATOM     19  C   UNL     1      18.998  53.793  31.666  1.00  0.00     0.087 C 
ENDBRANCH  16  17
ENDBRANCH  15  16
ENDBRANCH  13  15
ENDBRANCH  11  12
ENDBRANCH   1  11
TORSDOF 9
ENDMDL
MODEL 6
REMARK VINA RESULT:    -4.297     14.410     16.668
REMARK INTER + INTRA:          -8.660
REMARK INTER:                  -7.300
REMARK INTRA:                  -1.360
REMARK UNBOUND:                -2.102
REMARK SMILES CC(=O)CCC=C(C)CCC=C(C)CCC=C(C)C
REMARK SMILES IDX 10 1 11 2 12 3 13 4 14 5 15 6 16 7 18 8 17 9 19 10 9 11 7 12
REMARK SMILES IDX 6 13 8 14 5 15 4 16 2 17 3 18 1 19
REMARK H PARENT
REMARK Flexibility Score: inf
ROOT
ATOM      1  C   UNL     1      13.673  61.822  23.258  1.00  0.00     0.032 C 
ENDROOT
BRANCH   1   2
ATOM      2  C   UNL     1      13.054  62.049  21.897  1.00  0.00    -0.028 C 
ATOM      3  C   UNL     1      13.415  61.433  20.747  1.00  0.00    -0.077 C 
ATOM      4  C   UNL     1      12.632  61.755  19.499  1.00  0.00     0.039 C 
BRANCH   3   5
ATOM      5  C   UNL     1      14.561  60.443  20.653  1.00  0.00     0.034 C 
BRANCH   5   6
ATOM      6  C   UNL     1      15.879  61.143  20.304  1.00  0.00     0.032 C 
BRANCH   6   7
ATOM      7  C   UNL     1      17.047  60.435  20.946  1.00  0.00    -0.028 C 
ATOM      8  C   UNL     1      18.899  60.090  22.528  1.00  0.00     0.039 C 
ATOM      9  C   UNL     1      17.724  60.891  22.024  1.00  0.00    -0.080 C 
ATOM     10  C   UNL     1      17.320  62.152  22.749  1.00  0.00     0.039 C 
ENDBRANCH   6   7
ENDBRANCH   5   6
ENDBRANCH   3   5
ENDBRANCH   1   2
BRANCH   1  11
ATOM     11  C   UNL     1      13.415  63.011  24.195  1.00  0.00     0.034 C 
BRANCH  11  12
ATOM     12  C   UNL     1      11.980  63.050  24.693  1.00  0.00    -0.077 C 
ATOM     13  C   UNL     1      11.104  64.010  24.324  1.00  0.00    -0.028 C 
ATOM     14  C   UNL     1      11.504  61.968  25.630  1.00  0.00     0.039 C 
BRANCH  13  15
ATOM     15  C   UNL     1      11.468  65.196  23.457  1.00  0.00     0.035 C 
BRANCH  15  16
ATOM     16  C   UNL     1      11.091  66.529  24.117  1.00  0.00     0.079 C 
BRANCH  16  17
ATOM     17  C   UNL     1       9.658  66.544  24.584  1.00  0.00     0.130 C 
ATOM     18  O   UNL     1       8.754  66.429  23.768  1.00  0.00    -0.300 OA
ATOM     19  C   UNL     1       9.314  66.681  26.039  1.00  0.00     0.087 C 
ENDBRANCH  16  17
ENDBRANCH  15  16
ENDBRANCH  13  15
ENDBRANCH  11  12
ENDBRANCH   1  11
TORSDOF 9
ENDMDL
MODEL 7
REMARK VINA RESULT:    -4.282     13.001     15.023
REMARK INTER + INTRA:          -8.638
REMARK INTER:                  -5.691
REMARK INTRA:                  -2.947
REMARK UNBOUND:                -2.102
REMARK SMILES CC(=O)CCC=C(C)CCC=C(C)CCC=C(C)C
REMARK SMILES IDX 10 1 11 2 12 3 13 4 14 5 15 6 16 7 18 8 17 9 19 10 9 11 7 12
REMARK SMILES IDX 6 13 8 14 5 15 4 16 2 17 3 18 1 19
REMARK H PARENT
REMARK Flexibility Score: inf
ROOT
ATOM      1  C   UNL     1      15.797  61.639  20.869  1.00  0.00     0.032 C 
ENDROOT
BRANCH   1   2
ATOM      2  C   UNL     1      16.745  60.805  21.702  1.00  0.00    -0.028 C 
ATOM      3  C   UNL     1      16.895  60.877  23.044  1.00  0.00    -0.077 C 
ATOM      4  C   UNL     1      17.854  59.915  23.699  1.00  0.00     0.039 C 
BRANCH   3   5
ATOM      5  C   UNL     1      16.152  61.872  23.917  1.00  0.00     0.034 C 
BRANCH   5   6
ATOM      6  C   UNL     1      14.696  61.446  24.138  1.00  0.00     0.032 C 
BRANCH   6   7
ATOM      7  C   UNL     1      13.757  62.600  23.884  1.00  0.00    -0.028 C 
ATOM      8  C   UNL     1      11.602  63.746  23.581  1.00  0.00     0.039 C 
ATOM      9  C   UNL     1      12.409  62.511  23.896  1.00  0.00    -0.080 C 
ATOM     10  C   UNL     1      11.694  61.227  24.243  1.00  0.00     0.039 C 
ENDBRANCH   6   7
ENDBRANCH   5   6
ENDBRANCH   3   5
ENDBRANCH   1   2
BRANCH   1  11
ATOM     11  C   UNL     1      14.864  60.753  20.029  1.00  0.00     0.034 C 
BRANCH  11  12
ATOM     12  C   UNL     1      13.401  60.966  20.378  1.00  0.00    -0.077 C 
ATOM     13  C   UNL     1      12.637  60.005  20.944  1.00  0.00    -0.028 C 
ATOM     14  C   UNL     1      12.770  62.306  20.093  1.00  0.00     0.039 C 
BRANCH  13  15
ATOM     15  C   UNL     1      13.115  58.595  21.210  1.00  0.00     0.035 C 
BRANCH  15  16
ATOM     16  C   UNL     1      13.780  58.462  22.586  1.00  0.00     0.079 C 
BRANCH  16  17
ATOM     17  C   UNL     1      15.037  57.633  22.530  1.00  0.00     0.130 C 
ATOM     18  O   UNL     1      15.536  57.217  23.567  1.00  0.00    -0.300 OA
ATOM     19  C   UNL     1      15.686  57.288  21.221  1.00  0.00     0.087 C 
ENDBRANCH  16  17
ENDBRANCH  15  16
ENDBRANCH  13  15
ENDBRANCH  11  12
ENDBRANCH   1  11
TORSDOF 9
ENDMDL
MODEL 8
REMARK VINA RESULT:    -4.256      3.199      6.057
REMARK INTER + INTRA:          -8.597
REMARK INTER:                  -5.873
REMARK INTRA:                  -2.723
REMARK UNBOUND:                -2.102
REMARK SMILES CC(=O)CCC=C(C)CCC=C(C)CCC=C(C)C
REMARK SMILES IDX 10 1 11 2 12 3 13 4 14 5 15 6 16 7 18 8 17 9 19 10 9 11 7 12
REMARK SMILES IDX 6 13 8 14 5 15 4 16 2 17 3 18 1 19
REMARK H PARENT
REMARK Flexibility Score: inf
ROOT
ATOM      1  C   UNL     1      17.957  52.135  34.931  1.00  0.00     0.032 C 
ENDROOT
BRANCH   1   2
ATOM      2  C   UNL     1      16.842  52.949  35.549  1.00  0.00    -0.028 C 
ATOM      3  C   UNL     1      15.523  52.650  35.508  1.00  0.00    -0.077 C 
ATOM      4  C   UNL     1      14.570  53.562  36.238  1.00  0.00     0.039 C 
BRANCH   3   5
ATOM      5  C   UNL     1      14.961  51.451  34.766  1.00  0.00     0.034 C 
BRANCH   5   6
ATOM      6  C   UNL     1      14.438  51.844  33.380  1.00  0.00     0.032 C 
BRANCH   6   7
ATOM      7  C   UNL     1      15.498  51.626  32.328  1.00  0.00    -0.028 C 
ATOM      8  C   UNL     1      17.189  52.240  30.651  1.00  0.00     0.039 C 
ATOM      9  C   UNL     1      16.188  52.614  31.715  1.00  0.00    -0.080 C 
ATOM     10  C   UNL     1      16.008  54.066  32.087  1.00  0.00     0.039 C 
ENDBRANCH   6   7
ENDBRANCH   5   6
ENDBRANCH   3   5
ENDBRANCH   1   2
BRANCH   1  11
ATOM     11  C   UNL     1      19.289  52.900  34.958  1.00  0.00     0.034 C 
BRANCH  11  12
ATOM     12  C   UNL     1      19.669  53.443  33.591  1.00  0.00    -0.077 C 
ATOM     13  C   UNL     1      19.465  54.730  33.233  1.00  0.00    -0.028 C 
ATOM     14  C   UNL     1      20.310  52.514  32.590  1.00  0.00     0.039 C 
BRANCH  13  15
ATOM     15  C   UNL     1      18.761  55.746  34.105  1.00  0.00     0.035 C 
BRANCH  15  16
ATOM     16  C   UNL     1      18.317  56.979  33.307  1.00  0.00     0.079 C 
BRANCH  16  17
ATOM     17  C   UNL     1      16.894  57.371  33.615  1.00  0.00     0.130 C 
ATOM     18  O   UNL     1      16.346  58.236  32.946  1.00  0.00    -0.300 OA
ATOM     19  C   UNL     1      16.125  56.706  34.719  1.00  0.00     0.087 C 
ENDBRANCH  16  17
ENDBRANCH  15  16
ENDBRANCH  13  15
ENDBRANCH  11  12
ENDBRANCH   1  11
TORSDOF 9
ENDMDL
MODEL 9
REMARK VINA RESULT:    -4.224      3.109      5.468
REMARK INTER + INTRA:          -8.549
REMARK INTER:                  -5.525
REMARK INTRA:                  -3.023
REMARK UNBOUND:                -2.102
REMARK SMILES CC(=O)CCC=C(C)CCC=C(C)CCC=C(C)C
REMARK SMILES IDX 10 1 11 2 12 3 13 4 14 5 15 6 16 7 18 8 17 9 19 10 9 11 7 12
REMARK SMILES IDX 6 13 8 14 5 15 4 16 2 17 3 18 1 19
REMARK H PARENT
REMARK Flexibility Score: inf
ROOT
ATOM      1  C   UNL     1      19.033  52.878  35.102  1.00  0.00     0.032 C 
ENDROOT
BRANCH   1   2
ATOM      2  C   UNL     1      19.476  53.584  33.840  1.00  0.00    -0.028 C 
ATOM      3  C   UNL     1      19.212  54.870  33.515  1.00  0.00    -0.077 C 
ATOM      4  C   UNL     1      19.795  55.408  32.233  1.00  0.00     0.039 C 
BRANCH   3   5
ATOM      5  C   UNL     1      18.364  55.792  34.372  1.00  0.00     0.034 C 
BRANCH   5   6
ATOM      6  C   UNL     1      17.260  56.464  33.548  1.00  0.00     0.032 C 
BRANCH   6   7
ATOM      7  C   UNL     1      15.944  55.747  33.731  1.00  0.00    -0.028 C 
ATOM      8  C   UNL     1      13.694  55.331  34.633  1.00  0.00     0.039 C 
ATOM      9  C   UNL     1      14.935  56.180  34.519  1.00  0.00    -0.080 C 
ATOM     10  C   UNL     1      15.004  57.496  35.256  1.00  0.00     0.039 C 
ENDBRANCH   6   7
ENDBRANCH   5   6
ENDBRANCH   3   5
ENDBRANCH   1   2
BRANCH   1  11
ATOM     11  C   UNL     1      18.012  51.772  34.794  1.00  0.00     0.034 C 
BRANCH  11  12
ATOM     12  C   UNL     1      16.579  52.268  34.892  1.00  0.00    -0.077 C 
ATOM     13  C   UNL     1      15.708  52.193  33.861  1.00  0.00    -0.028 C 
ATOM     14  C   UNL     1      16.099  52.859  36.194  1.00  0.00     0.039 C 
BRANCH  13  15
ATOM     15  C   UNL     1      16.077  51.699  32.479  1.00  0.00     0.035 C 
BRANCH  15  16
ATOM     16  C   UNL     1      16.596  52.831  31.583  1.00  0.00     0.079 C 
BRANCH  16  17
ATOM     17  C   UNL     1      17.833  52.429  30.823  1.00  0.00     0.130 C 
ATOM     18  O   UNL     1      18.263  53.156  29.938  1.00  0.00    -0.300 OA
ATOM     19  C   UNL     1      18.565  51.157  31.141  1.00  0.00     0.087 C 
ENDBRANCH  16  17
ENDBRANCH  15  16
ENDBRANCH  13  15
ENDBRANCH  11  12
ENDBRANCH   1  11
TORSDOF 9
ENDMDL
