MODEL 1
REMARK VINA RESULT:     0.636      0.000      0.000
REMARK INTER + INTRA:           2.877
REMARK INTER:                   0.934
REMARK INTRA:                   1.944
REMARK UNBOUND:                 1.944
REMARK SMILES O=c1c(O[C@H]2O[C@H](CO)[C@@H](O)[C@H](O)[C@H]2O)c(-c2ccc(O)c(O)c2)oc2cc(O)cc(O)c12
REMARK SMILES IDX 4 1 3 2 16 3 25 4 2 5 26 6 1 7 33 8 27 9 31 10 28 11 30 12
REMARK SMILES IDX 17 13 18 14 19 15 20 16 24 17 22 18 21 19 23 21 32 23 29 25
REMARK SMILES IDX 5 27 14 28 6 29 12 30 7 31 10 32 15 33 13 35 8 37 9 38 11 40
REMARK H PARENT 21 20 23 22 32 24 29 26 15 34 13 36 9 39 11 41
REMARK Flexibility Score: inf
ROOT
ATOM      1  O   UNL     1     -15.607  16.465  11.416  1.00  0.00    -0.454 OA
ENDROOT
BRANCH   1   2
ATOM      2  C   UNL     1     -14.724  15.683  12.164  1.00  0.00     0.214 A 
ATOM      3  C   UNL     1     -13.343  15.664  11.943  1.00  0.00     0.180 A 
ATOM      4  O   UNL     1     -12.534  15.379  12.961  1.00  0.00    -0.452 OA
ATOM      5  C   UNL     1     -15.195  14.873  13.212  1.00  0.00     0.239 A 
ATOM      6  C   UNL     1     -12.996  15.074  14.153  1.00  0.00     0.146 A 
ATOM      7  O   UNL     1     -16.352  14.381  13.190  1.00  0.00    -0.285 OA
ATOM      8  C   UNL     1     -14.337  14.665  14.300  1.00  0.00     0.111 A 
ATOM      9  C   UNL     1     -12.152  15.252  15.249  1.00  0.00     0.094 A 
ATOM     10  C   UNL     1     -14.794  14.324  15.590  1.00  0.00     0.134 A 
ATOM     11  C   UNL     1     -12.640  15.019  16.547  1.00  0.00     0.123 A 
ATOM     12  C   UNL     1     -13.942  14.519  16.701  1.00  0.00     0.093 A 
BRANCH   3  13
ATOM     13  C   UNL     1     -12.809  15.765  10.593  1.00  0.00     0.025 A 
ATOM     14  C   UNL     1     -12.361  17.021  10.159  1.00  0.00     0.016 A 
ATOM     15  C   UNL     1     -11.967  17.196   8.834  1.00  0.00     0.051 A 
ATOM     16  C   UNL     1     -12.146  16.167   7.888  1.00  0.00     0.157 A 
ATOM     17  C   UNL     1     -12.945  14.718   9.645  1.00  0.00     0.062 A 
ATOM     18  C   UNL     1     -12.619  14.921   8.316  1.00  0.00     0.158 A 
BRANCH  16  19
ATOM     19  O   UNL     1     -11.875  16.397   6.516  1.00  0.00    -0.504 OA
ATOM     20  H   UNL     1     -11.354  17.256   6.194  1.00  0.00     0.293 HD
ENDBRANCH  16  19
BRANCH  18  21
ATOM     21  O   UNL     1     -12.810  13.875   7.419  1.00  0.00    -0.504 OA
ATOM     22  H   UNL     1     -13.307  13.001   7.601  1.00  0.00     0.293 HD
ENDBRANCH  18  21
ENDBRANCH   3  13
BRANCH  10  23
ATOM     23  O   UNL     1     -16.101  13.875  15.779  1.00  0.00    -0.507 OA
ATOM     24  H   UNL     1     -16.743  13.840  14.993  1.00  0.00     0.293 HD
ENDBRANCH  10  23
BRANCH  11  25
ATOM     25  O   UNL     1     -11.875  15.396  17.649  1.00  0.00    -0.508 OA
ATOM     26  H   UNL     1     -11.218  14.742  18.042  1.00  0.00     0.293 HD
ENDBRANCH  11  25
ENDBRANCH   1   2
BRANCH   1  27
ATOM     27  C   UNL     1     -16.721  15.896  10.670  1.00  0.00     0.339 C 
ATOM     28  C   UNL     1     -16.314  14.701   9.769  1.00  0.00     0.214 C 
ATOM     29  O   UNL     1     -17.549  16.888  10.072  1.00  0.00    -0.332 OA
ATOM     30  C   UNL     1     -15.844  15.191   8.378  1.00  0.00     0.180 C 
ATOM     31  C   UNL     1     -17.528  17.106   8.663  1.00  0.00     0.179 C 
ATOM     32  C   UNL     1     -17.027  15.936   7.759  1.00  0.00     0.177 C 
BRANCH  28  33
ATOM     33  O   UNL     1     -15.305  13.945  10.370  1.00  0.00    -0.384 OA
ATOM     34  H   UNL     1     -15.761  13.119  10.711  1.00  0.00     0.211 HD
ENDBRANCH  28  33
BRANCH  30  35
ATOM     35  O   UNL     1     -15.521  14.075   7.577  1.00  0.00    -0.387 OA
ATOM     36  H   UNL     1     -16.383  13.788   7.155  1.00  0.00     0.211 HD
ENDBRANCH  30  35
BRANCH  31  37
ATOM     37  C   UNL     1     -18.943  17.549   8.262  1.00  0.00     0.191 C 
BRANCH  37  38
ATOM     38  O   UNL     1     -19.653  18.093   9.342  1.00  0.00    -0.394 OA
ATOM     39  H   UNL     1     -20.621  18.068   9.118  1.00  0.00     0.210 HD
ENDBRANCH  37  38
ENDBRANCH  31  37
BRANCH  32  40
ATOM     40  O   UNL     1     -16.745  16.414   6.455  1.00  0.00    -0.387 OA
ATOM     41  H   UNL     1     -15.989  17.051   6.506  1.00  0.00     0.211 HD
ENDBRANCH  32  40
ENDBRANCH   1  27
TORSDOF 12
ENDMDL
