MODEL 1
REMARK VINA RESULT:    -5.556      0.000      0.000
REMARK INTER + INTRA:          -5.556
REMARK INTER:                  -5.556
REMARK INTRA:                   0.000
REMARK UNBOUND:                 0.000
REMARK SMILES CC(C)=C1CC[C@@H](C)CC1=O
REMARK SMILES IDX 8 1 7 2 6 3 5 4 4 5 2 6 1 7 3 8 10 9 11 10 9 11
REMARK H PARENT
REMARK Flexibility Score: inf
ROOT
ATOM      1  C   UNL     1      -4.481 -20.708 -12.286  1.00  0.00     0.008 C 
ATOM      2  C   UNL     1      -3.161 -21.249 -11.725  1.00  0.00    -0.006 C 
ATOM      3  C   UNL     1      -2.476 -22.171 -12.747  1.00  0.00     0.008 C 
ATOM      4  C   UNL     1      -1.105 -22.639 -12.243  1.00  0.00     0.039 C 
ATOM      5  C   UNL     1      -1.173 -23.256 -10.852  1.00  0.00    -0.006 C 
ATOM      6  C   UNL     1      -0.324 -24.258 -10.478  1.00  0.00    -0.070 C 
ATOM      7  C   UNL     1      -0.419 -24.916  -9.121  1.00  0.00     0.039 C 
ATOM      8  C   UNL     1       0.732 -24.784 -11.422  1.00  0.00     0.039 C 
ATOM      9  C   UNL     1      -2.136 -22.624  -9.901  1.00  0.00     0.159 C 
ATOM     10  O   UNL     1      -1.904 -22.587  -8.662  1.00  0.00    -0.295 OA
ATOM     11  C   UNL     1      -3.406 -22.009 -10.413  1.00  0.00     0.084 C 
ENDROOT
TORSDOF 0
ENDMDL
MODEL 2
REMARK VINA RESULT:    -5.549      1.228      4.098
REMARK INTER + INTRA:          -5.549
REMARK INTER:                  -5.549
REMARK INTRA:                   0.000
REMARK UNBOUND:                 0.000
REMARK SMILES CC(C)=C1CC[C@@H](C)CC1=O
REMARK SMILES IDX 8 1 7 2 6 3 5 4 4 5 2 6 1 7 3 8 10 9 11 10 9 11
REMARK H PARENT
REMARK Flexibility Score: inf
ROOT
ATOM      1  C   UNL     1       0.836 -25.181  -9.272  1.00  0.00     0.008 C 
ATOM      2  C   UNL     1      -0.401 -24.748 -10.068  1.00  0.00    -0.006 C 
ATOM      3  C   UNL     1      -0.001 -23.822 -11.228  1.00  0.00     0.008 C 
ATOM      4  C   UNL     1      -1.213 -23.462 -12.097  1.00  0.00     0.039 C 
ATOM      5  C   UNL     1      -2.374 -22.909 -11.280  1.00  0.00    -0.006 C 
ATOM      6  C   UNL     1      -3.228 -21.979 -11.800  1.00  0.00    -0.070 C 
ATOM      7  C   UNL     1      -4.348 -21.381 -10.981  1.00  0.00     0.039 C 
ATOM      8  C   UNL     1      -3.069 -21.474 -13.216  1.00  0.00     0.039 C 
ATOM      9  C   UNL     1      -2.582 -23.526  -9.936  1.00  0.00     0.159 C 
ATOM     10  O   UNL     1      -3.735 -23.635  -9.437  1.00  0.00    -0.295 OA
ATOM     11  C   UNL     1      -1.408 -24.037  -9.152  1.00  0.00     0.084 C 
ENDROOT
TORSDOF 0
ENDMDL
MODEL 3
REMARK VINA RESULT:    -5.497      1.730      4.700
REMARK INTER + INTRA:          -5.497
REMARK INTER:                  -5.497
REMARK INTRA:                   0.000
REMARK UNBOUND:                 0.000
REMARK SMILES CC(C)=C1CC[C@@H](C)CC1=O
REMARK SMILES IDX 8 1 7 2 6 3 5 4 4 5 2 6 1 7 3 8 10 9 11 10 9 11
REMARK H PARENT
REMARK Flexibility Score: inf
ROOT
ATOM      1  C   UNL     1       1.103 -25.785  -9.506  1.00  0.00     0.008 C 
ATOM      2  C   UNL     1       0.320 -24.569 -10.014  1.00  0.00    -0.006 C 
ATOM      3  C   UNL     1      -0.927 -24.328  -9.148  1.00  0.00     0.008 C 
ATOM      4  C   UNL     1      -1.667 -23.056  -9.579  1.00  0.00     0.039 C 
ATOM      5  C   UNL     1      -1.977 -23.035 -11.070  1.00  0.00    -0.006 C 
ATOM      6  C   UNL     1      -3.094 -22.417 -11.554  1.00  0.00    -0.070 C 
ATOM      7  C   UNL     1      -3.442 -22.440 -13.025  1.00  0.00     0.039 C 
ATOM      8  C   UNL     1      -4.061 -21.710 -10.632  1.00  0.00     0.039 C 
ATOM      9  C   UNL     1      -0.936 -23.626 -11.963  1.00  0.00     0.159 C 
ATOM     10  O   UNL     1      -0.744 -23.180 -13.127  1.00  0.00    -0.295 OA
ATOM     11  C   UNL     1      -0.089 -24.767 -11.481  1.00  0.00     0.084 C 
ENDROOT
TORSDOF 0
ENDMDL
MODEL 4
REMARK VINA RESULT:    -5.427      1.805      4.927
REMARK INTER + INTRA:          -5.427
REMARK INTER:                  -5.427
REMARK INTRA:                   0.000
REMARK UNBOUND:                 0.000
REMARK SMILES CC(C)=C1CC[C@@H](C)CC1=O
REMARK SMILES IDX 8 1 7 2 6 3 5 4 4 5 2 6 1 7 3 8 10 9 11 10 9 11
REMARK H PARENT
REMARK Flexibility Score: inf
ROOT
ATOM      1  C   UNL     1       2.759 -27.513 -10.612  1.00  0.00     0.008 C 
ATOM      2  C   UNL     1       1.483 -26.681 -10.787  1.00  0.00    -0.006 C 
ATOM      3  C   UNL     1       1.569 -25.817 -12.055  1.00  0.00     0.008 C 
ATOM      4  C   UNL     1       0.261 -25.056 -12.301  1.00  0.00     0.039 C 
ATOM      5  C   UNL     1      -0.191 -24.262 -11.082  1.00  0.00    -0.006 C 
ATOM      6  C   UNL     1      -0.875 -23.087 -11.214  1.00  0.00    -0.070 C 
ATOM      7  C   UNL     1      -1.279 -22.263 -10.014  1.00  0.00     0.039 C 
ATOM      8  C   UNL     1      -1.229 -22.535 -12.575  1.00  0.00     0.039 C 
ATOM      9  C   UNL     1       0.057 -24.901  -9.755  1.00  0.00     0.159 C 
ATOM     10  O   UNL     1      -0.725 -24.716  -8.783  1.00  0.00    -0.295 OA
ATOM     11  C   UNL     1       1.251 -25.788  -9.558  1.00  0.00     0.084 C 
ENDROOT
TORSDOF 0
ENDMDL
MODEL 5
REMARK VINA RESULT:    -5.402      1.513      2.393
REMARK INTER + INTRA:          -5.402
REMARK INTER:                  -5.402
REMARK INTRA:                   0.000
REMARK UNBOUND:                 0.000
REMARK SMILES CC(C)=C1CC[C@@H](C)CC1=O
REMARK SMILES IDX 8 1 7 2 6 3 5 4 4 5 2 6 1 7 3 8 10 9 11 10 9 11
REMARK H PARENT
REMARK Flexibility Score: inf
ROOT
ATOM      1  C   UNL     1      -4.229 -20.766 -12.123  1.00  0.00     0.008 C 
ATOM      2  C   UNL     1      -3.428 -22.032 -11.796  1.00  0.00    -0.006 C 
ATOM      3  C   UNL     1      -3.331 -22.234 -10.275  1.00  0.00     0.008 C 
ATOM      4  C   UNL     1      -2.621 -23.550  -9.932  1.00  0.00     0.039 C 
ATOM      5  C   UNL     1      -1.272 -23.685 -10.627  1.00  0.00    -0.006 C 
ATOM      6  C   UNL     1      -0.238 -24.359 -10.044  1.00  0.00    -0.070 C 
ATOM      7  C   UNL     1       1.121 -24.451 -10.698  1.00  0.00     0.039 C 
ATOM      8  C   UNL     1      -0.395 -25.017  -8.692  1.00  0.00     0.039 C 
ATOM      9  C   UNL     1      -1.193 -23.140 -12.015  1.00  0.00     0.159 C 
ATOM     10  O   UNL     1      -0.443 -23.664 -12.882  1.00  0.00    -0.295 OA
ATOM     11  C   UNL     1      -2.020 -21.949 -12.405  1.00  0.00     0.084 C 
ENDROOT
TORSDOF 0
ENDMDL
MODEL 6
REMARK VINA RESULT:    -5.386      2.136      3.112
REMARK INTER + INTRA:          -5.386
REMARK INTER:                  -5.386
REMARK INTRA:                   0.000
REMARK UNBOUND:                 0.000
REMARK SMILES CC(C)=C1CC[C@@H](C)CC1=O
REMARK SMILES IDX 8 1 7 2 6 3 5 4 4 5 2 6 1 7 3 8 10 9 11 10 9 11
REMARK H PARENT
REMARK Flexibility Score: inf
ROOT
ATOM      1  C   UNL     1      -2.635 -22.477  -9.443  1.00  0.00     0.008 C 
ATOM      2  C   UNL     1      -1.367 -23.105 -10.032  1.00  0.00    -0.006 C 
ATOM      3  C   UNL     1      -1.599 -23.528 -11.492  1.00  0.00     0.008 C 
ATOM      4  C   UNL     1      -0.311 -24.064 -12.129  1.00  0.00     0.039 C 
ATOM      5  C   UNL     1       0.338 -25.164 -11.298  1.00  0.00    -0.006 C 
ATOM      6  C   UNL     1       1.039 -26.177 -11.886  1.00  0.00    -0.070 C 
ATOM      7  C   UNL     1       1.639 -27.303 -11.076  1.00  0.00     0.039 C 
ATOM      8  C   UNL     1       1.218 -26.240 -13.385  1.00  0.00     0.039 C 
ATOM      9  C   UNL     1       0.256 -24.999  -9.815  1.00  0.00     0.159 C 
ATOM     10  O   UNL     1       1.174 -25.418  -9.059  1.00  0.00    -0.295 OA
ATOM     11  C   UNL     1      -0.930 -24.318  -9.198  1.00  0.00     0.084 C 
ENDROOT
TORSDOF 0
ENDMDL
MODEL 7
REMARK VINA RESULT:    -5.154      1.731      4.525
REMARK INTER + INTRA:          -5.154
REMARK INTER:                  -5.154
REMARK INTRA:                   0.000
REMARK UNBOUND:                 0.000
REMARK SMILES CC(C)=C1CC[C@@H](C)CC1=O
REMARK SMILES IDX 8 1 7 2 6 3 5 4 4 5 2 6 1 7 3 8 10 9 11 10 9 11
REMARK H PARENT
REMARK Flexibility Score: inf
ROOT
ATOM      1  C   UNL     1      -0.678 -24.745  -8.979  1.00  0.00     0.008 C 
ATOM      2  C   UNL     1      -1.508 -23.505  -9.332  1.00  0.00    -0.006 C 
ATOM      3  C   UNL     1      -2.839 -23.911  -9.985  1.00  0.00     0.008 C 
ATOM      4  C   UNL     1      -3.725 -22.688 -10.251  1.00  0.00     0.039 C 
ATOM      5  C   UNL     1      -3.000 -21.598 -11.030  1.00  0.00    -0.006 C 
ATOM      6  C   UNL     1      -3.668 -20.781 -11.897  1.00  0.00    -0.070 C 
ATOM      7  C   UNL     1      -2.950 -19.735 -12.717  1.00  0.00     0.039 C 
ATOM      8  C   UNL     1      -5.159 -20.912 -12.105  1.00  0.00     0.039 C 
ATOM      9  C   UNL     1      -1.555 -21.409 -10.701  1.00  0.00     0.159 C 
ATOM     10  O   UNL     1      -1.012 -20.274 -10.770  1.00  0.00    -0.295 OA
ATOM     11  C   UNL     1      -0.721 -22.581 -10.274  1.00  0.00     0.084 C 
ENDROOT
TORSDOF 0
ENDMDL
MODEL 8
REMARK VINA RESULT:    -5.134      3.283      4.980
REMARK INTER + INTRA:          -5.134
REMARK INTER:                  -5.134
REMARK INTRA:                   0.000
REMARK UNBOUND:                 0.000
REMARK SMILES CC(C)=C1CC[C@@H](C)CC1=O
REMARK SMILES IDX 8 1 7 2 6 3 5 4 4 5 2 6 1 7 3 8 10 9 11 10 9 11
REMARK H PARENT
REMARK Flexibility Score: inf
ROOT
ATOM      1  C   UNL     1      -0.526 -23.358 -10.047  1.00  0.00     0.008 C 
ATOM      2  C   UNL     1       0.481 -24.338 -10.659  1.00  0.00    -0.006 C 
ATOM      3  C   UNL     1       0.076 -24.705 -12.096  1.00  0.00     0.008 C 
ATOM      4  C   UNL     1       1.127 -25.603 -12.759  1.00  0.00     0.039 C 
ATOM      5  C   UNL     1       1.467 -26.826 -11.917  1.00  0.00    -0.006 C 
ATOM      6  C   UNL     1       1.822 -28.010 -12.497  1.00  0.00    -0.070 C 
ATOM      7  C   UNL     1       2.105 -29.246 -11.673  1.00  0.00     0.039 C 
ATOM      8  C   UNL     1       1.911 -28.152 -13.999  1.00  0.00     0.039 C 
ATOM      9  C   UNL     1       1.498 -26.615 -10.439  1.00  0.00     0.159 C 
ATOM     10  O   UNL     1       2.287 -27.266  -9.702  1.00  0.00    -0.295 OA
ATOM     11  C   UNL     1       0.585 -25.609  -9.802  1.00  0.00     0.084 C 
ENDROOT
TORSDOF 0
ENDMDL
MODEL 9
REMARK VINA RESULT:    -4.848      2.429      5.583
REMARK INTER + INTRA:          -4.848
REMARK INTER:                  -4.848
REMARK INTRA:                   0.000
REMARK UNBOUND:                 0.000
REMARK SMILES CC(C)=C1CC[C@@H](C)CC1=O
REMARK SMILES IDX 8 1 7 2 6 3 5 4 4 5 2 6 1 7 3 8 10 9 11 10 9 11
REMARK H PARENT
REMARK Flexibility Score: inf
ROOT
ATOM      1  C   UNL     1       2.925 -27.958 -11.428  1.00  0.00     0.008 C 
ATOM      2  C   UNL     1       2.215 -26.615 -11.228  1.00  0.00    -0.006 C 
ATOM      3  C   UNL     1       1.509 -26.572  -9.863  1.00  0.00     0.008 C 
ATOM      4  C   UNL     1       0.879 -25.198  -9.604  1.00  0.00     0.039 C 
ATOM      5  C   UNL     1      -0.023 -24.743 -10.743  1.00  0.00    -0.006 C 
ATOM      6  C   UNL     1      -1.120 -23.964 -10.512  1.00  0.00    -0.070 C 
ATOM      7  C   UNL     1      -2.055 -23.554 -11.627  1.00  0.00     0.039 C 
ATOM      8  C   UNL     1      -1.474 -23.503  -9.117  1.00  0.00     0.039 C 
ATOM      9  C   UNL     1       0.429 -25.103 -12.121  1.00  0.00     0.159 C 
ATOM     10  O   UNL     1       0.183 -24.356 -13.106  1.00  0.00    -0.295 OA
ATOM     11  C   UNL     1       1.197 -26.371 -12.353  1.00  0.00     0.084 C 
ENDROOT
TORSDOF 0
ENDMDL
