MODEL 1
REMARK VINA RESULT:     1.940      0.000      0.000
REMARK INTER + INTRA:           2.038
REMARK INTER:                   2.167
REMARK INTRA:                  -0.129
REMARK UNBOUND:                -0.129
REMARK SMILES O=C([O-])C=Cc1ccccc1
REMARK SMILES IDX 4 1 5 2 2 3 1 4 3 5 6 6 7 7 11 8 8 9 10 10 9 11
REMARK H PARENT
REMARK Flexibility Score: inf
ROOT
ATOM      1  C   UNL     1      79.396  -0.205  65.984  1.00  0.00     0.025 C 
ATOM      2  C   UNL     1      78.479  -0.248  65.005  1.00  0.00     0.010 C 
ENDROOT
BRANCH   1   3
ATOM      3  C   UNL     1      79.474  -1.239  67.030  1.00  0.00     0.064 C 
ATOM      4  O   UNL     1      80.581  -1.602  67.509  1.00  0.00    -0.545 OA
ATOM      5  O   UNL     1      78.305  -1.824  67.499  1.00  0.00    -0.545 OA
ENDBRANCH   1   3
BRANCH   2   6
ATOM      6  C   UNL     1      78.347   0.762  63.920  1.00  0.00    -0.026 A 
ATOM      7  C   UNL     1      77.062   1.258  63.628  1.00  0.00     0.008 A 
ATOM      8  C   UNL     1      79.443   1.246  63.172  1.00  0.00     0.008 A 
ATOM      9  C   UNL     1      76.875   2.208  62.620  1.00  0.00     0.001 A 
ATOM     10  C   UNL     1      79.248   2.197  62.164  1.00  0.00     0.001 A 
ATOM     11  C   UNL     1      77.966   2.677  61.889  1.00  0.00     0.000 A 
ENDBRANCH   2   6
TORSDOF 2
ENDMDL
MODEL 2
REMARK VINA RESULT:     3.010      0.563      1.810
REMARK INTER + INTRA:           3.233
REMARK INTER:                   3.366
REMARK INTRA:                  -0.132
REMARK UNBOUND:                -0.129
REMARK SMILES O=C([O-])C=Cc1ccccc1
REMARK SMILES IDX 4 1 5 2 2 3 1 4 3 5 6 6 7 7 11 8 8 9 10 10 9 11
REMARK H PARENT
REMARK Flexibility Score: inf
ROOT
ATOM      1  C   UNL     1      78.742  -0.854  65.876  1.00  0.00     0.025 C 
ATOM      2  C   UNL     1      79.385   0.068  65.142  1.00  0.00     0.010 C 
ENDROOT
BRANCH   1   3
ATOM      3  C   UNL     1      79.404  -1.591  66.966  1.00  0.00     0.064 C 
ATOM      4  O   UNL     1      78.736  -2.219  67.830  1.00  0.00    -0.545 OA
ATOM      5  O   UNL     1      80.791  -1.594  67.042  1.00  0.00    -0.545 OA
ENDBRANCH   1   3
BRANCH   2   6
ATOM      6  C   UNL     1      78.775   0.846  64.030  1.00  0.00    -0.026 A 
ATOM      7  C   UNL     1      79.632   1.408  63.066  1.00  0.00     0.008 A 
ATOM      8  C   UNL     1      77.383   1.046  63.895  1.00  0.00     0.008 A 
ATOM      9  C   UNL     1      79.118   2.149  61.998  1.00  0.00     0.001 A 
ATOM     10  C   UNL     1      76.875   1.790  62.824  1.00  0.00     0.001 A 
ATOM     11  C   UNL     1      77.741   2.340  61.877  1.00  0.00     0.000 A 
ENDBRANCH   2   6
TORSDOF 2
ENDMDL
MODEL 3
REMARK VINA RESULT:     3.991      2.887      5.641
REMARK INTER + INTRA:           4.328
REMARK INTER:                   4.462
REMARK INTRA:                  -0.134
REMARK UNBOUND:                -0.129
REMARK SMILES O=C([O-])C=Cc1ccccc1
REMARK SMILES IDX 4 1 5 2 2 3 1 4 3 5 6 6 7 7 11 8 8 9 10 10 9 11
REMARK H PARENT
REMARK Flexibility Score: inf
ROOT
ATOM      1  C   UNL     1      78.039   0.436  64.194  1.00  0.00     0.025 C 
ATOM      2  C   UNL     1      79.160   0.191  64.890  1.00  0.00     0.010 C 
ENDROOT
BRANCH   1   3
ATOM      3  C   UNL     1      78.011   1.370  63.055  1.00  0.00     0.064 C 
ATOM      4  O   UNL     1      76.942   1.606  62.430  1.00  0.00    -0.545 OA
ATOM      5  O   UNL     1      79.183   2.003  62.663  1.00  0.00    -0.545 OA
ENDBRANCH   1   3
BRANCH   2   6
ATOM      6  C   UNL     1      79.256  -0.738  66.048  1.00  0.00    -0.026 A 
ATOM      7  C   UNL     1      80.502  -0.873  66.689  1.00  0.00     0.008 A 
ATOM      8  C   UNL     1      78.162  -1.489  66.533  1.00  0.00     0.008 A 
ATOM      9  C   UNL     1      80.653  -1.731  67.782  1.00  0.00     0.001 A 
ATOM     10  C   UNL     1      78.322  -2.346  67.628  1.00  0.00     0.001 A 
ATOM     11  C   UNL     1      79.565  -2.466  68.251  1.00  0.00     0.000 A 
ENDBRANCH   2   6
TORSDOF 2
ENDMDL
