MODEL 1
REMARK VINA RESULT:    -4.038      0.000      0.000
REMARK INTER + INTRA:          -4.038
REMARK INTER:                  -4.038
REMARK INTRA:                   0.000
REMARK UNBOUND:                 0.000
REMARK SMILES CC1(C)C(=O)[C@]2(C)CC[C@H]1C2
REMARK SMILES IDX 1 1 2 2 10 3 9 4 8 5 6 6 11 7 4 8 5 9 7 10 3 11
REMARK H PARENT
REMARK Flexibility Score: inf
ROOT
ATOM      1  C   UNL     1     164.149 173.441 171.111  1.00  0.00     0.020 C 
ATOM      2  C   UNL     1     164.705 172.123 170.531  1.00  0.00     0.027 C 
ATOM      3  C   UNL     1     163.699 170.919 170.581  1.00  0.00     0.003 C 
ATOM      4  C   UNL     1     162.307 171.330 170.035  1.00  0.00     0.005 C 
ATOM      5  C   UNL     1     162.575 171.552 168.529  1.00  0.00     0.015 C 
ATOM      6  C   UNL     1     164.054 171.144 168.386  1.00  0.00     0.027 C 
ATOM      7  C   UNL     1     164.167 170.042 169.421  1.00  0.00     0.019 C 
ATOM      8  C   UNL     1     164.887 172.210 169.043  1.00  0.00     0.144 C 
ATOM      9  O   UNL     1     165.542 173.059 168.458  1.00  0.00    -0.298 OA
ATOM     10  C   UNL     1     164.492 170.745 166.976  1.00  0.00     0.020 C 
ATOM     11  C   UNL     1     166.035 171.783 171.237  1.00  0.00     0.020 C 
ENDROOT
TORSDOF 0
ENDMDL
MODEL 2
REMARK VINA RESULT:    -4.026      7.918      9.019
REMARK INTER + INTRA:          -4.026
REMARK INTER:                  -4.026
REMARK INTRA:                   0.000
REMARK UNBOUND:                 0.000
REMARK SMILES CC1(C)C(=O)[C@]2(C)CC[C@H]1C2
REMARK SMILES IDX 1 1 2 2 10 3 9 4 8 5 6 6 11 7 4 8 5 9 7 10 3 11
REMARK H PARENT
REMARK Flexibility Score: inf
ROOT
ATOM      1  C   UNL     1     157.757 164.152 171.095  1.00  0.00     0.020 C 
ATOM      2  C   UNL     1     159.079 164.708 170.522  1.00  0.00     0.027 C 
ATOM      3  C   UNL     1     160.282 163.701 170.580  1.00  0.00     0.003 C 
ATOM      4  C   UNL     1     159.874 162.310 170.031  1.00  0.00     0.005 C 
ATOM      5  C   UNL     1     159.661 162.577 168.525  1.00  0.00     0.015 C 
ATOM      6  C   UNL     1     160.070 164.056 168.384  1.00  0.00     0.027 C 
ATOM      7  C   UNL     1     161.166 164.169 169.425  1.00  0.00     0.019 C 
ATOM      8  C   UNL     1     159.000 164.889 169.034  1.00  0.00     0.144 C 
ATOM      9  O   UNL     1     158.155 165.545 168.444  1.00  0.00    -0.298 OA
ATOM     10  C   UNL     1     160.477 164.493 166.976  1.00  0.00     0.020 C 
ATOM     11  C   UNL     1     159.415 166.038 171.230  1.00  0.00     0.020 C 
ENDROOT
TORSDOF 0
ENDMDL
MODEL 3
REMARK VINA RESULT:    -4.016     11.371     12.775
REMARK INTER + INTRA:          -4.016
REMARK INTER:                  -4.016
REMARK INTRA:                   0.000
REMARK UNBOUND:                 0.000
REMARK SMILES CC1(C)C(=O)[C@]2(C)CC[C@H]1C2
REMARK SMILES IDX 1 1 2 2 10 3 9 4 8 5 6 6 11 7 4 8 5 9 7 10 3 11
REMARK H PARENT
REMARK Flexibility Score: inf
ROOT
ATOM      1  C   UNL     1     167.076 157.731 171.123  1.00  0.00     0.020 C 
ATOM      2  C   UNL     1     166.497 159.047 170.561  1.00  0.00     0.027 C 
ATOM      3  C   UNL     1     167.491 160.262 170.608  1.00  0.00     0.003 C 
ATOM      4  C   UNL     1     168.879 159.871 170.039  1.00  0.00     0.005 C 
ATOM      5  C   UNL     1     168.594 159.658 168.536  1.00  0.00     0.015 C 
ATOM      6  C   UNL     1     167.108 160.051 168.416  1.00  0.00     0.027 C 
ATOM      7  C   UNL     1     166.997 161.143 169.462  1.00  0.00     0.019 C 
ATOM      8  C   UNL     1     166.297 158.970 169.075  1.00  0.00     0.144 C 
ATOM      9  O   UNL     1     165.642 158.118 168.492  1.00  0.00    -0.298 OA
ATOM     10  C   UNL     1     166.647 160.456 167.015  1.00  0.00     0.020 C 
ATOM     11  C   UNL     1     165.173 159.367 171.288  1.00  0.00     0.020 C 
ENDROOT
TORSDOF 0
ENDMDL
MODEL 4
REMARK VINA RESULT:    -4.012      7.968      9.075
REMARK INTER + INTRA:          -4.012
REMARK INTER:                  -4.012
REMARK INTRA:                   0.000
REMARK UNBOUND:                 0.000
REMARK SMILES CC1(C)C(=O)[C@]2(C)CC[C@H]1C2
REMARK SMILES IDX 1 1 2 2 10 3 9 4 8 5 6 6 11 7 4 8 5 9 7 10 3 11
REMARK H PARENT
REMARK Flexibility Score: inf
ROOT
ATOM      1  C   UNL     1     173.480 167.020 171.184  1.00  0.00     0.020 C 
ATOM      2  C   UNL     1     172.160 166.486 170.584  1.00  0.00     0.027 C 
ATOM      3  C   UNL     1     170.972 167.512 170.624  1.00  0.00     0.003 C 
ATOM      4  C   UNL     1     171.412 168.899 170.088  1.00  0.00     0.005 C 
ATOM      5  C   UNL     1     171.648 168.634 168.585  1.00  0.00     0.015 C 
ATOM      6  C   UNL     1     171.219 167.162 168.431  1.00  0.00     0.027 C 
ATOM      7  C   UNL     1     170.102 167.062 169.451  1.00  0.00     0.019 C 
ATOM      8  C   UNL     1     172.264 166.310 169.097  1.00  0.00     0.144 C 
ATOM      9  O   UNL     1     173.109 165.643 168.520  1.00  0.00    -0.298 OA
ATOM     10  C   UNL     1     170.831 166.736 167.014  1.00  0.00     0.020 C 
ATOM     11  C   UNL     1     171.791 165.159 171.280  1.00  0.00     0.020 C 
ENDROOT
TORSDOF 0
ENDMDL
MODEL 5
REMARK VINA RESULT:    -3.532      1.154      3.140
REMARK INTER + INTRA:          -3.532
REMARK INTER:                  -3.532
REMARK INTRA:                   0.000
REMARK UNBOUND:                 0.000
REMARK SMILES CC1(C)C(=O)[C@]2(C)CC[C@H]1C2
REMARK SMILES IDX 1 1 2 2 10 3 9 4 8 5 6 6 11 7 4 8 5 9 7 10 3 11
REMARK H PARENT
REMARK Flexibility Score: inf
ROOT
ATOM      1  C   UNL     1     164.371 169.929 168.876  1.00  0.00     0.020 C 
ATOM      2  C   UNL     1     164.087 171.439 168.719  1.00  0.00     0.027 C 
ATOM      3  C   UNL     1     162.578 171.835 168.898  1.00  0.00     0.003 C 
ATOM      4  C   UNL     1     161.980 171.194 170.177  1.00  0.00     0.005 C 
ATOM      5  C   UNL     1     162.716 171.935 171.316  1.00  0.00     0.015 C 
ATOM      6  C   UNL     1     163.563 172.971 170.552  1.00  0.00     0.027 C 
ATOM      7  C   UNL     1     162.666 173.285 169.371  1.00  0.00     0.019 C 
ATOM      8  C   UNL     1     164.670 172.229 169.854  1.00  0.00     0.144 C 
ATOM      9  O   UNL     1     165.841 172.212 170.203  1.00  0.00    -0.298 OA
ATOM     10  C   UNL     1     164.000 174.190 171.365  1.00  0.00     0.020 C 
ATOM     11  C   UNL     1     164.644 171.918 167.361  1.00  0.00     0.020 C 
ENDROOT
TORSDOF 0
ENDMDL
MODEL 6
REMARK VINA RESULT:    -3.504      7.859      9.433
REMARK INTER + INTRA:          -3.504
REMARK INTER:                  -3.504
REMARK INTRA:                   0.000
REMARK UNBOUND:                 0.000
REMARK SMILES CC1(C)C(=O)[C@]2(C)CC[C@H]1C2
REMARK SMILES IDX 1 1 2 2 10 3 9 4 8 5 6 6 11 7 4 8 5 9 7 10 3 11
REMARK H PARENT
REMARK Flexibility Score: inf
ROOT
ATOM      1  C   UNL     1     169.829 166.846 169.148  1.00  0.00     0.020 C 
ATOM      2  C   UNL     1     171.318 167.176 168.910  1.00  0.00     0.027 C 
ATOM      3  C   UNL     1     171.683 168.690 169.103  1.00  0.00     0.003 C 
ATOM      4  C   UNL     1     171.104 169.240 170.431  1.00  0.00     0.005 C 
ATOM      5  C   UNL     1     171.930 168.500 171.506  1.00  0.00     0.015 C 
ATOM      6  C   UNL     1     172.942 167.701 170.662  1.00  0.00     0.027 C 
ATOM      7  C   UNL     1     173.161 168.633 169.487  1.00  0.00     0.019 C 
ATOM      8  C   UNL     1     172.190 166.589 169.982  1.00  0.00     0.144 C 
ATOM      9  O   UNL     1     172.224 165.410 170.302  1.00  0.00    -0.298 OA
ATOM     10  C   UNL     1     174.218 167.279 171.392  1.00  0.00     0.020 C 
ATOM     11  C   UNL     1     171.731 166.664 167.513  1.00  0.00     0.020 C 
ENDROOT
TORSDOF 0
ENDMDL
MODEL 7
REMARK VINA RESULT:    -3.489      8.484      9.842
REMARK INTER + INTRA:          -3.489
REMARK INTER:                  -3.489
REMARK INTRA:                   0.000
REMARK UNBOUND:                 0.000
REMARK SMILES CC1(C)C(=O)[C@]2(C)CC[C@H]1C2
REMARK SMILES IDX 1 1 2 2 10 3 9 4 8 5 6 6 11 7 4 8 5 9 7 10 3 11
REMARK H PARENT
REMARK Flexibility Score: inf
ROOT
ATOM      1  C   UNL     1     161.413 164.367 169.106  1.00  0.00     0.020 C 
ATOM      2  C   UNL     1     159.914 164.078 168.873  1.00  0.00     0.027 C 
ATOM      3  C   UNL     1     159.508 162.574 169.074  1.00  0.00     0.003 C 
ATOM      4  C   UNL     1     160.076 162.013 170.402  1.00  0.00     0.005 C 
ATOM      5  C   UNL     1     159.274 162.780 171.477  1.00  0.00     0.015 C 
ATOM      6  C   UNL     1     158.282 163.604 170.633  1.00  0.00     0.027 C 
ATOM      7  C   UNL     1     158.033 162.674 169.462  1.00  0.00     0.019 C 
ATOM      8  C   UNL     1     159.062 164.692 169.946  1.00  0.00     0.144 C 
ATOM      9  O   UNL     1     159.061 165.872 170.262  1.00  0.00    -0.298 OA
ATOM     10  C   UNL     1     157.020 164.064 171.365  1.00  0.00     0.020 C 
ATOM     11  C   UNL     1     159.511 164.595 167.476  1.00  0.00     0.020 C 
ENDROOT
TORSDOF 0
ENDMDL
MODEL 8
REMARK VINA RESULT:    -3.341      8.085      9.390
REMARK INTER + INTRA:          -3.341
REMARK INTER:                  -3.341
REMARK INTRA:                   0.000
REMARK UNBOUND:                 0.000
REMARK SMILES CC1(C)C(=O)[C@]2(C)CC[C@H]1C2
REMARK SMILES IDX 1 1 2 2 10 3 9 4 8 5 6 6 11 7 4 8 5 9 7 10 3 11
REMARK H PARENT
REMARK Flexibility Score: inf
ROOT
ATOM      1  C   UNL     1     170.235 166.772 168.441  1.00  0.00     0.020 C 
ATOM      2  C   UNL     1     171.177 167.352 169.518  1.00  0.00     0.027 C 
ATOM      3  C   UNL     1     170.539 167.447 170.950  1.00  0.00     0.003 C 
ATOM      4  C   UNL     1     169.847 166.116 171.344  1.00  0.00     0.005 C 
ATOM      5  C   UNL     1     171.034 165.141 171.509  1.00  0.00     0.015 C 
ATOM      6  C   UNL     1     172.255 166.055 171.290  1.00  0.00     0.027 C 
ATOM      7  C   UNL     1     171.759 167.367 171.866  1.00  0.00     0.019 C 
ATOM      8  C   UNL     1     172.303 166.409 169.829  1.00  0.00     0.144 C 
ATOM      9  O   UNL     1     173.084 165.944 169.012  1.00  0.00    -0.298 OA
ATOM     10  C   UNL     1     173.569 165.550 171.887  1.00  0.00     0.020 C 
ATOM     11  C   UNL     1     171.709 168.719 169.040  1.00  0.00     0.020 C 
ENDROOT
TORSDOF 0
ENDMDL
MODEL 9
REMARK VINA RESULT:    -3.335     11.219     12.608
REMARK INTER + INTRA:          -3.335
REMARK INTER:                  -3.335
REMARK INTRA:                   0.000
REMARK UNBOUND:                 0.000
REMARK SMILES CC1(C)C(=O)[C@]2(C)CC[C@H]1C2
REMARK SMILES IDX 1 1 2 2 10 3 9 4 8 5 6 6 11 7 4 8 5 9 7 10 3 11
REMARK H PARENT
REMARK Flexibility Score: inf
ROOT
ATOM      1  C   UNL     1     166.758 161.001 168.444  1.00  0.00     0.020 C 
ATOM      2  C   UNL     1     167.338 160.055 169.518  1.00  0.00     0.027 C 
ATOM      3  C   UNL     1     167.446 160.692 170.949  1.00  0.00     0.003 C 
ATOM      4  C   UNL     1     166.123 161.394 171.350  1.00  0.00     0.005 C 
ATOM      5  C   UNL     1     165.140 160.214 171.523  1.00  0.00     0.015 C 
ATOM      6  C   UNL     1     166.045 158.987 171.299  1.00  0.00     0.027 C 
ATOM      7  C   UNL     1     167.364 159.474 171.866  1.00  0.00     0.019 C 
ATOM      8  C   UNL     1     166.389 158.935 169.835  1.00  0.00     0.144 C 
ATOM      9  O   UNL     1     165.915 158.157 169.022  1.00  0.00    -0.298 OA
ATOM     10  C   UNL     1     165.535 157.676 171.899  1.00  0.00     0.020 C 
ATOM     11  C   UNL     1     168.699 159.514 169.032  1.00  0.00     0.020 C 
ENDROOT
TORSDOF 0
ENDMDL
