MODEL 1
REMARK VINA RESULT:    -4.481      0.000      0.000
REMARK INTER + INTRA:          -6.587
REMARK INTER:                  -6.314
REMARK INTRA:                  -0.273
REMARK UNBOUND:                -0.273
REMARK SMILES CCCCCCCCC(=O)[O-]
REMARK SMILES IDX 6 1 7 2 8 3 9 4 10 5 11 6 5 7 4 8 3 9 2 10 1 11
REMARK H PARENT
REMARK Flexibility Score: inf
ROOT
ATOM      1  C   UNL     1       3.176 -37.095  19.622  1.00  0.00     0.000 C 
ENDROOT
BRANCH   1   2
ATOM      2  C   UNL     1       4.656 -37.499  19.538  1.00  0.00     0.006 C 
BRANCH   2   3
ATOM      3  C   UNL     1       5.411 -37.258  20.852  1.00  0.00     0.053 C 
BRANCH   3   4
ATOM      4  C   UNL     1       5.813 -35.822  20.966  1.00  0.00     0.041 C 
ATOM      5  O   UNL     1       5.922 -35.282  22.099  1.00  0.00    -0.550 OA
ATOM      6  O   UNL     1       6.115 -35.091  19.825  1.00  0.00    -0.550 OA
ENDBRANCH   3   4
ENDBRANCH   2   3
ENDBRANCH   1   2
BRANCH   1   7
ATOM      7  C   UNL     1       2.376 -37.520  18.380  1.00  0.00     0.000 C 
BRANCH   7   8
ATOM      8  C   UNL     1       3.117 -37.135  17.090  1.00  0.00    -0.000 C 
BRANCH   8   9
ATOM      9  C   UNL     1       2.170 -36.538  16.028  1.00  0.00    -0.000 C 
BRANCH   9  10
ATOM     10  C   UNL     1       2.798 -36.444  14.627  1.00  0.00    -0.003 C 
ATOM     11  C   UNL     1       3.896 -37.478  14.392  1.00  0.00     0.004 C 
ENDBRANCH   9  10
ENDBRANCH   8   9
ENDBRANCH   7   8
ENDBRANCH   1   7
TORSDOF 7
ENDMDL
MODEL 2
REMARK VINA RESULT:    -4.319      1.342      1.870
REMARK INTER + INTRA:          -6.360
REMARK INTER:                  -6.107
REMARK INTRA:                  -0.253
REMARK UNBOUND:                -0.273
REMARK SMILES CCCCCCCCC(=O)[O-]
REMARK SMILES IDX 6 1 7 2 8 3 9 4 10 5 11 6 5 7 4 8 3 9 2 10 1 11
REMARK H PARENT
REMARK Flexibility Score: inf
ROOT
ATOM      1  C   UNL     1       3.986 -36.341  19.821  1.00  0.00     0.000 C 
ENDROOT
BRANCH   1   2
ATOM      2  C   UNL     1       5.215 -36.784  20.630  1.00  0.00     0.006 C 
BRANCH   2   3
ATOM      3  C   UNL     1       5.980 -35.603  21.239  1.00  0.00     0.053 C 
BRANCH   3   4
ATOM      4  C   UNL     1       5.846 -35.607  22.729  1.00  0.00     0.041 C 
ATOM      5  O   UNL     1       5.439 -34.579  23.332  1.00  0.00    -0.550 OA
ATOM      6  O   UNL     1       6.124 -36.762  23.449  1.00  0.00    -0.550 OA
ENDBRANCH   3   4
ENDBRANCH   2   3
ENDBRANCH   1   2
BRANCH   1   7
ATOM      7  C   UNL     1       2.919 -37.442  19.715  1.00  0.00     0.000 C 
BRANCH   7   8
ATOM      8  C   UNL     1       2.335 -37.508  18.295  1.00  0.00    -0.000 C 
BRANCH   8   9
ATOM      9  C   UNL     1       3.187 -36.724  17.275  1.00  0.00    -0.000 C 
BRANCH   9  10
ATOM     10  C   UNL     1       2.397 -36.258  16.041  1.00  0.00    -0.003 C 
ATOM     11  C   UNL     1       3.101 -36.578  14.724  1.00  0.00     0.004 C 
ENDBRANCH   9  10
ENDBRANCH   8   9
ENDBRANCH   7   8
ENDBRANCH   1   7
TORSDOF 7
ENDMDL
MODEL 3
REMARK VINA RESULT:    -4.297      3.013      5.946
REMARK INTER + INTRA:          -6.328
REMARK INTER:                  -6.082
REMARK INTRA:                  -0.245
REMARK UNBOUND:                -0.273
REMARK SMILES CCCCCCCCC(=O)[O-]
REMARK SMILES IDX 6 1 7 2 8 3 9 4 10 5 11 6 5 7 4 8 3 9 2 10 1 11
REMARK H PARENT
REMARK Flexibility Score: inf
ROOT
ATOM      1  C   UNL     1       2.765 -37.247  19.755  1.00  0.00     0.000 C 
ENDROOT
BRANCH   1   2
ATOM      2  C   UNL     1       2.168 -37.447  18.353  1.00  0.00     0.006 C 
BRANCH   2   3
ATOM      3  C   UNL     1       3.216 -37.326  17.240  1.00  0.00     0.053 C 
BRANCH   3   4
ATOM      4  C   UNL     1       2.663 -36.554  16.085  1.00  0.00     0.041 C 
ATOM      5  O   UNL     1       1.573 -35.935  16.200  1.00  0.00    -0.550 OA
ATOM      6  O   UNL     1       3.375 -36.476  14.895  1.00  0.00    -0.550 OA
ENDBRANCH   3   4
ENDBRANCH   2   3
ENDBRANCH   1   2
BRANCH   1   7
ATOM      7  C   UNL     1       4.205 -36.710  19.714  1.00  0.00     0.000 C 
BRANCH   7   8
ATOM      8  C   UNL     1       4.435 -35.667  20.819  1.00  0.00    -0.000 C 
BRANCH   8   9
ATOM      9  C   UNL     1       5.899 -35.642  21.304  1.00  0.00    -0.000 C 
BRANCH   9  10
ATOM     10  C   UNL     1       6.050 -35.854  22.820  1.00  0.00    -0.003 C 
ATOM     11  C   UNL     1       5.711 -34.608  23.634  1.00  0.00     0.004 C 
ENDBRANCH   9  10
ENDBRANCH   8   9
ENDBRANCH   7   8
ENDBRANCH   1   7
TORSDOF 7
ENDMDL
MODEL 4
REMARK VINA RESULT:    -4.265      1.796      2.937
REMARK INTER + INTRA:          -6.283
REMARK INTER:                  -5.983
REMARK INTRA:                  -0.300
REMARK UNBOUND:                -0.273
REMARK SMILES CCCCCCCCC(=O)[O-]
REMARK SMILES IDX 6 1 7 2 8 3 9 4 10 5 11 6 5 7 4 8 3 9 2 10 1 11
REMARK H PARENT
REMARK Flexibility Score: inf
ROOT
ATOM      1  C   UNL     1       5.374 -35.890  20.086  1.00  0.00     0.000 C 
ENDROOT
BRANCH   1   2
ATOM      2  C   UNL     1       4.978 -35.575  21.537  1.00  0.00     0.006 C 
BRANCH   2   3
ATOM      3  C   UNL     1       6.116 -35.834  22.531  1.00  0.00     0.053 C 
BRANCH   3   4
ATOM      4  C   UNL     1       5.881 -35.081  23.802  1.00  0.00     0.041 C 
ATOM      5  O   UNL     1       5.658 -33.841  23.772  1.00  0.00    -0.550 OA
ATOM      6  O   UNL     1       5.859 -35.754  25.016  1.00  0.00    -0.550 OA
ENDBRANCH   3   4
ENDBRANCH   2   3
ENDBRANCH   1   2
BRANCH   1   7
ATOM      7  C   UNL     1       4.678 -37.148  19.543  1.00  0.00     0.000 C 
BRANCH   7   8
ATOM      8  C   UNL     1       3.152 -37.038  19.686  1.00  0.00    -0.000 C 
BRANCH   8   9
ATOM      9  C   UNL     1       2.409 -37.533  18.427  1.00  0.00    -0.000 C 
BRANCH   9  10
ATOM     10  C   UNL     1       3.112 -37.160  17.111  1.00  0.00    -0.003 C 
ATOM     11  C   UNL     1       2.210 -36.392  16.147  1.00  0.00     0.004 C 
ENDBRANCH   9  10
ENDBRANCH   8   9
ENDBRANCH   7   8
ENDBRANCH   1   7
TORSDOF 7
ENDMDL
MODEL 5
REMARK VINA RESULT:    -3.678      2.419      3.480
REMARK INTER + INTRA:          -5.455
REMARK INTER:                  -5.130
REMARK INTRA:                  -0.326
REMARK UNBOUND:                -0.273
REMARK SMILES CCCCCCCCC(=O)[O-]
REMARK SMILES IDX 6 1 7 2 8 3 9 4 10 5 11 6 5 7 4 8 3 9 2 10 1 11
REMARK H PARENT
REMARK Flexibility Score: inf
ROOT
ATOM      1  C   UNL     1       4.953 -35.888  20.489  1.00  0.00     0.000 C 
ENDROOT
BRANCH   1   2
ATOM      2  C   UNL     1       5.993 -35.402  21.510  1.00  0.00     0.006 C 
BRANCH   2   3
ATOM      3  C   UNL     1       6.073 -36.305  22.748  1.00  0.00     0.053 C 
BRANCH   3   4
ATOM      4  C   UNL     1       5.722 -35.533  23.980  1.00  0.00     0.041 C 
ATOM      5  O   UNL     1       5.680 -34.275  23.949  1.00  0.00    -0.550 OA
ATOM      6  O   UNL     1       5.393 -36.204  25.151  1.00  0.00    -0.550 OA
ENDBRANCH   3   4
ENDBRANCH   2   3
ENDBRANCH   1   2
BRANCH   1   7
ATOM      7  C   UNL     1       5.074 -35.172  19.135  1.00  0.00     0.000 C 
BRANCH   7   8
ATOM      8  C   UNL     1       4.246 -35.889  18.057  1.00  0.00    -0.000 C 
BRANCH   8   9
ATOM      9  C   UNL     1       3.616 -37.198  18.578  1.00  0.00    -0.000 C 
BRANCH   9  10
ATOM     10  C   UNL     1       2.204 -37.463  18.030  1.00  0.00    -0.003 C 
ATOM     11  C   UNL     1       1.173 -37.712  19.128  1.00  0.00     0.004 C 
ENDBRANCH   9  10
ENDBRANCH   8   9
ENDBRANCH   7   8
ENDBRANCH   1   7
TORSDOF 7
ENDMDL
MODEL 6
REMARK VINA RESULT:    -3.263      3.181      5.796
REMARK INTER + INTRA:          -4.871
REMARK INTER:                  -4.535
REMARK INTRA:                  -0.337
REMARK UNBOUND:                -0.273
REMARK SMILES CCCCCCCCC(=O)[O-]
REMARK SMILES IDX 6 1 7 2 8 3 9 4 10 5 11 6 5 7 4 8 3 9 2 10 1 11
REMARK H PARENT
REMARK Flexibility Score: inf
ROOT
ATOM      1  C   UNL     1       3.294 -36.989  19.043  1.00  0.00     0.000 C 
ENDROOT
BRANCH   1   2
ATOM      2  C   UNL     1       3.018 -37.489  17.617  1.00  0.00     0.006 C 
BRANCH   2   3
ATOM      3  C   UNL     1       3.219 -36.398  16.558  1.00  0.00     0.053 C 
BRANCH   3   4
ATOM      4  C   UNL     1       3.178 -36.989  15.185  1.00  0.00     0.041 C 
ATOM      5  O   UNL     1       2.506 -36.435  14.275  1.00  0.00    -0.550 OA
ATOM      6  O   UNL     1       3.920 -38.127  14.895  1.00  0.00    -0.550 OA
ENDBRANCH   3   4
ENDBRANCH   2   3
ENDBRANCH   1   2
BRANCH   1   7
ATOM      7  C   UNL     1       4.559 -36.120  19.131  1.00  0.00     0.000 C 
BRANCH   7   8
ATOM      8  C   UNL     1       5.402 -36.500  20.359  1.00  0.00    -0.000 C 
BRANCH   8   9
ATOM      9  C   UNL     1       4.861 -37.754  21.076  1.00  0.00    -0.000 C 
BRANCH   9  10
ATOM     10  C   UNL     1       5.824 -38.952  21.034  1.00  0.00    -0.003 C 
ATOM     11  C   UNL     1       5.661 -39.894  22.224  1.00  0.00     0.004 C 
ENDBRANCH   9  10
ENDBRANCH   8   9
ENDBRANCH   7   8
ENDBRANCH   1   7
TORSDOF 7
ENDMDL
MODEL 7
REMARK VINA RESULT:    -3.216      2.043      2.621
REMARK INTER + INTRA:          -4.805
REMARK INTER:                  -4.415
REMARK INTRA:                  -0.390
REMARK UNBOUND:                -0.273
REMARK SMILES CCCCCCCCC(=O)[O-]
REMARK SMILES IDX 6 1 7 2 8 3 9 4 10 5 11 6 5 7 4 8 3 9 2 10 1 11
REMARK H PARENT
REMARK Flexibility Score: inf
ROOT
ATOM      1  C   UNL     1       4.377 -35.767  20.257  1.00  0.00     0.000 C 
ENDROOT
BRANCH   1   2
ATOM      2  C   UNL     1       5.741 -36.246  20.778  1.00  0.00     0.006 C 
BRANCH   2   3
ATOM      3  C   UNL     1       5.615 -37.295  21.890  1.00  0.00     0.053 C 
BRANCH   3   4
ATOM      4  C   UNL     1       5.618 -38.673  21.310  1.00  0.00     0.041 C 
ATOM      5  O   UNL     1       5.870 -38.846  20.088  1.00  0.00    -0.550 OA
ATOM      6  O   UNL     1       5.390 -39.772  22.127  1.00  0.00    -0.550 OA
ENDBRANCH   3   4
ENDBRANCH   2   3
ENDBRANCH   1   2
BRANCH   1   7
ATOM      7  C   UNL     1       4.128 -36.169  18.794  1.00  0.00     0.000 C 
BRANCH   7   8
ATOM      8  C   UNL     1       3.029 -37.238  18.697  1.00  0.00    -0.000 C 
BRANCH   8   9
ATOM      9  C   UNL     1       2.392 -37.296  17.292  1.00  0.00    -0.000 C 
BRANCH   9  10
ATOM     10  C   UNL     1       2.969 -36.262  16.311  1.00  0.00    -0.003 C 
ATOM     11  C   UNL     1       3.374 -36.869  14.970  1.00  0.00     0.004 C 
ENDBRANCH   9  10
ENDBRANCH   8   9
ENDBRANCH   7   8
ENDBRANCH   1   7
TORSDOF 7
ENDMDL
