MODEL 1
REMARK VINA RESULT:    -5.089      0.000      0.000
REMARK INTER + INTRA:          -5.482
REMARK INTER:                  -5.387
REMARK INTRA:                  -0.095
REMARK UNBOUND:                -0.095
REMARK SMILES C=C(C)[C@@H]1CC=C(C)C(=O)C1
REMARK SMILES IDX 8 1 7 2 6 3 5 4 4 5 11 6 9 7 10 8 2 9 1 10 3 11
REMARK H PARENT
REMARK Flexibility Score: inf
ROOT
ATOM      1  C   UNL     1      98.968 119.341 123.904  1.00  0.00     0.048 C 
ATOM      2  C   UNL     1      99.460 118.034 124.463  1.00  0.00    -0.012 C 
ATOM      3  C   UNL     1      99.510 116.941 123.681  1.00  0.00    -0.019 C 
ATOM      4  C   UNL     1     100.069 115.632 124.173  1.00  0.00     0.036 C 
ATOM      5  C   UNL     1      99.846 115.465 125.689  1.00  0.00     0.025 C 
ATOM      6  C   UNL     1     100.427 116.670 126.451  1.00  0.00     0.089 C 
ATOM      7  C   UNL     1      99.911 117.962 125.875  1.00  0.00     0.158 C 
ATOM      8  O   UNL     1      99.910 118.997 126.593  1.00  0.00    -0.295 OA
ENDROOT
BRANCH   5   9
ATOM      9  C   UNL     1     100.418 114.150 126.200  1.00  0.00    -0.077 C 
ATOM     10  C   UNL     1     101.631 114.090 126.774  1.00  0.00     0.008 C 
ATOM     11  C   UNL     1      99.621 112.877 126.066  1.00  0.00     0.039 C 
ENDBRANCH   5   9
TORSDOF 1
ENDMDL
MODEL 2
REMARK VINA RESULT:    -4.983      1.587      2.538
REMARK INTER + INTRA:          -5.369
REMARK INTER:                  -5.274
REMARK INTRA:                  -0.095
REMARK UNBOUND:                -0.095
REMARK SMILES C=C(C)[C@@H]1CC=C(C)C(=O)C1
REMARK SMILES IDX 8 1 7 2 6 3 5 4 4 5 11 6 9 7 10 8 2 9 1 10 3 11
REMARK H PARENT
REMARK Flexibility Score: inf
ROOT
ATOM      1  C   UNL     1      98.888 120.567 124.098  1.00  0.00     0.048 C 
ATOM      2  C   UNL     1      99.257 119.219 124.657  1.00  0.00    -0.012 C 
ATOM      3  C   UNL     1      99.642 119.103 125.939  1.00  0.00    -0.019 C 
ATOM      4  C   UNL     1      99.944 117.766 126.564  1.00  0.00     0.036 C 
ATOM      5  C   UNL     1     100.490 116.773 125.519  1.00  0.00     0.025 C 
ATOM      6  C   UNL     1      99.516 116.656 124.333  1.00  0.00     0.089 C 
ATOM      7  C   UNL     1      99.172 118.017 123.791  1.00  0.00     0.158 C 
ATOM      8  O   UNL     1      98.764 118.120 122.603  1.00  0.00    -0.295 OA
ENDROOT
BRANCH   5   9
ATOM      9  C   UNL     1     100.788 115.414 126.137  1.00  0.00    -0.077 C 
ATOM     10  C   UNL     1      99.941 114.380 125.997  1.00  0.00     0.008 C 
ATOM     11  C   UNL     1     102.055 115.204 126.928  1.00  0.00     0.039 C 
ENDBRANCH   5   9
TORSDOF 1
ENDMDL
MODEL 3
REMARK VINA RESULT:    -4.970      1.848      2.863
REMARK INTER + INTRA:          -5.355
REMARK INTER:                  -5.259
REMARK INTRA:                  -0.095
REMARK UNBOUND:                -0.095
REMARK SMILES C=C(C)[C@@H]1CC=C(C)C(=O)C1
REMARK SMILES IDX 8 1 7 2 6 3 5 4 4 5 11 6 9 7 10 8 2 9 1 10 3 11
REMARK H PARENT
REMARK Flexibility Score: inf
ROOT
ATOM      1  C   UNL     1      99.915 118.062 126.319  1.00  0.00     0.048 C 
ATOM      2  C   UNL     1     100.178 116.642 125.895  1.00  0.00    -0.012 C 
ATOM      3  C   UNL     1     100.123 115.647 126.798  1.00  0.00    -0.019 C 
ATOM      4  C   UNL     1     100.300 114.203 126.407  1.00  0.00     0.036 C 
ATOM      5  C   UNL     1     101.235 114.066 125.189  1.00  0.00     0.025 C 
ATOM      6  C   UNL     1     100.721 114.928 124.022  1.00  0.00     0.089 C 
ATOM      7  C   UNL     1     100.475 116.343 124.473  1.00  0.00     0.158 C 
ATOM      8  O   UNL     1     100.479 117.269 123.618  1.00  0.00    -0.295 OA
ENDROOT
BRANCH   5   9
ATOM      9  C   UNL     1     101.412 112.611 124.778  1.00  0.00    -0.077 C 
ATOM     10  C   UNL     1     100.796 112.110 123.693  1.00  0.00     0.008 C 
ATOM     11  C   UNL     1     102.292 111.697 125.592  1.00  0.00     0.039 C 
ENDBRANCH   5   9
TORSDOF 1
ENDMDL
MODEL 4
REMARK VINA RESULT:    -4.940      1.557      2.203
REMARK INTER + INTRA:          -5.323
REMARK INTER:                  -5.229
REMARK INTRA:                  -0.094
REMARK UNBOUND:                -0.095
REMARK SMILES C=C(C)[C@@H]1CC=C(C)C(=O)C1
REMARK SMILES IDX 8 1 7 2 6 3 5 4 4 5 11 6 9 7 10 8 2 9 1 10 3 11
REMARK H PARENT
REMARK Flexibility Score: inf
ROOT
ATOM      1  C   UNL     1      99.880 119.600 125.468  1.00  0.00     0.048 C 
ATOM      2  C   UNL     1      99.889 118.098 125.391  1.00  0.00    -0.012 C 
ATOM      3  C   UNL     1     100.151 117.368 126.490  1.00  0.00    -0.019 C 
ATOM      4  C   UNL     1     100.092 115.863 126.481  1.00  0.00     0.036 C 
ATOM      5  C   UNL     1     100.461 115.299 125.095  1.00  0.00     0.025 C 
ATOM      6  C   UNL     1      99.568 115.924 124.008  1.00  0.00     0.089 C 
ATOM      7  C   UNL     1      99.585 117.426 124.104  1.00  0.00     0.158 C 
ATOM      8  O   UNL     1      99.292 118.109 123.087  1.00  0.00    -0.295 OA
ENDROOT
BRANCH   5   9
ATOM      9  C   UNL     1     100.395 113.778 125.070  1.00  0.00    -0.077 C 
ATOM     10  C   UNL     1     100.985 113.067 124.095  1.00  0.00     0.008 C 
ATOM     11  C   UNL     1      99.655 113.036 126.154  1.00  0.00     0.039 C 
ENDBRANCH   5   9
TORSDOF 1
ENDMDL
MODEL 5
REMARK VINA RESULT:    -4.937      2.204      4.923
REMARK INTER + INTRA:          -5.320
REMARK INTER:                  -5.226
REMARK INTRA:                  -0.093
REMARK UNBOUND:                -0.095
REMARK SMILES C=C(C)[C@@H]1CC=C(C)C(=O)C1
REMARK SMILES IDX 8 1 7 2 6 3 5 4 4 5 11 6 9 7 10 8 2 9 1 10 3 11
REMARK H PARENT
REMARK Flexibility Score: inf
ROOT
ATOM      1  C   UNL     1     102.160 112.126 127.192  1.00  0.00     0.048 C 
ATOM      2  C   UNL     1     101.642 113.462 126.730  1.00  0.00    -0.012 C 
ATOM      3  C   UNL     1     102.449 114.537 126.735  1.00  0.00    -0.019 C 
ATOM      4  C   UNL     1     102.000 115.874 126.207  1.00  0.00     0.036 C 
ATOM      5  C   UNL     1     100.483 116.069 126.400  1.00  0.00     0.025 C 
ATOM      6  C   UNL     1      99.709 114.900 125.763  1.00  0.00     0.089 C 
ATOM      7  C   UNL     1     100.244 113.580 126.249  1.00  0.00     0.158 C 
ATOM      8  O   UNL     1      99.502 112.562 126.200  1.00  0.00    -0.295 OA
ENDROOT
BRANCH   5   9
ATOM      9  C   UNL     1     100.015 117.413 125.860  1.00  0.00    -0.077 C 
ATOM     10  C   UNL     1      99.813 117.608 124.546  1.00  0.00     0.008 C 
ATOM     11  C   UNL     1      99.770 118.563 126.804  1.00  0.00     0.039 C 
ENDBRANCH   5   9
TORSDOF 1
ENDMDL
MODEL 6
REMARK VINA RESULT:    -4.912      2.091      4.739
REMARK INTER + INTRA:          -5.293
REMARK INTER:                  -5.195
REMARK INTRA:                  -0.098
REMARK UNBOUND:                -0.095
REMARK SMILES C=C(C)[C@@H]1CC=C(C)C(=O)C1
REMARK SMILES IDX 8 1 7 2 6 3 5 4 4 5 11 6 9 7 10 8 2 9 1 10 3 11
REMARK H PARENT
REMARK Flexibility Score: inf
ROOT
ATOM      1  C   UNL     1     100.289 112.927 126.243  1.00  0.00     0.048 C 
ATOM      2  C   UNL     1     100.343 114.376 125.840  1.00  0.00    -0.012 C 
ATOM      3  C   UNL     1     100.145 115.339 126.757  1.00  0.00    -0.019 C 
ATOM      4  C   UNL     1     100.269 116.802 126.418  1.00  0.00     0.036 C 
ATOM      5  C   UNL     1      99.885 117.068 124.949  1.00  0.00     0.025 C 
ATOM      6  C   UNL     1     100.718 116.178 124.008  1.00  0.00     0.089 C 
ATOM      7  C   UNL     1     100.638 114.736 124.431  1.00  0.00     0.158 C 
ATOM      8  O   UNL     1     100.871 113.834 123.582  1.00  0.00    -0.295 OA
ENDROOT
BRANCH   5   9
ATOM      9  C   UNL     1     100.016 118.542 124.591  1.00  0.00    -0.077 C 
ATOM     10  C   UNL     1     100.238 118.938 123.326  1.00  0.00     0.008 C 
ATOM     11  C   UNL     1      99.899 119.594 125.665  1.00  0.00     0.039 C 
ENDBRANCH   5   9
TORSDOF 1
ENDMDL
MODEL 7
REMARK VINA RESULT:    -4.789      2.270      3.448
REMARK INTER + INTRA:          -5.164
REMARK INTER:                  -5.067
REMARK INTRA:                  -0.097
REMARK UNBOUND:                -0.095
REMARK SMILES C=C(C)[C@@H]1CC=C(C)C(=O)C1
REMARK SMILES IDX 8 1 7 2 6 3 5 4 4 5 11 6 9 7 10 8 2 9 1 10 3 11
REMARK H PARENT
REMARK Flexibility Score: inf
ROOT
ATOM      1  C   UNL     1      98.608 116.650 120.113  1.00  0.00     0.048 C 
ATOM      2  C   UNL     1      99.110 116.807 121.523  1.00  0.00    -0.012 C 
ATOM      3  C   UNL     1      99.949 115.896 122.046  1.00  0.00    -0.019 C 
ATOM      4  C   UNL     1     100.540 116.052 123.422  1.00  0.00     0.036 C 
ATOM      5  C   UNL     1      99.584 116.821 124.355  1.00  0.00     0.025 C 
ATOM      6  C   UNL     1      99.198 118.174 123.729  1.00  0.00     0.089 C 
ATOM      7  C   UNL     1      98.693 117.984 122.324  1.00  0.00     0.158 C 
ATOM      8  O   UNL     1      97.946 118.863 121.816  1.00  0.00    -0.295 OA
ENDROOT
BRANCH   5   9
ATOM      9  C   UNL     1     100.176 116.995 125.747  1.00  0.00    -0.077 C 
ATOM     10  C   UNL     1     100.053 118.152 126.420  1.00  0.00     0.008 C 
ATOM     11  C   UNL     1     100.919 115.858 126.400  1.00  0.00     0.039 C 
ENDBRANCH   5   9
TORSDOF 1
ENDMDL
MODEL 8
REMARK VINA RESULT:    -4.776      2.176      4.443
REMARK INTER + INTRA:          -5.150
REMARK INTER:                  -5.053
REMARK INTRA:                  -0.097
REMARK UNBOUND:                -0.095
REMARK SMILES C=C(C)[C@@H]1CC=C(C)C(=O)C1
REMARK SMILES IDX 8 1 7 2 6 3 5 4 4 5 11 6 9 7 10 8 2 9 1 10 3 11
REMARK H PARENT
REMARK Flexibility Score: inf
ROOT
ATOM      1  C   UNL     1     101.509 112.078 124.494  1.00  0.00     0.048 C 
ATOM      2  C   UNL     1     101.029 113.490 124.693  1.00  0.00    -0.012 C 
ATOM      3  C   UNL     1     101.136 114.386 123.695  1.00  0.00    -0.019 C 
ATOM      4  C   UNL     1     100.598 115.787 123.819  1.00  0.00     0.036 C 
ATOM      5  C   UNL     1     100.646 116.275 125.281  1.00  0.00     0.025 C 
ATOM      6  C   UNL     1      99.909 115.284 126.200  1.00  0.00     0.089 C 
ATOM      7  C   UNL     1     100.416 113.883 125.985  1.00  0.00     0.158 C 
ATOM      8  O   UNL     1     100.271 113.031 126.902  1.00  0.00    -0.295 OA
ENDROOT
BRANCH   5   9
ATOM      9  C   UNL     1     100.093 117.687 125.420  1.00  0.00    -0.077 C 
ATOM     10  C   UNL     1      99.931 118.260 126.625  1.00  0.00     0.008 C 
ATOM     11  C   UNL     1      99.713 118.475 124.192  1.00  0.00     0.039 C 
ENDBRANCH   5   9
TORSDOF 1
ENDMDL
MODEL 9
REMARK VINA RESULT:    -4.766      1.890      4.931
REMARK INTER + INTRA:          -5.140
REMARK INTER:                  -5.045
REMARK INTRA:                  -0.095
REMARK UNBOUND:                -0.095
REMARK SMILES C=C(C)[C@@H]1CC=C(C)C(=O)C1
REMARK SMILES IDX 8 1 7 2 6 3 5 4 4 5 11 6 9 7 10 8 2 9 1 10 3 11
REMARK H PARENT
REMARK Flexibility Score: inf
ROOT
ATOM      1  C   UNL     1     100.140 114.597 125.581  1.00  0.00     0.048 C 
ATOM      2  C   UNL     1     100.051 116.089 125.408  1.00  0.00    -0.012 C 
ATOM      3  C   UNL     1     100.117 116.897 126.480  1.00  0.00    -0.019 C 
ATOM      4  C   UNL     1     100.113 118.398 126.350  1.00  0.00     0.036 C 
ATOM      5  C   UNL     1      99.310 118.848 125.114  1.00  0.00     0.025 C 
ATOM      6  C   UNL     1      99.843 118.154 123.847  1.00  0.00     0.089 C 
ATOM      7  C   UNL     1      99.914 116.664 124.047  1.00  0.00     0.158 C 
ATOM      8  O   UNL     1      99.900 115.908 123.039  1.00  0.00    -0.295 OA
ENDROOT
BRANCH   5   9
ATOM      9  C   UNL     1      99.308 120.363 124.965  1.00  0.00    -0.077 C 
ATOM     10  C   UNL     1     100.259 121.123 125.535  1.00  0.00     0.008 C 
ATOM     11  C   UNL     1      98.225 121.044 124.167  1.00  0.00     0.039 C 
ENDBRANCH   5   9
TORSDOF 1
ENDMDL
