MODEL 1
REMARK VINA RESULT:    -3.481      0.000      0.000
REMARK INTER + INTRA:          -4.212
REMARK INTER:                  -4.091
REMARK INTRA:                  -0.121
REMARK UNBOUND:                -0.121
REMARK SMILES O=C([O-])CCC(=O)[O-]
REMARK SMILES IDX 4 1 2 2 1 3 3 4 5 5 6 6 7 7 8 8
REMARK H PARENT
REMARK Flexibility Score: inf
ROOT
ATOM      1  C   UNL     1      16.544  12.903  -7.736  1.00  0.00     0.059 C 
ENDROOT
BRANCH   1   2
ATOM      2  C   UNL     1      15.236  12.986  -8.463  1.00  0.00     0.042 C 
ATOM      3  O   UNL     1      14.163  13.137  -7.823  1.00  0.00    -0.550 OA
ATOM      4  O   UNL     1      15.201  12.857  -9.847  1.00  0.00    -0.550 OA
ENDBRANCH   1   2
BRANCH   1   5
ATOM      5  C   UNL     1      16.340  12.806  -6.221  1.00  0.00     0.059 C 
BRANCH   5   6
ATOM      6  C   UNL     1      16.786  14.055  -5.523  1.00  0.00     0.042 C 
ATOM      7  O   UNL     1      16.237  15.158  -5.783  1.00  0.00    -0.550 OA
ATOM      8  O   UNL     1      17.837  14.007  -4.616  1.00  0.00    -0.550 OA
ENDBRANCH   5   6
ENDBRANCH   1   5
TORSDOF 3
ENDMDL
MODEL 2
REMARK VINA RESULT:    -3.471      0.068      3.965
REMARK INTER + INTRA:          -4.201
REMARK INTER:                  -4.083
REMARK INTRA:                  -0.118
REMARK UNBOUND:                -0.121
REMARK SMILES O=C([O-])CCC(=O)[O-]
REMARK SMILES IDX 4 1 2 2 1 3 3 4 5 5 6 6 7 7 8 8
REMARK H PARENT
REMARK Flexibility Score: inf
ROOT
ATOM      1  C   UNL     1      16.286  12.836  -6.228  1.00  0.00     0.059 C 
ENDROOT
BRANCH   1   2
ATOM      2  C   UNL     1      16.758  14.075  -5.529  1.00  0.00     0.042 C 
ATOM      3  O   UNL     1      16.235  15.189  -5.791  1.00  0.00    -0.550 OA
ATOM      4  O   UNL     1      17.803  14.002  -4.615  1.00  0.00    -0.550 OA
ENDBRANCH   1   2
BRANCH   1   5
ATOM      5  C   UNL     1      16.549  12.907  -7.736  1.00  0.00     0.059 C 
BRANCH   5   6
ATOM      6  C   UNL     1      15.271  13.002  -8.514  1.00  0.00     0.042 C 
ATOM      7  O   UNL     1      14.170  13.116  -7.915  1.00  0.00    -0.550 OA
ATOM      8  O   UNL     1      15.295  12.925  -9.901  1.00  0.00    -0.550 OA
ENDBRANCH   5   6
ENDBRANCH   1   5
TORSDOF 3
ENDMDL
MODEL 3
REMARK VINA RESULT:    -3.465      0.129      1.145
REMARK INTER + INTRA:          -4.194
REMARK INTER:                  -4.085
REMARK INTRA:                  -0.109
REMARK UNBOUND:                -0.121
REMARK SMILES O=C([O-])CCC(=O)[O-]
REMARK SMILES IDX 4 1 2 2 1 3 3 4 5 5 6 6 7 7 8 8
REMARK H PARENT
REMARK Flexibility Score: inf
ROOT
ATOM      1  C   UNL     1      16.499  12.829  -7.722  1.00  0.00     0.059 C 
ENDROOT
BRANCH   1   2
ATOM      2  C   UNL     1      15.235  13.000  -8.510  1.00  0.00     0.042 C 
ATOM      3  O   UNL     1      14.141  13.195  -7.919  1.00  0.00    -0.550 OA
ATOM      4  O   UNL     1      15.262  12.905  -9.896  1.00  0.00    -0.550 OA
ENDBRANCH   1   2
BRANCH   1   5
ATOM      5  C   UNL     1      16.229  12.849  -6.214  1.00  0.00     0.059 C 
BRANCH   5   6
ATOM      6  C   UNL     1      16.841  14.051  -5.561  1.00  0.00     0.042 C 
ATOM      7  O   UNL     1      17.867  13.930  -4.842  1.00  0.00    -0.550 OA
ATOM      8  O   UNL     1      16.252  15.300  -5.715  1.00  0.00    -0.550 OA
ENDBRANCH   5   6
ENDBRANCH   1   5
TORSDOF 3
ENDMDL
MODEL 4
REMARK VINA RESULT:    -3.440      0.095      1.149
REMARK INTER + INTRA:          -4.164
REMARK INTER:                  -4.042
REMARK INTRA:                  -0.122
REMARK UNBOUND:                -0.121
REMARK SMILES O=C([O-])CCC(=O)[O-]
REMARK SMILES IDX 4 1 2 2 1 3 3 4 5 5 6 6 7 7 8 8
REMARK H PARENT
REMARK Flexibility Score: inf
ROOT
ATOM      1  C   UNL     1      16.583  12.853  -7.813  1.00  0.00     0.059 C 
ENDROOT
BRANCH   1   2
ATOM      2  C   UNL     1      15.279  12.970  -8.543  1.00  0.00     0.042 C 
ATOM      3  O   UNL     1      15.245  12.888  -9.798  1.00  0.00    -0.550 OA
ATOM      4  O   UNL     1      14.106  13.207  -7.836  1.00  0.00    -0.550 OA
ENDBRANCH   1   2
BRANCH   1   5
ATOM      5  C   UNL     1      16.372  12.739  -6.300  1.00  0.00     0.059 C 
BRANCH   5   6
ATOM      6  C   UNL     1      16.811  13.983  -5.587  1.00  0.00     0.042 C 
ATOM      7  O   UNL     1      16.252  15.084  -5.830  1.00  0.00    -0.550 OA
ATOM      8  O   UNL     1      17.864  13.930  -4.683  1.00  0.00    -0.550 OA
ENDBRANCH   5   6
ENDBRANCH   1   5
TORSDOF 3
ENDMDL
MODEL 5
REMARK VINA RESULT:    -3.291      0.920      4.078
REMARK INTER + INTRA:          -3.989
REMARK INTER:                  -3.954
REMARK INTRA:                  -0.035
REMARK UNBOUND:                -0.121
REMARK SMILES O=C([O-])CCC(=O)[O-]
REMARK SMILES IDX 4 1 2 2 1 3 3 4 5 5 6 6 7 7 8 8
REMARK H PARENT
REMARK Flexibility Score: inf
ROOT
ATOM      1  C   UNL     1      16.224  13.522  -6.200  1.00  0.00     0.059 C 
ENDROOT
BRANCH   1   2
ATOM      2  C   UNL     1      17.413  13.279  -5.320  1.00  0.00     0.042 C 
ATOM      3  O   UNL     1      17.785  14.158  -4.500  1.00  0.00    -0.550 OA
ATOM      4  O   UNL     1      18.134  12.097  -5.437  1.00  0.00    -0.550 OA
ENDBRANCH   1   2
BRANCH   1   5
ATOM      5  C   UNL     1      16.360  12.795  -7.542  1.00  0.00     0.059 C 
BRANCH   5   6
ATOM      6  C   UNL     1      15.139  12.978  -8.393  1.00  0.00     0.042 C 
ATOM      7  O   UNL     1      14.015  13.166  -7.859  1.00  0.00    -0.550 OA
ATOM      8  O   UNL     1      15.239  12.898  -9.776  1.00  0.00    -0.550 OA
ENDBRANCH   5   6
ENDBRANCH   1   5
TORSDOF 3
ENDMDL
MODEL 6
REMARK VINA RESULT:    -3.121      2.060      4.848
REMARK INTER + INTRA:          -3.789
REMARK INTER:                  -3.667
REMARK INTRA:                  -0.122
REMARK UNBOUND:                -0.121
REMARK SMILES O=C([O-])CCC(=O)[O-]
REMARK SMILES IDX 4 1 2 2 1 3 3 4 5 5 6 6 7 7 8 8
REMARK H PARENT
REMARK Flexibility Score: inf
ROOT
ATOM      1  C   UNL     1      17.577  14.774  -4.487  1.00  0.00     0.059 C 
ENDROOT
BRANCH   1   2
ATOM      2  C   UNL     1      18.975  14.585  -3.981  1.00  0.00     0.042 C 
ATOM      3  O   UNL     1      19.334  13.475  -3.509  1.00  0.00    -0.550 OA
ATOM      4  O   UNL     1      19.869  15.649  -3.996  1.00  0.00    -0.550 OA
ENDBRANCH   1   2
BRANCH   1   5
ATOM      5  C   UNL     1      17.449  14.355  -5.956  1.00  0.00     0.059 C 
BRANCH   5   6
ATOM      6  C   UNL     1      16.691  13.071  -6.098  1.00  0.00     0.042 C 
ATOM      7  O   UNL     1      17.204  11.985  -5.722  1.00  0.00    -0.550 OA
ATOM      8  O   UNL     1      15.431  13.069  -6.685  1.00  0.00    -0.550 OA
ENDBRANCH   5   6
ENDBRANCH   1   5
TORSDOF 3
ENDMDL
MODEL 7
REMARK VINA RESULT:    -3.003      2.223      3.765
REMARK INTER + INTRA:          -3.651
REMARK INTER:                  -3.557
REMARK INTRA:                  -0.094
REMARK UNBOUND:                -0.121
REMARK SMILES O=C([O-])CCC(=O)[O-]
REMARK SMILES IDX 4 1 2 2 1 3 3 4 5 5 6 6 7 7 8 8
REMARK H PARENT
REMARK Flexibility Score: inf
ROOT
ATOM      1  C   UNL     1      16.598  14.368  -6.536  1.00  0.00     0.059 C 
ENDROOT
BRANCH   1   2
ATOM      2  C   UNL     1      16.815  15.135  -5.267  1.00  0.00     0.042 C 
ATOM      3  O   UNL     1      16.248  16.245  -5.091  1.00  0.00    -0.550 OA
ATOM      4  O   UNL     1      17.677  14.640  -4.295  1.00  0.00    -0.550 OA
ENDBRANCH   1   2
BRANCH   1   5
ATOM      5  C   UNL     1      16.336  12.884  -6.258  1.00  0.00     0.059 C 
BRANCH   5   6
ATOM      6  C   UNL     1      17.537  12.044  -6.571  1.00  0.00     0.042 C 
ATOM      7  O   UNL     1      17.856  11.812  -7.767  1.00  0.00    -0.550 OA
ATOM      8  O   UNL     1      18.281  11.484  -5.540  1.00  0.00    -0.550 OA
ENDBRANCH   5   6
ENDBRANCH   1   5
TORSDOF 3
ENDMDL
MODEL 8
REMARK VINA RESULT:    -3.002      9.372      9.871
REMARK INTER + INTRA:          -3.650
REMARK INTER:                  -3.609
REMARK INTRA:                  -0.041
REMARK UNBOUND:                -0.121
REMARK SMILES O=C([O-])CCC(=O)[O-]
REMARK SMILES IDX 4 1 2 2 1 3 3 4 5 5 6 6 7 7 8 8
REMARK H PARENT
REMARK Flexibility Score: inf
ROOT
ATOM      1  C   UNL     1      15.418   4.011  -6.257  1.00  0.00     0.059 C 
ENDROOT
BRANCH   1   2
ATOM      2  C   UNL     1      15.308   5.444  -6.679  1.00  0.00     0.042 C 
ATOM      3  O   UNL     1      16.330   6.075  -7.055  1.00  0.00    -0.550 OA
ATOM      4  O   UNL     1      14.080   6.093  -6.621  1.00  0.00    -0.550 OA
ENDBRANCH   1   2
BRANCH   1   5
ATOM      5  C   UNL     1      16.869   3.626  -5.946  1.00  0.00     0.059 C 
BRANCH   5   6
ATOM      6  C   UNL     1      16.955   2.711  -4.763  1.00  0.00     0.042 C 
ATOM      7  O   UNL     1      17.105   3.183  -3.605  1.00  0.00    -0.550 OA
ATOM      8  O   UNL     1      16.910   1.334  -4.944  1.00  0.00    -0.550 OA
ENDBRANCH   5   6
ENDBRANCH   1   5
TORSDOF 3
ENDMDL
MODEL 9
REMARK VINA RESULT:    -2.958      2.456      3.029
REMARK INTER + INTRA:          -3.598
REMARK INTER:                  -3.483
REMARK INTRA:                  -0.115
REMARK UNBOUND:                -0.121
REMARK SMILES O=C([O-])CCC(=O)[O-]
REMARK SMILES IDX 4 1 2 2 1 3 3 4 5 5 6 6 7 7 8 8
REMARK H PARENT
REMARK Flexibility Score: inf
ROOT
ATOM      1  C   UNL     1      16.535  12.875  -6.045  1.00  0.00     0.059 C 
ENDROOT
BRANCH   1   2
ATOM      2  C   UNL     1      17.698  11.942  -6.193  1.00  0.00     0.042 C 
ATOM      3  O   UNL     1      17.722  11.102  -7.131  1.00  0.00    -0.550 OA
ATOM      4  O   UNL     1      18.737  11.975  -5.271  1.00  0.00    -0.550 OA
ENDBRANCH   1   2
BRANCH   1   5
ATOM      5  C   UNL     1      16.891  14.295  -6.497  1.00  0.00     0.059 C 
BRANCH   5   6
ATOM      6  C   UNL     1      16.992  15.235  -5.334  1.00  0.00     0.042 C 
ATOM      7  O   UNL     1      16.160  16.170  -5.199  1.00  0.00    -0.550 OA
ATOM      8  O   UNL     1      18.030  15.100  -4.420  1.00  0.00    -0.550 OA
ENDBRANCH   5   6
ENDBRANCH   1   5
TORSDOF 3
ENDMDL
