MODEL 1
REMARK VINA RESULT:    -2.934      0.000      0.000
REMARK INTER + INTRA:          -2.934
REMARK INTER:                  -2.934
REMARK INTRA:                   0.000
REMARK UNBOUND:                 0.000
REMARK SMILES CC(=O)[O-]
REMARK SMILES IDX 1 1 2 2 3 3 4 4
REMARK H PARENT
REMARK Flexibility Score: inf
ROOT
ATOM      1  C   UNL     1     -35.720  71.166 -18.812  1.00  0.00     0.063 C 
ATOM      2  C   UNL     1     -35.270  69.745 -18.811  1.00  0.00     0.038 C 
ATOM      3  O   UNL     1     -34.142  69.439 -19.278  1.00  0.00    -0.550 OA
ATOM      4  O   UNL     1     -36.071  68.761 -18.245  1.00  0.00    -0.550 OA
ENDROOT
TORSDOF 0
ENDMDL
MODEL 2
REMARK VINA RESULT:    -2.923      1.328      1.894
REMARK INTER + INTRA:          -2.923
REMARK INTER:                  -2.923
REMARK INTRA:                   0.000
REMARK UNBOUND:                 0.000
REMARK SMILES CC(=O)[O-]
REMARK SMILES IDX 1 1 2 2 3 3 4 4
REMARK H PARENT
REMARK Flexibility Score: inf
ROOT
ATOM      1  C   UNL     1     -36.393  69.175 -18.316  1.00  0.00     0.063 C 
ATOM      2  C   UNL     1     -35.223  69.932 -18.846  1.00  0.00     0.038 C 
ATOM      3  O   UNL     1     -35.267  71.187 -18.927  1.00  0.00    -0.550 OA
ATOM      4  O   UNL     1     -34.061  69.258 -19.201  1.00  0.00    -0.550 OA
ENDROOT
TORSDOF 0
ENDMDL
MODEL 3
REMARK VINA RESULT:    -2.908      1.422      2.025
REMARK INTER + INTRA:          -2.908
REMARK INTER:                  -2.908
REMARK INTRA:                   0.000
REMARK UNBOUND:                 0.000
REMARK SMILES CC(=O)[O-]
REMARK SMILES IDX 1 1 2 2 3 3 4 4
REMARK H PARENT
REMARK Flexibility Score: inf
ROOT
ATOM      1  C   UNL     1     -34.265  69.665 -19.196  1.00  0.00     0.063 C 
ATOM      2  C   UNL     1     -35.659  69.832 -18.693  1.00  0.00     0.038 C 
ATOM      3  O   UNL     1     -36.264  68.859 -18.172  1.00  0.00    -0.550 OA
ATOM      4  O   UNL     1     -36.274  71.077 -18.749  1.00  0.00    -0.550 OA
ENDROOT
TORSDOF 0
ENDMDL
MODEL 4
REMARK VINA RESULT:    -2.885      0.365      1.656
REMARK INTER + INTRA:          -2.885
REMARK INTER:                  -2.885
REMARK INTRA:                   0.000
REMARK UNBOUND:                 0.000
REMARK SMILES CC(=O)[O-]
REMARK SMILES IDX 1 1 2 2 3 3 4 4
REMARK H PARENT
REMARK Flexibility Score: inf
ROOT
ATOM      1  C   UNL     1     -36.043  71.099 -18.740  1.00  0.00     0.063 C 
ATOM      2  C   UNL     1     -35.641  69.666 -18.666  1.00  0.00     0.038 C 
ATOM      3  O   UNL     1     -36.442  68.807 -18.213  1.00  0.00    -0.550 OA
ATOM      4  O   UNL     1     -34.400  69.265 -19.146  1.00  0.00    -0.550 OA
ENDROOT
TORSDOF 0
ENDMDL
MODEL 5
REMARK VINA RESULT:    -2.546      2.232      2.399
REMARK INTER + INTRA:          -2.546
REMARK INTER:                  -2.546
REMARK INTRA:                   0.000
REMARK UNBOUND:                 0.000
REMARK SMILES CC(=O)[O-]
REMARK SMILES IDX 1 1 2 2 3 3 4 4
REMARK H PARENT
REMARK Flexibility Score: inf
ROOT
ATOM      1  C   UNL     1     -36.678  69.916 -18.437  1.00  0.00     0.063 C 
ATOM      2  C   UNL     1     -36.012  71.216 -18.737  1.00  0.00     0.038 C 
ATOM      3  O   UNL     1     -34.777  71.252 -18.978  1.00  0.00    -0.550 OA
ATOM      4  O   UNL     1     -36.761  72.383 -18.804  1.00  0.00    -0.550 OA
ENDROOT
TORSDOF 0
ENDMDL
MODEL 6
REMARK VINA RESULT:    -2.486      1.490      2.318
REMARK INTER + INTRA:          -2.486
REMARK INTER:                  -2.486
REMARK INTRA:                   0.000
REMARK UNBOUND:                 0.000
REMARK SMILES CC(=O)[O-]
REMARK SMILES IDX 1 1 2 2 3 3 4 4
REMARK H PARENT
REMARK Flexibility Score: inf
ROOT
ATOM      1  C   UNL     1     -36.984  72.366 -18.920  1.00  0.00     0.063 C 
ATOM      2  C   UNL     1     -36.146  71.145 -18.752  1.00  0.00     0.038 C 
ATOM      3  O   UNL     1     -36.679  70.051 -18.428  1.00  0.00    -0.550 OA
ATOM      4  O   UNL     1     -34.781  71.197 -19.006  1.00  0.00    -0.550 OA
ENDROOT
TORSDOF 0
ENDMDL
MODEL 7
REMARK VINA RESULT:    -2.321      3.232      3.818
REMARK INTER + INTRA:          -2.321
REMARK INTER:                  -2.321
REMARK INTRA:                   0.000
REMARK UNBOUND:                 0.000
REMARK SMILES CC(=O)[O-]
REMARK SMILES IDX 1 1 2 2 3 3 4 4
REMARK H PARENT
REMARK Flexibility Score: inf
ROOT
ATOM      1  C   UNL     1     -37.753  72.995 -19.361  1.00  0.00     0.063 C 
ATOM      2  C   UNL     1     -38.287  71.606 -19.444  1.00  0.00     0.038 C 
ATOM      3  O   UNL     1     -39.373  71.380 -20.039  1.00  0.00    -0.550 OA
ATOM      4  O   UNL     1     -37.561  70.548 -18.911  1.00  0.00    -0.550 OA
ENDROOT
TORSDOF 0
ENDMDL
MODEL 8
REMARK VINA RESULT:    -2.181      9.515     10.081
REMARK INTER + INTRA:          -2.181
REMARK INTER:                  -2.181
REMARK INTRA:                   0.000
REMARK UNBOUND:                 0.000
REMARK SMILES CC(=O)[O-]
REMARK SMILES IDX 1 1 2 2 3 3 4 4
REMARK H PARENT
REMARK Flexibility Score: inf
ROOT
ATOM      1  C   UNL     1     -39.190  71.663  -9.010  1.00  0.00     0.063 C 
ATOM      2  C   UNL     1     -39.877  70.859 -10.060  1.00  0.00     0.038 C 
ATOM      3  O   UNL     1     -41.104  70.595  -9.953  1.00  0.00    -0.550 OA
ATOM      4  O   UNL     1     -39.179  70.444 -11.187  1.00  0.00    -0.550 OA
ENDROOT
TORSDOF 0
ENDMDL
MODEL 9
REMARK VINA RESULT:    -2.090     10.755     11.118
REMARK INTER + INTRA:          -2.090
REMARK INTER:                  -2.090
REMARK INTRA:                   0.000
REMARK UNBOUND:                 0.000
REMARK SMILES CC(=O)[O-]
REMARK SMILES IDX 1 1 2 2 3 3 4 4
REMARK H PARENT
REMARK Flexibility Score: inf
ROOT
ATOM      1  C   UNL     1     -39.261  71.429  -9.259  1.00  0.00     0.063 C 
ATOM      2  C   UNL     1     -39.042  72.887  -9.040  1.00  0.00     0.038 C 
ATOM      3  O   UNL     1     -40.025  73.669  -8.955  1.00  0.00    -0.550 OA
ATOM      4  O   UNL     1     -37.753  73.381  -8.875  1.00  0.00    -0.550 OA
ENDROOT
TORSDOF 0
ENDMDL
