MODEL 1
REMARK VINA RESULT:    -1.684      0.000      0.000
REMARK INTER + INTRA:          -2.026
REMARK INTER:                  -1.783
REMARK INTRA:                  -0.243
REMARK UNBOUND:                -0.243
REMARK SMILES C=C(C)[C@H]1CC=C(C)CC1
REMARK SMILES IDX 8 1 7 2 6 3 5 4 4 5 10 6 9 7 2 8 1 9 3 10
REMARK H PARENT
REMARK Flexibility Score: inf
ROOT
ATOM      1  C   UNL     1     -16.831   0.754  17.173  1.00  0.00     0.039 C 
ATOM      2  C   UNL     1     -16.351  -0.670  17.164  1.00  0.00    -0.077 C 
ATOM      3  C   UNL     1     -15.413  -1.071  18.038  1.00  0.00    -0.027 C 
ATOM      4  C   UNL     1     -14.921  -2.495  18.016  1.00  0.00     0.035 C 
ATOM      5  C   UNL     1     -14.726  -3.046  16.573  1.00  0.00     0.018 C 
ATOM      6  C   UNL     1     -15.630  -2.363  15.503  1.00  0.00     0.013 C 
ATOM      7  C   UNL     1     -16.838  -1.653  16.125  1.00  0.00     0.031 C 
ENDROOT
BRANCH   5   8
ATOM      8  C   UNL     1     -13.262  -2.990  16.156  1.00  0.00    -0.077 C 
ATOM      9  C   UNL     1     -12.353  -3.780  16.750  1.00  0.00     0.008 C 
ATOM     10  C   UNL     1     -12.808  -2.062  15.056  1.00  0.00     0.039 C 
ENDBRANCH   5   8
TORSDOF 1
ENDMDL
MODEL 2
REMARK VINA RESULT:    -0.992      3.171      4.530
REMARK INTER + INTRA:          -1.293
REMARK INTER:                  -1.051
REMARK INTRA:                  -0.242
REMARK UNBOUND:                -0.243
REMARK SMILES C=C(C)[C@H]1CC=C(C)CC1
REMARK SMILES IDX 8 1 7 2 6 3 5 4 4 5 10 6 9 7 2 8 1 9 3 10
REMARK H PARENT
REMARK Flexibility Score: inf
ROOT
ATOM      1  C   UNL     1     -14.810  -0.505  23.370  1.00  0.00     0.039 C 
ATOM      2  C   UNL     1     -14.450  -1.467  22.273  1.00  0.00    -0.077 C 
ATOM      3  C   UNL     1     -13.436  -1.188  21.437  1.00  0.00    -0.027 C 
ATOM      4  C   UNL     1     -13.088  -2.145  20.327  1.00  0.00     0.035 C 
ATOM      5  C   UNL     1     -14.343  -2.746  19.629  1.00  0.00     0.018 C 
ATOM      6  C   UNL     1     -15.610  -2.802  20.535  1.00  0.00     0.013 C 
ATOM      7  C   UNL     1     -15.266  -2.714  22.027  1.00  0.00     0.031 C 
ENDROOT
BRANCH   5   8
ATOM      8  C   UNL     1     -14.647  -2.022  18.324  1.00  0.00    -0.077 C 
ATOM      9  C   UNL     1     -15.602  -1.079  18.276  1.00  0.00     0.008 C 
ATOM     10  C   UNL     1     -13.871  -2.334  17.069  1.00  0.00     0.039 C 
ENDBRANCH   5   8
TORSDOF 1
ENDMDL
MODEL 3
REMARK VINA RESULT:    -0.869      1.692      3.771
REMARK INTER + INTRA:          -1.163
REMARK INTER:                  -0.922
REMARK INTRA:                  -0.240
REMARK UNBOUND:                -0.243
REMARK SMILES C=C(C)[C@H]1CC=C(C)CC1
REMARK SMILES IDX 8 1 7 2 6 3 5 4 4 5 10 6 9 7 2 8 1 9 3 10
REMARK H PARENT
REMARK Flexibility Score: inf
ROOT
ATOM      1  C   UNL     1     -15.381  -4.875  15.218  1.00  0.00     0.039 C 
ATOM      2  C   UNL     1     -14.896  -3.660  15.957  1.00  0.00    -0.077 C 
ATOM      3  C   UNL     1     -13.749  -3.708  16.655  1.00  0.00    -0.027 C 
ATOM      4  C   UNL     1     -13.273  -2.493  17.409  1.00  0.00     0.035 C 
ATOM      5  C   UNL     1     -14.428  -1.737  18.129  1.00  0.00     0.018 C 
ATOM      6  C   UNL     1     -15.825  -1.924  17.464  1.00  0.00     0.013 C 
ATOM      7  C   UNL     1     -15.721  -2.396  16.008  1.00  0.00     0.031 C 
ENDROOT
BRANCH   5   8
ATOM      8  C   UNL     1     -14.484  -2.099  19.608  1.00  0.00    -0.077 C 
ATOM      9  C   UNL     1     -15.572  -2.696  20.122  1.00  0.00     0.008 C 
ATOM     10  C   UNL     1     -13.316  -1.813  20.518  1.00  0.00     0.039 C 
ENDBRANCH   5   8
TORSDOF 1
ENDMDL
MODEL 4
REMARK VINA RESULT:    -0.817      0.825      4.239
REMARK INTER + INTRA:          -1.108
REMARK INTER:                  -0.860
REMARK INTRA:                  -0.249
REMARK UNBOUND:                -0.243
REMARK SMILES C=C(C)[C@H]1CC=C(C)CC1
REMARK SMILES IDX 8 1 7 2 6 3 5 4 4 5 10 6 9 7 2 8 1 9 3 10
REMARK H PARENT
REMARK Flexibility Score: inf
ROOT
ATOM      1  C   UNL     1     -12.703  -2.906  15.804  1.00  0.00     0.039 C 
ATOM      2  C   UNL     1     -14.059  -2.646  16.398  1.00  0.00    -0.077 C 
ATOM      3  C   UNL     1     -15.069  -2.227  15.616  1.00  0.00    -0.027 C 
ATOM      4  C   UNL     1     -16.423  -1.951  16.216  1.00  0.00     0.035 C 
ATOM      5  C   UNL     1     -16.340  -1.230  17.593  1.00  0.00     0.018 C 
ATOM      6  C   UNL     1     -15.019  -1.500  18.375  1.00  0.00     0.013 C 
ATOM      7  C   UNL     1     -14.297  -2.761  17.885  1.00  0.00     0.031 C 
ENDROOT
BRANCH   5   8
ATOM      8  C   UNL     1     -16.579   0.267  17.446  1.00  0.00    -0.077 C 
ATOM      9  C   UNL     1     -17.829   0.751  17.355  1.00  0.00     0.008 C 
ATOM     10  C   UNL     1     -15.423   1.236  17.419  1.00  0.00     0.039 C 
ENDBRANCH   5   8
TORSDOF 1
ENDMDL
MODEL 5
REMARK VINA RESULT:    -0.618      1.572      3.359
REMARK INTER + INTRA:          -0.898
REMARK INTER:                  -0.680
REMARK INTRA:                  -0.218
REMARK UNBOUND:                -0.243
REMARK SMILES C=C(C)[C@H]1CC=C(C)CC1
REMARK SMILES IDX 8 1 7 2 6 3 5 4 4 5 10 6 9 7 2 8 1 9 3 10
REMARK H PARENT
REMARK Flexibility Score: inf
ROOT
ATOM      1  C   UNL     1     -14.847  -2.511  21.018  1.00  0.00     0.039 C 
ATOM      2  C   UNL     1     -14.702  -2.100  19.579  1.00  0.00    -0.077 C 
ATOM      3  C   UNL     1     -15.755  -1.598  18.913  1.00  0.00    -0.027 C 
ATOM      4  C   UNL     1     -15.612  -1.201  17.466  1.00  0.00     0.035 C 
ATOM      5  C   UNL     1     -14.758  -2.210  16.643  1.00  0.00     0.018 C 
ATOM      6  C   UNL     1     -13.720  -3.006  17.491  1.00  0.00     0.013 C 
ATOM      7  C   UNL     1     -13.411  -2.322  18.829  1.00  0.00     0.031 C 
ENDROOT
BRANCH   5   8
ATOM      8  C   UNL     1     -15.643  -3.160  15.847  1.00  0.00    -0.077 C 
ATOM      9  C   UNL     1     -16.836  -2.753  15.385  1.00  0.00     0.008 C 
ATOM     10  C   UNL     1     -15.190  -4.567  15.546  1.00  0.00     0.039 C 
ENDBRANCH   5   8
TORSDOF 1
ENDMDL
MODEL 6
REMARK VINA RESULT:    -0.521      1.678      4.079
REMARK INTER + INTRA:          -0.795
REMARK INTER:                  -0.689
REMARK INTRA:                  -0.106
REMARK UNBOUND:                -0.243
REMARK SMILES C=C(C)[C@H]1CC=C(C)CC1
REMARK SMILES IDX 8 1 7 2 6 3 5 4 4 5 10 6 9 7 2 8 1 9 3 10
REMARK H PARENT
REMARK Flexibility Score: inf
ROOT
ATOM      1  C   UNL     1     -15.026  -6.516  15.653  1.00  0.00     0.039 C 
ATOM      2  C   UNL     1     -14.924  -5.021  15.537  1.00  0.00    -0.077 C 
ATOM      3  C   UNL     1     -13.890  -4.371  16.097  1.00  0.00    -0.027 C 
ATOM      4  C   UNL     1     -13.798  -2.870  15.994  1.00  0.00     0.035 C 
ATOM      5  C   UNL     1     -15.173  -2.165  16.182  1.00  0.00     0.018 C 
ATOM      6  C   UNL     1     -16.399  -3.045  15.793  1.00  0.00     0.013 C 
ATOM      7  C   UNL     1     -16.013  -4.212  14.875  1.00  0.00     0.031 C 
ENDROOT
BRANCH   5   8
ATOM      8  C   UNL     1     -15.326  -1.626  17.598  1.00  0.00    -0.077 C 
ATOM      9  C   UNL     1     -16.123  -0.573  17.844  1.00  0.00     0.008 C 
ATOM     10  C   UNL     1     -14.604  -2.274  18.753  1.00  0.00     0.039 C 
ENDBRANCH   5   8
TORSDOF 1
ENDMDL
MODEL 7
REMARK VINA RESULT:     0.369      2.106      3.989
REMARK INTER + INTRA:           0.148
REMARK INTER:                   0.397
REMARK INTRA:                  -0.250
REMARK UNBOUND:                -0.243
REMARK SMILES C=C(C)[C@H]1CC=C(C)CC1
REMARK SMILES IDX 8 1 7 2 6 3 5 4 4 5 10 6 9 7 2 8 1 9 3 10
REMARK H PARENT
REMARK Flexibility Score: inf
ROOT
ATOM      1  C   UNL     1     -13.333  -1.250  21.724  1.00  0.00     0.039 C 
ATOM      2  C   UNL     1     -13.904  -1.982  20.542  1.00  0.00    -0.077 C 
ATOM      3  C   UNL     1     -13.310  -1.891  19.341  1.00  0.00    -0.027 C 
ATOM      4  C   UNL     1     -13.894  -2.612  18.154  1.00  0.00     0.035 C 
ATOM      5  C   UNL     1     -15.448  -2.539  18.105  1.00  0.00     0.018 C 
ATOM      6  C   UNL     1     -16.121  -2.355  19.498  1.00  0.00     0.013 C 
ATOM      7  C   UNL     1     -15.195  -2.758  20.653  1.00  0.00     0.031 C 
ENDROOT
BRANCH   5   8
ATOM      8  C   UNL     1     -15.918  -1.462  17.135  1.00  0.00    -0.077 C 
ATOM      9  C   UNL     1     -16.147  -1.760  15.845  1.00  0.00     0.008 C 
ATOM     10  C   UNL     1     -16.155  -0.049  17.606  1.00  0.00     0.039 C 
ENDBRANCH   5   8
TORSDOF 1
ENDMDL
MODEL 8
REMARK VINA RESULT:     0.622      3.436      5.238
REMARK INTER + INTRA:           0.415
REMARK INTER:                   0.648
REMARK INTRA:                  -0.233
REMARK UNBOUND:                -0.243
REMARK SMILES C=C(C)[C@H]1CC=C(C)CC1
REMARK SMILES IDX 8 1 7 2 6 3 5 4 4 5 10 6 9 7 2 8 1 9 3 10
REMARK H PARENT
REMARK Flexibility Score: inf
ROOT
ATOM      1  C   UNL     1     -15.364  -1.591  17.420  1.00  0.00     0.039 C 
ATOM      2  C   UNL     1     -14.957  -2.165  18.748  1.00  0.00    -0.077 C 
ATOM      3  C   UNL     1     -15.846  -2.233  19.754  1.00  0.00    -0.027 C 
ATOM      4  C   UNL     1     -15.431  -2.794  21.090  1.00  0.00     0.035 C 
ATOM      5  C   UNL     1     -14.009  -2.333  21.524  1.00  0.00     0.018 C 
ATOM      6  C   UNL     1     -13.064  -1.976  20.337  1.00  0.00     0.013 C 
ATOM      7  C   UNL     1     -13.532  -2.590  19.012  1.00  0.00     0.031 C 
ENDROOT
BRANCH   5   8
ATOM      8  C   UNL     1     -14.084  -1.179  22.517  1.00  0.00    -0.077 C 
ATOM      9  C   UNL     1     -13.236  -0.142  22.420  1.00  0.00     0.008 C 
ATOM     10  C   UNL     1     -15.120  -1.170  23.613  1.00  0.00     0.039 C 
ENDBRANCH   5   8
TORSDOF 1
ENDMDL
MODEL 9
REMARK VINA RESULT:     1.066      1.613      2.691
REMARK INTER + INTRA:           0.885
REMARK INTER:                   1.014
REMARK INTRA:                  -0.129
REMARK UNBOUND:                -0.243
REMARK SMILES C=C(C)[C@H]1CC=C(C)CC1
REMARK SMILES IDX 8 1 7 2 6 3 5 4 4 5 10 6 9 7 2 8 1 9 3 10
REMARK H PARENT
REMARK Flexibility Score: inf
ROOT
ATOM      1  C   UNL     1     -16.895  -0.085  17.501  1.00  0.00     0.039 C 
ATOM      2  C   UNL     1     -15.840  -1.116  17.214  1.00  0.00    -0.077 C 
ATOM      3  C   UNL     1     -15.399  -1.297  15.958  1.00  0.00    -0.027 C 
ATOM      4  C   UNL     1     -14.353  -2.343  15.669  1.00  0.00     0.035 C 
ATOM      5  C   UNL     1     -14.581  -3.663  16.462  1.00  0.00     0.018 C 
ATOM      6  C   UNL     1     -15.358  -3.476  17.801  1.00  0.00     0.013 C 
ATOM      7  C   UNL     1     -15.320  -2.026  18.301  1.00  0.00     0.031 C 
ENDROOT
BRANCH   5   8
ATOM      8  C   UNL     1     -15.255  -4.718  15.594  1.00  0.00    -0.077 C 
ATOM      9  C   UNL     1     -16.437  -4.464  15.009  1.00  0.00     0.008 C 
ATOM     10  C   UNL     1     -14.601  -6.056  15.357  1.00  0.00     0.039 C 
ENDBRANCH   5   8
TORSDOF 1
ENDMDL
