MODEL 1
REMARK VINA RESULT:    -2.747      0.000      0.000
REMARK INTER + INTRA:          -3.982
REMARK INTER:                  -3.550
REMARK INTRA:                  -0.432
REMARK UNBOUND:                -0.432
REMARK SMILES CO[C@@]1(CO)O[C@@H](CO)[C@@H](O)[C@H]1O
REMARK SMILES IDX 3 1 12 2 10 3 7 4 6 5 2 6 1 7 4 8 5 9 13 11 11 13 8 15 9 16
REMARK H PARENT 5 10 13 12 11 14 9 17
REMARK Flexibility Score: inf
ROOT
ATOM      1  C   UNL     1       3.906   8.022   2.756  1.00  0.00     0.221 C 
ATOM      2  C   UNL     1       4.368   7.601   4.172  1.00  0.00     0.207 C 
ATOM      3  C   UNL     1       5.266   6.407   3.910  1.00  0.00     0.180 C 
ATOM      4  C   UNL     1       5.655   6.567   2.431  1.00  0.00     0.179 C 
ATOM      5  O   UNL     1       4.952   7.662   1.876  1.00  0.00    -0.337 OA
ENDROOT
BRANCH   1   6
ATOM      6  O   UNL     1       3.749   9.436   2.642  1.00  0.00    -0.349 OA
ATOM      7  C   UNL     1       2.586   9.829   1.940  1.00  0.00     0.198 C 
ENDBRANCH   1   6
BRANCH   1   8
ATOM      8  C   UNL     1       2.636   7.252   2.282  1.00  0.00     0.224 C 
BRANCH   8   9
ATOM      9  O   UNL     1       1.993   6.596   3.342  1.00  0.00    -0.391 OA
ATOM     10  H   UNL     1       1.223   7.168   3.596  1.00  0.00     0.210 HD
ENDBRANCH   8   9
ENDBRANCH   1   8
BRANCH   2  11
ATOM     11  O   UNL     1       5.062   8.639   4.830  1.00  0.00    -0.385 OA
ATOM     12  H   UNL     1       5.809   8.931   4.246  1.00  0.00     0.211 HD
ENDBRANCH   2  11
BRANCH   3  13
ATOM     13  O   UNL     1       6.375   6.375   4.773  1.00  0.00    -0.387 OA
ATOM     14  H   UNL     1       7.167   6.185   4.207  1.00  0.00     0.211 HD
ENDBRANCH   3  13
BRANCH   4  15
ATOM     15  C   UNL     1       7.164   6.735   2.170  1.00  0.00     0.191 C 
BRANCH  15  16
ATOM     16  O   UNL     1       7.628   7.977   2.627  1.00  0.00    -0.394 OA
ATOM     17  H   UNL     1       6.828   8.552   2.753  1.00  0.00     0.210 HD
ENDBRANCH  15  16
ENDBRANCH   4  15
TORSDOF 7
ENDMDL
MODEL 2
REMARK VINA RESULT:    -2.505      1.622      2.788
REMARK INTER + INTRA:          -3.670
REMARK INTER:                  -3.303
REMARK INTRA:                  -0.367
REMARK UNBOUND:                -0.432
REMARK SMILES CO[C@@]1(CO)O[C@@H](CO)[C@@H](O)[C@H]1O
REMARK SMILES IDX 3 1 12 2 10 3 7 4 6 5 2 6 1 7 4 8 5 9 13 11 11 13 8 15 9 16
REMARK H PARENT 5 10 13 12 11 14 9 17
REMARK Flexibility Score: inf
ROOT
ATOM      1  C   UNL     1       2.155   7.920   3.202  1.00  0.00     0.221 C 
ATOM      2  C   UNL     1       3.081   9.159   3.258  1.00  0.00     0.207 C 
ATOM      3  C   UNL     1       4.202   8.720   4.181  1.00  0.00     0.180 C 
ATOM      4  C   UNL     1       4.118   7.185   4.147  1.00  0.00     0.179 C 
ATOM      5  O   UNL     1       2.990   6.794   3.387  1.00  0.00    -0.337 OA
ENDROOT
BRANCH   1   6
ATOM      6  O   UNL     1       1.543   7.766   1.922  1.00  0.00    -0.349 OA
ATOM      7  C   UNL     1       0.560   6.749   1.875  1.00  0.00     0.198 C 
ENDBRANCH   1   6
BRANCH   1   8
ATOM      8  C   UNL     1       1.108   7.897   4.358  1.00  0.00     0.224 C 
BRANCH   8   9
ATOM      9  O   UNL     1       0.669   9.185   4.696  1.00  0.00    -0.391 OA
ATOM     10  H   UNL     1      -0.292   9.100   4.925  1.00  0.00     0.210 HD
ENDBRANCH   8   9
ENDBRANCH   1   8
BRANCH   2  11
ATOM     11  O   UNL     1       3.567   9.511   1.981  1.00  0.00    -0.385 OA
ATOM     12  H   UNL     1       4.386  10.057   2.101  1.00  0.00     0.211 HD
ENDBRANCH   2  11
BRANCH   3  13
ATOM     13  O   UNL     1       5.453   9.214   3.772  1.00  0.00    -0.387 OA
ATOM     14  H   UNL     1       6.137   8.680   4.253  1.00  0.00     0.211 HD
ENDBRANCH   3  13
BRANCH   4  15
ATOM     15  C   UNL     1       5.374   6.476   3.607  1.00  0.00     0.191 C 
BRANCH  15  16
ATOM     16  O   UNL     1       6.351   6.334   4.604  1.00  0.00    -0.394 OA
ATOM     17  H   UNL     1       7.212   6.620   4.202  1.00  0.00     0.210 HD
ENDBRANCH  15  16
ENDBRANCH   4  15
TORSDOF 7
ENDMDL
MODEL 3
REMARK VINA RESULT:    -2.318      1.423      3.871
REMARK INTER + INTRA:          -3.428
REMARK INTER:                  -2.928
REMARK INTRA:                  -0.501
REMARK UNBOUND:                -0.432
REMARK SMILES CO[C@@]1(CO)O[C@@H](CO)[C@@H](O)[C@H]1O
REMARK SMILES IDX 3 1 12 2 10 3 7 4 6 5 2 6 1 7 4 8 5 9 13 11 11 13 8 15 9 16
REMARK H PARENT 5 10 13 12 11 14 9 17
REMARK Flexibility Score: inf
ROOT
ATOM      1  C   UNL     1       5.761   7.919   2.783  1.00  0.00     0.221 C 
ATOM      2  C   UNL     1       5.235   8.471   4.130  1.00  0.00     0.207 C 
ATOM      3  C   UNL     1       3.818   8.902   3.806  1.00  0.00     0.180 C 
ATOM      4  C   UNL     1       3.485   8.114   2.527  1.00  0.00     0.179 C 
ATOM      5  O   UNL     1       4.635   7.409   2.098  1.00  0.00    -0.337 OA
ENDROOT
BRANCH   1   6
ATOM      6  O   UNL     1       6.656   6.822   2.966  1.00  0.00    -0.349 OA
ATOM      7  C   UNL     1       6.167   5.593   2.462  1.00  0.00     0.198 C 
ENDBRANCH   1   6
BRANCH   1   8
ATOM      8  C   UNL     1       6.375   9.029   1.875  1.00  0.00     0.224 C 
BRANCH   8   9
ATOM      9  O   UNL     1       7.201   9.902   2.597  1.00  0.00    -0.391 OA
ATOM     10  H   UNL     1       8.134   9.665   2.355  1.00  0.00     0.210 HD
ENDBRANCH   8   9
ENDBRANCH   1   8
BRANCH   2  11
ATOM     11  O   UNL     1       5.262   7.492   5.146  1.00  0.00    -0.385 OA
ATOM     12  H   UNL     1       4.989   6.625   4.749  1.00  0.00     0.211 HD
ENDBRANCH   2  11
BRANCH   3  13
ATOM     13  O   UNL     1       2.928   8.642   4.862  1.00  0.00    -0.387 OA
ATOM     14  H   UNL     1       3.269   9.143   5.648  1.00  0.00     0.211 HD
ENDBRANCH   3  13
BRANCH   4  15
ATOM     15  C   UNL     1       2.299   7.140   2.653  1.00  0.00     0.191 C 
BRANCH  15  16
ATOM     16  O   UNL     1       2.648   6.000   3.391  1.00  0.00    -0.394 OA
ATOM     17  H   UNL     1       3.639   5.950   3.389  1.00  0.00     0.210 HD
ENDBRANCH  15  16
ENDBRANCH   4  15
TORSDOF 7
ENDMDL
MODEL 4
REMARK VINA RESULT:    -2.314      1.873      3.159
REMARK INTER + INTRA:          -3.422
REMARK INTER:                  -3.215
REMARK INTRA:                  -0.208
REMARK UNBOUND:                -0.432
REMARK SMILES CO[C@@]1(CO)O[C@@H](CO)[C@@H](O)[C@H]1O
REMARK SMILES IDX 3 1 12 2 10 3 7 4 6 5 2 6 1 7 4 8 5 9 13 11 11 13 8 15 9 16
REMARK H PARENT 5 10 13 12 11 14 9 17
REMARK Flexibility Score: inf
ROOT
ATOM      1  C   UNL     1       2.252   8.514   3.841  1.00  0.00     0.221 C 
ATOM      2  C   UNL     1       2.114   7.298   2.894  1.00  0.00     0.207 C 
ATOM      3  C   UNL     1       3.498   7.160   2.291  1.00  0.00     0.180 C 
ATOM      4  C   UNL     1       4.400   7.914   3.283  1.00  0.00     0.179 C 
ATOM      5  O   UNL     1       3.597   8.525   4.276  1.00  0.00    -0.337 OA
ENDROOT
BRANCH   1   6
ATOM      6  O   UNL     1       1.448   8.376   5.012  1.00  0.00    -0.349 OA
ATOM      7  C   UNL     1       1.672   9.380   5.983  1.00  0.00     0.198 C 
ENDBRANCH   1   6
BRANCH   1   8
ATOM      8  C   UNL     1       2.003   9.873   3.118  1.00  0.00     0.224 C 
BRANCH   8   9
ATOM      9  O   UNL     1       0.971   9.785   2.172  1.00  0.00    -0.391 OA
ATOM     10  H   UNL     1       0.930  10.669   1.724  1.00  0.00     0.210 HD
ENDBRANCH   8   9
ENDBRANCH   1   8
BRANCH   2  11
ATOM     11  O   UNL     1       1.730   6.131   3.588  1.00  0.00    -0.385 OA
ATOM     12  H   UNL     1       0.803   6.258   3.919  1.00  0.00     0.211 HD
ENDBRANCH   2  11
BRANCH   3  13
ATOM     13  O   UNL     1       3.872   5.816   2.117  1.00  0.00    -0.387 OA
ATOM     14  H   UNL     1       3.096   5.268   2.407  1.00  0.00     0.211 HD
ENDBRANCH   3  13
BRANCH   4  15
ATOM     15  C   UNL     1       5.488   7.056   3.955  1.00  0.00     0.191 C 
BRANCH  15  16
ATOM     16  O   UNL     1       5.661   7.409   5.302  1.00  0.00    -0.394 OA
ATOM     17  H   UNL     1       5.800   8.391   5.324  1.00  0.00     0.210 HD
ENDBRANCH  15  16
ENDBRANCH   4  15
TORSDOF 7
ENDMDL
MODEL 5
REMARK VINA RESULT:    -2.182      3.119      4.727
REMARK INTER + INTRA:          -3.252
REMARK INTER:                  -2.850
REMARK INTRA:                  -0.402
REMARK UNBOUND:                -0.432
REMARK SMILES CO[C@@]1(CO)O[C@@H](CO)[C@@H](O)[C@H]1O
REMARK SMILES IDX 3 1 12 2 10 3 7 4 6 5 2 6 1 7 4 8 5 9 13 11 11 13 8 15 9 16
REMARK H PARENT 5 10 13 12 11 14 9 17
REMARK Flexibility Score: inf
ROOT
ATOM      1  C   UNL     1       0.560   6.526   3.750  1.00  0.00     0.221 C 
ATOM      2  C   UNL     1       1.539   6.734   2.570  1.00  0.00     0.207 C 
ATOM      3  C   UNL     1       1.718   8.239   2.521  1.00  0.00     0.180 C 
ATOM      4  C   UNL     1       1.289   8.699   3.924  1.00  0.00     0.179 C 
ATOM      5  O   UNL     1       0.796   7.589   4.651  1.00  0.00    -0.337 OA
ENDROOT
BRANCH   1   6
ATOM      6  O   UNL     1       0.831   5.321   4.466  1.00  0.00    -0.349 OA
ATOM      7  C   UNL     1      -0.275   4.443   4.551  1.00  0.00     0.198 C 
ENDBRANCH   1   6
BRANCH   1   8
ATOM      8  C   UNL     1      -0.935   6.626   3.319  1.00  0.00     0.224 C 
BRANCH   8   9
ATOM      9  O   UNL     1      -1.093   6.484   1.933  1.00  0.00    -0.391 OA
ATOM     10  H   UNL     1      -2.053   6.655   1.744  1.00  0.00     0.210 HD
ENDBRANCH   8   9
ENDBRANCH   1   8
BRANCH   2  11
ATOM     11  O   UNL     1       2.766   6.070   2.780  1.00  0.00    -0.385 OA
ATOM     12  H   UNL     1       2.805   5.783   3.729  1.00  0.00     0.211 HD
ENDBRANCH   2  11
BRANCH   3  13
ATOM     13  O   UNL     1       3.036   8.607   2.197  1.00  0.00    -0.387 OA
ATOM     14  H   UNL     1       3.022   8.900   1.249  1.00  0.00     0.211 HD
ENDBRANCH   3  13
BRANCH   4  15
ATOM     15  C   UNL     1       2.386   9.406   4.741  1.00  0.00     0.191 C 
BRANCH  15  16
ATOM     16  O   UNL     1       3.534   8.608   4.857  1.00  0.00    -0.394 OA
ATOM     17  H   UNL     1       3.221   7.681   5.024  1.00  0.00     0.210 HD
ENDBRANCH  15  16
ENDBRANCH   4  15
TORSDOF 7
ENDMDL
MODEL 6
REMARK VINA RESULT:    -2.117      1.919      4.583
REMARK INTER + INTRA:          -3.169
REMARK INTER:                  -2.776
REMARK INTRA:                  -0.393
REMARK UNBOUND:                -0.432
REMARK SMILES CO[C@@]1(CO)O[C@@H](CO)[C@@H](O)[C@H]1O
REMARK SMILES IDX 3 1 12 2 10 3 7 4 6 5 2 6 1 7 4 8 5 9 13 11 11 13 8 15 9 16
REMARK H PARENT 5 10 13 12 11 14 9 17
REMARK Flexibility Score: inf
ROOT
ATOM      1  C   UNL     1       3.577   7.783   3.514  1.00  0.00     0.221 C 
ATOM      2  C   UNL     1       2.573   8.854   4.007  1.00  0.00     0.207 C 
ATOM      3  C   UNL     1       1.236   8.340   3.511  1.00  0.00     0.180 C 
ATOM      4  C   UNL     1       1.494   6.843   3.265  1.00  0.00     0.179 C 
ATOM      5  O   UNL     1       2.864   6.563   3.476  1.00  0.00    -0.337 OA
ENDROOT
BRANCH   1   6
ATOM      6  O   UNL     1       4.654   7.595   4.431  1.00  0.00    -0.349 OA
ATOM      7  C   UNL     1       5.645   6.694   3.976  1.00  0.00     0.198 C 
ENDBRANCH   1   6
BRANCH   1   8
ATOM      8  C   UNL     1       4.083   8.053   2.064  1.00  0.00     0.224 C 
BRANCH   8   9
ATOM      9  O   UNL     1       4.447   9.394   1.875  1.00  0.00    -0.391 OA
ATOM     10  H   UNL     1       4.817   9.706   2.741  1.00  0.00     0.210 HD
ENDBRANCH   8   9
ENDBRANCH   1   8
BRANCH   2  11
ATOM     11  O   UNL     1       2.592   8.985   5.412  1.00  0.00    -0.385 OA
ATOM     12  H   UNL     1       3.296   9.641   5.653  1.00  0.00     0.211 HD
ENDBRANCH   2  11
BRANCH   3  13
ATOM     13  O   UNL     1       0.200   8.578   4.431  1.00  0.00    -0.387 OA
ATOM     14  H   UNL     1       0.435   9.415   4.909  1.00  0.00     0.211 HD
ENDBRANCH   3  13
BRANCH   4  15
ATOM     15  C   UNL     1       0.634   5.887   4.113  1.00  0.00     0.191 C 
BRANCH  15  16
ATOM     16  O   UNL     1      -0.700   5.877   3.681  1.00  0.00    -0.394 OA
ATOM     17  H   UNL     1      -0.936   4.930   3.503  1.00  0.00     0.210 HD
ENDBRANCH  15  16
ENDBRANCH   4  15
TORSDOF 7
ENDMDL
MODEL 7
REMARK VINA RESULT:    -2.078      1.867      4.399
REMARK INTER + INTRA:          -3.118
REMARK INTER:                  -2.721
REMARK INTRA:                  -0.397
REMARK UNBOUND:                -0.432
REMARK SMILES CO[C@@]1(CO)O[C@@H](CO)[C@@H](O)[C@H]1O
REMARK SMILES IDX 3 1 12 2 10 3 7 4 6 5 2 6 1 7 4 8 5 9 13 11 11 13 8 15 9 16
REMARK H PARENT 5 10 13 12 11 14 9 17
REMARK Flexibility Score: inf
ROOT
ATOM      1  C   UNL     1       3.981   7.896   3.316  1.00  0.00     0.221 C 
ATOM      2  C   UNL     1       3.094   6.632   3.212  1.00  0.00     0.207 C 
ATOM      3  C   UNL     1       1.874   6.987   4.040  1.00  0.00     0.180 C 
ATOM      4  C   UNL     1       1.912   8.523   4.097  1.00  0.00     0.179 C 
ATOM      5  O   UNL     1       3.096   8.987   3.477  1.00  0.00    -0.337 OA
ENDROOT
BRANCH   1   6
ATOM      6  O   UNL     1       4.711   8.140   2.115  1.00  0.00    -0.349 OA
ATOM      7  C   UNL     1       4.982   9.507   1.875  1.00  0.00     0.198 C 
ENDBRANCH   1   6
BRANCH   1   8
ATOM      8  C   UNL     1       4.907   7.881   4.571  1.00  0.00     0.224 C 
BRANCH   8   9
ATOM      9  O   UNL     1       5.732   6.747   4.602  1.00  0.00    -0.391 OA
ATOM     10  H   UNL     1       5.313   6.117   5.244  1.00  0.00     0.210 HD
ENDBRANCH   8   9
ENDBRANCH   1   8
BRANCH   2  11
ATOM     11  O   UNL     1       2.749   6.340   1.875  1.00  0.00    -0.385 OA
ATOM     12  H   UNL     1       2.605   7.198   1.397  1.00  0.00     0.211 HD
ENDBRANCH   2  11
BRANCH   3  13
ATOM     13  O   UNL     1       0.686   6.484   3.480  1.00  0.00    -0.387 OA
ATOM     14  H   UNL     1       0.277   7.230   2.971  1.00  0.00     0.211 HD
ENDBRANCH   3  13
BRANCH   4  15
ATOM     15  C   UNL     1       0.693   9.228   3.473  1.00  0.00     0.191 C 
BRANCH  15  16
ATOM     16  O   UNL     1      -0.456   9.058   4.259  1.00  0.00    -0.394 OA
ATOM     17  H   UNL     1      -1.235   9.129   3.647  1.00  0.00     0.210 HD
ENDBRANCH  15  16
ENDBRANCH   4  15
TORSDOF 7
ENDMDL
MODEL 8
REMARK VINA RESULT:    -2.032      2.656      5.315
REMARK INTER + INTRA:          -3.059
REMARK INTER:                  -2.938
REMARK INTRA:                  -0.121
REMARK UNBOUND:                -0.432
REMARK SMILES CO[C@@]1(CO)O[C@@H](CO)[C@@H](O)[C@H]1O
REMARK SMILES IDX 3 1 12 2 10 3 7 4 6 5 2 6 1 7 4 8 5 9 13 11 11 13 8 15 9 16
REMARK H PARENT 5 10 13 12 11 14 9 17
REMARK Flexibility Score: inf
ROOT
ATOM      1  C   UNL     1       2.074   7.162   3.475  1.00  0.00     0.221 C 
ATOM      2  C   UNL     1       1.086   7.685   2.405  1.00  0.00     0.207 C 
ATOM      3  C   UNL     1       0.224   6.476   2.098  1.00  0.00     0.180 C 
ATOM      4  C   UNL     1       0.419   5.573   3.328  1.00  0.00     0.179 C 
ATOM      5  O   UNL     1       1.388   6.149   4.183  1.00  0.00    -0.337 OA
ENDROOT
BRANCH   1   6
ATOM      6  O   UNL     1       2.411   8.167   4.430  1.00  0.00    -0.349 OA
ATOM      7  C   UNL     1       3.572   8.906   4.100  1.00  0.00     0.198 C 
ENDBRANCH   1   6
BRANCH   1   8
ATOM      8  C   UNL     1       3.340   6.497   2.853  1.00  0.00     0.224 C 
BRANCH   8   9
ATOM      9  O   UNL     1       3.900   5.533   3.704  1.00  0.00    -0.391 OA
ATOM     10  H   UNL     1       3.726   4.653   3.279  1.00  0.00     0.210 HD
ENDBRANCH   8   9
ENDBRANCH   1   8
BRANCH   2  11
ATOM     11  O   UNL     1       0.315   8.765   2.883  1.00  0.00    -0.385 OA
ATOM     12  H   UNL     1       0.342   9.490   2.206  1.00  0.00     0.211 HD
ENDBRANCH   2  11
BRANCH   3  13
ATOM     13  O   UNL     1      -1.120   6.822   1.875  1.00  0.00    -0.387 OA
ATOM     14  H   UNL     1      -1.283   6.707   0.903  1.00  0.00     0.211 HD
ENDBRANCH   3  13
BRANCH   4  15
ATOM     15  C   UNL     1      -0.863   5.275   4.127  1.00  0.00     0.191 C 
BRANCH  15  16
ATOM     16  O   UNL     1      -0.712   4.138   4.934  1.00  0.00    -0.394 OA
ATOM     17  H   UNL     1      -1.616   3.742   5.042  1.00  0.00     0.210 HD
ENDBRANCH  15  16
ENDBRANCH   4  15
TORSDOF 7
ENDMDL
MODEL 9
REMARK VINA RESULT:    -2.012      1.787      3.215
REMARK INTER + INTRA:          -3.033
REMARK INTER:                  -2.623
REMARK INTRA:                  -0.410
REMARK UNBOUND:                -0.432
REMARK SMILES CO[C@@]1(CO)O[C@@H](CO)[C@@H](O)[C@H]1O
REMARK SMILES IDX 3 1 12 2 10 3 7 4 6 5 2 6 1 7 4 8 5 9 13 11 11 13 8 15 9 16
REMARK H PARENT 5 10 13 12 11 14 9 17
REMARK Flexibility Score: inf
ROOT
ATOM      1  C   UNL     1       2.095   6.749   3.269  1.00  0.00     0.221 C 
ATOM      2  C   UNL     1       3.343   5.990   2.756  1.00  0.00     0.207 C 
ATOM      3  C   UNL     1       4.250   7.098   2.257  1.00  0.00     0.180 C 
ATOM      4  C   UNL     1       3.718   8.349   2.976  1.00  0.00     0.179 C 
ATOM      5  O   UNL     1       2.554   8.013   3.705  1.00  0.00    -0.337 OA
ENDROOT
BRANCH   1   6
ATOM      6  O   UNL     1       1.512   6.114   4.407  1.00  0.00    -0.349 OA
ATOM      7  C   UNL     1       0.411   5.281   4.097  1.00  0.00     0.198 C 
ENDBRANCH   1   6
BRANCH   1   8
ATOM      8  C   UNL     1       1.047   7.014   2.145  1.00  0.00     0.224 C 
BRANCH   8   9
ATOM      9  O   UNL     1       0.342   8.208   2.355  1.00  0.00    -0.391 OA
ATOM     10  H   UNL     1       0.874   8.734   3.007  1.00  0.00     0.210 HD
ENDBRANCH   8   9
ENDBRANCH   1   8
BRANCH   2  11
ATOM     11  O   UNL     1       3.957   5.235   3.778  1.00  0.00    -0.385 OA
ATOM     12  H   UNL     1       4.074   5.822   4.570  1.00  0.00     0.211 HD
ENDBRANCH   2  11
BRANCH   3  13
ATOM     13  O   UNL     1       5.605   6.838   2.528  1.00  0.00    -0.387 OA
ATOM     14  H   UNL     1       6.122   7.573   2.106  1.00  0.00     0.211 HD
ENDBRANCH   3  13
BRANCH   4  15
ATOM     15  C   UNL     1       4.729   9.043   3.908  1.00  0.00     0.191 C 
BRANCH  15  16
ATOM     16  O   UNL     1       5.245   8.152   4.860  1.00  0.00    -0.394 OA
ATOM     17  H   UNL     1       4.529   8.006   5.531  1.00  0.00     0.210 HD
ENDBRANCH  15  16
ENDBRANCH   4  15
TORSDOF 7
ENDMDL
