MODEL 1
REMARK VINA RESULT:    -4.616      0.000      0.000
REMARK INTER + INTRA:          -5.877
REMARK INTER:                  -5.561
REMARK INTRA:                  -0.316
REMARK UNBOUND:                -0.316
REMARK SMILES O=c1c(O)c(-c2ccc(O)c(O)c2)oc2cc(O)cc(O)c12
REMARK SMILES IDX 5 1 3 2 2 3 1 4 22 5 20 6 19 7 17 8 16 9 15 10 14 11 6 12
REMARK SMILES IDX 7 13 8 14 9 15 13 16 11 17 10 18 12 20 4 22 21 24 18 26
REMARK H PARENT 10 19 12 21 4 23 21 25 18 27
REMARK Flexibility Score: inf
ROOT
ATOM      1  C   UNL     1       0.157  22.723  14.847  1.00  0.00     0.180 A 
ATOM      2  C   UNL     1      -0.388  22.348  13.604  1.00  0.00     0.208 A 
ATOM      3  C   UNL     1      -1.587  22.942  13.181  1.00  0.00     0.238 A 
ATOM      4  O   UNL     1      -2.078  22.621  12.065  1.00  0.00    -0.285 OA
ATOM      5  C   UNL     1      -2.231  23.881  14.012  1.00  0.00     0.111 A 
ATOM      6  C   UNL     1      -3.443  24.522  13.662  1.00  0.00     0.134 A 
ATOM      7  C   UNL     1      -4.027  25.440  14.549  1.00  0.00     0.093 A 
ATOM      8  C   UNL     1      -3.423  25.728  15.775  1.00  0.00     0.123 A 
ATOM      9  C   UNL     1      -2.224  25.098  16.126  1.00  0.00     0.094 A 
ATOM     10  C   UNL     1      -1.627  24.182  15.255  1.00  0.00     0.146 A 
ATOM     11  O   UNL     1      -0.486  23.602  15.611  1.00  0.00    -0.452 OA
ENDROOT
BRANCH   1  12
ATOM     12  C   UNL     1       1.427  22.156  15.353  1.00  0.00     0.025 A 
ATOM     13  C   UNL     1       1.461  20.931  16.036  1.00  0.00     0.016 A 
ATOM     14  C   UNL     1       2.675  20.405  16.483  1.00  0.00     0.051 A 
ATOM     15  C   UNL     1       3.876  21.082  16.247  1.00  0.00     0.157 A 
ATOM     16  C   UNL     1       2.634  22.826  15.095  1.00  0.00     0.062 A 
ATOM     17  C   UNL     1       3.856  22.307  15.540  1.00  0.00     0.158 A 
BRANCH  15  18
ATOM     18  O   UNL     1       5.055  20.505  16.725  1.00  0.00    -0.504 OA
ATOM     19  H   UNL     1       5.218  19.509  16.769  1.00  0.00     0.293 HD
ENDBRANCH  15  18
BRANCH  17  20
ATOM     20  O   UNL     1       5.015  23.035  15.259  1.00  0.00    -0.504 OA
ATOM     21  H   UNL     1       5.070  24.042  15.290  1.00  0.00     0.293 HD
ENDBRANCH  17  20
ENDBRANCH   1  12
BRANCH   2  22
ATOM     22  O   UNL     1       0.243  21.377  12.820  1.00  0.00    -0.502 OA
ATOM     23  H   UNL     1       0.644  21.588  11.915  1.00  0.00     0.293 HD
ENDBRANCH   2  22
BRANCH   6  24
ATOM     24  O   UNL     1      -4.072  24.255  12.446  1.00  0.00    -0.507 OA
ATOM     25  H   UNL     1      -5.053  24.003  12.396  1.00  0.00     0.293 HD
ENDBRANCH   6  24
BRANCH   8  26
ATOM     26  O   UNL     1      -4.023  26.643  16.638  1.00  0.00    -0.508 OA
ATOM     27  H   UNL     1      -5.006  26.579  16.876  1.00  0.00     0.293 HD
ENDBRANCH   8  26
TORSDOF 6
ENDMDL
MODEL 2
REMARK VINA RESULT:    -4.594      1.296      2.922
REMARK INTER + INTRA:          -5.850
REMARK INTER:                  -5.521
REMARK INTRA:                  -0.330
REMARK UNBOUND:                -0.316
REMARK SMILES O=c1c(O)c(-c2ccc(O)c(O)c2)oc2cc(O)cc(O)c12
REMARK SMILES IDX 5 1 3 2 2 3 1 4 22 5 20 6 19 7 17 8 16 9 15 10 14 11 6 12
REMARK SMILES IDX 7 13 8 14 9 15 13 16 11 17 10 18 12 20 4 22 21 24 18 26
REMARK H PARENT 10 19 12 21 4 23 21 25 18 27
REMARK Flexibility Score: inf
ROOT
ATOM      1  C   UNL     1      -0.141  23.457  15.770  1.00  0.00     0.180 A 
ATOM      2  C   UNL     1      -0.659  24.177  16.863  1.00  0.00     0.208 A 
ATOM      3  C   UNL     1      -1.925  24.772  16.747  1.00  0.00     0.238 A 
ATOM      4  O   UNL     1      -2.403  25.410  17.724  1.00  0.00    -0.285 OA
ATOM      5  C   UNL     1      -2.641  24.657  15.538  1.00  0.00     0.111 A 
ATOM      6  C   UNL     1      -3.919  25.230  15.337  1.00  0.00     0.134 A 
ATOM      7  C   UNL     1      -4.564  25.077  14.100  1.00  0.00     0.093 A 
ATOM      8  C   UNL     1      -3.957  24.365  13.063  1.00  0.00     0.123 A 
ATOM      9  C   UNL     1      -2.694  23.796  13.256  1.00  0.00     0.094 A 
ATOM     10  C   UNL     1      -2.036  23.935  14.482  1.00  0.00     0.146 A 
ATOM     11  O   UNL     1      -0.839  23.381  14.640  1.00  0.00    -0.452 OA
ENDROOT
BRANCH   1  12
ATOM     12  C   UNL     1       1.176  22.785  15.822  1.00  0.00     0.025 A 
ATOM     13  C   UNL     1       1.312  21.480  16.319  1.00  0.00     0.016 A 
ATOM     14  C   UNL     1       2.563  20.858  16.336  1.00  0.00     0.051 A 
ATOM     15  C   UNL     1       3.695  21.518  15.849  1.00  0.00     0.157 A 
ATOM     16  C   UNL     1       2.308  23.441  15.312  1.00  0.00     0.062 A 
ATOM     17  C   UNL     1       3.566  22.826  15.326  1.00  0.00     0.158 A 
BRANCH  15  18
ATOM     18  O   UNL     1       4.917  20.842  15.899  1.00  0.00    -0.504 OA
ATOM     19  H   UNL     1       5.816  21.302  15.923  1.00  0.00     0.293 HD
ENDBRANCH  15  18
BRANCH  17  20
ATOM     20  O   UNL     1       4.649  23.544  14.813  1.00  0.00    -0.504 OA
ATOM     21  H   UNL     1       4.772  23.758  13.835  1.00  0.00     0.293 HD
ENDBRANCH  17  20
ENDBRANCH   1  12
BRANCH   2  22
ATOM     22  O   UNL     1       0.092  24.319  18.034  1.00  0.00    -0.502 OA
ATOM     23  H   UNL     1       1.070  24.579  18.023  1.00  0.00     0.293 HD
ENDBRANCH   2  22
BRANCH   6  24
ATOM     24  O   UNL     1      -4.552  25.948  16.352  1.00  0.00    -0.507 OA
ATOM     25  H   UNL     1      -5.520  26.239  16.276  1.00  0.00     0.293 HD
ENDBRANCH   6  24
BRANCH   8  26
ATOM     26  O   UNL     1      -4.618  24.229  11.844  1.00  0.00    -0.508 OA
ATOM     27  H   UNL     1      -4.132  24.343  10.963  1.00  0.00     0.293 HD
ENDBRANCH   8  26
TORSDOF 6
ENDMDL
MODEL 3
REMARK VINA RESULT:    -4.518      1.449      6.911
REMARK INTER + INTRA:          -5.759
REMARK INTER:                  -5.650
REMARK INTRA:                  -0.109
REMARK UNBOUND:                -0.316
REMARK SMILES O=c1c(O)c(-c2ccc(O)c(O)c2)oc2cc(O)cc(O)c12
REMARK SMILES IDX 5 1 3 2 2 3 1 4 22 5 20 6 19 7 17 8 16 9 15 10 14 11 6 12
REMARK SMILES IDX 7 13 8 14 9 15 13 16 11 17 10 18 12 20 4 22 21 24 18 26
REMARK H PARENT 10 19 12 21 4 23 21 25 18 27
REMARK Flexibility Score: inf
ROOT
ATOM      1  C   UNL     1       0.484  22.594  14.899  1.00  0.00     0.180 A 
ATOM      2  C   UNL     1       0.633  21.201  15.041  1.00  0.00     0.208 A 
ATOM      3  C   UNL     1       1.877  20.688  15.441  1.00  0.00     0.238 A 
ATOM      4  O   UNL     1       2.018  19.443  15.582  1.00  0.00    -0.285 OA
ATOM      5  C   UNL     1       2.953  21.570  15.670  1.00  0.00     0.111 A 
ATOM      6  C   UNL     1       4.239  21.134  16.070  1.00  0.00     0.134 A 
ATOM      7  C   UNL     1       5.262  22.074  16.269  1.00  0.00     0.093 A 
ATOM      8  C   UNL     1       5.024  23.437  16.076  1.00  0.00     0.123 A 
ATOM      9  C   UNL     1       3.755  23.873  15.681  1.00  0.00     0.094 A 
ATOM     10  C   UNL     1       2.723  22.953  15.479  1.00  0.00     0.146 A 
ATOM     11  O   UNL     1       1.526  23.394  15.109  1.00  0.00    -0.452 OA
ENDROOT
BRANCH   1  12
ATOM     12  C   UNL     1      -0.801  23.212  14.501  1.00  0.00     0.025 A 
ATOM     13  C   UNL     1      -1.448  24.147  15.322  1.00  0.00     0.016 A 
ATOM     14  C   UNL     1      -2.648  24.734  14.914  1.00  0.00     0.051 A 
ATOM     15  C   UNL     1      -3.217  24.411  13.678  1.00  0.00     0.157 A 
ATOM     16  C   UNL     1      -1.358  22.903  13.249  1.00  0.00     0.062 A 
ATOM     17  C   UNL     1      -2.560  23.486  12.832  1.00  0.00     0.158 A 
BRANCH  15  18
ATOM     18  O   UNL     1      -4.420  25.030  13.331  1.00  0.00    -0.504 OA
ATOM     19  H   UNL     1      -4.580  26.025  13.391  1.00  0.00     0.293 HD
ENDBRANCH  15  18
BRANCH  17  20
ATOM     20  O   UNL     1      -3.062  23.122  11.580  1.00  0.00    -0.504 OA
ATOM     21  H   UNL     1      -2.516  22.666  10.864  1.00  0.00     0.293 HD
ENDBRANCH  17  20
ENDBRANCH   1  12
BRANCH   2  22
ATOM     22  O   UNL     1      -0.436  20.345  14.761  1.00  0.00    -0.502 OA
ATOM     23  H   UNL     1      -0.302  19.368  14.532  1.00  0.00     0.293 HD
ENDBRANCH   2  22
BRANCH   6  24
ATOM     24  O   UNL     1       4.509  19.780  16.270  1.00  0.00    -0.507 OA
ATOM     25  H   UNL     1       5.148  19.270  15.671  1.00  0.00     0.293 HD
ENDBRANCH   6  24
BRANCH   8  26
ATOM     26  O   UNL     1       6.057  24.350  16.280  1.00  0.00    -0.508 OA
ATOM     27  H   UNL     1       6.145  25.184  15.712  1.00  0.00     0.293 HD
ENDBRANCH   8  26
TORSDOF 6
ENDMDL
MODEL 4
REMARK VINA RESULT:    -4.450      2.400      8.082
REMARK INTER + INTRA:          -5.676
REMARK INTER:                  -5.353
REMARK INTRA:                  -0.323
REMARK UNBOUND:                -0.316
REMARK SMILES O=c1c(O)c(-c2ccc(O)c(O)c2)oc2cc(O)cc(O)c12
REMARK SMILES IDX 5 1 3 2 2 3 1 4 22 5 20 6 19 7 17 8 16 9 15 10 14 11 6 12
REMARK SMILES IDX 7 13 8 14 9 15 13 16 11 17 10 18 12 20 4 22 21 24 18 26
REMARK H PARENT 10 19 12 21 4 23 21 25 18 27
REMARK Flexibility Score: inf
ROOT
ATOM      1  C   UNL     1       3.259  21.909  16.412  1.00  0.00     0.180 A 
ATOM      2  C   UNL     1       4.504  22.387  15.961  1.00  0.00     0.208 A 
ATOM      3  C   UNL     1       5.674  21.931  16.590  1.00  0.00     0.238 A 
ATOM      4  O   UNL     1       6.795  22.344  16.187  1.00  0.00    -0.285 OA
ATOM      5  C   UNL     1       5.580  21.026  17.667  1.00  0.00     0.111 A 
ATOM      6  C   UNL     1       6.709  20.523  18.356  1.00  0.00     0.134 A 
ATOM      7  C   UNL     1       6.532  19.631  19.424  1.00  0.00     0.093 A 
ATOM      8  C   UNL     1       5.251  19.234  19.816  1.00  0.00     0.123 A 
ATOM      9  C   UNL     1       4.131  19.729  19.138  1.00  0.00     0.094 A 
ATOM     10  C   UNL     1       4.287  20.617  18.070  1.00  0.00     0.146 A 
ATOM     11  O   UNL     1       3.208  21.067  17.440  1.00  0.00    -0.452 OA
ENDROOT
BRANCH   1  12
ATOM     12  C   UNL     1       1.983  22.327  15.788  1.00  0.00     0.025 A 
ATOM     13  C   UNL     1       1.263  23.432  16.265  1.00  0.00     0.016 A 
ATOM     14  C   UNL     1       0.074  23.821  15.646  1.00  0.00     0.051 A 
ATOM     15  C   UNL     1      -0.412  23.126  14.534  1.00  0.00     0.157 A 
ATOM     16  C   UNL     1       1.509  21.641  14.659  1.00  0.00     0.062 A 
ATOM     17  C   UNL     1       0.317  22.023  14.031  1.00  0.00     0.158 A 
BRANCH  15  18
ATOM     18  O   UNL     1      -1.610  23.563  13.963  1.00  0.00    -0.504 OA
ATOM     19  H   UNL     1      -2.330  22.944  13.620  1.00  0.00     0.293 HD
ENDBRANCH  15  18
BRANCH  17  20
ATOM     20  O   UNL     1      -0.100  21.286  12.920  1.00  0.00    -0.504 OA
ATOM     21  H   UNL     1       0.074  21.559  11.964  1.00  0.00     0.293 HD
ENDBRANCH  17  20
ENDBRANCH   1  12
BRANCH   2  22
ATOM     22  O   UNL     1       4.568  23.322  14.924  1.00  0.00    -0.502 OA
ATOM     23  H   UNL     1       5.203  24.110  14.943  1.00  0.00     0.293 HD
ENDBRANCH   2  22
BRANCH   6  24
ATOM     24  O   UNL     1       8.002  20.900  17.990  1.00  0.00    -0.507 OA
ATOM     25  H   UNL     1       8.188  21.779  17.521  1.00  0.00     0.293 HD
ENDBRANCH   6  24
BRANCH   8  26
ATOM     26  O   UNL     1       5.102  18.349  20.881  1.00  0.00    -0.508 OA
ATOM     27  H   UNL     1       4.607  18.614  21.725  1.00  0.00     0.293 HD
ENDBRANCH   8  26
TORSDOF 6
ENDMDL
MODEL 5
REMARK VINA RESULT:    -4.429      5.026      6.986
REMARK INTER + INTRA:          -5.652
REMARK INTER:                  -5.584
REMARK INTRA:                  -0.068
REMARK UNBOUND:                -0.316
REMARK SMILES O=c1c(O)c(-c2ccc(O)c(O)c2)oc2cc(O)cc(O)c12
REMARK SMILES IDX 5 1 3 2 2 3 1 4 22 5 20 6 19 7 17 8 16 9 15 10 14 11 6 12
REMARK SMILES IDX 7 13 8 14 9 15 13 16 11 17 10 18 12 20 4 22 21 24 18 26
REMARK H PARENT 10 19 12 21 4 23 21 25 18 27
REMARK Flexibility Score: inf
ROOT
ATOM      1  C   UNL     1       2.278  16.424  14.040  1.00  0.00     0.180 A 
ATOM      2  C   UNL     1       2.037  15.671  12.875  1.00  0.00     0.208 A 
ATOM      3  C   UNL     1       1.284  16.245  11.839  1.00  0.00     0.238 A 
ATOM      4  O   UNL     1       1.071  15.583  10.787  1.00  0.00    -0.285 OA
ATOM      5  C   UNL     1       0.769  17.548  11.991  1.00  0.00     0.111 A 
ATOM      6  C   UNL     1      -0.002  18.198  10.998  1.00  0.00     0.134 A 
ATOM      7  C   UNL     1      -0.487  19.494  11.229  1.00  0.00     0.093 A 
ATOM      8  C   UNL     1      -0.216  20.152  12.431  1.00  0.00     0.123 A 
ATOM      9  C   UNL     1       0.546  19.515  13.416  1.00  0.00     0.094 A 
ATOM     10  C   UNL     1       1.039  18.225  13.204  1.00  0.00     0.146 A 
ATOM     11  O   UNL     1       1.764  17.645  14.154  1.00  0.00    -0.452 OA
ENDROOT
BRANCH   1  12
ATOM     12  C   UNL     1       3.079  15.896  15.167  1.00  0.00     0.025 A 
ATOM     13  C   UNL     1       2.743  14.690  15.802  1.00  0.00     0.016 A 
ATOM     14  C   UNL     1       3.528  14.200  16.848  1.00  0.00     0.051 A 
ATOM     15  C   UNL     1       4.667  14.893  17.271  1.00  0.00     0.157 A 
ATOM     16  C   UNL     1       4.234  16.581  15.575  1.00  0.00     0.062 A 
ATOM     17  C   UNL     1       5.028  16.098  16.623  1.00  0.00     0.158 A 
BRANCH  15  18
ATOM     18  O   UNL     1       5.406  14.352  18.325  1.00  0.00    -0.504 OA
ATOM     19  H   UNL     1       5.999  13.539  18.240  1.00  0.00     0.293 HD
ENDBRANCH  15  18
BRANCH  17  20
ATOM     20  O   UNL     1       6.155  16.840  16.983  1.00  0.00    -0.504 OA
ATOM     21  H   UNL     1       6.830  16.542  17.672  1.00  0.00     0.293 HD
ENDBRANCH  17  20
ENDBRANCH   1  12
BRANCH   2  22
ATOM     22  O   UNL     1       2.516  14.362  12.769  1.00  0.00    -0.502 OA
ATOM     23  H   UNL     1       2.130  13.694  12.114  1.00  0.00     0.293 HD
ENDBRANCH   2  22
BRANCH   6  24
ATOM     24  O   UNL     1      -0.292  17.567   9.787  1.00  0.00    -0.507 OA
ATOM     25  H   UNL     1       0.408  17.034   9.283  1.00  0.00     0.293 HD
ENDBRANCH   6  24
BRANCH   8  26
ATOM     26  O   UNL     1      -0.710  21.438  12.636  1.00  0.00    -0.508 OA
ATOM     27  H   UNL     1      -0.510  22.191  11.988  1.00  0.00     0.293 HD
ENDBRANCH   8  26
TORSDOF 6
ENDMDL
MODEL 6
REMARK VINA RESULT:    -4.413      4.104      5.381
REMARK INTER + INTRA:          -5.633
REMARK INTER:                  -5.301
REMARK INTRA:                  -0.332
REMARK UNBOUND:                -0.316
REMARK SMILES O=c1c(O)c(-c2ccc(O)c(O)c2)oc2cc(O)cc(O)c12
REMARK SMILES IDX 5 1 3 2 2 3 1 4 22 5 20 6 19 7 17 8 16 9 15 10 14 11 6 12
REMARK SMILES IDX 7 13 8 14 9 15 13 16 11 17 10 18 12 20 4 22 21 24 18 26
REMARK H PARENT 10 19 12 21 4 23 21 25 18 27
REMARK Flexibility Score: inf
ROOT
ATOM      1  C   UNL     1      -2.469  21.412  11.841  1.00  0.00     0.180 A 
ATOM      2  C   UNL     1      -2.293  22.641  12.505  1.00  0.00     0.208 A 
ATOM      3  C   UNL     1      -3.381  23.522  12.604  1.00  0.00     0.238 A 
ATOM      4  O   UNL     1      -3.237  24.621  13.205  1.00  0.00    -0.285 OA
ATOM      5  C   UNL     1      -4.617  23.171  12.023  1.00  0.00     0.111 A 
ATOM      6  C   UNL     1      -5.761  24.002  12.074  1.00  0.00     0.134 A 
ATOM      7  C   UNL     1      -6.953  23.585  11.463  1.00  0.00     0.093 A 
ATOM      8  C   UNL     1      -7.023  22.355  10.804  1.00  0.00     0.123 A 
ATOM      9  C   UNL     1      -5.896  21.529  10.751  1.00  0.00     0.094 A 
ATOM     10  C   UNL     1      -4.699  21.926  11.354  1.00  0.00     0.146 A 
ATOM     11  O   UNL     1      -3.645  21.120  11.293  1.00  0.00    -0.452 OA
ENDROOT
BRANCH   1  12
ATOM     12  C   UNL     1      -1.376  20.422  11.713  1.00  0.00     0.025 A 
ATOM     13  C   UNL     1      -1.159  19.441  12.692  1.00  0.00     0.016 A 
ATOM     14  C   UNL     1      -0.136  18.503  12.537  1.00  0.00     0.051 A 
ATOM     15  C   UNL     1       0.681  18.518  11.402  1.00  0.00     0.157 A 
ATOM     16  C   UNL     1      -0.572  20.425  10.562  1.00  0.00     0.062 A 
ATOM     17  C   UNL     1       0.457  19.490  10.398  1.00  0.00     0.158 A 
BRANCH  15  18
ATOM     18  O   UNL     1       1.689  17.556  11.310  1.00  0.00    -0.504 OA
ATOM     19  H   UNL     1       2.452  17.600  10.650  1.00  0.00     0.293 HD
ENDBRANCH  15  18
BRANCH  17  20
ATOM     20  O   UNL     1       1.224  19.561   9.233  1.00  0.00    -0.504 OA
ATOM     21  H   UNL     1       1.106  20.268   8.522  1.00  0.00     0.293 HD
ENDBRANCH  17  20
ENDBRANCH   1  12
BRANCH   2  22
ATOM     22  O   UNL     1      -1.044  22.988  13.029  1.00  0.00    -0.502 OA
ATOM     23  H   UNL     1      -0.786  22.793  13.988  1.00  0.00     0.293 HD
ENDBRANCH   2  22
BRANCH   6  24
ATOM     24  O   UNL     1      -5.723  25.237  12.724  1.00  0.00    -0.507 OA
ATOM     25  H   UNL     1      -6.439  25.513  13.386  1.00  0.00     0.293 HD
ENDBRANCH   6  24
BRANCH   8  26
ATOM     26  O   UNL     1      -8.219  21.965  10.205  1.00  0.00    -0.508 OA
ATOM     27  H   UNL     1      -9.061  22.522  10.290  1.00  0.00     0.293 HD
ENDBRANCH   8  26
TORSDOF 6
ENDMDL
MODEL 7
REMARK VINA RESULT:    -4.339      3.831      5.698
REMARK INTER + INTRA:          -5.543
REMARK INTER:                  -5.212
REMARK INTRA:                  -0.331
REMARK UNBOUND:                -0.316
REMARK SMILES O=c1c(O)c(-c2ccc(O)c(O)c2)oc2cc(O)cc(O)c12
REMARK SMILES IDX 5 1 3 2 2 3 1 4 22 5 20 6 19 7 17 8 16 9 15 10 14 11 6 12
REMARK SMILES IDX 7 13 8 14 9 15 13 16 11 17 10 18 12 20 4 22 21 24 18 26
REMARK H PARENT 10 19 12 21 4 23 21 25 18 27
REMARK Flexibility Score: inf
ROOT
ATOM      1  C   UNL     1      -2.432  21.731  11.609  1.00  0.00     0.180 A 
ATOM      2  C   UNL     1      -1.703  22.347  12.644  1.00  0.00     0.208 A 
ATOM      3  C   UNL     1      -2.313  23.366  13.392  1.00  0.00     0.238 A 
ATOM      4  O   UNL     1      -1.673  23.916  14.329  1.00  0.00    -0.285 OA
ATOM      5  C   UNL     1      -3.629  23.766  13.082  1.00  0.00     0.111 A 
ATOM      6  C   UNL     1      -4.314  24.787  13.783  1.00  0.00     0.134 A 
ATOM      7  C   UNL     1      -5.620  25.134  13.407  1.00  0.00     0.093 A 
ATOM      8  C   UNL     1      -6.253  24.482  12.346  1.00  0.00     0.123 A 
ATOM      9  C   UNL     1      -5.581  23.472  11.650  1.00  0.00     0.094 A 
ATOM     10  C   UNL     1      -4.280  23.110  12.010  1.00  0.00     0.146 A 
ATOM     11  O   UNL     1      -3.666  22.145  11.336  1.00  0.00    -0.452 OA
ENDROOT
BRANCH   1  12
ATOM     12  C   UNL     1      -1.865  20.637  10.790  1.00  0.00     0.025 A 
ATOM     13  C   UNL     1      -2.042  19.291  11.144  1.00  0.00     0.016 A 
ATOM     14  C   UNL     1      -1.518  18.275  10.342  1.00  0.00     0.051 A 
ATOM     15  C   UNL     1      -0.820  18.580   9.169  1.00  0.00     0.157 A 
ATOM     16  C   UNL     1      -1.184  20.945   9.601  1.00  0.00     0.062 A 
ATOM     17  C   UNL     1      -0.655  19.933   8.790  1.00  0.00     0.158 A 
BRANCH  15  18
ATOM     18  O   UNL     1      -0.317  17.518   8.413  1.00  0.00    -0.504 OA
ATOM     19  H   UNL     1      -0.784  17.127   7.608  1.00  0.00     0.293 HD
ENDBRANCH  15  18
BRANCH  17  20
ATOM     20  O   UNL     1       0.021  20.315   7.629  1.00  0.00    -0.504 OA
ATOM     21  H   UNL     1       0.934  19.972   7.370  1.00  0.00     0.293 HD
ENDBRANCH  17  20
ENDBRANCH   1  12
BRANCH   2  22
ATOM     22  O   UNL     1      -0.382  21.966  12.901  1.00  0.00    -0.502 OA
ATOM     23  H   UNL     1      -0.108  20.998  13.010  1.00  0.00     0.293 HD
ENDBRANCH   2  22
BRANCH   6  24
ATOM     24  O   UNL     1      -3.709  25.458  14.847  1.00  0.00    -0.507 OA
ATOM     25  H   UNL     1      -2.945  26.107  14.702  1.00  0.00     0.293 HD
ENDBRANCH   6  24
BRANCH   8  26
ATOM     26  O   UNL     1      -7.550  24.846  11.992  1.00  0.00    -0.508 OA
ATOM     27  H   UNL     1      -7.734  25.667  11.428  1.00  0.00     0.293 HD
ENDBRANCH   8  26
TORSDOF 6
ENDMDL
MODEL 8
REMARK VINA RESULT:    -4.319      1.941      2.562
REMARK INTER + INTRA:          -5.519
REMARK INTER:                  -5.224
REMARK INTRA:                  -0.295
REMARK UNBOUND:                -0.316
REMARK SMILES O=c1c(O)c(-c2ccc(O)c(O)c2)oc2cc(O)cc(O)c12
REMARK SMILES IDX 5 1 3 2 2 3 1 4 22 5 20 6 19 7 17 8 16 9 15 10 14 11 6 12
REMARK SMILES IDX 7 13 8 14 9 15 13 16 11 17 10 18 12 20 4 22 21 24 18 26
REMARK H PARENT 10 19 12 21 4 23 21 25 18 27
REMARK Flexibility Score: inf
ROOT
ATOM      1  C   UNL     1       0.155  21.837  14.260  1.00  0.00     0.180 A 
ATOM      2  C   UNL     1      -0.052  20.628  13.568  1.00  0.00     0.208 A 
ATOM      3  C   UNL     1      -1.167  20.512  12.723  1.00  0.00     0.238 A 
ATOM      4  O   UNL     1      -1.356  19.438  12.090  1.00  0.00    -0.285 OA
ATOM      5  C   UNL     1      -2.065  21.592  12.600  1.00  0.00     0.111 A 
ATOM      6  C   UNL     1      -3.214  21.555  11.775  1.00  0.00     0.134 A 
ATOM      7  C   UNL     1      -4.064  22.669  11.713  1.00  0.00     0.093 A 
ATOM      8  C   UNL     1      -3.788  23.817  12.460  1.00  0.00     0.123 A 
ATOM      9  C   UNL     1      -2.654  23.860  13.277  1.00  0.00     0.094 A 
ATOM     10  C   UNL     1      -1.794  22.761  13.350  1.00  0.00     0.146 A 
ATOM     11  O   UNL     1      -0.721  22.830  14.131  1.00  0.00    -0.452 OA
ENDROOT
BRANCH   1  12
ATOM     12  C   UNL     1       1.317  22.043  15.152  1.00  0.00     0.025 A 
ATOM     13  C   UNL     1       1.336  21.533  16.459  1.00  0.00     0.016 A 
ATOM     14  C   UNL     1       2.454  21.720  17.275  1.00  0.00     0.051 A 
ATOM     15  C   UNL     1       3.576  22.407  16.801  1.00  0.00     0.157 A 
ATOM     16  C   UNL     1       2.451  22.714  14.667  1.00  0.00     0.062 A 
ATOM     17  C   UNL     1       3.577  22.907  15.477  1.00  0.00     0.158 A 
BRANCH  15  18
ATOM     18  O   UNL     1       4.660  22.565  17.668  1.00  0.00    -0.504 OA
ATOM     19  H   UNL     1       5.049  23.460  17.927  1.00  0.00     0.293 HD
ENDBRANCH  15  18
BRANCH  17  20
ATOM     20  O   UNL     1       4.663  23.595  14.931  1.00  0.00    -0.504 OA
ATOM     21  H   UNL     1       5.508  23.809  15.439  1.00  0.00     0.293 HD
ENDBRANCH  17  20
ENDBRANCH   1  12
BRANCH   2  22
ATOM     22  O   UNL     1       0.825  19.554  13.744  1.00  0.00    -0.502 OA
ATOM     23  H   UNL     1       1.829  19.656  13.668  1.00  0.00     0.293 HD
ENDBRANCH   2  22
BRANCH   6  24
ATOM     24  O   UNL     1      -3.518  20.422  11.017  1.00  0.00    -0.507 OA
ATOM     25  H   UNL     1      -4.103  20.474  10.192  1.00  0.00     0.293 HD
ENDBRANCH   6  24
BRANCH   8  26
ATOM     26  O   UNL     1      -4.649  24.910  12.382  1.00  0.00    -0.508 OA
ATOM     27  H   UNL     1      -5.000  25.367  13.215  1.00  0.00     0.293 HD
ENDBRANCH   8  26
TORSDOF 6
ENDMDL
MODEL 9
REMARK VINA RESULT:    -4.253      2.636      5.006
REMARK INTER + INTRA:          -5.440
REMARK INTER:                  -5.147
REMARK INTRA:                  -0.293
REMARK UNBOUND:                -0.316
REMARK SMILES O=c1c(O)c(-c2ccc(O)c(O)c2)oc2cc(O)cc(O)c12
REMARK SMILES IDX 5 1 3 2 2 3 1 4 22 5 20 6 19 7 17 8 16 9 15 10 14 11 6 12
REMARK SMILES IDX 7 13 8 14 9 15 13 16 11 17 10 18 12 20 4 22 21 24 18 26
REMARK H PARENT 10 19 12 21 4 23 21 25 18 27
REMARK Flexibility Score: inf
ROOT
ATOM      1  C   UNL     1       3.717  23.165  16.808  1.00  0.00     0.180 A 
ATOM      2  C   UNL     1       3.071  24.070  17.671  1.00  0.00     0.208 A 
ATOM      3  C   UNL     1       1.733  24.412  17.419  1.00  0.00     0.238 A 
ATOM      4  O   UNL     1       1.142  25.214  18.193  1.00  0.00    -0.285 OA
ATOM      5  C   UNL     1       1.071  23.863  16.302  1.00  0.00     0.111 A 
ATOM      6  C   UNL     1      -0.273  24.159  15.975  1.00  0.00     0.134 A 
ATOM      7  C   UNL     1      -0.858  23.578  14.840  1.00  0.00     0.093 A 
ATOM      8  C   UNL     1      -0.126  22.710  14.027  1.00  0.00     0.123 A 
ATOM      9  C   UNL     1       1.203  22.413  14.345  1.00  0.00     0.094 A 
ATOM     10  C   UNL     1       1.803  22.980  15.473  1.00  0.00     0.146 A 
ATOM     11  O   UNL     1       3.066  22.678  15.755  1.00  0.00    -0.452 OA
ENDROOT
BRANCH   1  12
ATOM     12  C   UNL     1       5.119  22.740  17.018  1.00  0.00     0.025 A 
ATOM     13  C   UNL     1       6.195  23.557  16.640  1.00  0.00     0.016 A 
ATOM     14  C   UNL     1       7.509  23.145  16.870  1.00  0.00     0.051 A 
ATOM     15  C   UNL     1       7.775  21.920  17.492  1.00  0.00     0.157 A 
ATOM     16  C   UNL     1       5.382  21.521  17.663  1.00  0.00     0.062 A 
ATOM     17  C   UNL     1       6.697  21.099  17.898  1.00  0.00     0.158 A 
BRANCH  15  18
ATOM     18  O   UNL     1       9.111  21.564  17.689  1.00  0.00    -0.504 OA
ATOM     19  H   UNL     1       9.746  21.318  16.943  1.00  0.00     0.293 HD
ENDBRANCH  15  18
BRANCH  17  20
ATOM     20  O   UNL     1       6.883  19.868  18.532  1.00  0.00    -0.504 OA
ATOM     21  H   UNL     1       6.196  19.129  18.542  1.00  0.00     0.293 HD
ENDBRANCH  17  20
ENDBRANCH   1  12
BRANCH   2  22
ATOM     22  O   UNL     1       3.764  24.639  18.744  1.00  0.00    -0.502 OA
ATOM     23  H   UNL     1       4.751  24.480  18.897  1.00  0.00     0.293 HD
ENDBRANCH   2  22
BRANCH   6  24
ATOM     24  O   UNL     1      -1.031  25.024  16.767  1.00  0.00    -0.507 OA
ATOM     25  H   UNL     1      -2.044  24.980  16.785  1.00  0.00     0.293 HD
ENDBRANCH   6  24
BRANCH   8  26
ATOM     26  O   UNL     1      -0.730  22.147  12.905  1.00  0.00    -0.508 OA
ATOM     27  H   UNL     1      -1.663  21.752  12.948  1.00  0.00     0.293 HD
ENDBRANCH   8  26
TORSDOF 6
ENDMDL
