MODEL 1
REMARK VINA RESULT:    -4.393      0.000      0.000
REMARK INTER + INTRA:         -15.547
REMARK INTER:                 -11.583
REMARK INTRA:                  -3.964
REMARK UNBOUND:                -3.964
REMARK SMILES CCCCCCCCCCCCCCCCCCCCCCCCCCCCCC(=O)[O-]
REMARK SMILES IDX 16 1 17 2 18 3 19 4 20 5 21 6 22 7 23 8 24 9 25 10 26 11
REMARK SMILES IDX 27 12 28 13 29 14 30 15 31 16 32 17 15 18 14 19 13 20 12 21
REMARK SMILES IDX 11 22 10 23 9 24 8 25 7 26 6 27 5 28 4 29 3 30 2 31 1 32
REMARK H PARENT
REMARK Flexibility Score: inf
ROOT
ATOM      1  C   UNL     1      97.208   3.732 -27.072  1.00  0.00     0.000 C 
ENDROOT
BRANCH   1   2
ATOM      2  C   UNL     1      96.517   2.956 -25.942  1.00  0.00     0.000 C 
BRANCH   2   3
ATOM      3  C   UNL     1      95.014   2.744 -26.196  1.00  0.00     0.000 C 
BRANCH   3   4
ATOM      4  C   UNL     1      94.172   2.459 -24.935  1.00  0.00     0.000 C 
BRANCH   4   5
ATOM      5  C   UNL     1      94.058   3.631 -23.943  1.00  0.00     0.000 C 
BRANCH   5   6
ATOM      6  C   UNL     1      92.628   4.182 -23.834  1.00  0.00     0.000 C 
BRANCH   6   7
ATOM      7  C   UNL     1      92.561   5.641 -24.308  1.00  0.00     0.000 C 
BRANCH   7   8
ATOM      8  C   UNL     1      93.184   5.849 -25.700  1.00  0.00     0.000 C 
BRANCH   8   9
ATOM      9  C   UNL     1      92.369   6.742 -26.654  1.00  0.00     0.000 C 
BRANCH   9  10
ATOM     10  C   UNL     1      91.366   5.947 -27.508  1.00  0.00     0.000 C 
BRANCH  10  11
ATOM     11  C   UNL     1      91.548   4.426 -27.376  1.00  0.00     0.000 C 
BRANCH  11  12
ATOM     12  C   UNL     1      90.243   3.695 -27.010  1.00  0.00     0.000 C 
BRANCH  12  13
ATOM     13  C   UNL     1      89.338   4.524 -26.084  1.00  0.00     0.006 C 
BRANCH  13  14
ATOM     14  C   UNL     1      88.761   3.698 -24.926  1.00  0.00     0.053 C 
BRANCH  14  15
ATOM     15  C   UNL     1      87.479   3.038 -25.327  1.00  0.00     0.041 C 
ATOM     16  O   UNL     1      86.637   3.660 -26.026  1.00  0.00    -0.550 OA
ATOM     17  O   UNL     1      87.209   1.737 -24.917  1.00  0.00    -0.550 OA
ENDBRANCH  14  15
ENDBRANCH  13  14
ENDBRANCH  12  13
ENDBRANCH  11  12
ENDBRANCH  10  11
ENDBRANCH   9  10
ENDBRANCH   8   9
ENDBRANCH   7   8
ENDBRANCH   6   7
ENDBRANCH   5   6
ENDBRANCH   4   5
ENDBRANCH   3   4
ENDBRANCH   2   3
ENDBRANCH   1   2
BRANCH   1  18
ATOM     18  C   UNL     1      98.471   4.438 -26.557  1.00  0.00     0.000 C 
BRANCH  18  19
ATOM     19  C   UNL     1      99.557   4.571 -27.636  1.00  0.00     0.000 C 
BRANCH  19  20
ATOM     20  C   UNL     1      98.975   4.565 -29.057  1.00  0.00     0.000 C 
BRANCH  20  21
ATOM     21  C   UNL     1      99.578   3.430 -29.895  1.00  0.00     0.000 C 
BRANCH  21  22
ATOM     22  C   UNL     1      98.628   2.226 -29.952  1.00  0.00     0.000 C 
BRANCH  22  23
ATOM     23  C   UNL     1      99.289   0.915 -29.486  1.00  0.00     0.000 C 
BRANCH  23  24
ATOM     24  C   UNL     1      98.986   0.510 -28.031  1.00  0.00    -0.000 C 
BRANCH  24  25
ATOM     25  C   UNL     1      99.958   1.073 -26.977  1.00  0.00    -0.000 C 
BRANCH  25  26
ATOM     26  C   UNL     1      99.929   0.318 -25.631  1.00  0.00    -0.000 C 
BRANCH  26  27
ATOM     27  C   UNL     1      98.929  -0.852 -25.628  1.00  0.00    -0.000 C 
BRANCH  27  28
ATOM     28  C   UNL     1      97.739  -0.607 -24.685  1.00  0.00    -0.000 C 
BRANCH  28  29
ATOM     29  C   UNL     1      97.355  -1.862 -23.883  1.00  0.00    -0.000 C 
BRANCH  29  30
ATOM     30  C   UNL     1      95.842  -2.146 -23.905  1.00  0.00    -0.000 C 
BRANCH  30  31
ATOM     31  C   UNL     1      94.950  -0.900 -23.767  1.00  0.00    -0.003 C 
ATOM     32  C   UNL     1      94.893  -0.359 -22.339  1.00  0.00     0.004 C 
ENDBRANCH  30  31
ENDBRANCH  29  30
ENDBRANCH  28  29
ENDBRANCH  27  28
ENDBRANCH  26  27
ENDBRANCH  25  26
ENDBRANCH  24  25
ENDBRANCH  23  24
ENDBRANCH  22  23
ENDBRANCH  21  22
ENDBRANCH  20  21
ENDBRANCH  19  20
ENDBRANCH  18  19
ENDBRANCH   1  18
TORSDOF 28
ENDMDL
MODEL 2
REMARK VINA RESULT:    -4.391      2.489      3.296
REMARK INTER + INTRA:         -15.543
REMARK INTER:                 -11.025
REMARK INTRA:                  -4.518
REMARK UNBOUND:                -3.964
REMARK SMILES CCCCCCCCCCCCCCCCCCCCCCCCCCCCCC(=O)[O-]
REMARK SMILES IDX 16 1 17 2 18 3 19 4 20 5 21 6 22 7 23 8 24 9 25 10 26 11
REMARK SMILES IDX 27 12 28 13 29 14 30 15 31 16 32 17 15 18 14 19 13 20 12 21
REMARK SMILES IDX 11 22 10 23 9 24 8 25 7 26 6 27 5 28 4 29 3 30 2 31 1 32
REMARK H PARENT
REMARK Flexibility Score: inf
ROOT
ATOM      1  C   UNL     1      96.754   3.026 -26.527  1.00  0.00     0.000 C 
ENDROOT
BRANCH   1   2
ATOM      2  C   UNL     1      95.408   3.521 -25.978  1.00  0.00     0.000 C 
BRANCH   2   3
ATOM      3  C   UNL     1      94.738   2.505 -25.036  1.00  0.00     0.000 C 
BRANCH   3   4
ATOM      4  C   UNL     1      95.034   2.712 -23.536  1.00  0.00     0.000 C 
BRANCH   4   5
ATOM      5  C   UNL     1      94.021   3.592 -22.782  1.00  0.00     0.000 C 
BRANCH   5   6
ATOM      6  C   UNL     1      92.599   3.012 -22.799  1.00  0.00     0.000 C 
BRANCH   6   7
ATOM      7  C   UNL     1      91.594   4.031 -23.356  1.00  0.00     0.000 C 
BRANCH   7   8
ATOM      8  C   UNL     1      92.265   5.158 -24.161  1.00  0.00     0.000 C 
BRANCH   8   9
ATOM      9  C   UNL     1      91.999   5.125 -25.678  1.00  0.00     0.000 C 
BRANCH   9  10
ATOM     10  C   UNL     1      90.533   4.808 -26.022  1.00  0.00     0.000 C 
BRANCH  10  11
ATOM     11  C   UNL     1      90.371   3.460 -26.745  1.00  0.00     0.000 C 
BRANCH  11  12
ATOM     12  C   UNL     1      91.702   2.704 -26.909  1.00  0.00     0.000 C 
BRANCH  12  13
ATOM     13  C   UNL     1      92.305   2.864 -28.314  1.00  0.00     0.006 C 
BRANCH  13  14
ATOM     14  C   UNL     1      91.365   3.595 -29.284  1.00  0.00     0.053 C 
BRANCH  14  15
ATOM     15  C   UNL     1      92.144   4.384 -30.289  1.00  0.00     0.041 C 
ATOM     16  O   UNL     1      91.845   5.584 -30.522  1.00  0.00    -0.550 OA
ATOM     17  O   UNL     1      93.193   3.788 -30.979  1.00  0.00    -0.550 OA
ENDBRANCH  14  15
ENDBRANCH  13  14
ENDBRANCH  12  13
ENDBRANCH  11  12
ENDBRANCH  10  11
ENDBRANCH   9  10
ENDBRANCH   8   9
ENDBRANCH   7   8
ENDBRANCH   6   7
ENDBRANCH   5   6
ENDBRANCH   4   5
ENDBRANCH   3   4
ENDBRANCH   2   3
ENDBRANCH   1   2
BRANCH   1  18
ATOM     18  C   UNL     1      97.922   3.753 -25.844  1.00  0.00     0.000 C 
BRANCH  18  19
ATOM     19  C   UNL     1      98.936   4.320 -26.851  1.00  0.00     0.000 C 
BRANCH  19  20
ATOM     20  C   UNL     1      98.255   4.954 -28.073  1.00  0.00     0.000 C 
BRANCH  20  21
ATOM     21  C   UNL     1      98.730   4.293 -29.374  1.00  0.00     0.000 C 
BRANCH  21  22
ATOM     22  C   UNL     1      97.720   3.241 -29.853  1.00  0.00     0.000 C 
BRANCH  22  23
ATOM     23  C   UNL     1      98.379   1.895 -30.212  1.00  0.00     0.000 C 
BRANCH  23  24
ATOM     24  C   UNL     1      99.458   1.411 -29.225  1.00  0.00    -0.000 C 
BRANCH  24  25
ATOM     25  C   UNL     1      98.943   0.533 -28.068  1.00  0.00    -0.000 C 
BRANCH  25  26
ATOM     26  C   UNL     1      99.706   0.733 -26.742  1.00  0.00    -0.000 C 
BRANCH  26  27
ATOM     27  C   UNL     1      99.384  -0.356 -25.702  1.00  0.00    -0.000 C 
BRANCH  27  28
ATOM     28  C   UNL     1      98.071  -0.084 -24.952  1.00  0.00    -0.000 C 
BRANCH  28  29
ATOM     29  C   UNL     1      98.258   0.882 -23.768  1.00  0.00    -0.000 C 
BRANCH  29  30
ATOM     30  C   UNL     1      99.682   0.847 -23.187  1.00  0.00    -0.000 C 
BRANCH  30  31
ATOM     31  C   UNL     1      99.870  -0.109 -21.996  1.00  0.00    -0.003 C 
ATOM     32  C   UNL     1      98.948   0.212 -20.820  1.00  0.00     0.004 C 
ENDBRANCH  30  31
ENDBRANCH  29  30
ENDBRANCH  28  29
ENDBRANCH  27  28
ENDBRANCH  26  27
ENDBRANCH  25  26
ENDBRANCH  24  25
ENDBRANCH  23  24
ENDBRANCH  22  23
ENDBRANCH  21  22
ENDBRANCH  20  21
ENDBRANCH  19  20
ENDBRANCH  18  19
ENDBRANCH   1  18
TORSDOF 28
ENDMDL
MODEL 3
REMARK VINA RESULT:    -4.385      3.250      8.200
REMARK INTER + INTRA:         -15.528
REMARK INTER:                 -10.337
REMARK INTRA:                  -5.191
REMARK UNBOUND:                -3.964
REMARK SMILES CCCCCCCCCCCCCCCCCCCCCCCCCCCCCC(=O)[O-]
REMARK SMILES IDX 16 1 17 2 18 3 19 4 20 5 21 6 22 7 23 8 24 9 25 10 26 11
REMARK SMILES IDX 27 12 28 13 29 14 30 15 31 16 32 17 15 18 14 19 13 20 12 21
REMARK SMILES IDX 11 22 10 23 9 24 8 25 7 26 6 27 5 28 4 29 3 30 2 31 1 32
REMARK H PARENT
REMARK Flexibility Score: inf
ROOT
ATOM      1  C   UNL     1      95.537   3.852 -26.750  1.00  0.00     0.000 C 
ENDROOT
BRANCH   1   2
ATOM      2  C   UNL     1      96.557   2.999 -25.984  1.00  0.00     0.000 C 
BRANCH   2   3
ATOM      3  C   UNL     1      97.984   3.571 -26.052  1.00  0.00     0.000 C 
BRANCH   3   4
ATOM      4  C   UNL     1      98.201   4.657 -27.127  1.00  0.00     0.000 C 
BRANCH   4   5
ATOM      5  C   UNL     1      99.637   4.763 -27.672  1.00  0.00     0.000 C 
BRANCH   5   6
ATOM      6  C   UNL     1      99.720   4.511 -29.185  1.00  0.00     0.000 C 
BRANCH   6   7
ATOM      7  C   UNL     1     100.066   3.044 -29.482  1.00  0.00     0.000 C 
BRANCH   7   8
ATOM      8  C   UNL     1      98.820   2.162 -29.680  1.00  0.00     0.000 C 
BRANCH   8   9
ATOM      9  C   UNL     1      98.876   0.787 -28.988  1.00  0.00     0.000 C 
BRANCH   9  10
ATOM     10  C   UNL     1      99.563   0.837 -27.612  1.00  0.00     0.000 C 
BRANCH  10  11
ATOM     11  C   UNL     1      98.987  -0.189 -26.623  1.00  0.00     0.000 C 
BRANCH  11  12
ATOM     12  C   UNL     1      99.031   0.296 -25.162  1.00  0.00     0.000 C 
BRANCH  12  13
ATOM     13  C   UNL     1      97.746  -0.037 -24.387  1.00  0.00     0.006 C 
BRANCH  13  14
ATOM     14  C   UNL     1      97.919   0.097 -22.867  1.00  0.00     0.053 C 
BRANCH  14  15
ATOM     15  C   UNL     1      97.440  -1.134 -22.164  1.00  0.00     0.041 C 
ATOM     16  O   UNL     1      96.207  -1.364 -22.057  1.00  0.00    -0.550 OA
ATOM     17  O   UNL     1      98.357  -2.021 -21.613  1.00  0.00    -0.550 OA
ENDBRANCH  14  15
ENDBRANCH  13  14
ENDBRANCH  12  13
ENDBRANCH  11  12
ENDBRANCH  10  11
ENDBRANCH   9  10
ENDBRANCH   8   9
ENDBRANCH   7   8
ENDBRANCH   6   7
ENDBRANCH   5   6
ENDBRANCH   4   5
ENDBRANCH   3   4
ENDBRANCH   2   3
ENDBRANCH   1   2
BRANCH   1  18
ATOM     18  C   UNL     1      94.468   4.411 -25.799  1.00  0.00     0.000 C 
BRANCH  18  19
ATOM     19  C   UNL     1      93.438   5.295 -26.519  1.00  0.00     0.000 C 
BRANCH  19  20
ATOM     20  C   UNL     1      92.232   5.633 -25.629  1.00  0.00     0.000 C 
BRANCH  20  21
ATOM     21  C   UNL     1      92.466   5.172 -24.185  1.00  0.00     0.000 C 
BRANCH  21  22
ATOM     22  C   UNL     1      91.153   4.705 -23.540  1.00  0.00     0.000 C 
BRANCH  22  23
ATOM     23  C   UNL     1      91.306   4.358 -22.047  1.00  0.00     0.000 C 
BRANCH  23  24
ATOM     24  C   UNL     1      92.320   5.224 -21.275  1.00  0.00    -0.000 C 
BRANCH  24  25
ATOM     25  C   UNL     1      93.335   4.441 -20.421  1.00  0.00    -0.000 C 
BRANCH  25  26
ATOM     26  C   UNL     1      93.094   2.916 -20.401  1.00  0.00    -0.000 C 
BRANCH  26  27
ATOM     27  C   UNL     1      94.252   2.123 -21.033  1.00  0.00    -0.000 C 
BRANCH  27  28
ATOM     28  C   UNL     1      94.546   2.560 -22.477  1.00  0.00    -0.000 C 
BRANCH  28  29
ATOM     29  C   UNL     1      94.347   1.418 -23.490  1.00  0.00    -0.000 C 
BRANCH  29  30
ATOM     30  C   UNL     1      92.938   1.409 -24.110  1.00  0.00    -0.000 C 
BRANCH  30  31
ATOM     31  C   UNL     1      92.907   1.254 -25.641  1.00  0.00    -0.003 C 
ATOM     32  C   UNL     1      91.780   2.047 -26.301  1.00  0.00     0.004 C 
ENDBRANCH  30  31
ENDBRANCH  29  30
ENDBRANCH  28  29
ENDBRANCH  27  28
ENDBRANCH  26  27
ENDBRANCH  25  26
ENDBRANCH  24  25
ENDBRANCH  23  24
ENDBRANCH  22  23
ENDBRANCH  21  22
ENDBRANCH  20  21
ENDBRANCH  19  20
ENDBRANCH  18  19
ENDBRANCH   1  18
TORSDOF 28
ENDMDL
MODEL 4
REMARK VINA RESULT:    -4.380      3.873      8.816
REMARK INTER + INTRA:         -15.513
REMARK INTER:                 -11.341
REMARK INTRA:                  -4.172
REMARK UNBOUND:                -3.964
REMARK SMILES CCCCCCCCCCCCCCCCCCCCCCCCCCCCCC(=O)[O-]
REMARK SMILES IDX 16 1 17 2 18 3 19 4 20 5 21 6 22 7 23 8 24 9 25 10 26 11
REMARK SMILES IDX 27 12 28 13 29 14 30 15 31 16 32 17 15 18 14 19 13 20 12 21
REMARK SMILES IDX 11 22 10 23 9 24 8 25 7 26 6 27 5 28 4 29 3 30 2 31 1 32
REMARK H PARENT
REMARK Flexibility Score: inf
ROOT
ATOM      1  C   UNL     1      95.236   3.144 -25.479  1.00  0.00     0.000 C 
ENDROOT
BRANCH   1   2
ATOM      2  C   UNL     1      96.611   2.637 -25.937  1.00  0.00     0.000 C 
BRANCH   2   3
ATOM      3  C   UNL     1      97.776   3.367 -25.245  1.00  0.00     0.000 C 
BRANCH   3   4
ATOM      4  C   UNL     1      98.771   4.060 -26.200  1.00  0.00     0.000 C 
BRANCH   4   5
ATOM      5  C   UNL     1      98.133   4.793 -27.394  1.00  0.00     0.000 C 
BRANCH   5   6
ATOM      6  C   UNL     1      99.160   5.199 -28.462  1.00  0.00     0.000 C 
BRANCH   6   7
ATOM      7  C   UNL     1      99.249   4.142 -29.572  1.00  0.00     0.000 C 
BRANCH   7   8
ATOM      8  C   UNL     1      98.106   3.112 -29.514  1.00  0.00     0.000 C 
BRANCH   8   9
ATOM      9  C   UNL     1      98.546   1.641 -29.632  1.00  0.00     0.000 C 
BRANCH   9  10
ATOM     10  C   UNL     1      99.666   1.270 -28.644  1.00  0.00     0.000 C 
BRANCH  10  11
ATOM     11  C   UNL     1      99.160   0.425 -27.463  1.00  0.00     0.000 C 
BRANCH  11  12
ATOM     12  C   UNL     1     100.026   0.582 -26.200  1.00  0.00     0.000 C 
BRANCH  12  13
ATOM     13  C   UNL     1      99.620  -0.387 -25.078  1.00  0.00     0.006 C 
BRANCH  13  14
ATOM     14  C   UNL     1      98.110  -0.666 -25.054  1.00  0.00     0.053 C 
BRANCH  14  15
ATOM     15  C   UNL     1      97.528  -0.341 -23.714  1.00  0.00     0.041 C 
ATOM     16  O   UNL     1      98.027   0.576 -23.011  1.00  0.00    -0.550 OA
ATOM     17  O   UNL     1      96.439  -1.061 -23.235  1.00  0.00    -0.550 OA
ENDBRANCH  14  15
ENDBRANCH  13  14
ENDBRANCH  12  13
ENDBRANCH  11  12
ENDBRANCH  10  11
ENDBRANCH   9  10
ENDBRANCH   8   9
ENDBRANCH   7   8
ENDBRANCH   6   7
ENDBRANCH   5   6
ENDBRANCH   4   5
ENDBRANCH   3   4
ENDBRANCH   2   3
ENDBRANCH   1   2
BRANCH   1  18
ATOM     18  C   UNL     1      94.604   4.048 -26.548  1.00  0.00     0.000 C 
BRANCH  18  19
ATOM     19  C   UNL     1      93.091   4.231 -26.349  1.00  0.00     0.000 C 
BRANCH  19  20
ATOM     20  C   UNL     1      92.442   3.028 -25.649  1.00  0.00     0.000 C 
BRANCH  20  21
ATOM     21  C   UNL     1      91.666   3.468 -24.402  1.00  0.00     0.000 C 
BRANCH  21  22
ATOM     22  C   UNL     1      91.884   4.962 -24.120  1.00  0.00     0.000 C 
BRANCH  22  23
ATOM     23  C   UNL     1      92.666   5.221 -22.818  1.00  0.00     0.000 C 
BRANCH  23  24
ATOM     24  C   UNL     1      93.587   4.071 -22.368  1.00  0.00    -0.000 C 
BRANCH  24  25
ATOM     25  C   UNL     1      93.756   3.925 -20.844  1.00  0.00    -0.000 C 
BRANCH  25  26
ATOM     26  C   UNL     1      92.444   4.094 -20.049  1.00  0.00    -0.000 C 
BRANCH  26  27
ATOM     27  C   UNL     1      91.540   2.850 -20.123  1.00  0.00    -0.000 C 
BRANCH  27  28
ATOM     28  C   UNL     1      90.260   3.001 -19.286  1.00  0.00    -0.000 C 
BRANCH  28  29
ATOM     29  C   UNL     1      90.530   3.623 -17.904  1.00  0.00    -0.000 C 
BRANCH  29  30
ATOM     30  C   UNL     1      89.572   4.782 -17.574  1.00  0.00    -0.000 C 
BRANCH  30  31
ATOM     31  C   UNL     1      90.023   6.160 -18.092  1.00  0.00    -0.003 C 
ATOM     32  C   UNL     1      89.492   6.478 -19.489  1.00  0.00     0.004 C 
ENDBRANCH  30  31
ENDBRANCH  29  30
ENDBRANCH  28  29
ENDBRANCH  27  28
ENDBRANCH  26  27
ENDBRANCH  25  26
ENDBRANCH  24  25
ENDBRANCH  23  24
ENDBRANCH  22  23
ENDBRANCH  21  22
ENDBRANCH  20  21
ENDBRANCH  19  20
ENDBRANCH  18  19
ENDBRANCH   1  18
TORSDOF 28
ENDMDL
MODEL 5
REMARK VINA RESULT:    -4.325      3.907      6.446
REMARK INTER + INTRA:         -15.369
REMARK INTER:                  -9.060
REMARK INTRA:                  -6.309
REMARK UNBOUND:                -3.964
REMARK SMILES CCCCCCCCCCCCCCCCCCCCCCCCCCCCCC(=O)[O-]
REMARK SMILES IDX 16 1 17 2 18 3 19 4 20 5 21 6 22 7 23 8 24 9 25 10 26 11
REMARK SMILES IDX 27 12 28 13 29 14 30 15 31 16 32 17 15 18 14 19 13 20 12 21
REMARK SMILES IDX 11 22 10 23 9 24 8 25 7 26 6 27 5 28 4 29 3 30 2 31 1 32
REMARK H PARENT
REMARK Flexibility Score: inf
ROOT
ATOM      1  C   UNL     1      90.948   2.892 -28.695  1.00  0.00     0.000 C 
ENDROOT
BRANCH   1   2
ATOM      2  C   UNL     1      90.209   2.959 -30.038  1.00  0.00     0.000 C 
BRANCH   2   3
ATOM      3  C   UNL     1      90.812   4.000 -30.998  1.00  0.00     0.000 C 
BRANCH   3   4
ATOM      4  C   UNL     1      90.104   5.372 -31.003  1.00  0.00     0.000 C 
BRANCH   4   5
ATOM      5  C   UNL     1      90.718   6.430 -30.069  1.00  0.00     0.000 C 
BRANCH   5   6
ATOM      6  C   UNL     1      89.744   6.898 -28.977  1.00  0.00     0.000 C 
BRANCH   6   7
ATOM      7  C   UNL     1      88.553   5.936 -28.850  1.00  0.00     0.000 C 
BRANCH   7   8
ATOM      8  C   UNL     1      88.514   5.204 -27.496  1.00  0.00     0.000 C 
BRANCH   8   9
ATOM      9  C   UNL     1      87.247   4.365 -27.243  1.00  0.00     0.000 C 
BRANCH   9  10
ATOM     10  C   UNL     1      87.341   3.508 -25.968  1.00  0.00     0.000 C 
BRANCH  10  11
ATOM     11  C   UNL     1      88.793   3.257 -25.527  1.00  0.00     0.000 C 
BRANCH  11  12
ATOM     12  C   UNL     1      89.024   3.550 -24.033  1.00  0.00     0.000 C 
BRANCH  12  13
ATOM     13  C   UNL     1      88.664   4.994 -23.649  1.00  0.00     0.006 C 
BRANCH  13  14
ATOM     14  C   UNL     1      87.974   5.089 -22.280  1.00  0.00     0.053 C 
BRANCH  14  15
ATOM     15  C   UNL     1      86.646   5.769 -22.397  1.00  0.00     0.041 C 
ATOM     16  O   UNL     1      86.021   5.756 -23.490  1.00  0.00    -0.550 OA
ATOM     17  O   UNL     1      86.104   6.428 -21.300  1.00  0.00    -0.550 OA
ENDBRANCH  14  15
ENDBRANCH  13  14
ENDBRANCH  12  13
ENDBRANCH  11  12
ENDBRANCH  10  11
ENDBRANCH   9  10
ENDBRANCH   8   9
ENDBRANCH   7   8
ENDBRANCH   6   7
ENDBRANCH   5   6
ENDBRANCH   4   5
ENDBRANCH   3   4
ENDBRANCH   2   3
ENDBRANCH   1   2
BRANCH   1  18
ATOM     18  C   UNL     1      92.451   3.142 -28.885  1.00  0.00     0.000 C 
BRANCH  18  19
ATOM     19  C   UNL     1      93.032   4.093 -27.828  1.00  0.00     0.000 C 
BRANCH  19  20
ATOM     20  C   UNL     1      91.944   4.720 -26.943  1.00  0.00     0.000 C 
BRANCH  20  21
ATOM     21  C   UNL     1      92.311   6.158 -26.554  1.00  0.00     0.000 C 
BRANCH  21  22
ATOM     22  C   UNL     1      92.929   6.205 -25.149  1.00  0.00     0.000 C 
BRANCH  22  23
ATOM     23  C   UNL     1      92.287   5.200 -24.175  1.00  0.00     0.000 C 
BRANCH  23  24
ATOM     24  C   UNL     1      92.600   5.442 -22.686  1.00  0.00    -0.000 C 
BRANCH  24  25
ATOM     25  C   UNL     1      91.967   4.432 -21.710  1.00  0.00    -0.000 C 
BRANCH  25  26
ATOM     26  C   UNL     1      92.493   2.990 -21.872  1.00  0.00    -0.000 C 
BRANCH  26  27
ATOM     27  C   UNL     1      93.989   2.863 -21.529  1.00  0.00    -0.000 C 
BRANCH  27  28
ATOM     28  C   UNL     1      94.779   2.112 -22.613  1.00  0.00    -0.000 C 
BRANCH  28  29
ATOM     29  C   UNL     1      94.961   2.946 -23.894  1.00  0.00    -0.000 C 
BRANCH  29  30
ATOM     30  C   UNL     1      94.546   2.186 -25.166  1.00  0.00    -0.000 C 
BRANCH  30  31
ATOM     31  C   UNL     1      93.478   1.099 -24.949  1.00  0.00    -0.003 C 
ATOM     32  C   UNL     1      92.054   1.604 -25.181  1.00  0.00     0.004 C 
ENDBRANCH  30  31
ENDBRANCH  29  30
ENDBRANCH  28  29
ENDBRANCH  27  28
ENDBRANCH  26  27
ENDBRANCH  25  26
ENDBRANCH  24  25
ENDBRANCH  23  24
ENDBRANCH  22  23
ENDBRANCH  21  22
ENDBRANCH  20  21
ENDBRANCH  19  20
ENDBRANCH  18  19
ENDBRANCH   1  18
TORSDOF 28
ENDMDL
MODEL 6
REMARK VINA RESULT:    -4.295      3.334      8.525
REMARK INTER + INTRA:         -15.288
REMARK INTER:                 -10.747
REMARK INTRA:                  -4.542
REMARK UNBOUND:                -3.964
REMARK SMILES CCCCCCCCCCCCCCCCCCCCCCCCCCCCCC(=O)[O-]
REMARK SMILES IDX 16 1 17 2 18 3 19 4 20 5 21 6 22 7 23 8 24 9 25 10 26 11
REMARK SMILES IDX 27 12 28 13 29 14 30 15 31 16 32 17 15 18 14 19 13 20 12 21
REMARK SMILES IDX 11 22 10 23 9 24 8 25 7 26 6 27 5 28 4 29 3 30 2 31 1 32
REMARK H PARENT
REMARK Flexibility Score: inf
ROOT
ATOM      1  C   UNL     1      93.444   4.150 -24.578  1.00  0.00     0.000 C 
ENDROOT
BRANCH   1   2
ATOM      2  C   UNL     1      94.144   3.573 -25.817  1.00  0.00     0.000 C 
BRANCH   2   3
ATOM      3  C   UNL     1      95.219   2.529 -25.462  1.00  0.00     0.000 C 
BRANCH   3   4
ATOM      4  C   UNL     1      96.656   3.082 -25.359  1.00  0.00     0.000 C 
BRANCH   4   5
ATOM      5  C   UNL     1      97.197   3.748 -26.636  1.00  0.00     0.000 C 
BRANCH   5   6
ATOM      6  C   UNL     1      98.615   4.313 -26.459  1.00  0.00     0.000 C 
BRANCH   6   7
ATOM      7  C   UNL     1      99.205   4.754 -27.806  1.00  0.00     0.000 C 
BRANCH   7   8
ATOM      8  C   UNL     1      98.368   4.287 -29.011  1.00  0.00     0.000 C 
BRANCH   8   9
ATOM      9  C   UNL     1      99.011   3.175 -29.861  1.00  0.00     0.000 C 
BRANCH   9  10
ATOM     10  C   UNL     1      98.675   1.762 -29.352  1.00  0.00     0.000 C 
BRANCH  10  11
ATOM     11  C   UNL     1      99.772   1.181 -28.445  1.00  0.00     0.000 C 
BRANCH  11  12
ATOM     12  C   UNL     1      99.211   0.532 -27.166  1.00  0.00     0.000 C 
BRANCH  12  13
ATOM     13  C   UNL     1     100.048   0.858 -25.919  1.00  0.00     0.006 C 
BRANCH  13  14
ATOM     14  C   UNL     1      99.912  -0.206 -24.820  1.00  0.00     0.053 C 
BRANCH  14  15
ATOM     15  C   UNL     1      99.344   0.389 -23.570  1.00  0.00     0.041 C 
ATOM     16  O   UNL     1     100.108   0.789 -22.653  1.00  0.00    -0.550 OA
ATOM     17  O   UNL     1      97.966   0.489 -23.411  1.00  0.00    -0.550 OA
ENDBRANCH  14  15
ENDBRANCH  13  14
ENDBRANCH  12  13
ENDBRANCH  11  12
ENDBRANCH  10  11
ENDBRANCH   9  10
ENDBRANCH   8   9
ENDBRANCH   7   8
ENDBRANCH   6   7
ENDBRANCH   5   6
ENDBRANCH   4   5
ENDBRANCH   3   4
ENDBRANCH   2   3
ENDBRANCH   1   2
BRANCH   1  18
ATOM     18  C   UNL     1      92.808   5.512 -24.896  1.00  0.00     0.000 C 
BRANCH  18  19
ATOM     19  C   UNL     1      93.130   6.000 -26.317  1.00  0.00     0.000 C 
BRANCH  19  20
ATOM     20  C   UNL     1      91.865   6.321 -27.127  1.00  0.00     0.000 C 
BRANCH  20  21
ATOM     21  C   UNL     1      91.878   5.598 -28.479  1.00  0.00     0.000 C 
BRANCH  21  22
ATOM     22  C   UNL     1      91.381   4.153 -28.333  1.00  0.00     0.000 C 
BRANCH  22  23
ATOM     23  C   UNL     1      90.100   3.872 -29.141  1.00  0.00     0.000 C 
BRANCH  23  24
ATOM     24  C   UNL     1      88.805   4.447 -28.535  1.00  0.00    -0.000 C 
BRANCH  24  25
ATOM     25  C   UNL     1      88.381   3.830 -27.189  1.00  0.00    -0.000 C 
BRANCH  25  26
ATOM     26  C   UNL     1      88.557   4.777 -25.982  1.00  0.00    -0.000 C 
BRANCH  26  27
ATOM     27  C   UNL     1      89.501   4.202 -24.910  1.00  0.00    -0.000 C 
BRANCH  27  28
ATOM     28  C   UNL     1      90.087   2.839 -25.311  1.00  0.00    -0.000 C 
BRANCH  28  29
ATOM     29  C   UNL     1      89.944   1.786 -24.197  1.00  0.00    -0.000 C 
BRANCH  29  30
ATOM     30  C   UNL     1      90.896   2.035 -23.014  1.00  0.00    -0.000 C 
BRANCH  30  31
ATOM     31  C   UNL     1      91.662   0.792 -22.528  1.00  0.00    -0.003 C 
ATOM     32  C   UNL     1      93.179   0.940 -22.641  1.00  0.00     0.004 C 
ENDBRANCH  30  31
ENDBRANCH  29  30
ENDBRANCH  28  29
ENDBRANCH  27  28
ENDBRANCH  26  27
ENDBRANCH  25  26
ENDBRANCH  24  25
ENDBRANCH  23  24
ENDBRANCH  22  23
ENDBRANCH  21  22
ENDBRANCH  20  21
ENDBRANCH  19  20
ENDBRANCH  18  19
ENDBRANCH   1  18
TORSDOF 28
ENDMDL
MODEL 7
REMARK VINA RESULT:    -4.264      3.468      8.601
REMARK INTER + INTRA:         -15.206
REMARK INTER:                 -10.737
REMARK INTRA:                  -4.469
REMARK UNBOUND:                -3.964
REMARK SMILES CCCCCCCCCCCCCCCCCCCCCCCCCCCCCC(=O)[O-]
REMARK SMILES IDX 16 1 17 2 18 3 19 4 20 5 21 6 22 7 23 8 24 9 25 10 26 11
REMARK SMILES IDX 27 12 28 13 29 14 30 15 31 16 32 17 15 18 14 19 13 20 12 21
REMARK SMILES IDX 11 22 10 23 9 24 8 25 7 26 6 27 5 28 4 29 3 30 2 31 1 32
REMARK H PARENT
REMARK Flexibility Score: inf
ROOT
ATOM      1  C   UNL     1      92.527   5.598 -26.240  1.00  0.00     0.000 C 
ENDROOT
BRANCH   1   2
ATOM      2  C   UNL     1      93.758   4.786 -25.812  1.00  0.00     0.000 C 
BRANCH   2   3
ATOM      3  C   UNL     1      94.219   3.789 -26.890  1.00  0.00     0.000 C 
BRANCH   3   4
ATOM      4  C   UNL     1      95.287   2.775 -26.428  1.00  0.00     0.000 C 
BRANCH   4   5
ATOM      5  C   UNL     1      96.640   3.387 -26.023  1.00  0.00     0.000 C 
BRANCH   5   6
ATOM      6  C   UNL     1      97.304   4.174 -27.163  1.00  0.00     0.000 C 
BRANCH   6   7
ATOM      7  C   UNL     1      98.759   4.524 -26.817  1.00  0.00     0.000 C 
BRANCH   7   8
ATOM      8  C   UNL     1      99.591   4.916 -28.052  1.00  0.00     0.000 C 
BRANCH   8   9
ATOM      9  C   UNL     1      99.587   3.886 -29.197  1.00  0.00     0.000 C 
BRANCH   9  10
ATOM     10  C   UNL     1     100.125   2.510 -28.766  1.00  0.00     0.000 C 
BRANCH  10  11
ATOM     11  C   UNL     1      99.103   1.380 -28.977  1.00  0.00     0.000 C 
BRANCH  11  12
ATOM     12  C   UNL     1      98.995   0.436 -27.766  1.00  0.00     0.000 C 
BRANCH  12  13
ATOM     13  C   UNL     1      99.754   0.959 -26.536  1.00  0.00     0.006 C 
BRANCH  13  14
ATOM     14  C   UNL     1      99.511   0.105 -25.283  1.00  0.00     0.053 C 
BRANCH  14  15
ATOM     15  C   UNL     1      99.188   0.968 -24.104  1.00  0.00     0.041 C 
ATOM     16  O   UNL     1      99.321   2.218 -24.176  1.00  0.00    -0.550 OA
ATOM     17  O   UNL     1      98.751   0.389 -22.918  1.00  0.00    -0.550 OA
ENDBRANCH  14  15
ENDBRANCH  13  14
ENDBRANCH  12  13
ENDBRANCH  11  12
ENDBRANCH  10  11
ENDBRANCH   9  10
ENDBRANCH   8   9
ENDBRANCH   7   8
ENDBRANCH   6   7
ENDBRANCH   5   6
ENDBRANCH   4   5
ENDBRANCH   3   4
ENDBRANCH   2   3
ENDBRANCH   1   2
BRANCH   1  18
ATOM     18  C   UNL     1      92.196   5.348 -27.719  1.00  0.00     0.000 C 
BRANCH  18  19
ATOM     19  C   UNL     1      90.705   5.543 -28.033  1.00  0.00     0.000 C 
BRANCH  19  20
ATOM     20  C   UNL     1      90.051   4.268 -28.586  1.00  0.00     0.000 C 
BRANCH  20  21
ATOM     21  C   UNL     1      88.521   4.386 -28.580  1.00  0.00     0.000 C 
BRANCH  21  22
ATOM     22  C   UNL     1      88.028   5.046 -27.285  1.00  0.00     0.000 C 
BRANCH  22  23
ATOM     23  C   UNL     1      87.190   4.097 -26.407  1.00  0.00     0.000 C 
BRANCH  23  24
ATOM     24  C   UNL     1      88.001   3.054 -25.614  1.00  0.00    -0.000 C 
BRANCH  24  25
ATOM     25  C   UNL     1      89.327   3.566 -25.022  1.00  0.00    -0.000 C 
BRANCH  25  26
ATOM     26  C   UNL     1      90.532   2.638 -25.288  1.00  0.00    -0.000 C 
BRANCH  26  27
ATOM     27  C   UNL     1      91.370   2.376 -24.023  1.00  0.00    -0.000 C 
BRANCH  27  28
ATOM     28  C   UNL     1      92.527   1.397 -24.276  1.00  0.00    -0.000 C 
BRANCH  28  29
ATOM     29  C   UNL     1      93.769   1.721 -23.426  1.00  0.00    -0.000 C 
BRANCH  29  30
ATOM     30  C   UNL     1      93.597   2.994 -22.578  1.00  0.00    -0.000 C 
BRANCH  30  31
ATOM     31  C   UNL     1      93.931   2.824 -21.085  1.00  0.00    -0.003 C 
ATOM     32  C   UNL     1      92.920   3.507 -20.164  1.00  0.00     0.004 C 
ENDBRANCH  30  31
ENDBRANCH  29  30
ENDBRANCH  28  29
ENDBRANCH  27  28
ENDBRANCH  26  27
ENDBRANCH  25  26
ENDBRANCH  24  25
ENDBRANCH  23  24
ENDBRANCH  22  23
ENDBRANCH  21  22
ENDBRANCH  20  21
ENDBRANCH  19  20
ENDBRANCH  18  19
ENDBRANCH   1  18
TORSDOF 28
ENDMDL
MODEL 8
REMARK VINA RESULT:    -4.248      3.278      8.286
REMARK INTER + INTRA:         -15.164
REMARK INTER:                 -10.140
REMARK INTRA:                  -5.024
REMARK UNBOUND:                -3.964
REMARK SMILES CCCCCCCCCCCCCCCCCCCCCCCCCCCCCC(=O)[O-]
REMARK SMILES IDX 16 1 17 2 18 3 19 4 20 5 21 6 22 7 23 8 24 9 25 10 26 11
REMARK SMILES IDX 27 12 28 13 29 14 30 15 31 16 32 17 15 18 14 19 13 20 12 21
REMARK SMILES IDX 11 22 10 23 9 24 8 25 7 26 6 27 5 28 4 29 3 30 2 31 1 32
REMARK H PARENT
REMARK Flexibility Score: inf
ROOT
ATOM      1  C   UNL     1      93.073   5.105 -26.377  1.00  0.00     0.000 C 
ENDROOT
BRANCH   1   2
ATOM      2  C   UNL     1      94.520   4.654 -26.136  1.00  0.00     0.000 C 
BRANCH   2   3
ATOM      3  C   UNL     1      94.850   3.316 -26.821  1.00  0.00     0.000 C 
BRANCH   3   4
ATOM      4  C   UNL     1      96.352   3.055 -27.055  1.00  0.00     0.000 C 
BRANCH   4   5
ATOM      5  C   UNL     1      97.263   3.329 -25.845  1.00  0.00     0.000 C 
BRANCH   5   6
ATOM      6  C   UNL     1      98.530   4.112 -26.218  1.00  0.00     0.000 C 
BRANCH   6   7
ATOM      7  C   UNL     1      98.344   4.865 -27.543  1.00  0.00     0.000 C 
BRANCH   7   8
ATOM      8  C   UNL     1      99.452   4.559 -28.568  1.00  0.00     0.000 C 
BRANCH   8   9
ATOM      9  C   UNL     1     100.024   3.130 -28.504  1.00  0.00     0.000 C 
BRANCH   9  10
ATOM     10  C   UNL     1      99.226   2.128 -29.357  1.00  0.00     0.000 C 
BRANCH  10  11
ATOM     11  C   UNL     1      98.999   0.787 -28.640  1.00  0.00     0.000 C 
BRANCH  11  12
ATOM     12  C   UNL     1      99.645   0.737 -27.243  1.00  0.00     0.000 C 
BRANCH  12  13
ATOM     13  C   UNL     1      99.018  -0.334 -26.337  1.00  0.00     0.006 C 
BRANCH  13  14
ATOM     14  C   UNL     1      98.645   0.209 -24.949  1.00  0.00     0.053 C 
BRANCH  14  15
ATOM     15  C   UNL     1      97.607  -0.652 -24.300  1.00  0.00     0.041 C 
ATOM     16  O   UNL     1      97.509  -1.869 -24.607  1.00  0.00    -0.550 OA
ATOM     17  O   UNL     1      96.736  -0.105 -23.365  1.00  0.00    -0.550 OA
ENDBRANCH  14  15
ENDBRANCH  13  14
ENDBRANCH  12  13
ENDBRANCH  11  12
ENDBRANCH  10  11
ENDBRANCH   9  10
ENDBRANCH   8   9
ENDBRANCH   7   8
ENDBRANCH   6   7
ENDBRANCH   5   6
ENDBRANCH   4   5
ENDBRANCH   3   4
ENDBRANCH   2   3
ENDBRANCH   1   2
BRANCH   1  18
ATOM     18  C   UNL     1      92.324   5.270 -25.046  1.00  0.00     0.000 C 
BRANCH  18  19
ATOM     19  C   UNL     1      91.189   4.249 -24.875  1.00  0.00     0.000 C 
BRANCH  19  20
ATOM     20  C   UNL     1      91.119   3.249 -26.040  1.00  0.00     0.000 C 
BRANCH  20  21
ATOM     21  C   UNL     1      91.681   1.883 -25.628  1.00  0.00     0.000 C 
BRANCH  21  22
ATOM     22  C   UNL     1      91.864   1.802 -24.105  1.00  0.00     0.000 C 
BRANCH  22  23
ATOM     23  C   UNL     1      93.312   1.482 -23.689  1.00  0.00     0.000 C 
BRANCH  23  24
ATOM     24  C   UNL     1      94.072   2.644 -23.021  1.00  0.00    -0.000 C 
BRANCH  24  25
ATOM     25  C   UNL     1      93.899   2.748 -21.494  1.00  0.00    -0.000 C 
BRANCH  25  26
ATOM     26  C   UNL     1      93.779   4.197 -20.975  1.00  0.00    -0.000 C 
BRANCH  26  27
ATOM     27  C   UNL     1      92.456   4.868 -21.388  1.00  0.00    -0.000 C 
BRANCH  27  28
ATOM     28  C   UNL     1      91.552   5.177 -20.184  1.00  0.00    -0.000 C 
BRANCH  28  29
ATOM     29  C   UNL     1      90.362   4.206 -20.076  1.00  0.00    -0.000 C 
BRANCH  29  30
ATOM     30  C   UNL     1      90.133   3.396 -21.365  1.00  0.00    -0.000 C 
BRANCH  30  31
ATOM     31  C   UNL     1      88.835   3.734 -22.118  1.00  0.00    -0.003 C 
ATOM     32  C   UNL     1      87.768   2.647 -21.991  1.00  0.00     0.004 C 
ENDBRANCH  30  31
ENDBRANCH  29  30
ENDBRANCH  28  29
ENDBRANCH  27  28
ENDBRANCH  26  27
ENDBRANCH  25  26
ENDBRANCH  24  25
ENDBRANCH  23  24
ENDBRANCH  22  23
ENDBRANCH  21  22
ENDBRANCH  20  21
ENDBRANCH  19  20
ENDBRANCH  18  19
ENDBRANCH   1  18
TORSDOF 28
ENDMDL
MODEL 9
REMARK VINA RESULT:    -4.222      1.909      4.429
REMARK INTER + INTRA:         -15.098
REMARK INTER:                 -10.992
REMARK INTRA:                  -4.106
REMARK UNBOUND:                -3.964
REMARK SMILES CCCCCCCCCCCCCCCCCCCCCCCCCCCCCC(=O)[O-]
REMARK SMILES IDX 16 1 17 2 18 3 19 4 20 5 21 6 22 7 23 8 24 9 25 10 26 11
REMARK SMILES IDX 27 12 28 13 29 14 30 15 31 16 32 17 15 18 14 19 13 20 12 21
REMARK SMILES IDX 11 22 10 23 9 24 8 25 7 26 6 27 5 28 4 29 3 30 2 31 1 32
REMARK H PARENT
REMARK Flexibility Score: inf
ROOT
ATOM      1  C   UNL     1      93.290   5.657 -26.126  1.00  0.00     0.000 C 
ENDROOT
BRANCH   1   2
ATOM      2  C   UNL     1      92.249   6.707 -26.539  1.00  0.00     0.000 C 
BRANCH   2   3
ATOM      3  C   UNL     1      91.580   6.384 -27.888  1.00  0.00     0.000 C 
BRANCH   3   4
ATOM      4  C   UNL     1      92.026   5.056 -28.536  1.00  0.00     0.000 C 
BRANCH   4   5
ATOM      5  C   UNL     1      91.050   4.471 -29.572  1.00  0.00     0.000 C 
BRANCH   5   6
ATOM      6  C   UNL     1      90.169   3.352 -28.995  1.00  0.00     0.000 C 
BRANCH   6   7
ATOM      7  C   UNL     1      90.536   3.059 -27.533  1.00  0.00     0.000 C 
BRANCH   7   8
ATOM      8  C   UNL     1      89.472   3.554 -26.536  1.00  0.00     0.000 C 
BRANCH   8   9
ATOM      9  C   UNL     1      88.307   4.343 -27.163  1.00  0.00     0.000 C 
BRANCH   9  10
ATOM     10  C   UNL     1      86.956   4.059 -26.482  1.00  0.00     0.000 C 
BRANCH  10  11
ATOM     11  C   UNL     1      87.083   3.096 -25.290  1.00  0.00     0.000 C 
BRANCH  11  12
ATOM     12  C   UNL     1      85.942   3.253 -24.269  1.00  0.00     0.000 C 
BRANCH  12  13
ATOM     13  C   UNL     1      86.430   3.776 -22.909  1.00  0.00     0.006 C 
BRANCH  13  14
ATOM     14  C   UNL     1      87.026   5.188 -22.996  1.00  0.00     0.053 C 
BRANCH  14  15
ATOM     15  C   UNL     1      88.422   5.213 -22.455  1.00  0.00     0.041 C 
ATOM     16  O   UNL     1      88.641   5.623 -21.286  1.00  0.00    -0.550 OA
ATOM     17  O   UNL     1      89.483   4.794 -23.250  1.00  0.00    -0.550 OA
ENDBRANCH  14  15
ENDBRANCH  13  14
ENDBRANCH  12  13
ENDBRANCH  11  12
ENDBRANCH  10  11
ENDBRANCH   9  10
ENDBRANCH   8   9
ENDBRANCH   7   8
ENDBRANCH   6   7
ENDBRANCH   5   6
ENDBRANCH   4   5
ENDBRANCH   3   4
ENDBRANCH   2   3
ENDBRANCH   1   2
BRANCH   1  18
ATOM     18  C   UNL     1      92.797   4.846 -24.918  1.00  0.00     0.000 C 
BRANCH  18  19
ATOM     19  C   UNL     1      93.264   3.383 -24.957  1.00  0.00     0.000 C 
BRANCH  19  20
ATOM     20  C   UNL     1      94.142   3.080 -26.181  1.00  0.00     0.000 C 
BRANCH  20  21
ATOM     21  C   UNL     1      95.625   3.021 -25.795  1.00  0.00     0.000 C 
BRANCH  21  22
ATOM     22  C   UNL     1      96.491   3.750 -26.832  1.00  0.00     0.000 C 
BRANCH  22  23
ATOM     23  C   UNL     1      97.979   3.811 -26.438  1.00  0.00     0.000 C 
BRANCH  23  24
ATOM     24  C   UNL     1      98.310   3.247 -25.043  1.00  0.00    -0.000 C 
BRANCH  24  25
ATOM     25  C   UNL     1      99.016   1.878 -25.040  1.00  0.00    -0.000 C 
BRANCH  25  26
ATOM     26  C   UNL     1      98.979   1.151 -26.401  1.00  0.00    -0.000 C 
BRANCH  26  27
ATOM     27  C   UNL     1      99.019  -0.382 -26.257  1.00  0.00    -0.000 C 
BRANCH  27  28
ATOM     28  C   UNL     1      98.919  -0.838 -24.792  1.00  0.00    -0.000 C 
BRANCH  28  29
ATOM     29  C   UNL     1      97.848  -1.924 -24.586  1.00  0.00    -0.000 C 
BRANCH  29  30
ATOM     30  C   UNL     1      96.744  -1.495 -23.602  1.00  0.00    -0.000 C 
BRANCH  30  31
ATOM     31  C   UNL     1      96.025  -0.185 -23.970  1.00  0.00    -0.003 C 
ATOM     32  C   UNL     1      95.967   0.812 -22.813  1.00  0.00     0.004 C 
ENDBRANCH  30  31
ENDBRANCH  29  30
ENDBRANCH  28  29
ENDBRANCH  27  28
ENDBRANCH  26  27
ENDBRANCH  25  26
ENDBRANCH  24  25
ENDBRANCH  23  24
ENDBRANCH  22  23
ENDBRANCH  21  22
ENDBRANCH  20  21
ENDBRANCH  19  20
ENDBRANCH  18  19
ENDBRANCH   1  18
TORSDOF 28
ENDMDL
