MODEL 1
REMARK VINA RESULT:    -4.832      0.000      0.000
REMARK INTER + INTRA:          -9.747
REMARK INTER:                  -8.504
REMARK INTRA:                  -1.242
REMARK UNBOUND:                -1.242
REMARK SMILES CCCCCCC=CCCCCCCCC(=O)[O-]
REMARK SMILES IDX 10 1 11 2 12 3 13 4 14 5 15 6 16 7 17 8 18 9 9 10 8 11 7 12
REMARK SMILES IDX 6 13 5 14 4 15 3 16 2 17 1 18
REMARK H PARENT
REMARK Flexibility Score: inf
ROOT
ATOM      1  C   UNL     1       4.113  10.488  82.800  1.00  0.00     0.004 C 
ENDROOT
BRANCH   1   2
ATOM      2  C   UNL     1       5.142  10.199  81.697  1.00  0.00     0.000 C 
BRANCH   2   3
ATOM      3  C   UNL     1       5.721   8.784  81.839  1.00  0.00     0.000 C 
BRANCH   3   4
ATOM      4  C   UNL     1       7.156   8.682  81.277  1.00  0.00     0.000 C 
BRANCH   4   5
ATOM      5  C   UNL     1       7.235   7.954  79.924  1.00  0.00     0.006 C 
BRANCH   5   6
ATOM      6  C   UNL     1       8.543   7.177  79.738  1.00  0.00     0.053 C 
BRANCH   6   7
ATOM      7  C   UNL     1       8.277   5.705  79.706  1.00  0.00     0.041 C 
ATOM      8  O   UNL     1       7.097   5.273  79.771  1.00  0.00    -0.550 OA
ATOM      9  O   UNL     1       9.337   4.808  79.653  1.00  0.00    -0.550 OA
ENDBRANCH   6   7
ENDBRANCH   5   6
ENDBRANCH   4   5
ENDBRANCH   3   4
ENDBRANCH   2   3
ENDBRANCH   1   2
BRANCH   1  10
ATOM     10  C   UNL     1       3.362   9.221  83.238  1.00  0.00     0.027 C 
BRANCH  10  11
ATOM     11  C   UNL     1       2.009   9.545  83.823  1.00  0.00    -0.031 C 
ATOM     12  C   UNL     1       1.763   9.723  85.134  1.00  0.00    -0.031 C 
BRANCH  12  13
ATOM     13  C   UNL     1       2.819   9.729  86.213  1.00  0.00     0.027 C 
BRANCH  13  14
ATOM     14  C   UNL     1       2.359   8.979  87.471  1.00  0.00     0.004 C 
BRANCH  14  15
ATOM     15  C   UNL     1       1.033   8.232  87.247  1.00  0.00     0.000 C 
BRANCH  15  16
ATOM     16  C   UNL     1       1.221   6.712  87.098  1.00  0.00    -0.000 C 
BRANCH  16  17
ATOM     17  C   UNL     1       1.441   6.225  85.654  1.00  0.00    -0.003 C 
ATOM     18  C   UNL     1       2.915   6.009  85.314  1.00  0.00     0.004 C 
ENDBRANCH  16  17
ENDBRANCH  15  16
ENDBRANCH  14  15
ENDBRANCH  13  14
ENDBRANCH  12  13
ENDBRANCH  10  11
ENDBRANCH   1  10
TORSDOF 13
ENDMDL
MODEL 2
REMARK VINA RESULT:    -4.658      2.796      7.487
REMARK INTER + INTRA:          -9.440
REMARK INTER:                  -8.493
REMARK INTRA:                  -0.947
REMARK UNBOUND:                -1.242
REMARK SMILES CCCCCCC=CCCCCCCCC(=O)[O-]
REMARK SMILES IDX 10 1 11 2 12 3 13 4 14 5 15 6 16 7 17 8 18 9 9 10 8 11 7 12
REMARK SMILES IDX 6 13 5 14 4 15 3 16 2 17 1 18
REMARK H PARENT
REMARK Flexibility Score: inf
ROOT
ATOM      1  C   UNL     1       3.330  11.518  81.575  1.00  0.00     0.004 C 
ENDROOT
BRANCH   1   2
ATOM      2  C   UNL     1       2.285  10.790  82.433  1.00  0.00     0.000 C 
BRANCH   2   3
ATOM      3  C   UNL     1       2.025  11.545  83.744  1.00  0.00     0.000 C 
BRANCH   3   4
ATOM      4  C   UNL     1       1.711  10.588  84.915  1.00  0.00     0.000 C 
BRANCH   4   5
ATOM      5  C   UNL     1       1.953   9.107  84.580  1.00  0.00     0.006 C 
BRANCH   5   6
ATOM      6  C   UNL     1       2.115   8.229  85.826  1.00  0.00     0.053 C 
BRANCH   6   7
ATOM      7  C   UNL     1       2.019   6.781  85.464  1.00  0.00     0.041 C 
ATOM      8  O   UNL     1       0.903   6.199  85.475  1.00  0.00    -0.550 OA
ATOM      9  O   UNL     1       3.168   6.063  85.160  1.00  0.00    -0.550 OA
ENDBRANCH   6   7
ENDBRANCH   5   6
ENDBRANCH   4   5
ENDBRANCH   3   4
ENDBRANCH   2   3
ENDBRANCH   1   2
BRANCH   1  10
ATOM     10  C   UNL     1       4.742  10.945  81.772  1.00  0.00     0.027 C 
BRANCH  10  11
ATOM     11  C   UNL     1       4.706   9.510  82.237  1.00  0.00    -0.031 C 
ATOM     12  C   UNL     1       5.633   8.582  81.935  1.00  0.00    -0.031 C 
BRANCH  12  13
ATOM     13  C   UNL     1       6.905   8.857  81.170  1.00  0.00     0.027 C 
BRANCH  13  14
ATOM     14  C   UNL     1       7.207   7.754  80.145  1.00  0.00     0.004 C 
BRANCH  14  15
ATOM     15  C   UNL     1       8.511   8.024  79.372  1.00  0.00     0.000 C 
BRANCH  15  16
ATOM     16  C   UNL     1       9.285   6.737  79.039  1.00  0.00    -0.000 C 
BRANCH  16  17
ATOM     17  C   UNL     1       8.671   5.445  79.608  1.00  0.00    -0.003 C 
ATOM     18  C   UNL     1       9.718   4.391  79.962  1.00  0.00     0.004 C 
ENDBRANCH  16  17
ENDBRANCH  15  16
ENDBRANCH  14  15
ENDBRANCH  13  14
ENDBRANCH  12  13
ENDBRANCH  10  11
ENDBRANCH   1  10
TORSDOF 13
ENDMDL
MODEL 3
REMARK VINA RESULT:    -4.572      1.427      2.421
REMARK INTER + INTRA:          -9.290
REMARK INTER:                  -7.941
REMARK INTRA:                  -1.349
REMARK UNBOUND:                -1.242
REMARK SMILES CCCCCCC=CCCCCCCCC(=O)[O-]
REMARK SMILES IDX 10 1 11 2 12 3 13 4 14 5 15 6 16 7 17 8 18 9 9 10 8 11 7 12
REMARK SMILES IDX 6 13 5 14 4 15 3 16 2 17 1 18
REMARK H PARENT
REMARK Flexibility Score: inf
ROOT
ATOM      1  C   UNL     1       4.783  10.800  83.272  1.00  0.00     0.004 C 
ENDROOT
BRANCH   1   2
ATOM      2  C   UNL     1       5.011  10.225  81.866  1.00  0.00     0.000 C 
BRANCH   2   3
ATOM      3  C   UNL     1       5.489   8.767  81.938  1.00  0.00     0.000 C 
BRANCH   3   4
ATOM      4  C   UNL     1       6.903   8.587  81.345  1.00  0.00     0.000 C 
BRANCH   4   5
ATOM      5  C   UNL     1       7.015   7.403  80.369  1.00  0.00     0.006 C 
BRANCH   5   6
ATOM      6  C   UNL     1       7.995   7.665  79.220  1.00  0.00     0.053 C 
BRANCH   6   7
ATOM      7  C   UNL     1       9.066   6.620  79.198  1.00  0.00     0.041 C 
ATOM      8  O   UNL     1       8.765   5.403  79.299  1.00  0.00    -0.550 OA
ATOM      9  O   UNL     1      10.401   6.995  79.114  1.00  0.00    -0.550 OA
ENDBRANCH   6   7
ENDBRANCH   5   6
ENDBRANCH   4   5
ENDBRANCH   3   4
ENDBRANCH   2   3
ENDBRANCH   1   2
BRANCH   1  10
ATOM     10  C   UNL     1       3.708  11.897  83.282  1.00  0.00     0.027 C 
BRANCH  10  11
ATOM     11  C   UNL     1       2.540  11.547  82.393  1.00  0.00    -0.031 C 
ATOM     12  C   UNL     1       1.427  10.912  82.803  1.00  0.00    -0.031 C 
BRANCH  12  13
ATOM     13  C   UNL     1       1.129  10.541  84.236  1.00  0.00     0.027 C 
BRANCH  13  14
ATOM     14  C   UNL     1       1.237   9.027  84.471  1.00  0.00     0.004 C 
BRANCH  14  15
ATOM     15  C   UNL     1       2.475   8.659  85.308  1.00  0.00     0.000 C 
BRANCH  15  16
ATOM     16  C   UNL     1       2.879   9.766  86.297  1.00  0.00    -0.000 C 
BRANCH  16  17
ATOM     17  C   UNL     1       2.650   9.426  87.781  1.00  0.00    -0.003 C 
ATOM     18  C   UNL     1       1.232   8.935  88.069  1.00  0.00     0.004 C 
ENDBRANCH  16  17
ENDBRANCH  15  16
ENDBRANCH  14  15
ENDBRANCH  13  14
ENDBRANCH  12  13
ENDBRANCH  10  11
ENDBRANCH   1  10
TORSDOF 13
ENDMDL
MODEL 4
REMARK VINA RESULT:    -4.502      4.023      8.241
REMARK INTER + INTRA:          -9.165
REMARK INTER:                  -8.040
REMARK INTRA:                  -1.125
REMARK UNBOUND:                -1.242
REMARK SMILES CCCCCCC=CCCCCCCCC(=O)[O-]
REMARK SMILES IDX 10 1 11 2 12 3 13 4 14 5 15 6 16 7 17 8 18 9 9 10 8 11 7 12
REMARK SMILES IDX 6 13 5 14 4 15 3 16 2 17 1 18
REMARK H PARENT
REMARK Flexibility Score: inf
ROOT
ATOM      1  C   UNL     1       4.420  11.099  81.570  1.00  0.00     0.004 C 
ENDROOT
BRANCH   1   2
ATOM      2  C   UNL     1       5.229  10.217  82.533  1.00  0.00     0.000 C 
BRANCH   2   3
ATOM      3  C   UNL     1       5.484   8.829  81.927  1.00  0.00     0.000 C 
BRANCH   3   4
ATOM      4  C   UNL     1       6.845   8.750  81.202  1.00  0.00     0.000 C 
BRANCH   4   5
ATOM      5  C   UNL     1       7.034   7.459  80.388  1.00  0.00     0.006 C 
BRANCH   5   6
ATOM      6  C   UNL     1       7.937   7.649  79.164  1.00  0.00     0.053 C 
BRANCH   6   7
ATOM      7  C   UNL     1       9.093   6.702  79.214  1.00  0.00     0.041 C 
ATOM      8  O   UNL     1       8.893   5.463  79.307  1.00  0.00    -0.550 OA
ATOM      9  O   UNL     1      10.393   7.191  79.207  1.00  0.00    -0.550 OA
ENDBRANCH   6   7
ENDBRANCH   5   6
ENDBRANCH   4   5
ENDBRANCH   3   4
ENDBRANCH   2   3
ENDBRANCH   1   2
BRANCH   1  10
ATOM     10  C   UNL     1       5.221  12.318  81.088  1.00  0.00     0.027 C 
BRANCH  10  11
ATOM     11  C   UNL     1       5.193  12.450  79.585  1.00  0.00    -0.031 C 
ATOM     12  C   UNL     1       6.256  12.270  78.780  1.00  0.00    -0.031 C 
BRANCH  12  13
ATOM     13  C   UNL     1       7.616  11.808  79.243  1.00  0.00     0.027 C 
BRANCH  13  14
ATOM     14  C   UNL     1       8.724  12.796  78.849  1.00  0.00     0.004 C 
BRANCH  14  15
ATOM     15  C   UNL     1       8.612  13.235  77.379  1.00  0.00     0.000 C 
BRANCH  15  16
ATOM     16  C   UNL     1       9.792  12.749  76.519  1.00  0.00    -0.000 C 
BRANCH  16  17
ATOM     17  C   UNL     1      10.306  13.771  75.488  1.00  0.00    -0.003 C 
ATOM     18  C   UNL     1      11.335  13.182  74.525  1.00  0.00     0.004 C 
ENDBRANCH  16  17
ENDBRANCH  15  16
ENDBRANCH  14  15
ENDBRANCH  13  14
ENDBRANCH  12  13
ENDBRANCH  10  11
ENDBRANCH   1  10
TORSDOF 13
ENDMDL
MODEL 5
REMARK VINA RESULT:    -4.487      2.769      5.590
REMARK INTER + INTRA:          -9.140
REMARK INTER:                  -7.505
REMARK INTRA:                  -1.634
REMARK UNBOUND:                -1.242
REMARK SMILES CCCCCCC=CCCCCCCCC(=O)[O-]
REMARK SMILES IDX 10 1 11 2 12 3 13 4 14 5 15 6 16 7 17 8 18 9 9 10 8 11 7 12
REMARK SMILES IDX 6 13 5 14 4 15 3 16 2 17 1 18
REMARK H PARENT
REMARK Flexibility Score: inf
ROOT
ATOM      1  C   UNL     1       3.410   9.077  82.947  1.00  0.00     0.004 C 
ENDROOT
BRANCH   1   2
ATOM      2  C   UNL     1       4.632   8.358  82.357  1.00  0.00     0.000 C 
BRANCH   2   3
ATOM      3  C   UNL     1       5.662   9.366  81.826  1.00  0.00     0.000 C 
BRANCH   3   4
ATOM      4  C   UNL     1       6.994   8.689  81.440  1.00  0.00     0.000 C 
BRANCH   4   5
ATOM      5  C   UNL     1       6.832   7.552  80.417  1.00  0.00     0.006 C 
BRANCH   5   6
ATOM      6  C   UNL     1       7.674   7.759  79.153  1.00  0.00     0.053 C 
BRANCH   6   7
ATOM      7  C   UNL     1       8.840   6.821  79.140  1.00  0.00     0.041 C 
ATOM      8  O   UNL     1      10.003   7.259  78.948  1.00  0.00    -0.550 OA
ATOM      9  O   UNL     1       8.634   5.456  79.294  1.00  0.00    -0.550 OA
ENDBRANCH   6   7
ENDBRANCH   5   6
ENDBRANCH   4   5
ENDBRANCH   3   4
ENDBRANCH   2   3
ENDBRANCH   1   2
BRANCH   1  10
ATOM     10  C   UNL     1       3.702  10.551  83.265  1.00  0.00     0.027 C 
BRANCH  10  11
ATOM     11  C   UNL     1       2.486  11.422  83.058  1.00  0.00    -0.031 C 
ATOM     12  C   UNL     1       2.196  12.076  81.918  1.00  0.00    -0.031 C 
BRANCH  12  13
ATOM     13  C   UNL     1       2.986  11.960  80.637  1.00  0.00     0.027 C 
BRANCH  13  14
ATOM     14  C   UNL     1       3.249  13.332  79.999  1.00  0.00     0.004 C 
BRANCH  14  15
ATOM     15  C   UNL     1       4.569  13.358  79.208  1.00  0.00     0.000 C 
BRANCH  15  16
ATOM     16  C   UNL     1       5.711  12.619  79.927  1.00  0.00    -0.000 C 
BRANCH  16  17
ATOM     17  C   UNL     1       6.442  11.568  79.071  1.00  0.00    -0.003 C 
ATOM     18  C   UNL     1       7.961  11.723  79.102  1.00  0.00     0.004 C 
ENDBRANCH  16  17
ENDBRANCH  15  16
ENDBRANCH  14  15
ENDBRANCH  13  14
ENDBRANCH  12  13
ENDBRANCH  10  11
ENDBRANCH   1  10
TORSDOF 13
ENDMDL
MODEL 6
REMARK VINA RESULT:    -4.486      1.313      1.721
REMARK INTER + INTRA:          -9.138
REMARK INTER:                  -8.104
REMARK INTRA:                  -1.034
REMARK UNBOUND:                -1.242
REMARK SMILES CCCCCCC=CCCCCCCCC(=O)[O-]
REMARK SMILES IDX 10 1 11 2 12 3 13 4 14 5 15 6 16 7 17 8 18 9 9 10 8 11 7 12
REMARK SMILES IDX 6 13 5 14 4 15 3 16 2 17 1 18
REMARK H PARENT
REMARK Flexibility Score: inf
ROOT
ATOM      1  C   UNL     1       4.873  10.487  82.871  1.00  0.00     0.004 C 
ENDROOT
BRANCH   1   2
ATOM      2  C   UNL     1       4.755   9.089  82.246  1.00  0.00     0.000 C 
BRANCH   2   3
ATOM      3  C   UNL     1       6.133   8.547  81.842  1.00  0.00     0.000 C 
BRANCH   3   4
ATOM      4  C   UNL     1       6.732   9.315  80.643  1.00  0.00     0.000 C 
BRANCH   4   5
ATOM      5  C   UNL     1       7.591   8.437  79.717  1.00  0.00     0.006 C 
BRANCH   5   6
ATOM      6  C   UNL     1       7.430   6.938  79.996  1.00  0.00     0.053 C 
BRANCH   6   7
ATOM      7  C   UNL     1       8.642   6.188  79.541  1.00  0.00     0.041 C 
ATOM      8  O   UNL     1       8.751   4.957  79.778  1.00  0.00    -0.550 OA
ATOM      9  O   UNL     1       9.673   6.860  78.895  1.00  0.00    -0.550 OA
ENDBRANCH   6   7
ENDBRANCH   5   6
ENDBRANCH   4   5
ENDBRANCH   3   4
ENDBRANCH   2   3
ENDBRANCH   1   2
BRANCH   1  10
ATOM     10  C   UNL     1       3.712  10.794  83.830  1.00  0.00     0.027 C 
BRANCH  10  11
ATOM     11  C   UNL     1       2.391  10.873  83.105  1.00  0.00    -0.031 C 
ATOM     12  C   UNL     1       1.231  10.369  83.566  1.00  0.00    -0.031 C 
BRANCH  12  13
ATOM     13  C   UNL     1       1.051   9.736  84.925  1.00  0.00     0.027 C 
BRANCH  13  14
ATOM     14  C   UNL     1       1.207   8.209  84.872  1.00  0.00     0.004 C 
BRANCH  14  15
ATOM     15  C   UNL     1       2.303   7.706  85.827  1.00  0.00     0.000 C 
BRANCH  15  16
ATOM     16  C   UNL     1       3.077   6.500  85.266  1.00  0.00    -0.000 C 
BRANCH  16  17
ATOM     17  C   UNL     1       2.492   5.126  85.638  1.00  0.00    -0.003 C 
ATOM     18  C   UNL     1       1.552   5.182  86.841  1.00  0.00     0.004 C 
ENDBRANCH  16  17
ENDBRANCH  15  16
ENDBRANCH  14  15
ENDBRANCH  13  14
ENDBRANCH  12  13
ENDBRANCH  10  11
ENDBRANCH   1  10
TORSDOF 13
ENDMDL
MODEL 7
REMARK VINA RESULT:    -4.474      1.006      1.972
REMARK INTER + INTRA:          -9.117
REMARK INTER:                  -8.160
REMARK INTRA:                  -0.957
REMARK UNBOUND:                -1.242
REMARK SMILES CCCCCCC=CCCCCCCCC(=O)[O-]
REMARK SMILES IDX 10 1 11 2 12 3 13 4 14 5 15 6 16 7 17 8 18 9 9 10 8 11 7 12
REMARK SMILES IDX 6 13 5 14 4 15 3 16 2 17 1 18
REMARK H PARENT
REMARK Flexibility Score: inf
ROOT
ATOM      1  C   UNL     1       5.195   8.632  82.065  1.00  0.00     0.004 C 
ENDROOT
BRANCH   1   2
ATOM      2  C   UNL     1       6.691   8.726  81.732  1.00  0.00     0.000 C 
BRANCH   2   3
ATOM      3  C   UNL     1       6.911   9.397  80.368  1.00  0.00     0.000 C 
BRANCH   3   4
ATOM      4  C   UNL     1       7.503   8.422  79.328  1.00  0.00     0.000 C 
BRANCH   4   5
ATOM      5  C   UNL     1       8.860   7.829  79.743  1.00  0.00     0.006 C 
BRANCH   5   6
ATOM      6  C   UNL     1       9.232   6.572  78.948  1.00  0.00     0.053 C 
BRANCH   6   7
ATOM      7  C   UNL     1       8.804   5.342  79.684  1.00  0.00     0.041 C 
ATOM      8  O   UNL     1       7.590   5.159  79.959  1.00  0.00    -0.550 OA
ATOM      9  O   UNL     1       9.754   4.420  80.108  1.00  0.00    -0.550 OA
ENDBRANCH   6   7
ENDBRANCH   5   6
ENDBRANCH   4   5
ENDBRANCH   3   4
ENDBRANCH   2   3
ENDBRANCH   1   2
BRANCH   1  10
ATOM     10  C   UNL     1       4.525  10.013  82.123  1.00  0.00     0.027 C 
BRANCH  10  11
ATOM     11  C   UNL     1       4.968  10.802  83.331  1.00  0.00    -0.031 C 
ATOM     12  C   UNL     1       4.188  11.084  84.391  1.00  0.00    -0.031 C 
BRANCH  12  13
ATOM     13  C   UNL     1       2.782  10.569  84.583  1.00  0.00     0.027 C 
BRANCH  13  14
ATOM     14  C   UNL     1       2.469  10.293  86.061  1.00  0.00     0.004 C 
BRANCH  14  15
ATOM     15  C   UNL     1       2.768   8.836  86.454  1.00  0.00     0.000 C 
BRANCH  15  16
ATOM     16  C   UNL     1       2.479   7.839  85.317  1.00  0.00    -0.000 C 
BRANCH  16  17
ATOM     17  C   UNL     1       1.562   6.665  85.704  1.00  0.00    -0.003 C 
ATOM     18  C   UNL     1       0.989   6.792  87.114  1.00  0.00     0.004 C 
ENDBRANCH  16  17
ENDBRANCH  15  16
ENDBRANCH  14  15
ENDBRANCH  13  14
ENDBRANCH  12  13
ENDBRANCH  10  11
ENDBRANCH   1  10
TORSDOF 13
ENDMDL
MODEL 8
REMARK VINA RESULT:    -4.406      1.375      2.059
REMARK INTER + INTRA:          -8.997
REMARK INTER:                  -7.424
REMARK INTRA:                  -1.572
REMARK UNBOUND:                -1.242
REMARK SMILES CCCCCCC=CCCCCCCCC(=O)[O-]
REMARK SMILES IDX 10 1 11 2 12 3 13 4 14 5 15 6 16 7 17 8 18 9 9 10 8 11 7 12
REMARK SMILES IDX 6 13 5 14 4 15 3 16 2 17 1 18
REMARK H PARENT
REMARK Flexibility Score: inf
ROOT
ATOM      1  C   UNL     1       4.252  10.175  82.663  1.00  0.00     0.004 C 
ENDROOT
BRANCH   1   2
ATOM      2  C   UNL     1       4.358   8.644  82.730  1.00  0.00     0.000 C 
BRANCH   2   3
ATOM      3  C   UNL     1       5.323   8.111  81.661  1.00  0.00     0.000 C 
BRANCH   3   4
ATOM      4  C   UNL     1       6.514   9.065  81.424  1.00  0.00     0.000 C 
BRANCH   4   5
ATOM      5  C   UNL     1       7.651   8.436  80.600  1.00  0.00     0.006 C 
BRANCH   5   6
ATOM      6  C   UNL     1       7.323   7.022  80.109  1.00  0.00     0.053 C 
BRANCH   6   7
ATOM      7  C   UNL     1       8.534   6.382  79.508  1.00  0.00     0.041 C 
ATOM      8  O   UNL     1       9.332   7.063  78.814  1.00  0.00    -0.550 OA
ATOM      9  O   UNL     1       8.756   5.021  79.676  1.00  0.00    -0.550 OA
ENDBRANCH   6   7
ENDBRANCH   5   6
ENDBRANCH   4   5
ENDBRANCH   3   4
ENDBRANCH   2   3
ENDBRANCH   1   2
BRANCH   1  10
ATOM     10  C   UNL     1       2.901  10.685  83.186  1.00  0.00     0.027 C 
BRANCH  10  11
ATOM     11  C   UNL     1       1.747   9.876  82.645  1.00  0.00    -0.031 C 
ATOM     12  C   UNL     1       0.527   9.809  83.209  1.00  0.00    -0.031 C 
BRANCH  12  13
ATOM     13  C   UNL     1       0.091  10.610  84.411  1.00  0.00     0.027 C 
BRANCH  13  14
ATOM     14  C   UNL     1      -0.389   9.708  85.559  1.00  0.00     0.004 C 
BRANCH  14  15
ATOM     15  C   UNL     1       0.093   8.256  85.394  1.00  0.00     0.000 C 
BRANCH  15  16
ATOM     16  C   UNL     1       1.121   7.844  86.463  1.00  0.00    -0.000 C 
BRANCH  16  17
ATOM     17  C   UNL     1       2.580   8.206  86.132  1.00  0.00    -0.003 C 
ATOM     18  C   UNL     1       3.029   9.519  86.772  1.00  0.00     0.004 C 
ENDBRANCH  16  17
ENDBRANCH  15  16
ENDBRANCH  14  15
ENDBRANCH  13  14
ENDBRANCH  12  13
ENDBRANCH  10  11
ENDBRANCH   1  10
TORSDOF 13
ENDMDL
MODEL 9
REMARK VINA RESULT:    -4.373      3.085      7.658
REMARK INTER + INTRA:          -8.938
REMARK INTER:                  -7.947
REMARK INTRA:                  -0.991
REMARK UNBOUND:                -1.242
REMARK SMILES CCCCCCC=CCCCCCCCC(=O)[O-]
REMARK SMILES IDX 10 1 11 2 12 3 13 4 14 5 15 6 16 7 17 8 18 9 9 10 8 11 7 12
REMARK SMILES IDX 6 13 5 14 4 15 3 16 2 17 1 18
REMARK H PARENT
REMARK Flexibility Score: inf
ROOT
ATOM      1  C   UNL     1       2.262   9.938  82.804  1.00  0.00     0.004 C 
ENDROOT
BRANCH   1   2
ATOM      2  C   UNL     1       1.517   9.974  84.147  1.00  0.00     0.000 C 
BRANCH   2   3
ATOM      3  C   UNL     1       0.230   9.139  84.086  1.00  0.00     0.000 C 
BRANCH   3   4
ATOM      4  C   UNL     1       0.246   7.969  85.094  1.00  0.00     0.000 C 
BRANCH   4   5
ATOM      5  C   UNL     1       1.581   7.821  85.843  1.00  0.00     0.006 C 
BRANCH   5   6
ATOM      6  C   UNL     1       2.422   6.642  85.339  1.00  0.00     0.053 C 
BRANCH   6   7
ATOM      7  C   UNL     1       2.130   5.412  86.138  1.00  0.00     0.041 C 
ATOM      8  O   UNL     1       1.212   5.419  86.999  1.00  0.00    -0.550 OA
ATOM      9  O   UNL     1       2.904   4.271  85.966  1.00  0.00    -0.550 OA
ENDBRANCH   6   7
ENDBRANCH   5   6
ENDBRANCH   4   5
ENDBRANCH   3   4
ENDBRANCH   2   3
ENDBRANCH   1   2
BRANCH   1  10
ATOM     10  C   UNL     1       3.774   9.734  82.985  1.00  0.00     0.027 C 
BRANCH  10  11
ATOM     11  C   UNL     1       4.569  10.443  81.915  1.00  0.00    -0.031 C 
ATOM     12  C   UNL     1       5.762  10.033  81.448  1.00  0.00    -0.031 C 
BRANCH  12  13
ATOM     13  C   UNL     1       6.444   8.747  81.847  1.00  0.00     0.027 C 
BRANCH  13  14
ATOM     14  C   UNL     1       6.427   7.712  80.712  1.00  0.00     0.004 C 
BRANCH  14  15
ATOM     15  C   UNL     1       7.334   8.125  79.539  1.00  0.00     0.000 C 
BRANCH  15  16
ATOM     16  C   UNL     1       8.598   7.255  79.426  1.00  0.00    -0.000 C 
BRANCH  16  17
ATOM     17  C   UNL     1       9.926   8.034  79.470  1.00  0.00    -0.003 C 
ATOM     18  C   UNL     1       9.780   9.431  80.071  1.00  0.00     0.004 C 
ENDBRANCH  16  17
ENDBRANCH  15  16
ENDBRANCH  14  15
ENDBRANCH  13  14
ENDBRANCH  12  13
ENDBRANCH  10  11
ENDBRANCH   1  10
TORSDOF 13
ENDMDL
